MODEL 1
REMARK VINA RESULT:      -8.8      0.000      0.000
REMARK SMILES CC[C@H](C)CN(CC)c1nc(C(=O)OCCOCCOCCOCCOC(=O)c2ccc(-c3c4nc(c(-c5c(F)c(F)c(F)c(F)c5F)c5ccc([nH]5)c(-c5c(F)c(F)c(F)c(F)c5F)c5nc(c(-c6c(F)c(F)c(F)c(F)c6F)c6ccc3[nH]6)C=C5)C=C4)cc2)cc2ccccc12
REMARK SMILES IDX 19 1 18 2 17 3 16 4 15 5 14 6 12 7 13 8 11 9 9 10 10 11
REMARK SMILES IDX 98 12 93 13 97 14 92 15 94 16 96 17 95 18 6 19 5 20 3 21
REMARK SMILES IDX 4 22 2 23 1 24 7 25 8 26 20 27 21 28 22 29 23 30 24 31 25 32
REMARK SMILES IDX 26 33 27 34 28 35 29 36 30 37 91 38 31 39 90 40 32 41 33 42
REMARK SMILES IDX 34 43 84 44 35 45 89 46 83 47 85 48 36 49 88 50 82 51 81 52
REMARK SMILES IDX 37 54 69 55 49 56 68 57 50 58 53 59 67 60 86 61 51 62 52 63
REMARK SMILES IDX 66 65 87 66 54 67 38 68 39 69 47 70 40 71 41 72 45 73 48 74
REMARK SMILES IDX 42 75 43 76 46 77 44 78 70 79 71 80 79 81 72 82 73 83 77 84
REMARK SMILES IDX 80 85 74 86 75 87 78 88 76 89 55 90 56 91 64 92 57 93 58 94
REMARK SMILES IDX 62 95 65 96 59 97 60 98 63 99 61 100
REMARK H PARENT 85 53 53 64
REMARK Flexibility Score: inf
ROOT
ATOM      1  C   UNL A   1      34.475  31.996  28.757  1.00  0.00     0.188 C 
ENDROOT
BRANCH   1   2
ATOM      2  C   UNL A   1      35.041  31.104  27.621  1.00  0.00     0.188 C 
BRANCH   2   3
ATOM      3  O   UNL A   1      34.074  30.353  26.905  1.00  0.00    -0.376 OA
BRANCH   3   4
ATOM      4  C   UNL A   1      32.701  30.660  27.037  1.00  0.00     0.202 C 
BRANCH   4   5
ATOM      5  C   UNL A   1      31.766  30.168  25.921  1.00  0.00     0.261 C 
BRANCH   5   6
ATOM      6  O   UNL A   1      31.855  28.770  25.614  1.00  0.00    -0.459 OA
BRANCH   6   7
ATOM      7  C   UNL A   1      31.238  28.383  24.475  1.00  0.00     0.357 C 
ATOM      8  O   UNL A   1      30.356  29.005  23.900  1.00  0.00    -0.244 OA
BRANCH   7   9
ATOM      9  C   UNL A   1      31.919  27.199  23.879  1.00  0.00     0.151 A 
ATOM     10  C   UNL A   1      32.851  25.080  24.118  1.00  0.00     0.137 A 
ATOM     11  N   UNL A   1      32.386  26.217  24.692  1.00  0.00    -0.223 NA
ATOM     12  C   UNL A   1      32.704  24.882  22.718  1.00  0.00     0.024 A 
ATOM     13  C   UNL A   1      32.464  26.006  21.906  1.00  0.00    -0.012 A 
ATOM     14  C   UNL A   1      32.770  23.633  22.067  1.00  0.00     0.012 A 
ATOM     15  C   UNL A   1      32.047  27.184  22.504  1.00  0.00     0.045 A 
ATOM     16  C   UNL A   1      32.611  25.918  20.512  1.00  0.00     0.009 A 
ATOM     17  C   UNL A   1      32.866  23.535  20.679  1.00  0.00     0.001 A 
ATOM     18  C   UNL A   1      32.854  24.689  19.906  1.00  0.00     0.001 A 
BRANCH  10  19
ATOM     19  N   UNL A   1      33.495  24.122  24.921  1.00  0.00    -0.356 N 
BRANCH  19  20
ATOM     20  C   UNL A   1      34.966  23.856  24.777  1.00  0.00     0.121 C 
BRANCH  20  21
ATOM     21  C   UNL A   1      35.413  22.659  23.900  1.00  0.00     0.005 C 
ATOM     22  C   UNL A   1      36.755  22.945  23.214  1.00  0.00     0.009 C 
BRANCH  21  23
ATOM     23  C   UNL A   1      35.482  21.322  24.681  1.00  0.00     0.002 C 
ATOM     24  C   UNL A   1      35.912  21.500  26.140  1.00  0.00     0.004 C 
ENDBRANCH  21  23
ENDBRANCH  20  21
ENDBRANCH  19  20
BRANCH  19  25
ATOM     25  C   UNL A   1      32.982  24.023  26.304  1.00  0.00     0.114 C 
ATOM     26  C   UNL A   1      32.456  22.647  26.706  1.00  0.00     0.027 C 
ENDBRANCH  19  25
ENDBRANCH  10  19
ENDBRANCH   7   9
ENDBRANCH   6   7
ENDBRANCH   5   6
ENDBRANCH   4   5
ENDBRANCH   3   4
ENDBRANCH   2   3
ENDBRANCH   1   2
BRANCH   1  27
ATOM     27  O   UNL A   1      34.023  33.334  28.546  1.00  0.00    -0.377 OA
BRANCH  27  28
ATOM     28  C   UNL A   1      34.572  34.375  29.340  1.00  0.00     0.188 C 
BRANCH  28  29
ATOM     29  C   UNL A   1      33.509  35.259  30.023  1.00  0.00     0.188 C 
BRANCH  29  30
ATOM     30  O   UNL A   1      33.399  35.006  31.413  1.00  0.00    -0.376 OA
BRANCH  30  31
ATOM     31  C   UNL A   1      34.237  34.033  32.010  1.00  0.00     0.202 C 
BRANCH  31  32
ATOM     32  C   UNL A   1      35.684  34.329  32.451  1.00  0.00     0.261 C 
BRANCH  32  33
ATOM     33  O   UNL A   1      36.478  33.246  32.951  1.00  0.00    -0.460 OA
BRANCH  33  34
ATOM     34  C   UNL A   1      36.434  32.068  32.302  1.00  0.00     0.338 C 
ATOM     35  O   UNL A   1      35.445  31.402  32.036  1.00  0.00    -0.246 OA
BRANCH  34  36
ATOM     36  C   UNL A   1      37.795  31.802  31.792  1.00  0.00     0.060 A 
ATOM     37  C   UNL A   1      38.154  32.273  30.520  1.00  0.00     0.016 A 
ATOM     38  C   UNL A   1      38.723  31.114  32.578  1.00  0.00     0.016 A 
ATOM     39  C   UNL A   1      39.431  32.023  30.018  1.00  0.00     0.010 A 
ATOM     40  C   UNL A   1      39.993  30.842  32.063  1.00  0.00     0.010 A 
ATOM     41  C   UNL A   1      40.339  31.265  30.766  1.00  0.00    -0.014 A 
BRANCH  41  42
ATOM     42  C   UNL A   1      41.564  30.738  30.118  1.00  0.00     0.031 A 
ATOM     43  C   UNL A   1      41.505  29.369  29.500  1.00  0.00     0.074 A 
ATOM     44  C   UNL A   1      42.695  31.462  30.055  1.00  0.00     0.049 A 
ATOM     45  N   UNL A   1      42.450  28.670  28.923  1.00  0.00    -0.248 NA
ATOM     46  C   UNL A   1      40.198  28.691  29.544  1.00  0.00     0.031 C 
ATOM     47  C   UNL A   1      42.861  32.816  30.576  1.00  0.00     0.029 A 
ATOM     48  N   UNL A   1      43.923  31.148  29.529  1.00  0.00    -0.354 N 
ATOM     49  C   UNL A   1      41.855  27.474  28.545  1.00  0.00     0.074 A 
ATOM     50  C   UNL A   1      40.479  27.524  28.987  1.00  0.00     0.031 C 
ATOM     51  C   UNL A   1      44.127  33.213  30.355  1.00  0.00     0.029 A 
ATOM     52  C   UNL A   1      44.866  32.128  29.711  1.00  0.00     0.049 A 
ATOM     53  H   UNL A   1      44.110  30.299  29.065  1.00  0.00     0.167 HD
ATOM     54  C   UNL A   1      42.406  26.431  27.880  1.00  0.00     0.037 A 
ATOM     55  C   UNL A   1      46.180  32.134  29.412  1.00  0.00     0.037 A 
ATOM     56  C   UNL A   1      43.777  26.385  27.446  1.00  0.00     0.049 A 
ATOM     57  C   UNL A   1      46.791  30.925  28.745  1.00  0.00     0.074 A 
ATOM     58  C   UNL A   1      44.428  25.383  26.751  1.00  0.00     0.029 A 
ATOM     59  N   UNL A   1      44.712  27.384  27.678  1.00  0.00    -0.354 N 
ATOM     60  N   UNL A   1      46.219  29.808  28.365  1.00  0.00    -0.248 NA
ATOM     61  C   UNL A   1      48.232  30.982  28.461  1.00  0.00     0.031 C 
ATOM     62  C   UNL A   1      45.773  25.745  26.621  1.00  0.00     0.029 A 
ATOM     63  C   UNL A   1      45.942  27.007  27.167  1.00  0.00     0.049 A 
ATOM     64  H   UNL A   1      44.527  28.236  28.137  1.00  0.00     0.167 HD
ATOM     65  C   UNL A   1      47.218  29.048  27.769  1.00  0.00     0.074 A 
ATOM     66  C   UNL A   1      48.430  29.837  27.825  1.00  0.00     0.031 C 
ATOM     67  C   UNL A   1      47.139  27.809  27.222  1.00  0.00     0.037 A 
BRANCH  54  68
ATOM     68  C   UNL A   1      41.532  25.240  27.613  1.00  0.00     0.064 A 
ATOM     69  C   UNL A   1      41.714  24.020  28.284  1.00  0.00     0.173 A 
ATOM     70  C   UNL A   1      40.479  25.328  26.689  1.00  0.00     0.173 A 
ATOM     71  F   UNL A   1      42.715  23.877  29.166  1.00  0.00    -0.203 F 
ATOM     72  C   UNL A   1      40.892  22.927  28.020  1.00  0.00     0.198 A 
ATOM     73  C   UNL A   1      39.638  24.243  26.455  1.00  0.00     0.198 A 
ATOM     74  F   UNL A   1      40.259  26.469  26.022  1.00  0.00    -0.203 F 
ATOM     75  F   UNL A   1      41.118  21.758  28.635  1.00  0.00    -0.200 F 
ATOM     76  C   UNL A   1      39.850  23.042  27.112  1.00  0.00     0.200 A 
ATOM     77  F   UNL A   1      38.622  24.361  25.588  1.00  0.00    -0.200 F 
ATOM     78  F   UNL A   1      39.055  21.992  26.866  1.00  0.00    -0.200 F 
ENDBRANCH  54  68
BRANCH  55  79
ATOM     79  C   UNL A   1      47.019  33.315  29.755  1.00  0.00     0.064 A 
ATOM     80  C   UNL A   1      47.245  34.338  28.823  1.00  0.00     0.173 A 
ATOM     81  C   UNL A   1      47.637  33.428  31.008  1.00  0.00     0.173 A 
ATOM     82  F   UNL A   1      46.699  34.263  27.601  1.00  0.00    -0.203 F 
ATOM     83  C   UNL A   1      48.074  35.416  29.125  1.00  0.00     0.198 A 
ATOM     84  C   UNL A   1      48.439  34.524  31.321  1.00  0.00     0.198 A 
ATOM     85  F   UNL A   1      47.460  32.475  31.935  1.00  0.00    -0.203 F 
ATOM     86  F   UNL A   1      48.318  36.351  28.196  1.00  0.00    -0.200 F 
ATOM     87  C   UNL A   1      48.666  35.512  30.375  1.00  0.00     0.200 A 
ATOM     88  F   UNL A   1      48.999  34.618  32.534  1.00  0.00    -0.200 F 
ATOM     89  F   UNL A   1      49.462  36.550  30.664  1.00  0.00    -0.200 F 
ENDBRANCH  55  79
BRANCH  67  90
ATOM     90  C   UNL A   1      48.385  27.245  26.594  1.00  0.00     0.064 A 
ATOM     91  C   UNL A   1      49.354  26.565  27.347  1.00  0.00     0.173 A 
ATOM     92  C   UNL A   1      48.588  27.352  25.209  1.00  0.00     0.173 A 
ATOM     93  F   UNL A   1      49.215  26.445  28.676  1.00  0.00    -0.203 F 
ATOM     94  C   UNL A   1      50.494  26.043  26.742  1.00  0.00     0.198 A 
ATOM     95  C   UNL A   1      49.711  26.795  24.602  1.00  0.00     0.198 A 
ATOM     96  F   UNL A   1      47.689  27.982  24.439  1.00  0.00    -0.203 F 
ATOM     97  F   UNL A   1      51.434  25.447  27.489  1.00  0.00    -0.200 F 
ATOM     98  C   UNL A   1      50.667  26.149  25.370  1.00  0.00     0.200 A 
ATOM     99  F   UNL A   1      49.865  26.882  23.273  1.00  0.00    -0.200 F 
ATOM    100  F   UNL A   1      51.761  25.637  24.788  1.00  0.00    -0.200 F 
ENDBRANCH  67  90
ENDBRANCH  41  42
ENDBRANCH  34  36
ENDBRANCH  33  34
ENDBRANCH  32  33
ENDBRANCH  31  32
ENDBRANCH  30  31
ENDBRANCH  29  30
ENDBRANCH  28  29
ENDBRANCH  27  28
ENDBRANCH   1  27
TORSDOF 25
ENDMDL
MODEL 2
REMARK VINA RESULT:      -8.7      4.045      6.462
REMARK SMILES CC[C@H](C)CN(CC)c1nc(C(=O)OCCOCCOCCOCCOC(=O)c2ccc(-c3c4nc(c(-c5c(F)c(F)c(F)c(F)c5F)c5ccc([nH]5)c(-c5c(F)c(F)c(F)c(F)c5F)c5nc(c(-c6c(F)c(F)c(F)c(F)c6F)c6ccc3[nH]6)C=C5)C=C4)cc2)cc2ccccc12
REMARK SMILES IDX 19 1 18 2 17 3 16 4 15 5 14 6 12 7 13 8 11 9 9 10 10 11
REMARK SMILES IDX 98 12 93 13 97 14 92 15 94 16 96 17 95 18 6 19 5 20 3 21
REMARK SMILES IDX 4 22 2 23 1 24 7 25 8 26 20 27 21 28 22 29 23 30 24 31 25 32
REMARK SMILES IDX 26 33 27 34 28 35 29 36 30 37 91 38 31 39 90 40 32 41 33 42
REMARK SMILES IDX 34 43 84 44 35 45 89 46 83 47 85 48 36 49 88 50 82 51 81 52
REMARK SMILES IDX 37 54 69 55 49 56 68 57 50 58 53 59 67 60 86 61 51 62 52 63
REMARK SMILES IDX 66 65 87 66 54 67 38 68 39 69 47 70 40 71 41 72 45 73 48 74
REMARK SMILES IDX 42 75 43 76 46 77 44 78 70 79 71 80 79 81 72 82 73 83 77 84
REMARK SMILES IDX 80 85 74 86 75 87 78 88 76 89 55 90 56 91 64 92 57 93 58 94
REMARK SMILES IDX 62 95 65 96 59 97 60 98 63 99 61 100
REMARK H PARENT 85 53 53 64
REMARK Flexibility Score: inf
ROOT
ATOM      1  C   UNL A   1      34.568  31.774  28.032  1.00  0.00     0.188 C 
ENDROOT
BRANCH   1   2
ATOM      2  C   UNL A   1      35.834  30.933  27.721  1.00  0.00     0.188 C 
BRANCH   2   3
ATOM      3  O   UNL A   1      36.367  30.214  28.820  1.00  0.00    -0.376 OA
BRANCH   3   4
ATOM      4  C   UNL A   1      37.080  29.014  28.602  1.00  0.00     0.202 C 
BRANCH   4   5
ATOM      5  C   UNL A   1      38.594  29.135  28.368  1.00  0.00     0.261 C 
BRANCH   5   6
ATOM      6  O   UNL A   1      39.418  28.838  29.504  1.00  0.00    -0.459 OA
BRANCH   6   7
ATOM      7  C   UNL A   1      39.360  27.563  29.948  1.00  0.00     0.357 C 
ATOM      8  O   UNL A   1      38.736  27.181  30.929  1.00  0.00    -0.244 OA
BRANCH   7   9
ATOM      9  C   UNL A   1      39.979  26.630  28.965  1.00  0.00     0.151 A 
ATOM     10  C   UNL A   1      41.873  25.772  27.919  1.00  0.00     0.137 A 
ATOM     11  N   UNL A   1      41.304  26.733  28.688  1.00  0.00    -0.223 NA
ATOM     12  C   UNL A   1      41.121  24.623  27.551  1.00  0.00     0.024 A 
ATOM     13  C   UNL A   1      39.718  24.687  27.634  1.00  0.00    -0.012 A 
ATOM     14  C   UNL A   1      41.674  23.402  27.114  1.00  0.00     0.012 A 
ATOM     15  C   UNL A   1      39.139  25.707  28.372  1.00  0.00     0.045 A 
ATOM     16  C   UNL A   1      38.925  23.711  27.009  1.00  0.00     0.009 A 
ATOM     17  C   UNL A   1      40.886  22.406  26.536  1.00  0.00     0.001 A 
ATOM     18  C   UNL A   1      39.514  22.594  26.424  1.00  0.00     0.001 A 
BRANCH  10  19
ATOM     19  N   UNL A   1      43.197  25.943  27.477  1.00  0.00    -0.356 N 
BRANCH  19  20
ATOM     20  C   UNL A   1      43.522  26.895  26.362  1.00  0.00     0.121 C 
BRANCH  20  21
ATOM     21  C   UNL A   1      43.717  28.393  26.709  1.00  0.00     0.005 C 
ATOM     22  C   UNL A   1      45.136  28.862  26.362  1.00  0.00     0.009 C 
BRANCH  21  23
ATOM     23  C   UNL A   1      42.667  29.315  26.041  1.00  0.00     0.002 C 
ATOM     24  C   UNL A   1      41.290  28.659  25.904  1.00  0.00     0.004 C 
ENDBRANCH  21  23
ENDBRANCH  20  21
ENDBRANCH  19  20
BRANCH  19  25
ATOM     25  C   UNL A   1      44.221  25.863  28.539  1.00  0.00     0.114 C 
ATOM     26  C   UNL A   1      43.923  24.864  29.656  1.00  0.00     0.027 C 
ENDBRANCH  19  25
ENDBRANCH  10  19
ENDBRANCH   7   9
ENDBRANCH   6   7
ENDBRANCH   5   6
ENDBRANCH   4   5
ENDBRANCH   3   4
ENDBRANCH   2   3
ENDBRANCH   1   2
BRANCH   1  27
ATOM     27  O   UNL A   1      34.610  33.012  28.743  1.00  0.00    -0.377 OA
BRANCH  27  28
ATOM     28  C   UNL A   1      35.336  33.077  29.961  1.00  0.00     0.188 C 
BRANCH  28  29
ATOM     29  C   UNL A   1      34.600  33.840  31.081  1.00  0.00     0.188 C 
BRANCH  29  30
ATOM     30  O   UNL A   1      34.262  33.009  32.178  1.00  0.00    -0.376 OA
BRANCH  30  31
ATOM     31  C   UNL A   1      35.265  32.649  33.111  1.00  0.00     0.202 C 
BRANCH  31  32
ATOM     32  C   UNL A   1      35.767  33.604  34.212  1.00  0.00     0.261 C 
BRANCH  32  33
ATOM     33  O   UNL A   1      37.164  33.600  34.531  1.00  0.00    -0.460 OA
BRANCH  33  34
ATOM     34  C   UNL A   1      37.612  32.705  35.431  1.00  0.00     0.338 C 
ATOM     35  O   UNL A   1      37.083  32.381  36.483  1.00  0.00    -0.246 OA
BRANCH  34  36
ATOM     36  C   UNL A   1      38.781  32.031  34.828  1.00  0.00     0.060 A 
ATOM     37  C   UNL A   1      40.066  32.339  35.298  1.00  0.00     0.016 A 
ATOM     38  C   UNL A   1      38.607  31.078  33.821  1.00  0.00     0.016 A 
ATOM     39  C   UNL A   1      41.182  31.720  34.734  1.00  0.00     0.010 A 
ATOM     40  C   UNL A   1      39.727  30.478  33.240  1.00  0.00     0.010 A 
ATOM     41  C   UNL A   1      41.021  30.825  33.671  1.00  0.00    -0.014 A 
BRANCH  41  42
ATOM     42  C   UNL A   1      42.201  30.411  32.874  1.00  0.00     0.031 A 
ATOM     43  C   UNL A   1      42.869  29.110  33.221  1.00  0.00     0.074 A 
ATOM     44  C   UNL A   1      42.658  31.156  31.853  1.00  0.00     0.049 A 
ATOM     45  N   UNL A   1      43.940  28.557  32.710  1.00  0.00    -0.248 NA
ATOM     46  C   UNL A   1      42.243  28.324  34.298  1.00  0.00     0.031 C 
ATOM     47  C   UNL A   1      42.069  32.412  31.394  1.00  0.00     0.029 A 
ATOM     48  N   UNL A   1      43.733  30.962  31.023  1.00  0.00    -0.354 N 
ATOM     49  C   UNL A   1      44.118  27.369  33.406  1.00  0.00     0.074 A 
ATOM     50  C   UNL A   1      43.069  27.295  34.398  1.00  0.00     0.031 C 
ATOM     51  C   UNL A   1      42.801  32.885  30.369  1.00  0.00     0.029 A 
ATOM     52  C   UNL A   1      43.927  31.984  30.127  1.00  0.00     0.049 A 
ATOM     53  H   UNL A   1      44.311  30.166  31.066  1.00  0.00     0.167 HD
ATOM     54  C   UNL A   1      45.067  26.421  33.227  1.00  0.00     0.037 A 
ATOM     55  C   UNL A   1      44.917  32.177  29.233  1.00  0.00     0.037 A 
ATOM     56  C   UNL A   1      46.112  26.501  32.241  1.00  0.00     0.049 A 
ATOM     57  C   UNL A   1      46.012  31.145  29.109  1.00  0.00     0.074 A 
ATOM     58  C   UNL A   1      47.112  25.587  31.967  1.00  0.00     0.029 A 
ATOM     59  N   UNL A   1      46.296  27.568  31.372  1.00  0.00    -0.354 N 
ATOM     60  N   UNL A   1      46.161  30.011  29.750  1.00  0.00    -0.248 NA
ATOM     61  C   UNL A   1      47.074  31.420  28.130  1.00  0.00     0.031 C 
ATOM     62  C   UNL A   1      47.941  26.129  30.980  1.00  0.00     0.029 A 
ATOM     63  C   UNL A   1      47.414  27.348  30.584  1.00  0.00     0.049 A 
ATOM     64  H   UNL A   1      45.717  28.364  31.324  1.00  0.00     0.167 HD
ATOM     65  C   UNL A   1      47.309  29.424  29.230  1.00  0.00     0.074 A 
ATOM     66  C   UNL A   1      47.809  30.321  28.211  1.00  0.00     0.031 C 
ATOM     67  C   UNL A   1      47.895  28.247  29.565  1.00  0.00     0.037 A 
BRANCH  54  68
ATOM     68  C   UNL A   1      45.040  25.230  34.142  1.00  0.00     0.064 A 
ATOM     69  C   UNL A   1      44.403  24.032  33.782  1.00  0.00     0.173 A 
ATOM     70  C   UNL A   1      45.683  25.281  35.388  1.00  0.00     0.173 A 
ATOM     71  F   UNL A   1      43.760  23.935  32.609  1.00  0.00    -0.203 F 
ATOM     72  C   UNL A   1      44.390  22.940  34.647  1.00  0.00     0.198 A 
ATOM     73  C   UNL A   1      45.697  24.175  36.235  1.00  0.00     0.198 A 
ATOM     74  F   UNL A   1      46.308  26.401  35.781  1.00  0.00    -0.203 F 
ATOM     75  F   UNL A   1      43.730  21.825  34.304  1.00  0.00    -0.200 F 
ATOM     76  C   UNL A   1      45.043  23.011  35.868  1.00  0.00     0.200 A 
ATOM     77  F   UNL A   1      46.342  24.241  37.407  1.00  0.00    -0.200 F 
ATOM     78  F   UNL A   1      45.036  21.956  36.695  1.00  0.00    -0.200 F 
ENDBRANCH  54  68
BRANCH  55  79
ATOM     79  C   UNL A   1      44.935  33.406  28.393  1.00  0.00     0.064 A 
ATOM     80  C   UNL A   1      45.475  34.606  28.876  1.00  0.00     0.173 A 
ATOM     81  C   UNL A   1      44.385  33.413  27.103  1.00  0.00     0.173 A 
ATOM     82  F   UNL A   1      45.988  34.659  30.114  1.00  0.00    -0.203 F 
ATOM     83  C   UNL A   1      45.443  35.770  28.110  1.00  0.00     0.198 A 
ATOM     84  C   UNL A   1      44.385  34.569  26.325  1.00  0.00     0.198 A 
ATOM     85  F   UNL A   1      43.851  32.293  26.593  1.00  0.00    -0.203 F 
ATOM     86  F   UNL A   1      45.914  36.917  28.619  1.00  0.00    -0.200 F 
ATOM     87  C   UNL A   1      44.903  35.749  26.834  1.00  0.00     0.200 A 
ATOM     88  F   UNL A   1      43.873  34.541  25.087  1.00  0.00    -0.200 F 
ATOM     89  F   UNL A   1      44.874  36.869  26.098  1.00  0.00    -0.200 F 
ENDBRANCH  55  79
BRANCH  67  90
ATOM     90  C   UNL A   1      49.116  27.833  28.790  1.00  0.00     0.064 A 
ATOM     91  C   UNL A   1      49.031  27.035  27.639  1.00  0.00     0.173 A 
ATOM     92  C   UNL A   1      50.387  28.280  29.184  1.00  0.00     0.173 A 
ATOM     93  F   UNL A   1      47.842  26.571  27.226  1.00  0.00    -0.203 F 
ATOM     94  C   UNL A   1      50.175  26.673  26.932  1.00  0.00     0.198 A 
ATOM     95  C   UNL A   1      51.525  27.948  28.453  1.00  0.00     0.198 A 
ATOM     96  F   UNL A   1      50.527  29.054  30.270  1.00  0.00    -0.203 F 
ATOM     97  F   UNL A   1      50.074  25.864  25.869  1.00  0.00    -0.200 F 
ATOM     98  C   UNL A   1      51.419  27.137  27.333  1.00  0.00     0.200 A 
ATOM     99  F   UNL A   1      52.723  28.414  28.832  1.00  0.00    -0.200 F 
ATOM    100  F   UNL A   1      52.517  26.795  26.645  1.00  0.00    -0.200 F 
ENDBRANCH  67  90
ENDBRANCH  41  42
ENDBRANCH  34  36
ENDBRANCH  33  34
ENDBRANCH  32  33
ENDBRANCH  31  32
ENDBRANCH  30  31
ENDBRANCH  29  30
ENDBRANCH  28  29
ENDBRANCH  27  28
ENDBRANCH   1  27
TORSDOF 25
ENDMDL
MODEL 3
REMARK VINA RESULT:      -8.6      4.446     10.629
REMARK SMILES CC[C@H](C)CN(CC)c1nc(C(=O)OCCOCCOCCOCCOC(=O)c2ccc(-c3c4nc(c(-c5c(F)c(F)c(F)c(F)c5F)c5ccc([nH]5)c(-c5c(F)c(F)c(F)c(F)c5F)c5nc(c(-c6c(F)c(F)c(F)c(F)c6F)c6ccc3[nH]6)C=C5)C=C4)cc2)cc2ccccc12
REMARK SMILES IDX 19 1 18 2 17 3 16 4 15 5 14 6 12 7 13 8 11 9 9 10 10 11
REMARK SMILES IDX 98 12 93 13 97 14 92 15 94 16 96 17 95 18 6 19 5 20 3 21
REMARK SMILES IDX 4 22 2 23 1 24 7 25 8 26 20 27 21 28 22 29 23 30 24 31 25 32
REMARK SMILES IDX 26 33 27 34 28 35 29 36 30 37 91 38 31 39 90 40 32 41 33 42
REMARK SMILES IDX 34 43 84 44 35 45 89 46 83 47 85 48 36 49 88 50 82 51 81 52
REMARK SMILES IDX 37 54 69 55 49 56 68 57 50 58 53 59 67 60 86 61 51 62 52 63
REMARK SMILES IDX 66 65 87 66 54 67 38 68 39 69 47 70 40 71 41 72 45 73 48 74
REMARK SMILES IDX 42 75 43 76 46 77 44 78 70 79 71 80 79 81 72 82 73 83 77 84
REMARK SMILES IDX 80 85 74 86 75 87 78 88 76 89 55 90 56 91 64 92 57 93 58 94
REMARK SMILES IDX 62 95 65 96 59 97 60 98 63 99 61 100
REMARK H PARENT 85 53 53 64
REMARK Flexibility Score: inf
ROOT
ATOM      1  C   UNL A   1      40.443  22.980  27.811  1.00  0.00     0.188 C 
ENDROOT
BRANCH   1   2
ATOM      2  C   UNL A   1      39.374  23.500  26.814  1.00  0.00     0.188 C 
BRANCH   2   3
ATOM      3  O   UNL A   1      39.141  22.667  25.690  1.00  0.00    -0.376 OA
BRANCH   3   4
ATOM      4  C   UNL A   1      38.280  21.552  25.802  1.00  0.00     0.202 C 
BRANCH   4   5
ATOM      5  C   UNL A   1      37.478  21.162  24.551  1.00  0.00     0.261 C 
BRANCH   5   6
ATOM      6  O   UNL A   1      36.131  21.652  24.504  1.00  0.00    -0.459 OA
BRANCH   6   7
ATOM      7  C   UNL A   1      35.949  22.785  23.789  1.00  0.00     0.357 C 
ATOM      8  O   UNL A   1      36.588  23.109  22.797  1.00  0.00    -0.244 OA
BRANCH   7   9
ATOM      9  C   UNL A   1      34.718  23.499  24.232  1.00  0.00     0.151 A 
ATOM     10  C   UNL A   1      33.095  25.128  23.873  1.00  0.00     0.137 A 
ATOM     11  N   UNL A   1      34.301  24.598  23.551  1.00  0.00    -0.223 NA
ATOM     12  C   UNL A   1      32.245  24.451  24.789  1.00  0.00     0.024 A 
ATOM     13  C   UNL A   1      32.815  23.487  25.642  1.00  0.00    -0.012 A 
ATOM     14  C   UNL A   1      30.856  24.660  24.908  1.00  0.00     0.012 A 
ATOM     15  C   UNL A   1      34.074  22.992  25.344  1.00  0.00     0.045 A 
ATOM     16  C   UNL A   1      32.100  23.014  26.755  1.00  0.00     0.009 A 
ATOM     17  C   UNL A   1      30.129  24.151  25.985  1.00  0.00     0.001 A 
ATOM     18  C   UNL A   1      30.771  23.381  26.945  1.00  0.00     0.001 A 
BRANCH  10  19
ATOM     19  N   UNL A   1      32.716  26.359  23.308  1.00  0.00    -0.356 N 
BRANCH  19  20
ATOM     20  C   UNL A   1      31.999  27.395  24.123  1.00  0.00     0.121 C 
BRANCH  20  21
ATOM     21  C   UNL A   1      32.758  28.058  25.301  1.00  0.00     0.005 C 
ATOM     22  C   UNL A   1      32.427  29.552  25.404  1.00  0.00     0.009 C 
BRANCH  21  23
ATOM     23  C   UNL A   1      32.510  27.356  26.659  1.00  0.00     0.002 C 
ATOM     24  C   UNL A   1      31.665  28.193  27.623  1.00  0.00     0.004 C 
ENDBRANCH  21  23
ENDBRANCH  20  21
ENDBRANCH  19  20
BRANCH  19  25
ATOM     25  C   UNL A   1      33.664  26.903  22.312  1.00  0.00     0.114 C 
ATOM     26  C   UNL A   1      33.741  28.428  22.254  1.00  0.00     0.027 C 
ENDBRANCH  19  25
ENDBRANCH  10  19
ENDBRANCH   7   9
ENDBRANCH   6   7
ENDBRANCH   5   6
ENDBRANCH   4   5
ENDBRANCH   3   4
ENDBRANCH   2   3
ENDBRANCH   1   2
BRANCH   1  27
ATOM     27  O   UNL A   1      41.804  23.410  27.790  1.00  0.00    -0.377 OA
BRANCH  27  28
ATOM     28  C   UNL A   1      42.827  22.437  27.645  1.00  0.00     0.188 C 
BRANCH  28  29
ATOM     29  C   UNL A   1      42.384  21.185  26.862  1.00  0.00     0.188 C 
BRANCH  29  30
ATOM     30  O   UNL A   1      42.746  21.239  25.493  1.00  0.00    -0.376 OA
BRANCH  30  31
ATOM     31  C   UNL A   1      43.940  21.905  25.117  1.00  0.00     0.202 C 
BRANCH  31  32
ATOM     32  C   UNL A   1      43.947  23.262  24.386  1.00  0.00     0.261 C 
BRANCH  32  33
ATOM     33  O   UNL A   1      45.180  23.989  24.316  1.00  0.00    -0.460 OA
BRANCH  33  34
ATOM     34  C   UNL A   1      45.904  24.130  25.441  1.00  0.00     0.338 C 
ATOM     35  O   UNL A   1      46.856  23.454  25.801  1.00  0.00    -0.246 OA
BRANCH  34  36
ATOM     36  C   UNL A   1      45.462  25.382  26.089  1.00  0.00     0.060 A 
ATOM     37  C   UNL A   1      44.971  26.429  25.295  1.00  0.00     0.016 A 
ATOM     38  C   UNL A   1      45.506  25.512  27.480  1.00  0.00     0.016 A 
ATOM     39  C   UNL A   1      44.558  27.622  25.888  1.00  0.00     0.010 A 
ATOM     40  C   UNL A   1      45.116  26.716  28.071  1.00  0.00     0.010 A 
ATOM     41  C   UNL A   1      44.675  27.789  27.273  1.00  0.00    -0.014 A 
BRANCH  41  42
ATOM     42  C   UNL A   1      44.536  29.142  27.863  1.00  0.00     0.031 A 
ATOM     43  C   UNL A   1      45.689  30.096  27.725  1.00  0.00     0.074 A 
ATOM     44  C   UNL A   1      43.408  29.527  28.483  1.00  0.00     0.049 A 
ATOM     45  N   UNL A   1      45.831  31.309  28.196  1.00  0.00    -0.248 NA
ATOM     46  C   UNL A   1      46.846  29.611  26.954  1.00  0.00     0.031 C 
ATOM     47  C   UNL A   1      42.208  28.709  28.639  1.00  0.00     0.029 A 
ATOM     48  N   UNL A   1      43.096  30.709  29.107  1.00  0.00    -0.354 N 
ATOM     49  C   UNL A   1      47.091  31.726  27.784  1.00  0.00     0.074 A 
ATOM     50  C   UNL A   1      47.687  30.627  27.058  1.00  0.00     0.031 C 
ATOM     51  C   UNL A   1      41.291  29.412  29.329  1.00  0.00     0.029 A 
ATOM     52  C   UNL A   1      41.854  30.712  29.692  1.00  0.00     0.049 A 
ATOM     53  H   UNL A   1      43.705  31.483  29.132  1.00  0.00     0.167 HD
ATOM     54  C   UNL A   1      47.691  32.922  27.988  1.00  0.00     0.037 A 
ATOM     55  C   UNL A   1      41.256  31.649  30.454  1.00  0.00     0.037 A 
ATOM     56  C   UNL A   1      47.094  34.011  28.715  1.00  0.00     0.049 A 
ATOM     57  C   UNL A   1      41.980  32.943  30.737  1.00  0.00     0.074 A 
ATOM     58  C   UNL A   1      47.612  35.269  28.963  1.00  0.00     0.029 A 
ATOM     59  N   UNL A   1      45.848  33.964  29.323  1.00  0.00    -0.354 N 
ATOM     60  N   UNL A   1      43.159  33.343  30.323  1.00  0.00    -0.248 NA
ATOM     61  C   UNL A   1      41.285  33.918  31.589  1.00  0.00     0.031 C 
ATOM     62  C   UNL A   1      46.709  35.960  29.776  1.00  0.00     0.029 A 
ATOM     63  C   UNL A   1      45.594  35.161  29.972  1.00  0.00     0.049 A 
ATOM     64  H   UNL A   1      45.234  33.194  29.295  1.00  0.00     0.167 HD
ATOM     65  C   UNL A   1      43.330  34.624  30.835  1.00  0.00     0.074 A 
ATOM     66  C   UNL A   1      42.129  34.939  31.577  1.00  0.00     0.031 C 
ATOM     67  C   UNL A   1      44.387  35.465  30.700  1.00  0.00     0.037 A 
BRANCH  54  68
ATOM     68  C   UNL A   1      49.080  33.102  27.445  1.00  0.00     0.064 A 
ATOM     69  C   UNL A   1      50.212  32.648  28.138  1.00  0.00     0.173 A 
ATOM     70  C   UNL A   1      49.277  33.716  26.199  1.00  0.00     0.173 A 
ATOM     71  F   UNL A   1      50.081  32.068  29.341  1.00  0.00    -0.203 F 
ATOM     72  C   UNL A   1      51.491  32.827  27.616  1.00  0.00     0.198 A 
ATOM     73  C   UNL A   1      50.555  33.861  25.664  1.00  0.00     0.198 A 
ATOM     74  F   UNL A   1      48.230  34.167  25.493  1.00  0.00    -0.203 F 
ATOM     75  F   UNL A   1      52.561  32.432  28.320  1.00  0.00    -0.200 F 
ATOM     76  C   UNL A   1      51.661  33.426  26.377  1.00  0.00     0.200 A 
ATOM     77  F   UNL A   1      50.715  34.426  24.459  1.00  0.00    -0.200 F 
ATOM     78  F   UNL A   1      52.891  33.588  25.872  1.00  0.00    -0.200 F 
ENDBRANCH  54  68
BRANCH  55  79
ATOM     79  C   UNL A   1      39.904  31.397  31.023  1.00  0.00     0.064 A 
ATOM     80  C   UNL A   1      39.744  30.710  32.234  1.00  0.00     0.173 A 
ATOM     81  C   UNL A   1      38.744  31.810  30.352  1.00  0.00     0.173 A 
ATOM     82  F   UNL A   1      40.821  30.270  32.902  1.00  0.00    -0.203 F 
ATOM     83  C   UNL A   1      38.477  30.427  32.740  1.00  0.00     0.198 A 
ATOM     84  C   UNL A   1      37.478  31.556  30.875  1.00  0.00     0.198 A 
ATOM     85  F   UNL A   1      38.839  32.467  29.186  1.00  0.00    -0.203 F 
ATOM     86  F   UNL A   1      38.352  29.719  33.871  1.00  0.00    -0.200 F 
ATOM     87  C   UNL A   1      37.345  30.855  32.063  1.00  0.00     0.200 A 
ATOM     88  F   UNL A   1      36.388  31.982  30.224  1.00  0.00    -0.200 F 
ATOM     89  F   UNL A   1      36.127  30.583  32.551  1.00  0.00    -0.200 F 
ENDBRANCH  55  79
BRANCH  67  90
ATOM     90  C   UNL A   1      44.275  36.828  31.326  1.00  0.00     0.064 A 
ATOM     91  C   UNL A   1      43.841  37.946  30.599  1.00  0.00     0.173 A 
ATOM     92  C   UNL A   1      44.567  37.006  32.688  1.00  0.00     0.173 A 
ATOM     93  F   UNL A   1      43.560  37.835  29.292  1.00  0.00    -0.203 F 
ATOM     94  C   UNL A   1      43.735  39.196  31.203  1.00  0.00     0.198 A 
ATOM     95  C   UNL A   1      44.423  38.249  33.298  1.00  0.00     0.198 A 
ATOM     96  F   UNL A   1      44.976  35.969  33.434  1.00  0.00    -0.203 F 
ATOM     97  F   UNL A   1      43.372  40.262  30.475  1.00  0.00    -0.200 F 
ATOM     98  C   UNL A   1      44.017  39.345  32.553  1.00  0.00     0.200 A 
ATOM     99  F   UNL A   1      44.677  38.386  34.607  1.00  0.00    -0.200 F 
ATOM    100  F   UNL A   1      43.905  40.548  33.134  1.00  0.00    -0.200 F 
ENDBRANCH  67  90
ENDBRANCH  41  42
ENDBRANCH  34  36
ENDBRANCH  33  34
ENDBRANCH  32  33
ENDBRANCH  31  32
ENDBRANCH  30  31
ENDBRANCH  29  30
ENDBRANCH  28  29
ENDBRANCH  27  28
ENDBRANCH   1  27
TORSDOF 25
ENDMDL
