MODEL 1
REMARK VINA RESULT:     -10.4      0.000      0.000
REMARK SMILES Cc1cc(SCC(=O)OCCOCCOCCOCCOC(=O)c2ccc(-c3c4nc(c(-c5c(F)c(F)c(F)c(F)c5F)c5ccc([nH]5)c(-c5c(F)c(F)c(F)c(F)c5F)c5nc(c(-c6c(F)c(F)c(F)c(F)c6F)c6ccc3[nH]6)C=C5)C=C4)cc2)c2cc(C(F)(F)F)ccc2n1
REMARK SMILES IDX 14 1 13 2 12 3 11 4 10 5 9 6 7 7 8 8 6 9 5 10 4 11 1 12 2 13
REMARK SMILES IDX 3 14 97 15 96 16 87 17 95 18 88 19 94 20 89 21 90 22 91 23
REMARK SMILES IDX 92 24 93 25 15 26 16 27 17 28 18 29 19 30 20 31 21 32 22 33
REMARK SMILES IDX 23 34 24 35 25 36 86 37 26 38 85 39 27 40 28 41 29 42 79 43
REMARK SMILES IDX 30 44 84 45 78 46 80 47 31 48 83 49 77 50 76 51 32 53 64 54
REMARK SMILES IDX 44 55 63 56 45 57 48 58 62 59 81 60 46 61 47 62 61 64 82 65
REMARK SMILES IDX 49 66 33 67 34 68 42 69 35 70 36 71 40 72 43 73 37 74 38 75
REMARK SMILES IDX 41 76 39 77 65 78 66 79 74 80 67 81 68 82 72 83 75 84 69 85
REMARK SMILES IDX 70 86 73 87 71 88 50 89 51 90 59 91 52 92 53 93 57 94 60 95
REMARK SMILES IDX 54 96 55 97 58 98 56 99
REMARK H PARENT 80 52 48 63
REMARK Flexibility Score: inf
ROOT
ATOM      1  C   UNL A   1      34.373  30.221  27.259  1.00  0.00     0.188 C 
ENDROOT
BRANCH   1   2
ATOM      2  C   UNL A   1      33.070  30.093  26.448  1.00  0.00     0.188 C 
BRANCH   2   3
ATOM      3  O   UNL A   1      32.763  28.833  25.899  1.00  0.00    -0.376 OA
BRANCH   3   4
ATOM      4  C   UNL A   1      31.782  27.986  26.456  1.00  0.00     0.202 C 
BRANCH   4   5
ATOM      5  C   UNL A   1      31.692  26.454  26.270  1.00  0.00     0.261 C 
BRANCH   5   6
ATOM      6  O   UNL A   1      30.713  25.905  25.363  1.00  0.00    -0.463 OA
BRANCH   6   7
ATOM      7  C   UNL A   1      31.132  25.561  24.124  1.00  0.00     0.316 C 
ATOM      8  O   UNL A   1      31.641  26.371  23.351  1.00  0.00    -0.251 OA
BRANCH   7   9
ATOM      9  C   UNL A   1      30.936  24.105  23.702  1.00  0.00     0.197 C 
BRANCH   9  10
ATOM     10  S   UNL A   1      31.380  22.726  24.830  1.00  0.00    -0.114 SA
BRANCH  10  11
ATOM     11  C   UNL A   1      33.204  22.474  24.784  1.00  0.00     0.019 A 
ATOM     12  C   UNL A   1      36.336  24.187  26.059  1.00  0.00     0.067 C 
ATOM     13  C   UNL A   1      35.409  23.185  25.437  1.00  0.00     0.039 A 
ATOM     14  C   UNL A   1      34.091  23.506  25.126  1.00  0.00     0.039 A 
ATOM     15  N   UNL A   1      35.907  21.941  25.313  1.00  0.00    -0.253 NA
ATOM     16  C   UNL A   1      35.099  20.952  24.930  1.00  0.00     0.072 A 
ATOM     17  C   UNL A   1      33.724  21.132  24.652  1.00  0.00     0.014 A 
ATOM     18  C   UNL A   1      35.670  19.688  24.884  1.00  0.00     0.029 A 
ATOM     19  C   UNL A   1      32.984  19.956  24.318  1.00  0.00     0.024 A 
ATOM     20  C   UNL A   1      34.929  18.552  24.573  1.00  0.00     0.015 A 
ATOM     21  C   UNL A   1      33.575  18.673  24.274  1.00  0.00     0.056 A 
BRANCH  21  22
ATOM     22  C   UNL A   1      32.761  17.453  23.914  1.00  0.00     0.416 C 
ATOM     23  F   UNL A   1      31.995  17.009  24.948  1.00  0.00    -0.166 F 
ATOM     24  F   UNL A   1      31.905  17.685  22.881  1.00  0.00    -0.166 F 
ATOM     25  F   UNL A   1      33.521  16.386  23.534  1.00  0.00    -0.166 F 
ENDBRANCH  21  22
ENDBRANCH  10  11
ENDBRANCH   9  10
ENDBRANCH   7   9
ENDBRANCH   6   7
ENDBRANCH   5   6
ENDBRANCH   4   5
ENDBRANCH   3   4
ENDBRANCH   2   3
ENDBRANCH   1   2
BRANCH   1  26
ATOM     26  O   UNL A   1      34.509  31.158  28.297  1.00  0.00    -0.377 OA
BRANCH  26  27
ATOM     27  C   UNL A   1      34.041  32.437  27.990  1.00  0.00     0.188 C 
BRANCH  27  28
ATOM     28  C   UNL A   1      35.073  33.507  28.341  1.00  0.00     0.188 C 
BRANCH  28  29
ATOM     29  O   UNL A   1      34.797  34.532  29.284  1.00  0.00    -0.376 OA
BRANCH  29  30
ATOM     30  C   UNL A   1      34.128  34.319  30.520  1.00  0.00     0.202 C 
BRANCH  30  31
ATOM     31  C   UNL A   1      34.753  33.726  31.795  1.00  0.00     0.261 C 
BRANCH  31  32
ATOM     32  O   UNL A   1      35.125  32.356  31.772  1.00  0.00    -0.460 OA
BRANCH  32  33
ATOM     33  C   UNL A   1      36.088  32.002  32.641  1.00  0.00     0.338 C 
ATOM     34  O   UNL A   1      36.087  32.109  33.856  1.00  0.00    -0.246 OA
BRANCH  33  35
ATOM     35  C   UNL A   1      37.090  31.258  31.867  1.00  0.00     0.060 A 
ATOM     36  C   UNL A   1      38.118  30.625  32.573  1.00  0.00     0.016 A 
ATOM     37  C   UNL A   1      36.982  31.139  30.478  1.00  0.00     0.016 A 
ATOM     38  C   UNL A   1      39.049  29.859  31.891  1.00  0.00     0.010 A 
ATOM     39  C   UNL A   1      37.950  30.418  29.786  1.00  0.00     0.010 A 
ATOM     40  C   UNL A   1      38.998  29.806  30.494  1.00  0.00    -0.014 A 
BRANCH  40  41
ATOM     41  C   UNL A   1      40.208  29.363  29.784  1.00  0.00     0.031 A 
ATOM     42  C   UNL A   1      41.305  30.371  29.617  1.00  0.00     0.074 A 
ATOM     43  C   UNL A   1      40.342  28.092  29.374  1.00  0.00     0.049 A 
ATOM     44  N   UNL A   1      42.461  30.255  29.023  1.00  0.00    -0.248 NA
ATOM     45  C   UNL A   1      41.065  31.699  30.214  1.00  0.00     0.031 C 
ATOM     46  C   UNL A   1      39.353  27.034  29.563  1.00  0.00     0.029 A 
ATOM     47  N   UNL A   1      41.373  27.482  28.712  1.00  0.00    -0.354 N 
ATOM     48  C   UNL A   1      43.080  31.487  29.172  1.00  0.00     0.074 A 
ATOM     49  C   UNL A   1      42.167  32.350  29.882  1.00  0.00     0.031 C 
ATOM     50  C   UNL A   1      39.822  25.900  29.011  1.00  0.00     0.029 A 
ATOM     51  C   UNL A   1      41.123  26.170  28.402  1.00  0.00     0.049 A 
ATOM     52  H   UNL A   1      42.214  27.941  28.481  1.00  0.00     0.167 HD
ATOM     53  C   UNL A   1      44.312  31.858  28.755  1.00  0.00     0.037 A 
ATOM     54  C   UNL A   1      41.861  25.307  27.680  1.00  0.00     0.037 A 
ATOM     55  C   UNL A   1      45.193  30.985  28.032  1.00  0.00     0.049 A 
ATOM     56  C   UNL A   1      43.185  25.780  27.131  1.00  0.00     0.074 A 
ATOM     57  C   UNL A   1      46.457  31.248  27.539  1.00  0.00     0.029 A 
ATOM     58  N   UNL A   1      44.888  29.674  27.688  1.00  0.00    -0.354 N 
ATOM     59  N   UNL A   1      43.776  26.942  27.277  1.00  0.00    -0.248 NA
ATOM     60  C   UNL A   1      43.946  24.820  26.320  1.00  0.00     0.031 C 
ATOM     61  C   UNL A   1      46.892  30.115  26.845  1.00  0.00     0.029 A 
ATOM     62  C   UNL A   1      45.931  29.122  26.966  1.00  0.00     0.049 A 
ATOM     63  H   UNL A   1      44.054  29.208  27.925  1.00  0.00     0.167 HD
ATOM     64  C   UNL A   1      44.990  26.844  26.610  1.00  0.00     0.074 A 
ATOM     65  C   UNL A   1      45.054  25.502  26.067  1.00  0.00     0.031 C 
ATOM     66  C   UNL A   1      45.966  27.774  26.457  1.00  0.00     0.037 A 
BRANCH  53  67
ATOM     67  C   UNL A   1      44.741  33.268  29.033  1.00  0.00     0.064 A 
ATOM     68  C   UNL A   1      44.455  34.318  28.146  1.00  0.00     0.173 A 
ATOM     69  C   UNL A   1      45.446  33.576  30.206  1.00  0.00     0.173 A 
ATOM     70  F   UNL A   1      43.804  34.075  26.998  1.00  0.00    -0.203 F 
ATOM     71  C   UNL A   1      44.884  35.617  28.410  1.00  0.00     0.198 A 
ATOM     72  C   UNL A   1      45.843  34.880  30.483  1.00  0.00     0.198 A 
ATOM     73  F   UNL A   1      45.751  32.609  31.085  1.00  0.00    -0.203 F 
ATOM     74  F   UNL A   1      44.648  36.592  27.522  1.00  0.00    -0.200 F 
ATOM     75  C   UNL A   1      45.569  35.898  29.583  1.00  0.00     0.200 A 
ATOM     76  F   UNL A   1      46.496  35.152  31.622  1.00  0.00    -0.200 F 
ATOM     77  F   UNL A   1      45.974  37.149  29.839  1.00  0.00    -0.200 F 
ENDBRANCH  53  67
BRANCH  54  78
ATOM     78  C   UNL A   1      41.361  23.932  27.413  1.00  0.00     0.064 A 
ATOM     79  C   UNL A   1      41.952  22.814  28.017  1.00  0.00     0.173 A 
ATOM     80  C   UNL A   1      40.295  23.705  26.529  1.00  0.00     0.173 A 
ATOM     81  F   UNL A   1      42.986  22.975  28.855  1.00  0.00    -0.203 F 
ATOM     82  C   UNL A   1      41.514  21.522  27.728  1.00  0.00     0.198 A 
ATOM     83  C   UNL A   1      39.836  22.415  26.266  1.00  0.00     0.198 A 
ATOM     84  F   UNL A   1      39.691  24.737  25.922  1.00  0.00    -0.203 F 
ATOM     85  F   UNL A   1      42.132  20.469  28.280  1.00  0.00    -0.200 F 
ATOM     86  C   UNL A   1      40.453  21.325  26.857  1.00  0.00     0.200 A 
ATOM     87  F   UNL A   1      38.800  22.231  25.436  1.00  0.00    -0.200 F 
ATOM     88  F   UNL A   1      40.032  20.083  26.581  1.00  0.00    -0.200 F 
ENDBRANCH  54  78
BRANCH  66  89
ATOM     89  C   UNL A   1      47.207  27.356  25.723  1.00  0.00     0.064 A 
ATOM     90  C   UNL A   1      47.376  27.605  24.354  1.00  0.00     0.173 A 
ATOM     91  C   UNL A   1      48.268  26.758  26.420  1.00  0.00     0.173 A 
ATOM     92  F   UNL A   1      46.386  28.164  23.641  1.00  0.00    -0.203 F 
ATOM     93  C   UNL A   1      48.555  27.247  23.704  1.00  0.00     0.198 A 
ATOM     94  C   UNL A   1      49.458  26.435  25.775  1.00  0.00     0.198 A 
ATOM     95  F   UNL A   1      48.160  26.509  27.734  1.00  0.00    -0.203 F 
ATOM     96  F   UNL A   1      48.677  27.450  22.385  1.00  0.00    -0.200 F 
ATOM     97  C   UNL A   1      49.597  26.673  24.417  1.00  0.00     0.200 A 
ATOM     98  F   UNL A   1      50.471  25.901  26.471  1.00  0.00    -0.200 F 
ATOM     99  F   UNL A   1      50.736  26.344  23.792  1.00  0.00    -0.200 F 
ENDBRANCH  66  89
ENDBRANCH  40  41
ENDBRANCH  33  35
ENDBRANCH  32  33
ENDBRANCH  31  32
ENDBRANCH  30  31
ENDBRANCH  29  30
ENDBRANCH  28  29
ENDBRANCH  27  28
ENDBRANCH  26  27
ENDBRANCH   1  26
TORSDOF 23
ENDMDL
MODEL 2
REMARK VINA RESULT:     -10.2      1.778      2.877
REMARK SMILES Cc1cc(SCC(=O)OCCOCCOCCOCCOC(=O)c2ccc(-c3c4nc(c(-c5c(F)c(F)c(F)c(F)c5F)c5ccc([nH]5)c(-c5c(F)c(F)c(F)c(F)c5F)c5nc(c(-c6c(F)c(F)c(F)c(F)c6F)c6ccc3[nH]6)C=C5)C=C4)cc2)c2cc(C(F)(F)F)ccc2n1
REMARK SMILES IDX 14 1 13 2 12 3 11 4 10 5 9 6 7 7 8 8 6 9 5 10 4 11 1 12 2 13
REMARK SMILES IDX 3 14 97 15 96 16 87 17 95 18 88 19 94 20 89 21 90 22 91 23
REMARK SMILES IDX 92 24 93 25 15 26 16 27 17 28 18 29 19 30 20 31 21 32 22 33
REMARK SMILES IDX 23 34 24 35 25 36 86 37 26 38 85 39 27 40 28 41 29 42 79 43
REMARK SMILES IDX 30 44 84 45 78 46 80 47 31 48 83 49 77 50 76 51 32 53 64 54
REMARK SMILES IDX 44 55 63 56 45 57 48 58 62 59 81 60 46 61 47 62 61 64 82 65
REMARK SMILES IDX 49 66 33 67 34 68 42 69 35 70 36 71 40 72 43 73 37 74 38 75
REMARK SMILES IDX 41 76 39 77 65 78 66 79 74 80 67 81 68 82 72 83 75 84 69 85
REMARK SMILES IDX 70 86 73 87 71 88 50 89 51 90 59 91 52 92 53 93 57 94 60 95
REMARK SMILES IDX 54 96 55 97 58 98 56 99
REMARK H PARENT 80 52 48 63
REMARK Flexibility Score: inf
ROOT
ATOM      1  C   UNL A   1      34.032  30.674  27.295  1.00  0.00     0.188 C 
ENDROOT
BRANCH   1   2
ATOM      2  C   UNL A   1      32.937  30.717  26.213  1.00  0.00     0.188 C 
BRANCH   2   3
ATOM      3  O   UNL A   1      32.615  29.512  25.560  1.00  0.00    -0.376 OA
BRANCH   3   4
ATOM      4  C   UNL A   1      31.638  28.623  26.056  1.00  0.00     0.202 C 
BRANCH   4   5
ATOM      5  C   UNL A   1      31.864  27.138  26.426  1.00  0.00     0.261 C 
BRANCH   5   6
ATOM      6  O   UNL A   1      30.765  26.361  26.945  1.00  0.00    -0.463 OA
BRANCH   6   7
ATOM      7  C   UNL A   1      30.159  25.493  26.102  1.00  0.00     0.316 C 
ATOM      8  O   UNL A   1      29.586  25.861  25.077  1.00  0.00    -0.251 OA
BRANCH   7   9
ATOM      9  C   UNL A   1      30.199  24.013  26.480  1.00  0.00     0.197 C 
BRANCH   9  10
ATOM     10  S   UNL A   1      31.781  23.192  26.919  1.00  0.00    -0.114 SA
BRANCH  10  11
ATOM     11  C   UNL A   1      32.438  22.318  25.437  1.00  0.00     0.019 A 
ATOM     12  C   UNL A   1      32.292  18.860  23.890  1.00  0.00     0.067 C 
ATOM     13  C   UNL A   1      32.565  20.320  24.101  1.00  0.00     0.039 A 
ATOM     14  C   UNL A   1      32.415  20.918  25.348  1.00  0.00     0.039 A 
ATOM     15  N   UNL A   1      32.847  21.018  22.985  1.00  0.00    -0.253 NA
ATOM     16  C   UNL A   1      32.935  22.347  23.053  1.00  0.00     0.072 A 
ATOM     17  C   UNL A   1      32.734  23.081  24.246  1.00  0.00     0.014 A 
ATOM     18  C   UNL A   1      33.168  23.000  21.851  1.00  0.00     0.029 A 
ATOM     19  C   UNL A   1      32.799  24.504  24.134  1.00  0.00     0.024 A 
ATOM     20  C   UNL A   1      33.210  24.388  21.760  1.00  0.00     0.015 A 
ATOM     21  C   UNL A   1      33.037  25.160  22.906  1.00  0.00     0.056 A 
BRANCH  21  22
ATOM     22  C   UNL A   1      33.101  26.667  22.827  1.00  0.00     0.416 C 
ATOM     23  F   UNL A   1      33.503  27.112  21.605  1.00  0.00    -0.166 F 
ATOM     24  F   UNL A   1      31.895  27.252  23.066  1.00  0.00    -0.166 F 
ATOM     25  F   UNL A   1      33.965  27.221  23.724  1.00  0.00    -0.166 F 
ENDBRANCH  21  22
ENDBRANCH  10  11
ENDBRANCH   9  10
ENDBRANCH   7   9
ENDBRANCH   6   7
ENDBRANCH   5   6
ENDBRANCH   4   5
ENDBRANCH   3   4
ENDBRANCH   2   3
ENDBRANCH   1   2
BRANCH   1  26
ATOM     26  O   UNL A   1      34.046  31.578  28.370  1.00  0.00    -0.377 OA
BRANCH  26  27
ATOM     27  C   UNL A   1      33.768  32.901  28.020  1.00  0.00     0.188 C 
BRANCH  27  28
ATOM     28  C   UNL A   1      34.868  33.846  28.498  1.00  0.00     0.188 C 
BRANCH  28  29
ATOM     29  O   UNL A   1      34.625  34.844  29.478  1.00  0.00    -0.376 OA
BRANCH  29  30
ATOM     30  C   UNL A   1      34.035  34.588  30.746  1.00  0.00     0.202 C 
BRANCH  30  31
ATOM     31  C   UNL A   1      34.729  33.922  31.947  1.00  0.00     0.261 C 
BRANCH  31  32
ATOM     32  O   UNL A   1      35.118  32.563  31.813  1.00  0.00    -0.460 OA
BRANCH  32  33
ATOM     33  C   UNL A   1      36.045  32.137  32.688  1.00  0.00     0.338 C 
ATOM     34  O   UNL A   1      36.021  32.196  33.906  1.00  0.00    -0.246 OA
BRANCH  33  35
ATOM     35  C   UNL A   1      37.035  31.385  31.907  1.00  0.00     0.060 A 
ATOM     36  C   UNL A   1      38.040  30.710  32.608  1.00  0.00     0.016 A 
ATOM     37  C   UNL A   1      36.939  31.301  30.515  1.00  0.00     0.016 A 
ATOM     38  C   UNL A   1      38.958  29.935  31.918  1.00  0.00     0.010 A 
ATOM     39  C   UNL A   1      37.895  30.570  29.815  1.00  0.00     0.010 A 
ATOM     40  C   UNL A   1      38.919  29.915  30.519  1.00  0.00    -0.014 A 
BRANCH  40  41
ATOM     41  C   UNL A   1      40.125  29.457  29.810  1.00  0.00     0.031 A 
ATOM     42  C   UNL A   1      41.244  30.444  29.667  1.00  0.00     0.074 A 
ATOM     43  C   UNL A   1      40.234  28.190  29.382  1.00  0.00     0.049 A 
ATOM     44  N   UNL A   1      42.402  30.311  29.079  1.00  0.00    -0.248 NA
ATOM     45  C   UNL A   1      41.029  31.767  30.282  1.00  0.00     0.031 C 
ATOM     46  C   UNL A   1      39.221  27.151  29.548  1.00  0.00     0.029 A 
ATOM     47  N   UNL A   1      41.257  27.568  28.718  1.00  0.00    -0.354 N 
ATOM     48  C   UNL A   1      43.046  31.528  29.252  1.00  0.00     0.074 A 
ATOM     49  C   UNL A   1      42.147  32.400  29.968  1.00  0.00     0.031 C 
ATOM     50  C   UNL A   1      39.670  26.016  28.982  1.00  0.00     0.029 A 
ATOM     51  C   UNL A   1      40.980  26.267  28.386  1.00  0.00     0.049 A 
ATOM     52  H   UNL A   1      42.109  28.012  28.500  1.00  0.00     0.167 HD
ATOM     53  C   UNL A   1      44.289  31.878  28.849  1.00  0.00     0.037 A 
ATOM     54  C   UNL A   1      41.705  25.399  27.655  1.00  0.00     0.037 A 
ATOM     55  C   UNL A   1      45.156  30.998  28.118  1.00  0.00     0.049 A 
ATOM     56  C   UNL A   1      43.043  25.851  27.123  1.00  0.00     0.074 A 
ATOM     57  C   UNL A   1      46.429  31.241  27.638  1.00  0.00     0.029 A 
ATOM     58  N   UNL A   1      44.825  29.699  27.752  1.00  0.00    -0.354 N 
ATOM     59  N   UNL A   1      43.658  26.999  27.291  1.00  0.00    -0.248 NA
ATOM     60  C   UNL A   1      43.789  24.888  26.303  1.00  0.00     0.031 C 
ATOM     61  C   UNL A   1      46.844  30.110  26.930  1.00  0.00     0.029 A 
ATOM     62  C   UNL A   1      45.861  29.136  27.029  1.00  0.00     0.049 A 
ATOM     63  H   UNL A   1      43.980  29.247  27.976  1.00  0.00     0.167 HD
ATOM     64  C   UNL A   1      44.874  26.884  26.631  1.00  0.00     0.074 A 
ATOM     65  C   UNL A   1      44.913  25.550  26.067  1.00  0.00     0.031 C 
ATOM     66  C   UNL A   1      45.871  27.795  26.499  1.00  0.00     0.037 A 
BRANCH  53  67
ATOM     67  C   UNL A   1      44.746  33.275  29.151  1.00  0.00     0.064 A 
ATOM     68  C   UNL A   1      44.491  34.343  28.277  1.00  0.00     0.173 A 
ATOM     69  C   UNL A   1      45.447  33.550  30.335  1.00  0.00     0.173 A 
ATOM     70  F   UNL A   1      43.846  34.131  27.121  1.00  0.00    -0.203 F 
ATOM     71  C   UNL A   1      44.946  35.629  28.565  1.00  0.00     0.198 A 
ATOM     72  C   UNL A   1      45.870  34.840  30.635  1.00  0.00     0.198 A 
ATOM     73  F   UNL A   1      45.723  32.564  31.202  1.00  0.00    -0.203 F 
ATOM     74  F   UNL A   1      44.740  36.622  27.689  1.00  0.00    -0.200 F 
ATOM     75  C   UNL A   1      45.626  35.877  29.747  1.00  0.00     0.200 A 
ATOM     76  F   UNL A   1      46.518  35.081  31.783  1.00  0.00    -0.200 F 
ATOM     77  F   UNL A   1      46.056  37.115  30.026  1.00  0.00    -0.200 F 
ENDBRANCH  53  67
BRANCH  54  78
ATOM     78  C   UNL A   1      41.178  24.040  27.364  1.00  0.00     0.064 A 
ATOM     79  C   UNL A   1      40.080  23.852  26.513  1.00  0.00     0.173 A 
ATOM     80  C   UNL A   1      41.747  22.898  27.950  1.00  0.00     0.173 A 
ATOM     81  F   UNL A   1      39.487  24.912  25.943  1.00  0.00    -0.203 F 
ATOM     82  C   UNL A   1      39.556  22.581  26.280  1.00  0.00     0.198 A 
ATOM     83  C   UNL A   1      41.244  21.625  27.690  1.00  0.00     0.198 A 
ATOM     84  F   UNL A   1      42.800  23.017  28.772  1.00  0.00    -0.203 F 
ATOM     85  F   UNL A   1      38.473  22.438  25.504  1.00  0.00    -0.200 F 
ATOM     86  C   UNL A   1      40.142  21.468  26.864  1.00  0.00     0.200 A 
ATOM     87  F   UNL A   1      41.823  20.551  28.245  1.00  0.00    -0.200 F 
ATOM     88  F   UNL A   1      39.639  20.247  26.638  1.00  0.00    -0.200 F 
ENDBRANCH  54  78
BRANCH  66  89
ATOM     89  C   UNL A   1      47.108  27.362  25.768  1.00  0.00     0.064 A 
ATOM     90  C   UNL A   1      47.291  27.625  24.403  1.00  0.00     0.173 A 
ATOM     91  C   UNL A   1      48.153  26.733  26.463  1.00  0.00     0.173 A 
ATOM     92  F   UNL A   1      46.317  28.212  23.691  1.00  0.00    -0.203 F 
ATOM     93  C   UNL A   1      48.466  27.251  23.755  1.00  0.00     0.198 A 
ATOM     94  C   UNL A   1      49.340  26.396  25.822  1.00  0.00     0.198 A 
ATOM     95  F   UNL A   1      48.031  26.470  27.773  1.00  0.00    -0.203 F 
ATOM     96  F   UNL A   1      48.600  27.468  22.439  1.00  0.00    -0.200 F 
ATOM     97  C   UNL A   1      49.492  26.648  24.467  1.00  0.00     0.200 A 
ATOM     98  F   UNL A   1      50.338  25.832  26.516  1.00  0.00    -0.200 F 
ATOM     99  F   UNL A   1      50.628  26.304  23.845  1.00  0.00    -0.200 F 
ENDBRANCH  66  89
ENDBRANCH  40  41
ENDBRANCH  33  35
ENDBRANCH  32  33
ENDBRANCH  31  32
ENDBRANCH  30  31
ENDBRANCH  29  30
ENDBRANCH  28  29
ENDBRANCH  27  28
ENDBRANCH  26  27
ENDBRANCH   1  26
TORSDOF 23
ENDMDL
MODEL 3
REMARK VINA RESULT:      -9.9      4.211      8.510
REMARK SMILES Cc1cc(SCC(=O)OCCOCCOCCOCCOC(=O)c2ccc(-c3c4nc(c(-c5c(F)c(F)c(F)c(F)c5F)c5ccc([nH]5)c(-c5c(F)c(F)c(F)c(F)c5F)c5nc(c(-c6c(F)c(F)c(F)c(F)c6F)c6ccc3[nH]6)C=C5)C=C4)cc2)c2cc(C(F)(F)F)ccc2n1
REMARK SMILES IDX 14 1 13 2 12 3 11 4 10 5 9 6 7 7 8 8 6 9 5 10 4 11 1 12 2 13
REMARK SMILES IDX 3 14 97 15 96 16 87 17 95 18 88 19 94 20 89 21 90 22 91 23
REMARK SMILES IDX 92 24 93 25 15 26 16 27 17 28 18 29 19 30 20 31 21 32 22 33
REMARK SMILES IDX 23 34 24 35 25 36 86 37 26 38 85 39 27 40 28 41 29 42 79 43
REMARK SMILES IDX 30 44 84 45 78 46 80 47 31 48 83 49 77 50 76 51 32 53 64 54
REMARK SMILES IDX 44 55 63 56 45 57 48 58 62 59 81 60 46 61 47 62 61 64 82 65
REMARK SMILES IDX 49 66 33 67 34 68 42 69 35 70 36 71 40 72 43 73 37 74 38 75
REMARK SMILES IDX 41 76 39 77 65 78 66 79 74 80 67 81 68 82 72 83 75 84 69 85
REMARK SMILES IDX 70 86 73 87 71 88 50 89 51 90 59 91 52 92 53 93 57 94 60 95
REMARK SMILES IDX 54 96 55 97 58 98 56 99
REMARK H PARENT 80 52 48 63
REMARK Flexibility Score: inf
ROOT
ATOM      1  C   UNL A   1      31.508  26.033  23.169  1.00  0.00     0.188 C 
ENDROOT
BRANCH   1   2
ATOM      2  C   UNL A   1      30.520  25.050  23.822  1.00  0.00     0.188 C 
BRANCH   2   3
ATOM      3  O   UNL A   1      30.219  25.235  25.186  1.00  0.00    -0.376 OA
BRANCH   3   4
ATOM      4  C   UNL A   1      30.231  24.170  26.113  1.00  0.00     0.202 C 
BRANCH   4   5
ATOM      5  C   UNL A   1      31.464  23.659  26.893  1.00  0.00     0.261 C 
BRANCH   5   6
ATOM      6  O   UNL A   1      32.658  23.290  26.171  1.00  0.00    -0.463 OA
BRANCH   6   7
ATOM      7  C   UNL A   1      33.722  24.123  26.254  1.00  0.00     0.316 C 
ATOM      8  O   UNL A   1      33.630  25.331  26.045  1.00  0.00    -0.251 OA
BRANCH   7   9
ATOM      9  C   UNL A   1      35.070  23.496  26.610  1.00  0.00     0.197 C 
BRANCH   9  10
ATOM     10  S   UNL A   1      36.504  23.631  25.472  1.00  0.00    -0.114 SA
BRANCH  10  11
ATOM     11  C   UNL A   1      37.186  21.949  25.160  1.00  0.00     0.019 A 
ATOM     12  C   UNL A   1      40.262  19.926  26.064  1.00  0.00     0.067 C 
ATOM     13  C   UNL A   1      38.915  20.316  25.531  1.00  0.00     0.039 A 
ATOM     14  C   UNL A   1      38.532  21.650  25.422  1.00  0.00     0.039 A 
ATOM     15  N   UNL A   1      38.078  19.292  25.282  1.00  0.00    -0.253 NA
ATOM     16  C   UNL A   1      36.807  19.552  24.970  1.00  0.00     0.072 A 
ATOM     17  C   UNL A   1      36.275  20.860  24.896  1.00  0.00     0.014 A 
ATOM     18  C   UNL A   1      35.991  18.444  24.788  1.00  0.00     0.029 A 
ATOM     19  C   UNL A   1      34.877  20.961  24.614  1.00  0.00     0.024 A 
ATOM     20  C   UNL A   1      34.628  18.564  24.531  1.00  0.00     0.015 A 
ATOM     21  C   UNL A   1      34.054  19.828  24.430  1.00  0.00     0.056 A 
BRANCH  21  22
ATOM     22  C   UNL A   1      32.581  19.975  24.131  1.00  0.00     0.416 C 
ATOM     23  F   UNL A   1      32.008  18.807  23.728  1.00  0.00    -0.166 F 
ATOM     24  F   UNL A   1      31.870  20.392  25.214  1.00  0.00    -0.166 F 
ATOM     25  F   UNL A   1      32.315  20.877  23.143  1.00  0.00    -0.166 F 
ENDBRANCH  21  22
ENDBRANCH  10  11
ENDBRANCH   9  10
ENDBRANCH   7   9
ENDBRANCH   6   7
ENDBRANCH   5   6
ENDBRANCH   4   5
ENDBRANCH   3   4
ENDBRANCH   2   3
ENDBRANCH   1   2
BRANCH   1  26
ATOM     26  O   UNL A   1      31.105  26.930  22.165  1.00  0.00    -0.377 OA
BRANCH  26  27
ATOM     27  C   UNL A   1      31.479  28.256  22.388  1.00  0.00     0.188 C 
BRANCH  27  28
ATOM     28  C   UNL A   1      30.430  28.998  23.213  1.00  0.00     0.188 C 
BRANCH  28  29
ATOM     29  O   UNL A   1      30.575  29.188  24.613  1.00  0.00    -0.376 OA
BRANCH  29  30
ATOM     30  C   UNL A   1      31.346  30.228  25.199  1.00  0.00     0.202 C 
BRANCH  30  31
ATOM     31  C   UNL A   1      32.739  30.072  25.835  1.00  0.00     0.261 C 
BRANCH  31  32
ATOM     32  O   UNL A   1      32.879  30.409  27.206  1.00  0.00    -0.460 OA
BRANCH  32  33
ATOM     33  C   UNL A   1      33.524  31.562  27.457  1.00  0.00     0.338 C 
ATOM     34  O   UNL A   1      33.086  32.699  27.409  1.00  0.00    -0.246 OA
BRANCH  33  35
ATOM     35  C   UNL A   1      34.833  31.192  28.008  1.00  0.00     0.060 A 
ATOM     36  C   UNL A   1      35.016  29.867  28.416  1.00  0.00     0.016 A 
ATOM     37  C   UNL A   1      35.876  32.121  28.065  1.00  0.00     0.016 A 
ATOM     38  C   UNL A   1      36.254  29.456  28.882  1.00  0.00     0.010 A 
ATOM     39  C   UNL A   1      37.104  31.725  28.588  1.00  0.00     0.010 A 
ATOM     40  C   UNL A   1      37.278  30.400  29.023  1.00  0.00    -0.014 A 
BRANCH  40  41
ATOM     41  C   UNL A   1      38.409  30.054  29.898  1.00  0.00     0.031 A 
ATOM     42  C   UNL A   1      39.420  29.091  29.351  1.00  0.00     0.074 A 
ATOM     43  C   UNL A   1      38.557  30.635  31.098  1.00  0.00     0.049 A 
ATOM     44  N   UNL A   1      40.495  28.605  29.910  1.00  0.00    -0.248 NA
ATOM     45  C   UNL A   1      39.189  28.614  27.975  1.00  0.00     0.031 C 
ATOM     46  C   UNL A   1      37.659  31.635  31.669  1.00  0.00     0.029 A 
ATOM     47  N   UNL A   1      39.526  30.463  32.049  1.00  0.00    -0.354 N 
ATOM     48  C   UNL A   1      41.062  27.770  28.959  1.00  0.00     0.074 A 
ATOM     49  C   UNL A   1      40.203  27.783  27.799  1.00  0.00     0.031 C 
ATOM     50  C   UNL A   1      38.113  31.979  32.888  1.00  0.00     0.029 A 
ATOM     51  C   UNL A   1      39.309  31.194  33.189  1.00  0.00     0.049 A 
ATOM     52  H   UNL A   1      40.305  29.872  31.926  1.00  0.00     0.167 HD
ATOM     53  C   UNL A   1      42.209  27.059  29.049  1.00  0.00     0.037 A 
ATOM     54  C   UNL A   1      39.993  31.193  34.348  1.00  0.00     0.037 A 
ATOM     55  C   UNL A   1      43.035  27.045  30.223  1.00  0.00     0.049 A 
ATOM     56  C   UNL A   1      41.209  30.306  34.462  1.00  0.00     0.074 A 
ATOM     57  C   UNL A   1      44.210  26.352  30.445  1.00  0.00     0.029 A 
ATOM     58  N   UNL A   1      42.759  27.759  31.383  1.00  0.00    -0.354 N 
ATOM     59  N   UNL A   1      41.751  29.521  33.562  1.00  0.00    -0.248 NA
ATOM     60  C   UNL A   1      41.910  30.308  35.753  1.00  0.00     0.031 C 
ATOM     61  C   UNL A   1      44.612  26.599  31.761  1.00  0.00     0.029 A 
ATOM     62  C   UNL A   1      43.729  27.502  32.335  1.00  0.00     0.049 A 
ATOM     63  H   UNL A   1      41.988  28.358  31.507  1.00  0.00     0.167 HD
ATOM     64  C   UNL A   1      42.873  28.964  34.161  1.00  0.00     0.074 A 
ATOM     65  C   UNL A   1      42.938  29.510  35.501  1.00  0.00     0.031 C 
ATOM     66  C   UNL A   1      43.770  28.081  33.655  1.00  0.00     0.037 A 
BRANCH  53  67
ATOM     67  C   UNL A   1      42.593  26.213  27.871  1.00  0.00     0.064 A 
ATOM     68  C   UNL A   1      42.082  24.919  27.688  1.00  0.00     0.173 A 
ATOM     69  C   UNL A   1      43.486  26.706  26.907  1.00  0.00     0.173 A 
ATOM     70  F   UNL A   1      41.244  24.390  28.592  1.00  0.00    -0.203 F 
ATOM     71  C   UNL A   1      42.471  24.141  26.600  1.00  0.00     0.198 A 
ATOM     72  C   UNL A   1      43.847  25.939  25.804  1.00  0.00     0.198 A 
ATOM     73  F   UNL A   1      44.010  27.934  27.037  1.00  0.00    -0.203 F 
ATOM     74  F   UNL A   1      42.013  22.888  26.477  1.00  0.00    -0.200 F 
ATOM     75  C   UNL A   1      43.346  24.655  25.655  1.00  0.00     0.200 A 
ATOM     76  F   UNL A   1      44.684  26.442  24.886  1.00  0.00    -0.200 F 
ATOM     77  F   UNL A   1      43.713  23.909  24.605  1.00  0.00    -0.200 F 
ENDBRANCH  53  67
BRANCH  54  78
ATOM     78  C   UNL A   1      39.538  32.030  35.489  1.00  0.00     0.064 A 
ATOM     79  C   UNL A   1      40.030  33.329  35.680  1.00  0.00     0.173 A 
ATOM     80  C   UNL A   1      38.616  31.540  36.428  1.00  0.00     0.173 A 
ATOM     81  F   UNL A   1      40.926  33.837  34.823  1.00  0.00    -0.203 F 
ATOM     82  C   UNL A   1      39.638  34.094  36.778  1.00  0.00     0.198 A 
ATOM     83  C   UNL A   1      38.201  32.318  37.507  1.00  0.00     0.198 A 
ATOM     84  F   UNL A   1      38.112  30.305  36.295  1.00  0.00    -0.203 F 
ATOM     85  F   UNL A   1      40.165  35.311  36.964  1.00  0.00    -0.200 F 
ATOM     86  C   UNL A   1      38.720  33.590  37.687  1.00  0.00     0.200 A 
ATOM     87  F   UNL A   1      37.301  31.833  38.374  1.00  0.00    -0.200 F 
ATOM     88  F   UNL A   1      38.344  34.327  38.741  1.00  0.00    -0.200 F 
ENDBRANCH  54  78
BRANCH  66  89
ATOM     89  C   UNL A   1      44.928  27.696  34.530  1.00  0.00     0.064 A 
ATOM     90  C   UNL A   1      46.135  28.409  34.515  1.00  0.00     0.173 A 
ATOM     91  C   UNL A   1      44.799  26.638  35.443  1.00  0.00     0.173 A 
ATOM     92  F   UNL A   1      46.312  29.421  33.652  1.00  0.00    -0.203 F 
ATOM     93  C   UNL A   1      47.180  28.060  35.366  1.00  0.00     0.198 A 
ATOM     94  C   UNL A   1      45.831  26.316  36.317  1.00  0.00     0.198 A 
ATOM     95  F   UNL A   1      43.660  25.931  35.503  1.00  0.00    -0.203 F 
ATOM     96  F   UNL A   1      48.343  28.724  35.302  1.00  0.00    -0.200 F 
ATOM     97  C   UNL A   1      47.023  27.022  36.273  1.00  0.00     0.200 A 
ATOM     98  F   UNL A   1      45.670  25.326  37.206  1.00  0.00    -0.200 F 
ATOM     99  F   UNL A   1      48.025  26.698  37.102  1.00  0.00    -0.200 F 
ENDBRANCH  66  89
ENDBRANCH  40  41
ENDBRANCH  33  35
ENDBRANCH  32  33
ENDBRANCH  31  32
ENDBRANCH  30  31
ENDBRANCH  29  30
ENDBRANCH  28  29
ENDBRANCH  27  28
ENDBRANCH  26  27
ENDBRANCH   1  26
TORSDOF 23
ENDMDL
