MODEL 1
REMARK VINA RESULT:     -11.3      0.000      0.000
REMARK SMILES O=C(OCCOCCOCCOCCOC(=O)c1cccc2c1cc(Br)c1ccccc12)c1ccc(-c2c3nc(c(-c4c(F)c(F)c(F)c(F)c4F)c4ccc([nH]4)c(-c4c(F)c(F)c(F)c(F)c4F)c4nc(c(-c5c(F)c(F)c(F)c(F)c5F)c5ccc2[nH]5)C=C4)C=C3)cc1
REMARK SMILES IDX 8 1 7 2 6 3 5 4 4 5 3 6 2 7 1 8 33 9 34 10 95 11 35 12 94 13
REMARK SMILES IDX 36 14 37 15 38 16 88 17 39 18 93 19 87 20 89 21 40 22 92 23
REMARK SMILES IDX 86 24 85 25 41 27 73 28 53 29 72 30 54 31 57 32 71 33 90 34
REMARK SMILES IDX 55 35 56 36 70 38 91 39 58 40 42 41 43 42 51 43 44 44 45 45
REMARK SMILES IDX 49 46 52 47 46 48 47 49 50 50 48 51 74 52 75 53 83 54 76 55
REMARK SMILES IDX 77 56 81 57 84 58 78 59 79 60 82 61 80 62 59 63 60 64 68 65
REMARK SMILES IDX 61 66 62 67 66 68 69 69 63 70 64 71 67 72 65 73 9 74 10 75
REMARK SMILES IDX 11 76 12 77 13 78 14 79 15 80 16 81 17 82 18 83 19 84 23 85
REMARK SMILES IDX 20 86 22 87 24 88 21 89 32 90 25 91 27 92 31 93 26 94 28 95
REMARK SMILES IDX 30 96 29 97
REMARK H PARENT 89 26 57 37
REMARK Flexibility Score: inf
ROOT
ATOM      1  C   UNL A   1      41.671  20.537  27.484  1.00  0.00     0.188 C 
ENDROOT
BRANCH   1   2
ATOM      2  C   UNL A   1      42.031  20.040  26.087  1.00  0.00     0.188 C 
BRANCH   2   3
ATOM      3  O   UNL A   1      43.452  19.951  25.928  1.00  0.00    -0.376 OA
BRANCH   3   4
ATOM      4  C   UNL A   1      44.012  20.931  25.058  1.00  0.00     0.202 C 
BRANCH   4   5
ATOM      5  C   UNL A   1      44.353  22.249  25.745  1.00  0.00     0.261 C 
BRANCH   5   6
ATOM      6  O   UNL A   1      43.507  23.339  25.357  1.00  0.00    -0.460 OA
BRANCH   6   7
ATOM      7  C   UNL A   1      43.736  24.672  25.414  1.00  0.00     0.338 C 
ATOM      8  O   UNL A   1      44.578  25.128  24.638  1.00  0.00    -0.246 OA
BRANCH   7   9
ATOM      9  C   UNL A   1      43.083  25.642  26.365  1.00  0.00     0.060 A 
ATOM     10  C   UNL A   1      41.993  25.138  27.107  1.00  0.00     0.016 A 
ATOM     11  C   UNL A   1      43.440  26.976  26.585  1.00  0.00     0.016 A 
ATOM     12  C   UNL A   1      41.314  25.924  28.045  1.00  0.00     0.010 A 
ATOM     13  C   UNL A   1      42.757  27.777  27.503  1.00  0.00     0.010 A 
ATOM     14  C   UNL A   1      41.714  27.245  28.260  1.00  0.00    -0.014 A 
BRANCH  14  15
ATOM     15  C   UNL A   1      41.235  28.007  29.427  1.00  0.00     0.031 A 
ATOM     16  C   UNL A   1      40.080  28.949  29.336  1.00  0.00     0.074 A 
ATOM     17  C   UNL A   1      41.967  27.897  30.551  1.00  0.00     0.049 A 
ATOM     18  N   UNL A   1      39.530  29.661  30.284  1.00  0.00    -0.248 NA
ATOM     19  C   UNL A   1      39.478  29.140  28.008  1.00  0.00     0.031 C 
ATOM     20  C   UNL A   1      43.172  27.072  30.681  1.00  0.00     0.029 A 
ATOM     21  N   UNL A   1      41.834  28.488  31.777  1.00  0.00    -0.354 N 
ATOM     22  C   UNL A   1      38.496  30.362  29.681  1.00  0.00     0.074 A 
ATOM     23  C   UNL A   1      38.532  30.036  28.270  1.00  0.00     0.031 C 
ATOM     24  C   UNL A   1      43.666  27.205  31.918  1.00  0.00     0.029 A 
ATOM     25  C   UNL A   1      42.814  28.121  32.665  1.00  0.00     0.049 A 
ATOM     26  H   UNL A   1      41.108  29.114  32.001  1.00  0.00     0.167 HD
ATOM     27  C   UNL A   1      37.595  31.183  30.273  1.00  0.00     0.037 A 
ATOM     28  C   UNL A   1      42.991  28.471  33.951  1.00  0.00     0.037 A 
ATOM     29  C   UNL A   1      37.617  31.505  31.681  1.00  0.00     0.049 A 
ATOM     30  C   UNL A   1      41.969  29.364  34.587  1.00  0.00     0.074 A 
ATOM     31  C   UNL A   1      36.721  32.268  32.408  1.00  0.00     0.029 A 
ATOM     32  N   UNL A   1      38.602  31.092  32.569  1.00  0.00    -0.354 N 
ATOM     33  N   UNL A   1      40.915  29.922  34.042  1.00  0.00    -0.248 NA
ATOM     34  C   UNL A   1      42.140  29.656  36.013  1.00  0.00     0.031 C 
ATOM     35  C   UNL A   1      37.191  32.357  33.723  1.00  0.00     0.029 A 
ATOM     36  C   UNL A   1      38.352  31.607  33.831  1.00  0.00     0.049 A 
ATOM     37  H   UNL A   1      39.369  30.517  32.335  1.00  0.00     0.167 HD
ATOM     38  C   UNL A   1      40.285  30.621  35.058  1.00  0.00     0.074 A 
ATOM     39  C   UNL A   1      41.067  30.396  36.260  1.00  0.00     0.031 C 
ATOM     40  C   UNL A   1      39.163  31.380  35.002  1.00  0.00     0.037 A 
BRANCH  27  41
ATOM     41  C   UNL A   1      36.500  31.767  29.426  1.00  0.00     0.064 A 
ATOM     42  C   UNL A   1      35.459  30.967  28.930  1.00  0.00     0.173 A 
ATOM     43  C   UNL A   1      36.432  33.148  29.181  1.00  0.00     0.173 A 
ATOM     44  F   UNL A   1      35.470  29.641  29.133  1.00  0.00    -0.203 F 
ATOM     45  C   UNL A   1      34.401  31.522  28.212  1.00  0.00     0.198 A 
ATOM     46  C   UNL A   1      35.359  33.704  28.486  1.00  0.00     0.198 A 
ATOM     47  F   UNL A   1      37.393  33.964  29.638  1.00  0.00    -0.203 F 
ATOM     48  F   UNL A   1      33.433  30.732  27.728  1.00  0.00    -0.200 F 
ATOM     49  C   UNL A   1      34.346  32.891  28.000  1.00  0.00     0.200 A 
ATOM     50  F   UNL A   1      35.298  35.030  28.297  1.00  0.00    -0.200 F 
ATOM     51  F   UNL A   1      33.317  33.426  27.328  1.00  0.00    -0.200 F 
ENDBRANCH  27  41
BRANCH  28  52
ATOM     52  C   UNL A   1      44.121  27.879  34.709  1.00  0.00     0.064 A 
ATOM     53  C   UNL A   1      45.329  28.575  34.841  1.00  0.00     0.173 A 
ATOM     54  C   UNL A   1      43.984  26.667  35.403  1.00  0.00     0.173 A 
ATOM     55  F   UNL A   1      45.507  29.735  34.194  1.00  0.00    -0.203 F 
ATOM     56  C   UNL A   1      46.359  28.082  35.640  1.00  0.00     0.198 A 
ATOM     57  C   UNL A   1      45.005  26.188  36.220  1.00  0.00     0.198 A 
ATOM     58  F   UNL A   1      42.838  25.974  35.325  1.00  0.00    -0.203 F 
ATOM     59  F   UNL A   1      47.508  28.764  35.742  1.00  0.00    -0.200 F 
ATOM     60  C   UNL A   1      46.191  26.896  36.338  1.00  0.00     0.200 A 
ATOM     61  F   UNL A   1      44.831  25.054  36.912  1.00  0.00    -0.200 F 
ATOM     62  F   UNL A   1      47.171  26.438  37.129  1.00  0.00    -0.200 F 
ENDBRANCH  28  52
BRANCH  40  63
ATOM     63  C   UNL A   1      38.727  32.033  36.280  1.00  0.00     0.064 A 
ATOM     64  C   UNL A   1      39.073  33.360  36.572  1.00  0.00     0.173 A 
ATOM     65  C   UNL A   1      37.916  31.344  37.193  1.00  0.00     0.173 A 
ATOM     66  F   UNL A   1      39.860  34.053  35.737  1.00  0.00    -0.203 F 
ATOM     67  C   UNL A   1      38.637  33.968  37.746  1.00  0.00     0.198 A 
ATOM     68  C   UNL A   1      37.457  31.965  38.350  1.00  0.00     0.198 A 
ATOM     69  F   UNL A   1      37.555  30.075  36.954  1.00  0.00    -0.203 F 
ATOM     70  F   UNL A   1      39.013  35.223  38.025  1.00  0.00    -0.200 F 
ATOM     71  C   UNL A   1      37.823  33.275  38.628  1.00  0.00     0.200 A 
ATOM     72  F   UNL A   1      36.660  31.299  39.195  1.00  0.00    -0.200 F 
ATOM     73  F   UNL A   1      37.394  33.866  39.751  1.00  0.00    -0.200 F 
ENDBRANCH  40  63
ENDBRANCH  14  15
ENDBRANCH   7   9
ENDBRANCH   6   7
ENDBRANCH   5   6
ENDBRANCH   4   5
ENDBRANCH   3   4
ENDBRANCH   2   3
ENDBRANCH   1   2
BRANCH   1  74
ATOM     74  O   UNL A   1      40.344  21.038  27.605  1.00  0.00    -0.377 OA
BRANCH  74  75
ATOM     75  C   UNL A   1      40.046  22.247  26.914  1.00  0.00     0.188 C 
BRANCH  75  76
ATOM     76  C   UNL A   1      38.733  22.317  26.109  1.00  0.00     0.188 C 
BRANCH  76  77
ATOM     77  O   UNL A   1      38.224  21.043  25.742  1.00  0.00    -0.376 OA
BRANCH  77  78
ATOM     78  C   UNL A   1      37.345  21.038  24.626  1.00  0.00     0.202 C 
BRANCH  78  79
ATOM     79  C   UNL A   1      37.025  22.409  24.020  1.00  0.00     0.261 C 
BRANCH  79  80
ATOM     80  O   UNL A   1      35.665  22.870  24.130  1.00  0.00    -0.460 OA
BRANCH  80  81
ATOM     81  C   UNL A   1      35.310  23.754  25.092  1.00  0.00     0.338 C 
ATOM     82  O   UNL A   1      36.062  24.447  25.753  1.00  0.00    -0.246 OA
BRANCH  81  83
ATOM     83  C   UNL A   1      33.814  23.813  25.100  1.00  0.00     0.067 A 
ATOM     84  C   UNL A   1      33.154  22.630  25.458  1.00  0.00     0.016 A 
ATOM     85  C   UNL A   1      33.082  24.947  24.623  1.00  0.00    -0.002 A 
ATOM     86  C   UNL A   1      31.776  22.556  25.367  1.00  0.00     0.002 A 
ATOM     87  C   UNL A   1      31.662  24.885  24.541  1.00  0.00    -0.010 A 
ATOM     88  C   UNL A   1      33.701  26.120  24.156  1.00  0.00     0.026 A 
ATOM     89  C   UNL A   1      31.050  23.665  24.928  1.00  0.00     0.009 A 
ATOM     90  C   UNL A   1      30.899  26.009  24.039  1.00  0.00    -0.009 A 
ATOM     91  C   UNL A   1      32.978  27.156  23.553  1.00  0.00     0.026 A 
ATOM     92  C   UNL A   1      31.570  27.136  23.497  1.00  0.00    -0.004 A 
ATOM     93  C   UNL A   1      29.477  26.055  24.049  1.00  0.00     0.009 A 
ATOM     94  Br  UNL A   1      34.021  28.565  22.796  1.00  0.00    -0.050 Br
ATOM     95  C   UNL A   1      30.802  28.194  22.937  1.00  0.00     0.010 A 
ATOM     96  C   UNL A   1      28.745  27.125  23.529  1.00  0.00     0.001 A 
ATOM     97  C   UNL A   1      29.409  28.190  22.955  1.00  0.00     0.001 A 
ENDBRANCH  81  83
ENDBRANCH  80  81
ENDBRANCH  79  80
ENDBRANCH  78  79
ENDBRANCH  77  78
ENDBRANCH  76  77
ENDBRANCH  75  76
ENDBRANCH  74  75
ENDBRANCH   1  74
TORSDOF 20
ENDMDL
MODEL 2
REMARK VINA RESULT:     -11.2      3.682      8.992
REMARK SMILES O=C(OCCOCCOCCOCCOC(=O)c1cccc2c1cc(Br)c1ccccc12)c1ccc(-c2c3nc(c(-c4c(F)c(F)c(F)c(F)c4F)c4ccc([nH]4)c(-c4c(F)c(F)c(F)c(F)c4F)c4nc(c(-c5c(F)c(F)c(F)c(F)c5F)c5ccc2[nH]5)C=C4)C=C3)cc1
REMARK SMILES IDX 8 1 7 2 6 3 5 4 4 5 3 6 2 7 1 8 33 9 34 10 95 11 35 12 94 13
REMARK SMILES IDX 36 14 37 15 38 16 88 17 39 18 93 19 87 20 89 21 40 22 92 23
REMARK SMILES IDX 86 24 85 25 41 27 73 28 53 29 72 30 54 31 57 32 71 33 90 34
REMARK SMILES IDX 55 35 56 36 70 38 91 39 58 40 42 41 43 42 51 43 44 44 45 45
REMARK SMILES IDX 49 46 52 47 46 48 47 49 50 50 48 51 74 52 75 53 83 54 76 55
REMARK SMILES IDX 77 56 81 57 84 58 78 59 79 60 82 61 80 62 59 63 60 64 68 65
REMARK SMILES IDX 61 66 62 67 66 68 69 69 63 70 64 71 67 72 65 73 9 74 10 75
REMARK SMILES IDX 11 76 12 77 13 78 14 79 15 80 16 81 17 82 18 83 19 84 23 85
REMARK SMILES IDX 20 86 22 87 24 88 21 89 32 90 25 91 27 92 31 93 26 94 28 95
REMARK SMILES IDX 30 96 29 97
REMARK H PARENT 89 26 57 37
REMARK Flexibility Score: inf
ROOT
ATOM      1  C   UNL A   1      33.068  28.880  25.871  1.00  0.00     0.188 C 
ENDROOT
BRANCH   1   2
ATOM      2  C   UNL A   1      32.109  29.461  26.905  1.00  0.00     0.188 C 
BRANCH   2   3
ATOM      3  O   UNL A   1      32.396  30.844  27.145  1.00  0.00    -0.376 OA
BRANCH   3   4
ATOM      4  C   UNL A   1      31.375  31.741  26.717  1.00  0.00     0.202 C 
BRANCH   4   5
ATOM      5  C   UNL A   1      31.844  33.183  26.550  1.00  0.00     0.261 C 
BRANCH   5   6
ATOM      6  O   UNL A   1      32.152  33.837  27.788  1.00  0.00    -0.460 OA
BRANCH   6   7
ATOM      7  C   UNL A   1      33.346  34.259  28.267  1.00  0.00     0.338 C 
ATOM      8  O   UNL A   1      33.530  35.477  28.311  1.00  0.00    -0.246 OA
BRANCH   7   9
ATOM      9  C   UNL A   1      34.482  33.377  28.717  1.00  0.00     0.060 A 
ATOM     10  C   UNL A   1      35.765  33.964  28.691  1.00  0.00     0.016 A 
ATOM     11  C   UNL A   1      34.398  32.050  29.151  1.00  0.00     0.016 A 
ATOM     12  C   UNL A   1      36.903  33.264  29.108  1.00  0.00     0.010 A 
ATOM     13  C   UNL A   1      35.529  31.336  29.551  1.00  0.00     0.010 A 
ATOM     14  C   UNL A   1      36.780  31.949  29.562  1.00  0.00    -0.014 A 
BRANCH  14  15
ATOM     15  C   UNL A   1      37.882  31.284  30.280  1.00  0.00     0.031 A 
ATOM     16  C   UNL A   1      38.725  30.234  29.635  1.00  0.00     0.074 A 
ATOM     17  C   UNL A   1      38.012  31.589  31.584  1.00  0.00     0.049 A 
ATOM     18  N   UNL A   1      39.746  29.586  30.133  1.00  0.00    -0.248 NA
ATOM     19  C   UNL A   1      38.366  29.838  28.265  1.00  0.00     0.031 C 
ATOM     20  C   UNL A   1      37.153  32.532  32.307  1.00  0.00     0.029 A 
ATOM     21  N   UNL A   1      38.880  31.131  32.537  1.00  0.00    -0.354 N 
ATOM     22  C   UNL A   1      40.175  28.728  29.131  1.00  0.00     0.074 A 
ATOM     23  C   UNL A   1      39.266  28.893  28.016  1.00  0.00     0.031 C 
ATOM     24  C   UNL A   1      37.540  32.587  33.588  1.00  0.00     0.029 A 
ATOM     25  C   UNL A   1      38.670  31.686  33.774  1.00  0.00     0.049 A 
ATOM     26  H   UNL A   1      39.586  30.470  32.354  1.00  0.00     0.167 HD
ATOM     27  C   UNL A   1      41.247  27.899  29.153  1.00  0.00     0.037 A 
ATOM     28  C   UNL A   1      39.333  31.503  34.929  1.00  0.00     0.037 A 
ATOM     29  C   UNL A   1      42.108  27.742  30.302  1.00  0.00     0.049 A 
ATOM     30  C   UNL A   1      40.527  30.596  34.920  1.00  0.00     0.074 A 
ATOM     31  C   UNL A   1      43.261  26.987  30.424  1.00  0.00     0.029 A 
ATOM     32  N   UNL A   1      41.893  28.344  31.536  1.00  0.00    -0.354 N 
ATOM     33  N   UNL A   1      41.010  29.884  33.931  1.00  0.00    -0.248 NA
ATOM     34  C   UNL A   1      41.283  30.486  36.171  1.00  0.00     0.031 C 
ATOM     35  C   UNL A   1      43.714  27.092  31.743  1.00  0.00     0.029 A 
ATOM     36  C   UNL A   1      42.876  27.954  32.433  1.00  0.00     0.049 A 
ATOM     37  H   UNL A   1      41.150  28.957  31.744  1.00  0.00     0.167 HD
ATOM     38  C   UNL A   1      42.134  29.250  34.430  1.00  0.00     0.074 A 
ATOM     39  C   UNL A   1      42.275  29.682  35.808  1.00  0.00     0.031 C 
ATOM     40  C   UNL A   1      42.975  28.388  33.805  1.00  0.00     0.037 A 
BRANCH  27  41
ATOM     41  C   UNL A   1      41.572  27.123  27.908  1.00  0.00     0.064 A 
ATOM     42  C   UNL A   1      42.467  27.625  26.951  1.00  0.00     0.173 A 
ATOM     43  C   UNL A   1      41.064  25.829  27.708  1.00  0.00     0.173 A 
ATOM     44  F   UNL A   1      42.984  28.855  27.090  1.00  0.00    -0.203 F 
ATOM     45  C   UNL A   1      42.830  26.871  25.837  1.00  0.00     0.198 A 
ATOM     46  C   UNL A   1      41.450  25.067  26.607  1.00  0.00     0.198 A 
ATOM     47  F   UNL A   1      40.213  25.292  28.594  1.00  0.00    -0.203 F 
ATOM     48  F   UNL A   1      43.667  27.385  24.925  1.00  0.00    -0.200 F 
ATOM     49  C   UNL A   1      42.330  25.589  25.671  1.00  0.00     0.200 A 
ATOM     50  F   UNL A   1      40.980  23.820  26.457  1.00  0.00    -0.200 F 
ATOM     51  F   UNL A   1      42.697  24.857  24.610  1.00  0.00    -0.200 F 
ENDBRANCH  27  41
BRANCH  28  52
ATOM     52  C   UNL A   1      38.925  32.280  36.125  1.00  0.00     0.064 A 
ATOM     53  C   UNL A   1      38.156  31.683  37.131  1.00  0.00     0.173 A 
ATOM     54  C   UNL A   1      39.381  33.590  36.340  1.00  0.00     0.173 A 
ATOM     55  F   UNL A   1      37.695  30.434  36.968  1.00  0.00    -0.203 F 
ATOM     56  C   UNL A   1      37.859  32.365  38.309  1.00  0.00     0.198 A 
ATOM     57  C   UNL A   1      39.103  34.261  37.528  1.00  0.00     0.198 A 
ATOM     58  F   UNL A   1      40.140  34.197  35.415  1.00  0.00    -0.203 F 
ATOM     59  F   UNL A   1      37.113  31.772  39.252  1.00  0.00    -0.200 F 
ATOM     60  C   UNL A   1      38.342  33.648  38.511  1.00  0.00     0.200 A 
ATOM     61  F   UNL A   1      39.593  35.492  37.731  1.00  0.00    -0.200 F 
ATOM     62  F   UNL A   1      38.080  34.292  39.657  1.00  0.00    -0.200 F 
ENDBRANCH  28  52
BRANCH  40  63
ATOM     63  C   UNL A   1      44.111  27.846  34.620  1.00  0.00     0.064 A 
ATOM     64  C   UNL A   1      43.994  26.635  35.316  1.00  0.00     0.173 A 
ATOM     65  C   UNL A   1      45.342  28.517  34.663  1.00  0.00     0.173 A 
ATOM     66  F   UNL A   1      42.832  25.966  35.317  1.00  0.00    -0.203 F 
ATOM     67  C   UNL A   1      45.065  26.124  36.043  1.00  0.00     0.198 A 
ATOM     68  C   UNL A   1      46.420  27.988  35.366  1.00  0.00     0.198 A 
ATOM     69  F   UNL A   1      45.503  29.677  34.008  1.00  0.00    -0.203 F 
ATOM     70  F   UNL A   1      44.919  24.986  36.735  1.00  0.00    -0.200 F 
ATOM     71  C   UNL A   1      46.278  26.795  36.059  1.00  0.00     0.200 A 
ATOM     72  F   UNL A   1      47.595  28.631  35.370  1.00  0.00    -0.200 F 
ATOM     73  F   UNL A   1      47.312  26.296  36.750  1.00  0.00    -0.200 F 
ENDBRANCH  40  63
ENDBRANCH  14  15
ENDBRANCH   7   9
ENDBRANCH   6   7
ENDBRANCH   5   6
ENDBRANCH   4   5
ENDBRANCH   3   4
ENDBRANCH   2   3
ENDBRANCH   1   2
BRANCH   1  74
ATOM     74  O   UNL A   1      32.931  29.435  24.566  1.00  0.00    -0.377 OA
BRANCH  74  75
ATOM     75  C   UNL A   1      33.471  28.683  23.485  1.00  0.00     0.188 C 
BRANCH  75  76
ATOM     76  C   UNL A   1      32.613  27.549  22.890  1.00  0.00     0.188 C 
BRANCH  76  77
ATOM     77  O   UNL A   1      31.331  27.432  23.491  1.00  0.00    -0.376 OA
BRANCH  77  78
ATOM     78  C   UNL A   1      30.512  26.391  22.979  1.00  0.00     0.202 C 
BRANCH  78  79
ATOM     79  C   UNL A   1      30.027  25.357  24.000  1.00  0.00     0.261 C 
BRANCH  79  80
ATOM     80  O   UNL A   1      30.813  24.158  24.138  1.00  0.00    -0.460 OA
BRANCH  80  81
ATOM     81  C   UNL A   1      31.122  23.671  25.363  1.00  0.00     0.338 C 
ATOM     82  O   UNL A   1      30.365  23.105  26.130  1.00  0.00    -0.246 OA
BRANCH  81  83
ATOM     83  C   UNL A   1      32.598  23.846  25.541  1.00  0.00     0.067 A 
ATOM     84  C   UNL A   1      33.051  25.166  25.667  1.00  0.00     0.016 A 
ATOM     85  C   UNL A   1      33.525  22.759  25.435  1.00  0.00    -0.002 A 
ATOM     86  C   UNL A   1      34.408  25.428  25.706  1.00  0.00     0.002 A 
ATOM     87  C   UNL A   1      34.924  23.019  25.489  1.00  0.00    -0.010 A 
ATOM     88  C   UNL A   1      33.127  21.430  25.206  1.00  0.00     0.026 A 
ATOM     89  C   UNL A   1      35.320  24.373  25.629  1.00  0.00     0.009 A 
ATOM     90  C   UNL A   1      35.883  21.940  25.359  1.00  0.00    -0.009 A 
ATOM     91  C   UNL A   1      34.049  20.409  24.952  1.00  0.00     0.026 A 
ATOM     92  C   UNL A   1      35.438  20.631  25.041  1.00  0.00    -0.004 A 
ATOM     93  C   UNL A   1      37.284  22.117  25.528  1.00  0.00     0.009 A 
ATOM     94  Br  UNL A   1      33.304  18.721  24.457  1.00  0.00    -0.050 Br
ATOM     95  C   UNL A   1      36.401  19.605  24.839  1.00  0.00     0.010 A 
ATOM     96  C   UNL A   1      38.208  21.082  25.365  1.00  0.00     0.001 A 
ATOM     97  C   UNL A   1      37.767  19.826  25.002  1.00  0.00     0.001 A 
ENDBRANCH  81  83
ENDBRANCH  80  81
ENDBRANCH  79  80
ENDBRANCH  78  79
ENDBRANCH  77  78
ENDBRANCH  76  77
ENDBRANCH  75  76
ENDBRANCH  74  75
ENDBRANCH   1  74
TORSDOF 20
ENDMDL
MODEL 3
REMARK VINA RESULT:     -11.2      3.694      8.777
REMARK SMILES O=C(OCCOCCOCCOCCOC(=O)c1cccc2c1cc(Br)c1ccccc12)c1ccc(-c2c3nc(c(-c4c(F)c(F)c(F)c(F)c4F)c4ccc([nH]4)c(-c4c(F)c(F)c(F)c(F)c4F)c4nc(c(-c5c(F)c(F)c(F)c(F)c5F)c5ccc2[nH]5)C=C4)C=C3)cc1
REMARK SMILES IDX 8 1 7 2 6 3 5 4 4 5 3 6 2 7 1 8 33 9 34 10 95 11 35 12 94 13
REMARK SMILES IDX 36 14 37 15 38 16 88 17 39 18 93 19 87 20 89 21 40 22 92 23
REMARK SMILES IDX 86 24 85 25 41 27 73 28 53 29 72 30 54 31 57 32 71 33 90 34
REMARK SMILES IDX 55 35 56 36 70 38 91 39 58 40 42 41 43 42 51 43 44 44 45 45
REMARK SMILES IDX 49 46 52 47 46 48 47 49 50 50 48 51 74 52 75 53 83 54 76 55
REMARK SMILES IDX 77 56 81 57 84 58 78 59 79 60 82 61 80 62 59 63 60 64 68 65
REMARK SMILES IDX 61 66 62 67 66 68 69 69 63 70 64 71 67 72 65 73 9 74 10 75
REMARK SMILES IDX 11 76 12 77 13 78 14 79 15 80 16 81 17 82 18 83 19 84 23 85
REMARK SMILES IDX 20 86 22 87 24 88 21 89 32 90 25 91 27 92 31 93 26 94 28 95
REMARK SMILES IDX 30 96 29 97
REMARK H PARENT 89 26 57 37
REMARK Flexibility Score: inf
ROOT
ATOM      1  C   UNL A   1      33.256  28.965  23.260  1.00  0.00     0.188 C 
ENDROOT
BRANCH   1   2
ATOM      2  C   UNL A   1      31.744  29.102  23.415  1.00  0.00     0.188 C 
BRANCH   2   3
ATOM      3  O   UNL A   1      31.393  29.369  24.778  1.00  0.00    -0.376 OA
BRANCH   3   4
ATOM      4  C   UNL A   1      30.701  30.598  24.979  1.00  0.00     0.202 C 
BRANCH   4   5
ATOM      5  C   UNL A   1      31.257  31.445  26.120  1.00  0.00     0.261 C 
BRANCH   5   6
ATOM      6  O   UNL A   1      32.570  31.055  26.541  1.00  0.00    -0.460 OA
BRANCH   6   7
ATOM      7  C   UNL A   1      33.445  31.702  27.347  1.00  0.00     0.338 C 
ATOM      8  O   UNL A   1      33.168  32.862  27.656  1.00  0.00    -0.246 OA
BRANCH   7   9
ATOM      9  C   UNL A   1      34.745  31.145  27.868  1.00  0.00     0.060 A 
ATOM     10  C   UNL A   1      35.776  32.084  28.082  1.00  0.00     0.016 A 
ATOM     11  C   UNL A   1      35.033  29.807  28.158  1.00  0.00     0.016 A 
ATOM     12  C   UNL A   1      37.024  31.705  28.590  1.00  0.00     0.010 A 
ATOM     13  C   UNL A   1      36.281  29.414  28.646  1.00  0.00     0.010 A 
ATOM     14  C   UNL A   1      37.270  30.365  28.895  1.00  0.00    -0.014 A 
BRANCH  14  15
ATOM     15  C   UNL A   1      38.440  29.967  29.697  1.00  0.00     0.031 A 
ATOM     16  C   UNL A   1      39.428  28.960  29.206  1.00  0.00     0.074 A 
ATOM     17  C   UNL A   1      38.507  30.470  30.943  1.00  0.00     0.049 A 
ATOM     18  N   UNL A   1      40.520  28.537  29.789  1.00  0.00    -0.248 NA
ATOM     19  C   UNL A   1      39.149  28.327  27.909  1.00  0.00     0.031 C 
ATOM     20  C   UNL A   1      37.516  31.381  31.526  1.00  0.00     0.029 A 
ATOM     21  N   UNL A   1      39.414  30.278  31.948  1.00  0.00    -0.354 N 
ATOM     22  C   UNL A   1      41.078  27.611  28.919  1.00  0.00     0.074 A 
ATOM     23  C   UNL A   1      40.173  27.488  27.796  1.00  0.00     0.031 C 
ATOM     24  C   UNL A   1      37.871  31.671  32.783  1.00  0.00     0.029 A 
ATOM     25  C   UNL A   1      39.111  30.971  33.093  1.00  0.00     0.049 A 
ATOM     26  H   UNL A   1      40.206  29.700  31.859  1.00  0.00     0.167 HD
ATOM     27  C   UNL A   1      42.252  26.949  29.056  1.00  0.00     0.037 A 
ATOM     28  C   UNL A   1      39.775  31.047  34.259  1.00  0.00     0.037 A 
ATOM     29  C   UNL A   1      43.109  27.078  30.212  1.00  0.00     0.049 A 
ATOM     30  C   UNL A   1      41.081  30.321  34.376  1.00  0.00     0.074 A 
ATOM     31  C   UNL A   1      44.352  26.513  30.436  1.00  0.00     0.029 A 
ATOM     32  N   UNL A   1      42.795  27.815  31.347  1.00  0.00    -0.354 N 
ATOM     33  N   UNL A   1      41.672  29.547  33.498  1.00  0.00    -0.248 NA
ATOM     34  C   UNL A   1      41.825  30.496  35.628  1.00  0.00     0.031 C 
ATOM     35  C   UNL A   1      44.765  26.868  31.725  1.00  0.00     0.029 A 
ATOM     36  C   UNL A   1      43.807  27.697  32.287  1.00  0.00     0.049 A 
ATOM     37  H   UNL A   1      41.972  28.345  31.468  1.00  0.00     0.167 HD
ATOM     38  C   UNL A   1      42.864  29.152  34.079  1.00  0.00     0.074 A 
ATOM     39  C   UNL A   1      42.923  29.792  35.379  1.00  0.00     0.031 C 
ATOM     40  C   UNL A   1      43.824  28.332  33.582  1.00  0.00     0.037 A 
BRANCH  27  41
ATOM     41  C   UNL A   1      42.700  26.054  27.935  1.00  0.00     0.064 A 
ATOM     42  C   UNL A   1      42.224  24.739  27.820  1.00  0.00     0.173 A 
ATOM     43  C   UNL A   1      43.535  26.535  26.914  1.00  0.00     0.173 A 
ATOM     44  F   UNL A   1      41.422  24.226  28.765  1.00  0.00    -0.203 F 
ATOM     45  C   UNL A   1      42.576  23.936  26.736  1.00  0.00     0.198 A 
ATOM     46  C   UNL A   1      43.864  25.739  25.818  1.00  0.00     0.198 A 
ATOM     47  F   UNL A   1      44.013  27.787  26.964  1.00  0.00    -0.203 F 
ATOM     48  F   UNL A   1      42.129  22.675  26.665  1.00  0.00    -0.200 F 
ATOM     49  C   UNL A   1      43.387  24.440  25.732  1.00  0.00     0.200 A 
ATOM     50  F   UNL A   1      44.634  26.233  24.838  1.00  0.00    -0.200 F 
ATOM     51  F   UNL A   1      43.708  23.673  24.680  1.00  0.00    -0.200 F 
ENDBRANCH  27  41
BRANCH  28  52
ATOM     52  C   UNL A   1      39.245  31.925  35.332  1.00  0.00     0.064 A 
ATOM     53  C   UNL A   1      38.461  31.392  36.363  1.00  0.00     0.173 A 
ATOM     54  C   UNL A   1      39.599  33.280  35.412  1.00  0.00     0.173 A 
ATOM     55  F   UNL A   1      38.096  30.102  36.327  1.00  0.00    -0.203 F 
ATOM     56  C   UNL A   1      38.050  32.181  37.435  1.00  0.00     0.198 A 
ATOM     57  C   UNL A   1      39.207  34.062  36.497  1.00  0.00     0.198 A 
ATOM     58  F   UNL A   1      40.367  33.832  34.460  1.00  0.00    -0.203 F 
ATOM     59  F   UNL A   1      37.293  31.647  38.404  1.00  0.00    -0.200 F 
ATOM     60  C   UNL A   1      38.433  33.511  37.507  1.00  0.00     0.200 A 
ATOM     61  F   UNL A   1      39.599  35.341  36.575  1.00  0.00    -0.200 F 
ATOM     62  F   UNL A   1      38.061  34.262  38.553  1.00  0.00    -0.200 F 
ENDBRANCH  28  52
BRANCH  40  63
ATOM     63  C   UNL A   1      45.011  28.074  34.461  1.00  0.00     0.064 A 
ATOM     64  C   UNL A   1      46.131  28.917  34.436  1.00  0.00     0.173 A 
ATOM     65  C   UNL A   1      45.006  27.007  35.371  1.00  0.00     0.173 A 
ATOM     66  F   UNL A   1      46.187  29.940  33.571  1.00  0.00    -0.203 F 
ATOM     67  C   UNL A   1      47.214  28.688  35.279  1.00  0.00     0.198 A 
ATOM     68  C   UNL A   1      46.078  26.799  36.234  1.00  0.00     0.198 A 
ATOM     69  F   UNL A   1      43.954  26.177  35.435  1.00  0.00    -0.203 F 
ATOM     70  F   UNL A   1      48.292  29.481  35.210  1.00  0.00    -0.200 F 
ATOM     71  C   UNL A   1      47.183  27.637  36.183  1.00  0.00     0.200 A 
ATOM     72  F   UNL A   1      46.041  25.791  37.115  1.00  0.00    -0.200 F 
ATOM     73  F   UNL A   1      48.222  27.425  37.002  1.00  0.00    -0.200 F 
ENDBRANCH  40  63
ENDBRANCH  14  15
ENDBRANCH   7   9
ENDBRANCH   6   7
ENDBRANCH   5   6
ENDBRANCH   4   5
ENDBRANCH   3   4
ENDBRANCH   2   3
ENDBRANCH   1   2
BRANCH   1  74
ATOM     74  O   UNL A   1      33.661  28.078  22.222  1.00  0.00    -0.377 OA
BRANCH  74  75
ATOM     75  C   UNL A   1      33.494  26.685  22.462  1.00  0.00     0.188 C 
BRANCH  75  76
ATOM     76  C   UNL A   1      32.886  25.823  21.338  1.00  0.00     0.188 C 
BRANCH  76  77
ATOM     77  O   UNL A   1      31.645  25.226  21.689  1.00  0.00    -0.376 OA
BRANCH  77  78
ATOM     78  C   UNL A   1      30.961  25.838  22.772  1.00  0.00     0.202 C 
BRANCH  78  79
ATOM     79  C   UNL A   1      30.298  24.883  23.771  1.00  0.00     0.261 C 
BRANCH  79  80
ATOM     80  O   UNL A   1      30.062  25.388  25.098  1.00  0.00    -0.460 OA
BRANCH  80  81
ATOM     81  C   UNL A   1      30.584  24.762  26.179  1.00  0.00     0.338 C 
ATOM     82  O   UNL A   1      29.980  24.072  26.981  1.00  0.00    -0.246 OA
BRANCH  81  83
ATOM     83  C   UNL A   1      32.066  24.971  26.129  1.00  0.00     0.067 A 
ATOM     84  C   UNL A   1      32.501  26.303  26.163  1.00  0.00     0.016 A 
ATOM     85  C   UNL A   1      32.992  23.902  25.903  1.00  0.00    -0.002 A 
ATOM     86  C   UNL A   1      33.842  26.593  25.992  1.00  0.00     0.002 A 
ATOM     87  C   UNL A   1      34.376  24.191  25.740  1.00  0.00    -0.010 A 
ATOM     88  C   UNL A   1      32.595  22.560  25.758  1.00  0.00     0.026 A 
ATOM     89  C   UNL A   1      34.756  25.556  25.796  1.00  0.00     0.009 A 
ATOM     90  C   UNL A   1      35.330  23.131  25.485  1.00  0.00    -0.009 A 
ATOM     91  C   UNL A   1      33.492  21.553  25.385  1.00  0.00     0.026 A 
ATOM     92  C   UNL A   1      34.873  21.806  25.260  1.00  0.00    -0.004 A 
ATOM     93  C   UNL A   1      36.736  23.340  25.438  1.00  0.00     0.009 A 
ATOM     94  Br  UNL A   1      32.721  19.841  25.036  1.00  0.00    -0.050 Br
ATOM     95  C   UNL A   1      35.819  20.796  24.932  1.00  0.00     0.010 A 
ATOM     96  C   UNL A   1      37.649  22.321  25.154  1.00  0.00     0.001 A 
ATOM     97  C   UNL A   1      37.188  21.049  24.882  1.00  0.00     0.001 A 
ENDBRANCH  81  83
ENDBRANCH  80  81
ENDBRANCH  79  80
ENDBRANCH  78  79
ENDBRANCH  77  78
ENDBRANCH  76  77
ENDBRANCH  75  76
ENDBRANCH  74  75
ENDBRANCH   1  74
TORSDOF 20
ENDMDL
