MODEL 1
REMARK VINA RESULT:      -9.5      0.000      0.000
REMARK SMILES Cc1ccccc1/[NH+]=C1\S[C@@H](CC(=O)Nc2ccc(C(=O)OCCOCCOCCOCCOC(=O)c3ccc(-c4c5nc(c(-c6c(F)c(F)c(F)c(F)c6F)c6ccc([nH]6)c(-c6c(F)c(F)c(F)c(F)c6F)c6nc(c(-c7c(F)c(F)c(F)c(F)c7F)c7ccc4[nH]7)C=C6)C=C5)cc3)cc2)C(=O)N1C
REMARK SMILES IDX 27 1 26 2 25 3 24 4 23 5 22 6 20 7 21 8 19 9 16 10 17 11
REMARK SMILES IDX 101 12 18 13 100 14 15 15 13 16 14 17 12 19 11 20 8 21 9 22
REMARK SMILES IDX 10 24 104 25 102 26 105 27 103 28 7 29 1 30 2 31 3 32 4 33
REMARK SMILES IDX 6 34 5 35 28 36 29 37 30 38 31 39 32 40 33 41 34 42 35 43
REMARK SMILES IDX 36 44 37 45 38 46 99 47 39 48 98 49 40 50 41 51 42 52 92 53
REMARK SMILES IDX 43 54 97 55 91 56 93 57 44 58 96 59 90 60 89 61 45 63 77 64
REMARK SMILES IDX 57 65 76 66 58 67 61 68 75 69 94 70 59 71 60 72 74 74 95 75
REMARK SMILES IDX 62 76 46 77 47 78 55 79 48 80 49 81 53 82 56 83 50 84 51 85
REMARK SMILES IDX 54 86 52 87 78 88 79 89 87 90 80 91 81 92 85 93 88 94 82 95
REMARK SMILES IDX 83 96 86 97 84 98 63 99 64 100 72 101 65 102 66 103 70 104
REMARK SMILES IDX 73 105 67 106 68 107 71 108 69 109
REMARK H PARENT 15 18 8 23 93 62 61 73
REMARK Flexibility Score: inf
ROOT
ATOM      1  C   UNL A   1      33.285  35.050  29.046  1.00  0.00     0.188 C 
ENDROOT
BRANCH   1   2
ATOM      2  C   UNL A   1      34.552  34.527  28.364  1.00  0.00     0.188 C 
BRANCH   2   3
ATOM      3  O   UNL A   1      34.642  33.127  28.624  1.00  0.00    -0.376 OA
BRANCH   3   4
ATOM      4  C   UNL A   1      35.755  32.504  28.018  1.00  0.00     0.202 C 
BRANCH   4   5
ATOM      5  C   UNL A   1      36.722  31.891  28.979  1.00  0.00     0.261 C 
BRANCH   5   6
ATOM      6  O   UNL A   1      36.374  30.579  29.354  1.00  0.00    -0.460 OA
BRANCH   6   7
ATOM      7  C   UNL A   1      36.585  29.660  28.395  1.00  0.00     0.338 C 
ATOM      8  O   UNL A   1      35.814  29.303  27.526  1.00  0.00    -0.246 OA
BRANCH   7   9
ATOM      9  C   UNL A   1      38.013  29.336  28.525  1.00  0.00     0.060 A 
ATOM     10  C   UNL A   1      40.639  28.451  28.495  1.00  0.00     0.041 A 
ATOM     11  C   UNL A   1      39.996  28.860  27.360  1.00  0.00     0.027 A 
ATOM     12  C   UNL A   1      39.870  28.264  29.642  1.00  0.00     0.027 A 
ATOM     13  C   UNL A   1      38.792  29.473  27.388  1.00  0.00     0.018 A 
ATOM     14  C   UNL A   1      38.524  28.676  29.642  1.00  0.00     0.018 A 
BRANCH  10  15
ATOM     15  N   UNL A   1      42.022  28.247  28.412  1.00  0.00    -0.326 N 
ATOM     16  C   UNL A   1      42.745  27.124  28.787  1.00  0.00     0.226 C 
ATOM     17  O   UNL A   1      43.977  27.191  28.797  1.00  0.00    -0.275 OA
ATOM     18  H   UNL A   1      42.547  28.994  28.041  1.00  0.00     0.169 HD
BRANCH  16  19
ATOM     19  C   UNL A   1      42.073  25.757  29.056  1.00  0.00     0.128 C 
BRANCH  19  20
ATOM     20  C   UNL A   1      42.096  24.786  27.867  1.00  0.00     0.183 C 
ATOM     21  N   UNL A   1      43.963  22.657  25.487  1.00  0.00    -0.234 N 
ATOM     22  C   UNL A   1      43.762  23.530  26.407  1.00  0.00     0.319 C 
ATOM     23  H   UNL A   1      44.231  23.055  24.627  1.00  0.00     0.313 HD
ATOM     24  S   UNL A   1      43.404  23.492  28.100  1.00  0.00    -0.022 SA
ATOM     25  N   UNL A   1      43.663  24.836  26.065  1.00  0.00    -0.193 N 
ATOM     26  C   UNL A   1      42.507  25.401  26.530  1.00  0.00     0.324 C 
ATOM     27  C   UNL A   1      44.642  25.523  25.258  1.00  0.00     0.301 C 
ATOM     28  O   UNL A   1      41.883  26.303  25.966  1.00  0.00    -0.245 OA
BRANCH  21  29
ATOM     29  C   UNL A   1      43.882  21.256  25.445  1.00  0.00     0.128 A 
ATOM     30  C   UNL A   1      46.233  20.607  24.598  1.00  0.00     0.049 C 
ATOM     31  C   UNL A   1      44.840  20.303  25.053  1.00  0.00    -0.004 A 
ATOM     32  C   UNL A   1      44.536  18.924  25.134  1.00  0.00     0.008 A 
ATOM     33  C   UNL A   1      43.366  18.467  25.726  1.00  0.00     0.001 A 
ATOM     34  C   UNL A   1      42.718  20.754  26.074  1.00  0.00     0.052 A 
ATOM     35  C   UNL A   1      42.468  19.386  26.233  1.00  0.00     0.004 A 
ENDBRANCH  21  29
ENDBRANCH  19  20
ENDBRANCH  16  19
ENDBRANCH  10  15
ENDBRANCH   7   9
ENDBRANCH   6   7
ENDBRANCH   5   6
ENDBRANCH   4   5
ENDBRANCH   3   4
ENDBRANCH   2   3
ENDBRANCH   1   2
BRANCH   1  36
ATOM     36  O   UNL A   1      33.247  34.577  30.400  1.00  0.00    -0.377 OA
BRANCH  36  37
ATOM     37  C   UNL A   1      33.983  35.307  31.381  1.00  0.00     0.188 C 
BRANCH  37  38
ATOM     38  C   UNL A   1      35.282  34.646  31.864  1.00  0.00     0.188 C 
BRANCH  38  39
ATOM     39  O   UNL A   1      35.911  35.364  32.917  1.00  0.00    -0.376 OA
BRANCH  39  40
ATOM     40  C   UNL A   1      36.757  34.584  33.759  1.00  0.00     0.202 C 
BRANCH  40  41
ATOM     41  C   UNL A   1      35.985  33.637  34.692  1.00  0.00     0.261 C 
BRANCH  41  42
ATOM     42  O   UNL A   1      36.755  32.443  34.921  1.00  0.00    -0.460 OA
BRANCH  42  43
ATOM     43  C   UNL A   1      37.162  31.802  33.792  1.00  0.00     0.338 C 
ATOM     44  O   UNL A   1      36.480  31.621  32.797  1.00  0.00    -0.246 OA
BRANCH  43  45
ATOM     45  C   UNL A   1      38.439  31.082  34.072  1.00  0.00     0.060 A 
ATOM     46  C   UNL A   1      39.605  31.839  34.196  1.00  0.00     0.016 A 
ATOM     47  C   UNL A   1      38.525  29.710  33.813  1.00  0.00     0.016 A 
ATOM     48  C   UNL A   1      40.827  31.254  33.863  1.00  0.00     0.010 A 
ATOM     49  C   UNL A   1      39.722  29.174  33.348  1.00  0.00     0.010 A 
ATOM     50  C   UNL A   1      40.884  29.943  33.329  1.00  0.00    -0.014 A 
BRANCH  50  51
ATOM     51  C   UNL A   1      42.152  29.519  32.666  1.00  0.00     0.031 A 
ATOM     52  C   UNL A   1      42.703  30.118  31.371  1.00  0.00     0.074 A 
ATOM     53  C   UNL A   1      42.984  28.866  33.499  1.00  0.00     0.049 A 
ATOM     54  N   UNL A   1      43.864  30.010  30.766  1.00  0.00    -0.248 NA
ATOM     55  C   UNL A   1      41.822  31.046  30.677  1.00  0.00     0.031 C 
ATOM     56  C   UNL A   1      43.296  29.284  34.862  1.00  0.00     0.029 A 
ATOM     57  N   UNL A   1      43.727  27.738  33.320  1.00  0.00    -0.354 N 
ATOM     58  C   UNL A   1      43.933  30.991  29.732  1.00  0.00     0.074 A 
ATOM     59  C   UNL A   1      42.600  31.531  29.716  1.00  0.00     0.031 C 
ATOM     60  C   UNL A   1      44.252  28.511  35.392  1.00  0.00     0.029 A 
ATOM     61  C   UNL A   1      44.591  27.539  34.384  1.00  0.00     0.049 A 
ATOM     62  H   UNL A   1      43.657  27.143  32.538  1.00  0.00     0.167 HD
ATOM     63  C   UNL A   1      45.071  31.370  29.026  1.00  0.00     0.037 A 
ATOM     64  C   UNL A   1      45.388  26.481  34.583  1.00  0.00     0.037 A 
ATOM     65  C   UNL A   1      46.279  30.553  29.331  1.00  0.00     0.049 A 
ATOM     66  C   UNL A   1      46.306  26.347  33.409  1.00  0.00     0.074 A 
ATOM     67  C   UNL A   1      47.609  30.889  29.563  1.00  0.00     0.029 A 
ATOM     68  N   UNL A   1      46.212  29.172  29.588  1.00  0.00    -0.354 N 
ATOM     69  N   UNL A   1      46.464  27.247  32.454  1.00  0.00    -0.248 NA
ATOM     70  C   UNL A   1      47.292  25.280  33.359  1.00  0.00     0.031 C 
ATOM     71  C   UNL A   1      48.297  29.765  30.076  1.00  0.00     0.029 A 
ATOM     72  C   UNL A   1      47.420  28.696  30.088  1.00  0.00     0.049 A 
ATOM     73  H   UNL A   1      45.415  28.615  29.433  1.00  0.00     0.167 HD
ATOM     74  C   UNL A   1      47.423  26.778  31.575  1.00  0.00     0.074 A 
ATOM     75  C   UNL A   1      47.985  25.630  32.269  1.00  0.00     0.031 C 
ATOM     76  C   UNL A   1      47.712  27.294  30.334  1.00  0.00     0.037 A 
BRANCH  63  77
ATOM     77  C   UNL A   1      45.233  32.704  28.128  1.00  0.00     0.064 A 
ATOM     78  C   UNL A   1      44.748  32.782  26.786  1.00  0.00     0.173 A 
ATOM     79  C   UNL A   1      45.883  33.912  28.485  1.00  0.00     0.173 A 
ATOM     80  F   UNL A   1      43.880  31.891  26.295  1.00  0.00    -0.203 F 
ATOM     81  C   UNL A   1      45.033  33.835  25.887  1.00  0.00     0.198 A 
ATOM     82  C   UNL A   1      46.122  34.991  27.607  1.00  0.00     0.198 A 
ATOM     83  F   UNL A   1      46.269  34.196  29.721  1.00  0.00    -0.203 F 
ATOM     84  F   UNL A   1      44.581  33.776  24.623  1.00  0.00    -0.200 F 
ATOM     85  C   UNL A   1      45.730  34.941  26.295  1.00  0.00     0.200 A 
ATOM     86  F   UNL A   1      46.721  36.098  28.075  1.00  0.00    -0.200 F 
ATOM     87  F   UNL A   1      45.957  35.971  25.469  1.00  0.00    -0.200 F 
ENDBRANCH  63  77
BRANCH  64  88
ATOM     88  C   UNL A   1      44.716  25.526  35.540  1.00  0.00     0.064 A 
ATOM     89  C   UNL A   1      44.773  25.865  36.908  1.00  0.00     0.173 A 
ATOM     90  C   UNL A   1      43.500  24.965  35.089  1.00  0.00     0.173 A 
ATOM     91  F   UNL A   1      45.908  26.366  37.418  1.00  0.00    -0.203 F 
ATOM     92  C   UNL A   1      43.607  25.944  37.682  1.00  0.00     0.198 A 
ATOM     93  C   UNL A   1      42.334  25.062  35.858  1.00  0.00     0.198 A 
ATOM     94  F   UNL A   1      43.378  24.589  33.806  1.00  0.00    -0.203 F 
ATOM     95  F   UNL A   1      43.653  26.496  38.904  1.00  0.00    -0.200 F 
ATOM     96  C   UNL A   1      42.380  25.606  37.132  1.00  0.00     0.200 A 
ATOM     97  F   UNL A   1      41.146  24.771  35.306  1.00  0.00    -0.200 F 
ATOM     98  F   UNL A   1      41.244  25.875  37.793  1.00  0.00    -0.200 F 
ENDBRANCH  64  88
BRANCH  76  99
ATOM     99  C   UNL A   1      48.479  26.567  29.221  1.00  0.00     0.064 A 
ATOM    100  C   UNL A   1      47.873  25.888  28.152  1.00  0.00     0.173 A 
ATOM    101  C   UNL A   1      49.896  26.681  29.105  1.00  0.00     0.173 A 
ATOM    102  F   UNL A   1      46.544  25.829  28.012  1.00  0.00    -0.203 F 
ATOM    103  C   UNL A   1      48.611  25.308  27.115  1.00  0.00     0.198 A 
ATOM    104  C   UNL A   1      50.624  26.140  28.049  1.00  0.00     0.198 A 
ATOM    105  F   UNL A   1      50.642  27.375  29.973  1.00  0.00    -0.203 F 
ATOM    106  F   UNL A   1      47.966  24.651  26.140  1.00  0.00    -0.200 F 
ATOM    107  C   UNL A   1      49.982  25.441  27.057  1.00  0.00     0.200 A 
ATOM    108  F   UNL A   1      51.949  26.336  27.987  1.00  0.00    -0.200 F 
ATOM    109  F   UNL A   1      50.674  24.939  26.026  1.00  0.00    -0.200 F 
ENDBRANCH  76  99
ENDBRANCH  50  51
ENDBRANCH  43  45
ENDBRANCH  42  43
ENDBRANCH  41  42
ENDBRANCH  40  41
ENDBRANCH  39  40
ENDBRANCH  38  39
ENDBRANCH  37  38
ENDBRANCH  36  37
ENDBRANCH   1  36
TORSDOF 24
ENDMDL
MODEL 2
REMARK VINA RESULT:      -9.5      5.169      8.194
REMARK SMILES Cc1ccccc1/[NH+]=C1\S[C@@H](CC(=O)Nc2ccc(C(=O)OCCOCCOCCOCCOC(=O)c3ccc(-c4c5nc(c(-c6c(F)c(F)c(F)c(F)c6F)c6ccc([nH]6)c(-c6c(F)c(F)c(F)c(F)c6F)c6nc(c(-c7c(F)c(F)c(F)c(F)c7F)c7ccc4[nH]7)C=C6)C=C5)cc3)cc2)C(=O)N1C
REMARK SMILES IDX 27 1 26 2 25 3 24 4 23 5 22 6 20 7 21 8 19 9 16 10 17 11
REMARK SMILES IDX 101 12 18 13 100 14 15 15 13 16 14 17 12 19 11 20 8 21 9 22
REMARK SMILES IDX 10 24 104 25 102 26 105 27 103 28 7 29 1 30 2 31 3 32 4 33
REMARK SMILES IDX 6 34 5 35 28 36 29 37 30 38 31 39 32 40 33 41 34 42 35 43
REMARK SMILES IDX 36 44 37 45 38 46 99 47 39 48 98 49 40 50 41 51 42 52 92 53
REMARK SMILES IDX 43 54 97 55 91 56 93 57 44 58 96 59 90 60 89 61 45 63 77 64
REMARK SMILES IDX 57 65 76 66 58 67 61 68 75 69 94 70 59 71 60 72 74 74 95 75
REMARK SMILES IDX 62 76 46 77 47 78 55 79 48 80 49 81 53 82 56 83 50 84 51 85
REMARK SMILES IDX 54 86 52 87 78 88 79 89 87 90 80 91 81 92 85 93 88 94 82 95
REMARK SMILES IDX 83 96 86 97 84 98 63 99 64 100 72 101 65 102 66 103 70 104
REMARK SMILES IDX 73 105 67 106 68 107 71 108 69 109
REMARK H PARENT 15 18 8 23 93 62 61 73
REMARK Flexibility Score: inf
ROOT
ATOM      1  C   UNL A   1      33.294  29.190  25.747  1.00  0.00     0.188 C 
ENDROOT
BRANCH   1   2
ATOM      2  C   UNL A   1      33.526  27.676  25.788  1.00  0.00     0.188 C 
BRANCH   2   3
ATOM      3  O   UNL A   1      33.982  27.268  24.500  1.00  0.00    -0.376 OA
BRANCH   3   4
ATOM      4  C   UNL A   1      33.850  28.262  23.506  1.00  0.00     0.202 C 
BRANCH   4   5
ATOM      5  C   UNL A   1      33.620  27.734  22.127  1.00  0.00     0.261 C 
BRANCH   5   6
ATOM      6  O   UNL A   1      33.991  26.383  21.982  1.00  0.00    -0.460 OA
BRANCH   6   7
ATOM      7  C   UNL A   1      33.093  25.636  21.318  1.00  0.00     0.338 C 
ATOM      8  O   UNL A   1      32.753  25.741  20.155  1.00  0.00    -0.246 OA
BRANCH   7   9
ATOM      9  C   UNL A   1      32.766  24.556  22.260  1.00  0.00     0.060 A 
ATOM     10  C   UNL A   1      32.019  22.322  23.721  1.00  0.00     0.041 A 
ATOM     11  C   UNL A   1      32.867  22.242  22.652  1.00  0.00     0.027 A 
ATOM     12  C   UNL A   1      31.346  23.526  23.923  1.00  0.00     0.027 A 
ATOM     13  C   UNL A   1      33.391  23.337  22.056  1.00  0.00     0.018 A 
ATOM     14  C   UNL A   1      31.697  24.649  23.151  1.00  0.00     0.018 A 
BRANCH  10  15
ATOM     15  N   UNL A   1      31.892  21.184  24.527  1.00  0.00    -0.326 N 
ATOM     16  C   UNL A   1      32.641  20.839  25.643  1.00  0.00     0.226 C 
ATOM     17  O   UNL A   1      32.495  19.713  26.127  1.00  0.00    -0.275 OA
ATOM     18  H   UNL A   1      31.184  20.550  24.270  1.00  0.00     0.169 HD
BRANCH  16  19
ATOM     19  C   UNL A   1      33.542  21.855  26.384  1.00  0.00     0.128 C 
BRANCH  19  20
ATOM     20  C   UNL A   1      35.045  21.548  26.315  1.00  0.00     0.183 C 
ATOM     21  N   UNL A   1      38.502  22.574  25.494  1.00  0.00    -0.234 N 
ATOM     22  C   UNL A   1      37.221  22.626  25.547  1.00  0.00     0.319 C 
ATOM     23  H   UNL A   1      38.845  22.359  24.596  1.00  0.00     0.313 HD
ATOM     24  S   UNL A   1      36.042  23.053  26.741  1.00  0.00    -0.022 SA
ATOM     25  N   UNL A   1      36.499  22.135  24.513  1.00  0.00    -0.193 N 
ATOM     26  C   UNL A   1      35.579  21.210  24.925  1.00  0.00     0.324 C 
ATOM     27  C   UNL A   1      36.722  22.511  23.138  1.00  0.00     0.301 C 
ATOM     28  O   UNL A   1      35.204  20.239  24.260  1.00  0.00    -0.245 OA
BRANCH  21  29
ATOM     29  C   UNL A   1      39.521  22.758  26.443  1.00  0.00     0.128 A 
ATOM     30  C   UNL A   1      39.006  25.127  27.331  1.00  0.00     0.049 C 
ATOM     31  C   UNL A   1      39.801  23.860  27.271  1.00  0.00    -0.004 A 
ATOM     32  C   UNL A   1      40.875  23.797  28.189  1.00  0.00     0.008 A 
ATOM     33  C   UNL A   1      41.583  22.622  28.406  1.00  0.00     0.001 A 
ATOM     34  C   UNL A   1      40.239  21.570  26.716  1.00  0.00     0.052 A 
ATOM     35  C   UNL A   1      41.239  21.491  27.691  1.00  0.00     0.004 A 
ENDBRANCH  21  29
ENDBRANCH  19  20
ENDBRANCH  16  19
ENDBRANCH  10  15
ENDBRANCH   7   9
ENDBRANCH   6   7
ENDBRANCH   5   6
ENDBRANCH   4   5
ENDBRANCH   3   4
ENDBRANCH   2   3
ENDBRANCH   1   2
BRANCH   1  36
ATOM     36  O   UNL A   1      33.303  29.706  27.085  1.00  0.00    -0.377 OA
BRANCH  36  37
ATOM     37  C   UNL A   1      33.411  31.120  27.251  1.00  0.00     0.188 C 
BRANCH  37  38
ATOM     38  C   UNL A   1      34.558  31.596  28.153  1.00  0.00     0.188 C 
BRANCH  38  39
ATOM     39  O   UNL A   1      35.271  32.699  27.608  1.00  0.00    -0.376 OA
BRANCH  39  40
ATOM     40  C   UNL A   1      34.861  33.979  28.085  1.00  0.00     0.202 C 
BRANCH  40  41
ATOM     41  C   UNL A   1      33.904  33.905  29.286  1.00  0.00     0.261 C 
BRANCH  41  42
ATOM     42  O   UNL A   1      33.943  35.145  30.017  1.00  0.00    -0.460 OA
BRANCH  42  43
ATOM     43  C   UNL A   1      33.298  35.121  31.214  1.00  0.00     0.338 C 
ATOM     44  O   UNL A   1      32.163  35.521  31.414  1.00  0.00    -0.246 OA
BRANCH  43  45
ATOM     45  C   UNL A   1      34.286  34.836  32.296  1.00  0.00     0.060 A 
ATOM     46  C   UNL A   1      35.569  35.369  32.169  1.00  0.00     0.016 A 
ATOM     47  C   UNL A   1      34.060  33.766  33.168  1.00  0.00     0.016 A 
ATOM     48  C   UNL A   1      36.640  34.697  32.761  1.00  0.00     0.010 A 
ATOM     49  C   UNL A   1      35.140  33.024  33.636  1.00  0.00     0.010 A 
ATOM     50  C   UNL A   1      36.447  33.454  33.411  1.00  0.00    -0.014 A 
BRANCH  50  51
ATOM     51  C   UNL A   1      37.656  32.626  33.697  1.00  0.00     0.031 A 
ATOM     52  C   UNL A   1      38.163  31.486  32.813  1.00  0.00     0.074 A 
ATOM     53  C   UNL A   1      38.501  33.218  34.562  1.00  0.00     0.049 A 
ATOM     54  N   UNL A   1      39.283  30.800  32.804  1.00  0.00    -0.248 NA
ATOM     55  C   UNL A   1      37.289  31.099  31.715  1.00  0.00     0.031 C 
ATOM     56  C   UNL A   1      38.905  34.619  34.506  1.00  0.00     0.029 A 
ATOM     57  N   UNL A   1      39.179  32.720  35.634  1.00  0.00    -0.354 N 
ATOM     58  C   UNL A   1      39.341  30.037  31.599  1.00  0.00     0.074 A 
ATOM     59  C   UNL A   1      38.036  30.240  31.031  1.00  0.00     0.031 C 
ATOM     60  C   UNL A   1      39.852  34.880  35.416  1.00  0.00     0.029 A 
ATOM     61  C   UNL A   1      40.091  33.645  36.117  1.00  0.00     0.049 A 
ATOM     62  H   UNL A   1      39.040  31.822  36.013  1.00  0.00     0.167 HD
ATOM     63  C   UNL A   1      40.455  29.374  31.093  1.00  0.00     0.037 A 
ATOM     64  C   UNL A   1      40.847  33.526  37.216  1.00  0.00     0.037 A 
ATOM     65  C   UNL A   1      41.639  29.391  31.998  1.00  0.00     0.049 A 
ATOM     66  C   UNL A   1      41.693  32.298  37.083  1.00  0.00     0.074 A 
ATOM     67  C   UNL A   1      42.994  29.613  31.773  1.00  0.00     0.029 A 
ATOM     68  N   UNL A   1      41.523  29.303  33.397  1.00  0.00    -0.354 N 
ATOM     69  N   UNL A   1      41.840  31.586  35.981  1.00  0.00    -0.248 NA
ATOM     70  C   UNL A   1      42.624  31.924  38.136  1.00  0.00     0.031 C 
ATOM     71  C   UNL A   1      43.656  29.788  33.009  1.00  0.00     0.029 A 
ATOM     72  C   UNL A   1      42.732  29.592  34.019  1.00  0.00     0.049 A 
ATOM     73  H   UNL A   1      40.693  29.067  33.873  1.00  0.00     0.167 HD
ATOM     74  C   UNL A   1      42.727  30.559  36.247  1.00  0.00     0.074 A 
ATOM     75  C   UNL A   1      43.272  30.911  37.548  1.00  0.00     0.031 C 
ATOM     76  C   UNL A   1      42.971  29.467  35.448  1.00  0.00     0.037 A 
BRANCH  63  77
ATOM     77  C   UNL A   1      40.630  28.823  29.584  1.00  0.00     0.064 A 
ATOM     78  C   UNL A   1      41.513  27.747  29.263  1.00  0.00     0.173 A 
ATOM     79  C   UNL A   1      40.015  29.320  28.407  1.00  0.00     0.173 A 
ATOM     80  F   UNL A   1      42.014  26.939  30.204  1.00  0.00    -0.203 F 
ATOM     81  C   UNL A   1      41.861  27.354  27.950  1.00  0.00     0.198 A 
ATOM     82  C   UNL A   1      40.318  28.894  27.095  1.00  0.00     0.198 A 
ATOM     83  F   UNL A   1      39.016  30.192  28.416  1.00  0.00    -0.203 F 
ATOM     84  F   UNL A   1      42.755  26.371  27.761  1.00  0.00    -0.200 F 
ATOM     85  C   UNL A   1      41.268  27.935  26.861  1.00  0.00     0.200 A 
ATOM     86  F   UNL A   1      39.640  29.419  26.062  1.00  0.00    -0.200 F 
ATOM     87  F   UNL A   1      41.547  27.533  25.614  1.00  0.00    -0.200 F 
ENDBRANCH  63  77
BRANCH  64  88
ATOM     88  C   UNL A   1      40.185  34.259  38.357  1.00  0.00     0.064 A 
ATOM     89  C   UNL A   1      39.435  33.473  39.257  1.00  0.00     0.173 A 
ATOM     90  C   UNL A   1      40.940  35.308  38.930  1.00  0.00     0.173 A 
ATOM     91  F   UNL A   1      38.663  32.483  38.785  1.00  0.00    -0.203 F 
ATOM     92  C   UNL A   1      39.679  33.522  40.636  1.00  0.00     0.198 A 
ATOM     93  C   UNL A   1      41.195  35.343  40.306  1.00  0.00     0.198 A 
ATOM     94  F   UNL A   1      41.657  36.119  38.135  1.00  0.00    -0.203 F 
ATOM     95  F   UNL A   1      39.130  32.602  41.445  1.00  0.00    -0.200 F 
ATOM     96  C   UNL A   1      40.610  34.412  41.149  1.00  0.00     0.200 A 
ATOM     97  F   UNL A   1      42.127  36.179  40.789  1.00  0.00    -0.200 F 
ATOM     98  F   UNL A   1      40.998  34.323  42.430  1.00  0.00    -0.200 F 
ENDBRANCH  64  88
BRANCH  76  99
ATOM     99  C   UNL A   1      43.643  28.163  35.899  1.00  0.00     0.064 A 
ATOM    100  C   UNL A   1      42.978  26.933  36.035  1.00  0.00     0.173 A 
ATOM    101  C   UNL A   1      45.058  28.074  36.051  1.00  0.00     0.173 A 
ATOM    102  F   UNL A   1      41.674  26.799  35.764  1.00  0.00    -0.203 F 
ATOM    103  C   UNL A   1      43.645  25.751  36.371  1.00  0.00     0.198 A 
ATOM    104  C   UNL A   1      45.724  26.887  36.343  1.00  0.00     0.198 A 
ATOM    105  F   UNL A   1      45.875  29.118  35.863  1.00  0.00    -0.203 F 
ATOM    106  F   UNL A   1      42.941  24.618  36.511  1.00  0.00    -0.200 F 
ATOM    107  C   UNL A   1      45.015  25.724  36.516  1.00  0.00     0.200 A 
ATOM    108  F   UNL A   1      47.063  26.879  36.419  1.00  0.00    -0.200 F 
ATOM    109  F   UNL A   1      45.653  24.576  36.772  1.00  0.00    -0.200 F 
ENDBRANCH  76  99
ENDBRANCH  50  51
ENDBRANCH  43  45
ENDBRANCH  42  43
ENDBRANCH  41  42
ENDBRANCH  40  41
ENDBRANCH  39  40
ENDBRANCH  38  39
ENDBRANCH  37  38
ENDBRANCH  36  37
ENDBRANCH   1  36
TORSDOF 24
ENDMDL
MODEL 3
REMARK VINA RESULT:      -9.3      5.061      7.810
REMARK SMILES Cc1ccccc1/[NH+]=C1\S[C@@H](CC(=O)Nc2ccc(C(=O)OCCOCCOCCOCCOC(=O)c3ccc(-c4c5nc(c(-c6c(F)c(F)c(F)c(F)c6F)c6ccc([nH]6)c(-c6c(F)c(F)c(F)c(F)c6F)c6nc(c(-c7c(F)c(F)c(F)c(F)c7F)c7ccc4[nH]7)C=C6)C=C5)cc3)cc2)C(=O)N1C
REMARK SMILES IDX 27 1 26 2 25 3 24 4 23 5 22 6 20 7 21 8 19 9 16 10 17 11
REMARK SMILES IDX 101 12 18 13 100 14 15 15 13 16 14 17 12 19 11 20 8 21 9 22
REMARK SMILES IDX 10 24 104 25 102 26 105 27 103 28 7 29 1 30 2 31 3 32 4 33
REMARK SMILES IDX 6 34 5 35 28 36 29 37 30 38 31 39 32 40 33 41 34 42 35 43
REMARK SMILES IDX 36 44 37 45 38 46 99 47 39 48 98 49 40 50 41 51 42 52 92 53
REMARK SMILES IDX 43 54 97 55 91 56 93 57 44 58 96 59 90 60 89 61 45 63 77 64
REMARK SMILES IDX 57 65 76 66 58 67 61 68 75 69 94 70 59 71 60 72 74 74 95 75
REMARK SMILES IDX 62 76 46 77 47 78 55 79 48 80 49 81 53 82 56 83 50 84 51 85
REMARK SMILES IDX 54 86 52 87 78 88 79 89 87 90 80 91 81 92 85 93 88 94 82 95
REMARK SMILES IDX 83 96 86 97 84 98 63 99 64 100 72 101 65 102 66 103 70 104
REMARK SMILES IDX 73 105 67 106 68 107 71 108 69 109
REMARK H PARENT 15 18 8 23 93 62 61 73
REMARK Flexibility Score: inf
ROOT
ATOM      1  C   UNL A   1      33.260  28.942  23.405  1.00  0.00     0.188 C 
ENDROOT
BRANCH   1   2
ATOM      2  C   UNL A   1      33.363  27.573  22.726  1.00  0.00     0.188 C 
BRANCH   2   3
ATOM      3  O   UNL A   1      32.102  27.287  22.124  1.00  0.00    -0.376 OA
BRANCH   3   4
ATOM      4  C   UNL A   1      31.070  28.167  22.517  1.00  0.00     0.202 C 
BRANCH   4   5
ATOM      5  C   UNL A   1      29.851  27.492  23.057  1.00  0.00     0.261 C 
BRANCH   5   6
ATOM      6  O   UNL A   1      30.140  26.308  23.763  1.00  0.00    -0.460 OA
BRANCH   6   7
ATOM      7  C   UNL A   1      30.629  26.512  24.999  1.00  0.00     0.338 C 
ATOM      8  O   UNL A   1      30.516  27.508  25.688  1.00  0.00    -0.246 OA
BRANCH   7   9
ATOM      9  C   UNL A   1      31.159  25.198  25.391  1.00  0.00     0.060 A 
ATOM     10  C   UNL A   1      31.780  22.615  26.179  1.00  0.00     0.041 A 
ATOM     11  C   UNL A   1      30.927  22.874  25.143  1.00  0.00     0.027 A 
ATOM     12  C   UNL A   1      32.154  23.684  26.991  1.00  0.00     0.027 A 
ATOM     13  C   UNL A   1      30.768  24.113  24.624  1.00  0.00     0.018 A 
ATOM     14  C   UNL A   1      31.801  24.993  26.611  1.00  0.00     0.018 A 
BRANCH  10  15
ATOM     15  N   UNL A   1      32.206  21.291  26.345  1.00  0.00    -0.326 N 
ATOM     16  C   UNL A   1      32.723  20.433  25.384  1.00  0.00     0.226 C 
ATOM     17  O   UNL A   1      32.887  19.246  25.680  1.00  0.00    -0.275 OA
ATOM     18  H   UNL A   1      32.131  20.924  27.255  1.00  0.00     0.169 HD
BRANCH  16  19
ATOM     19  C   UNL A   1      33.228  20.933  24.011  1.00  0.00     0.128 C 
BRANCH  19  20
ATOM     20  C   UNL A   1      34.639  21.539  24.029  1.00  0.00     0.183 C 
ATOM     21  N   UNL A   1      37.223  23.626  25.655  1.00  0.00    -0.234 N 
ATOM     22  C   UNL A   1      36.070  23.105  25.437  1.00  0.00     0.319 C 
ATOM     23  H   UNL A   1      37.274  24.576  25.401  1.00  0.00     0.313 HD
ATOM     24  S   UNL A   1      35.315  21.581  25.755  1.00  0.00    -0.022 SA
ATOM     25  N   UNL A   1      35.180  23.776  24.669  1.00  0.00    -0.193 N 
ATOM     26  C   UNL A   1      34.721  23.011  23.631  1.00  0.00     0.324 C 
ATOM     27  C   UNL A   1      34.809  25.151  24.898  1.00  0.00     0.301 C 
ATOM     28  O   UNL A   1      34.393  23.446  22.523  1.00  0.00    -0.245 OA
BRANCH  21  29
ATOM     29  C   UNL A   1      38.428  23.131  26.178  1.00  0.00     0.128 A 
ATOM     30  C   UNL A   1      38.963  24.857  28.022  1.00  0.00     0.049 C 
ATOM     31  C   UNL A   1      39.244  23.633  27.208  1.00  0.00    -0.004 A 
ATOM     32  C   UNL A   1      40.409  22.928  27.591  1.00  0.00     0.008 A 
ATOM     33  C   UNL A   1      40.705  21.671  27.079  1.00  0.00     0.001 A 
ATOM     34  C   UNL A   1      38.741  21.835  25.705  1.00  0.00     0.052 A 
ATOM     35  C   UNL A   1      39.846  21.104  26.157  1.00  0.00     0.004 A 
ENDBRANCH  21  29
ENDBRANCH  19  20
ENDBRANCH  16  19
ENDBRANCH  10  15
ENDBRANCH   7   9
ENDBRANCH   6   7
ENDBRANCH   5   6
ENDBRANCH   4   5
ENDBRANCH   3   4
ENDBRANCH   2   3
ENDBRANCH   1   2
BRANCH   1  36
ATOM     36  O   UNL A   1      33.460  28.785  24.817  1.00  0.00    -0.377 OA
BRANCH  36  37
ATOM     37  C   UNL A   1      32.845  29.737  25.685  1.00  0.00     0.188 C 
BRANCH  37  38
ATOM     38  C   UNL A   1      33.303  29.692  27.150  1.00  0.00     0.188 C 
BRANCH  38  39
ATOM     39  O   UNL A   1      34.554  30.333  27.359  1.00  0.00    -0.376 OA
BRANCH  39  40
ATOM     40  C   UNL A   1      34.479  31.732  27.628  1.00  0.00     0.202 C 
BRANCH  40  41
ATOM     41  C   UNL A   1      34.554  32.070  29.125  1.00  0.00     0.261 C 
BRANCH  41  42
ATOM     42  O   UNL A   1      34.797  33.480  29.295  1.00  0.00    -0.460 OA
BRANCH  42  43
ATOM     43  C   UNL A   1      34.518  33.961  30.536  1.00  0.00     0.338 C 
ATOM     44  O   UNL A   1      33.530  34.611  30.836  1.00  0.00    -0.246 OA
BRANCH  43  45
ATOM     45  C   UNL A   1      35.738  33.854  31.388  1.00  0.00     0.060 A 
ATOM     46  C   UNL A   1      36.983  33.952  30.764  1.00  0.00     0.016 A 
ATOM     47  C   UNL A   1      35.640  33.279  32.660  1.00  0.00     0.016 A 
ATOM     48  C   UNL A   1      38.075  33.297  31.334  1.00  0.00     0.010 A 
ATOM     49  C   UNL A   1      36.694  32.513  33.149  1.00  0.00     0.010 A 
ATOM     50  C   UNL A   1      37.916  32.477  32.478  1.00  0.00    -0.014 A 
BRANCH  50  51
ATOM     51  C   UNL A   1      39.022  31.534  32.816  1.00  0.00     0.031 A 
ATOM     52  C   UNL A   1      39.493  30.384  31.924  1.00  0.00     0.074 A 
ATOM     53  C   UNL A   1      39.848  32.016  33.764  1.00  0.00     0.049 A 
ATOM     54  N   UNL A   1      40.545  29.600  31.967  1.00  0.00    -0.248 NA
ATOM     55  C   UNL A   1      38.674  30.117  30.750  1.00  0.00     0.031 C 
ATOM     56  C   UNL A   1      40.377  33.375  33.796  1.00  0.00     0.029 A 
ATOM     57  N   UNL A   1      40.397  31.420  34.859  1.00  0.00    -0.354 N 
ATOM     58  C   UNL A   1      40.627  28.878  30.738  1.00  0.00     0.074 A 
ATOM     59  C   UNL A   1      39.391  29.218  30.087  1.00  0.00     0.031 C 
ATOM     60  C   UNL A   1      41.271  33.518  34.782  1.00  0.00     0.029 A 
ATOM     61  C   UNL A   1      41.347  32.242  35.446  1.00  0.00     0.049 A 
ATOM     62  H   UNL A   1      40.151  30.526  35.190  1.00  0.00     0.167 HD
ATOM     63  C   UNL A   1      41.714  28.135  30.287  1.00  0.00     0.037 A 
ATOM     64  C   UNL A   1      42.005  32.015  36.591  1.00  0.00     0.037 A 
ATOM     65  C   UNL A   1      42.823  28.013  31.274  1.00  0.00     0.049 A 
ATOM     66  C   UNL A   1      42.747  30.722  36.468  1.00  0.00     0.074 A 
ATOM     67  C   UNL A   1      44.205  28.118  31.157  1.00  0.00     0.029 A 
ATOM     68  N   UNL A   1      42.594  27.887  32.656  1.00  0.00    -0.354 N 
ATOM     69  N   UNL A   1      42.914  30.039  35.350  1.00  0.00    -0.248 NA
ATOM     70  C   UNL A   1      43.559  30.228  37.568  1.00  0.00     0.031 C 
ATOM     71  C   UNL A   1      44.785  28.189  32.445  1.00  0.00     0.029 A 
ATOM     72  C   UNL A   1      43.773  28.043  33.376  1.00  0.00     0.049 A 
ATOM     73  H   UNL A   1      41.713  27.710  33.061  1.00  0.00     0.167 HD
ATOM     74  C   UNL A   1      43.685  28.926  35.636  1.00  0.00     0.074 A 
ATOM     75  C   UNL A   1      44.159  29.182  36.986  1.00  0.00     0.031 C 
ATOM     76  C   UNL A   1      43.892  27.846  34.812  1.00  0.00     0.037 A 
BRANCH  63  77
ATOM     77  C   UNL A   1      41.953  27.625  28.772  1.00  0.00     0.064 A 
ATOM     78  C   UNL A   1      41.772  28.480  27.642  1.00  0.00     0.173 A 
ATOM     79  C   UNL A   1      42.306  26.320  28.346  1.00  0.00     0.173 A 
ATOM     80  F   UNL A   1      41.692  29.809  27.767  1.00  0.00    -0.203 F 
ATOM     81  C   UNL A   1      41.767  28.047  26.296  1.00  0.00     0.198 A 
ATOM     82  C   UNL A   1      42.358  25.894  27.001  1.00  0.00     0.198 A 
ATOM     83  F   UNL A   1      42.714  25.366  29.173  1.00  0.00    -0.203 F 
ATOM     84  F   UNL A   1      41.519  28.926  25.312  1.00  0.00    -0.200 F 
ATOM     85  C   UNL A   1      42.053  26.747  25.974  1.00  0.00     0.200 A 
ATOM     86  F   UNL A   1      42.740  24.637  26.725  1.00  0.00    -0.200 F 
ATOM     87  F   UNL A   1      42.107  26.337  24.699  1.00  0.00    -0.200 F 
ENDBRANCH  63  77
BRANCH  64  88
ATOM     88  C   UNL A   1      41.325  32.765  37.711  1.00  0.00     0.064 A 
ATOM     89  C   UNL A   1      41.949  33.956  38.138  1.00  0.00     0.173 A 
ATOM     90  C   UNL A   1      39.912  32.788  37.661  1.00  0.00     0.173 A 
ATOM     91  F   UNL A   1      43.285  34.000  38.247  1.00  0.00    -0.203 F 
ATOM     92  C   UNL A   1      41.240  35.164  38.192  1.00  0.00     0.198 A 
ATOM     93  C   UNL A   1      39.210  33.998  37.699  1.00  0.00     0.198 A 
ATOM     94  F   UNL A   1      39.244  31.683  37.294  1.00  0.00    -0.203 F 
ATOM     95  F   UNL A   1      41.901  36.319  38.366  1.00  0.00    -0.200 F 
ATOM     96  C   UNL A   1      39.884  35.191  37.905  1.00  0.00     0.200 A 
ATOM     97  F   UNL A   1      37.906  34.022  37.381  1.00  0.00    -0.200 F 
ATOM     98  F   UNL A   1      39.247  36.361  37.752  1.00  0.00    -0.200 F 
ENDBRANCH  64  88
BRANCH  76  99
ATOM     99  C   UNL A   1      44.410  26.471  35.255  1.00  0.00     0.064 A 
ATOM    100  C   UNL A   1      43.658  25.286  35.208  1.00  0.00     0.173 A 
ATOM    101  C   UNL A   1      45.781  26.272  35.594  1.00  0.00     0.173 A 
ATOM    102  F   UNL A   1      42.401  25.262  34.751  1.00  0.00    -0.203 F 
ATOM    103  C   UNL A   1      44.195  24.040  35.546  1.00  0.00     0.198 A 
ATOM    104  C   UNL A   1      46.324  25.024  35.888  1.00  0.00     0.198 A 
ATOM    105  F   UNL A   1      46.679  27.265  35.597  1.00  0.00    -0.203 F 
ATOM    106  F   UNL A   1      43.410  22.954  35.504  1.00  0.00    -0.200 F 
ATOM    107  C   UNL A   1      45.527  23.906  35.876  1.00  0.00     0.200 A 
ATOM    108  F   UNL A   1      47.635  24.916  36.147  1.00  0.00    -0.200 F 
ATOM    109  F   UNL A   1      46.050  22.701  36.134  1.00  0.00    -0.200 F 
ENDBRANCH  76  99
ENDBRANCH  50  51
ENDBRANCH  43  45
ENDBRANCH  42  43
ENDBRANCH  41  42
ENDBRANCH  40  41
ENDBRANCH  39  40
ENDBRANCH  38  39
ENDBRANCH  37  38
ENDBRANCH  36  37
ENDBRANCH   1  36
TORSDOF 24
ENDMDL
