MODEL 1
REMARK VINA RESULT:     -11.0      0.000      0.000
REMARK SMILES COc1cc(C(=O)N[C@H](C(=O)OCCOCCOCCOCCOC(=O)c2ccc(-c3c4nc(c(-c5c(F)c(F)c(F)c(F)c5F)c5ccc([nH]5)c(-c5c(F)c(F)c(F)c(F)c5F)c5nc(c(-c6c(F)c(F)c(F)c(F)c6F)c6ccc3[nH]6)C=C5)C=C4)cc2)C2=C(C)N=N[C@H]2C)ccc1C
REMARK SMILES IDX 17 1 16 2 15 3 14 4 13 5 12 6 10 7 11 8 9 9 8 10 6 11 7 12
REMARK SMILES IDX 5 14 3 15 4 16 99 17 98 18 100 19 97 20 2 21 1 22 90 23
REMARK SMILES IDX 91 24 95 25 92 26 93 27 94 28 96 29 18 30 19 31 20 32 21 33
REMARK SMILES IDX 22 34 23 35 24 36 25 37 26 38 27 39 28 40 89 41 29 42 88 43
REMARK SMILES IDX 30 44 31 45 32 46 82 47 33 48 87 49 81 50 83 51 34 52 86 53
REMARK SMILES IDX 80 54 79 55 35 57 67 58 47 59 66 60 48 61 51 62 65 63 84 64
REMARK SMILES IDX 49 65 50 66 64 68 85 69 52 70 36 71 37 72 45 73 38 74 39 75
REMARK SMILES IDX 43 76 46 77 40 78 41 79 44 80 42 81 68 82 69 83 77 84 70 85
REMARK SMILES IDX 71 86 75 87 78 88 72 89 73 90 76 91 74 92 53 93 54 94 62 95
REMARK SMILES IDX 55 96 56 97 60 98 63 99 57 100 58 101 61 102 59 103
REMARK H PARENT 8 13 83 56 51 67
REMARK Flexibility Score: inf
ROOT
ATOM      1  C   UNL A   1      35.220  32.348  27.996  1.00  0.00     0.188 C 
ENDROOT
BRANCH   1   2
ATOM      2  C   UNL A   1      33.825  31.723  27.957  1.00  0.00     0.188 C 
BRANCH   2   3
ATOM      3  O   UNL A   1      33.518  30.682  27.050  1.00  0.00    -0.376 OA
BRANCH   3   4
ATOM      4  C   UNL A   1      34.269  29.503  26.956  1.00  0.00     0.202 C 
BRANCH   4   5
ATOM      5  C   UNL A   1      33.569  28.134  26.897  1.00  0.00     0.261 C 
BRANCH   5   6
ATOM      6  O   UNL A   1      33.323  27.356  25.697  1.00  0.00    -0.461 OA
BRANCH   6   7
ATOM      7  C   UNL A   1      33.707  26.077  25.420  1.00  0.00     0.333 C 
ATOM      8  O   UNL A   1      34.715  25.538  25.760  1.00  0.00    -0.249 OA
BRANCH   7   9
ATOM      9  C   UNL A   1      32.623  25.368  24.604  1.00  0.00     0.223 C 
BRANCH   9  10
ATOM     10  N   UNL A   1      31.759  24.464  25.380  1.00  0.00    -0.335 N 
ATOM     11  C   UNL A   1      32.017  23.390  26.206  1.00  0.00     0.252 C 
ATOM     12  O   UNL A   1      31.474  23.489  27.308  1.00  0.00    -0.269 OA
ATOM     13  H   UNL A   1      30.801  24.667  25.291  1.00  0.00     0.165 HD
BRANCH  11  14
ATOM     14  C   UNL A   1      32.908  22.225  25.809  1.00  0.00     0.043 A 
ATOM     15  C   UNL A   1      33.100  20.087  24.935  1.00  0.00     0.122 A 
ATOM     16  C   UNL A   1      32.307  21.187  25.259  1.00  0.00     0.060 A 
ATOM     17  C   UNL A   1      34.675  20.081  24.948  1.00  0.00    -0.009 A 
ATOM     18  C   UNL A   1      35.243  21.212  25.278  1.00  0.00     0.008 A 
ATOM     19  C   UNL A   1      35.980  19.178  24.810  1.00  0.00     0.048 C 
ATOM     20  C   UNL A   1      34.328  22.075  25.773  1.00  0.00     0.014 A 
BRANCH  15  21
ATOM     21  O   UNL A   1      32.285  18.971  24.863  1.00  0.00    -0.496 OA
ATOM     22  C   UNL A   1      32.449  17.801  25.652  1.00  0.00     0.278 C 
ENDBRANCH  15  21
ENDBRANCH  11  14
ENDBRANCH   9  10
BRANCH   9  23
ATOM     23  C   UNL A   1      31.817  26.134  23.571  1.00  0.00     0.012 C 
ATOM     24  C   UNL A   1      30.848  27.072  23.491  1.00  0.00     0.064 C 
ATOM     25  C   UNL A   1      32.257  25.988  22.138  1.00  0.00     0.156 C 
ATOM     26  C   UNL A   1      30.112  27.932  24.464  1.00  0.00     0.069 C 
ATOM     27  N   UNL A   1      30.498  27.352  22.187  1.00  0.00    -0.160 NA
ATOM     28  N   UNL A   1      31.230  26.731  21.382  1.00  0.00    -0.181 NA
ATOM     29  C   UNL A   1      33.591  26.703  21.908  1.00  0.00     0.040 C 
ENDBRANCH   9  23
ENDBRANCH   7   9
ENDBRANCH   6   7
ENDBRANCH   5   6
ENDBRANCH   4   5
ENDBRANCH   3   4
ENDBRANCH   2   3
ENDBRANCH   1   2
BRANCH   1  30
ATOM     30  O   UNL A   1      35.295  33.764  28.197  1.00  0.00    -0.377 OA
BRANCH  30  31
ATOM     31  C   UNL A   1      34.082  34.502  28.071  1.00  0.00     0.188 C 
BRANCH  31  32
ATOM     32  C   UNL A   1      34.286  36.023  28.080  1.00  0.00     0.188 C 
BRANCH  32  33
ATOM     33  O   UNL A   1      33.681  36.615  29.219  1.00  0.00    -0.376 OA
BRANCH  33  34
ATOM     34  C   UNL A   1      32.964  35.690  30.040  1.00  0.00     0.202 C 
BRANCH  34  35
ATOM     35  C   UNL A   1      32.499  36.423  31.290  1.00  0.00     0.261 C 
BRANCH  35  36
ATOM     36  O   UNL A   1      32.875  35.600  32.418  1.00  0.00    -0.460 OA
BRANCH  36  37
ATOM     37  C   UNL A   1      34.123  35.856  32.901  1.00  0.00     0.338 C 
ATOM     38  O   UNL A   1      34.659  36.955  32.916  1.00  0.00    -0.246 OA
BRANCH  37  39
ATOM     39  C   UNL A   1      34.833  34.595  33.280  1.00  0.00     0.060 A 
ATOM     40  C   UNL A   1      35.371  34.481  34.567  1.00  0.00     0.016 A 
ATOM     41  C   UNL A   1      35.138  33.608  32.343  1.00  0.00     0.016 A 
ATOM     42  C   UNL A   1      36.202  33.395  34.907  1.00  0.00     0.010 A 
ATOM     43  C   UNL A   1      36.013  32.558  32.675  1.00  0.00     0.010 A 
ATOM     44  C   UNL A   1      36.546  32.410  33.964  1.00  0.00    -0.014 A 
BRANCH  44  45
ATOM     45  C   UNL A   1      37.575  31.341  34.339  1.00  0.00     0.031 A 
ATOM     46  C   UNL A   1      37.639  30.003  33.071  1.00  0.00     0.074 A 
ATOM     47  C   UNL A   1      38.629  32.016  35.073  1.00  0.00     0.049 A 
ATOM     48  N   UNL A   1      38.497  28.961  32.950  1.00  0.00    -0.248 NA
ATOM     49  C   UNL A   1      36.833  29.972  31.842  1.00  0.00     0.031 C 
ATOM     50  C   UNL A   1      39.578  32.914  34.409  1.00  0.00     0.029 A 
ATOM     51  N   UNL A   1      39.342  31.936  36.355  1.00  0.00    -0.354 N 
ATOM     52  C   UNL A   1      38.782  28.598  31.643  1.00  0.00     0.074 A 
ATOM     53  C   UNL A   1      37.535  29.138  31.029  1.00  0.00     0.031 C 
ATOM     54  C   UNL A   1      40.715  33.129  35.107  1.00  0.00     0.029 A 
ATOM     55  C   UNL A   1      40.734  32.368  36.333  1.00  0.00     0.049 A 
ATOM     56  H   UNL A   1      38.908  31.611  37.177  1.00  0.00     0.167 HD
ATOM     57  C   UNL A   1      40.036  28.167  31.079  1.00  0.00     0.037 A 
ATOM     58  C   UNL A   1      41.852  32.447  37.191  1.00  0.00     0.037 A 
ATOM     59  C   UNL A   1      41.541  28.432  31.736  1.00  0.00     0.049 A 
ATOM     60  C   UNL A   1      43.485  31.824  36.877  1.00  0.00     0.074 A 
ATOM     61  C   UNL A   1      42.653  29.070  31.139  1.00  0.00     0.029 A 
ATOM     62  N   UNL A   1      42.130  28.130  33.041  1.00  0.00    -0.354 N 
ATOM     63  N   UNL A   1      44.128  31.555  35.724  1.00  0.00    -0.248 NA
ATOM     64  C   UNL A   1      44.122  30.935  37.884  1.00  0.00     0.031 C 
ATOM     65  C   UNL A   1      43.796  29.211  32.022  1.00  0.00     0.029 A 
ATOM     66  C   UNL A   1      43.454  28.842  33.321  1.00  0.00     0.049 A 
ATOM     67  H   UNL A   1      41.709  27.517  33.687  1.00  0.00     0.167 HD
ATOM     68  C   UNL A   1      44.563  30.095  35.709  1.00  0.00     0.074 A 
ATOM     69  C   UNL A   1      44.822  30.013  37.164  1.00  0.00     0.031 C 
ATOM     70  C   UNL A   1      44.255  28.938  34.788  1.00  0.00     0.037 A 
BRANCH  57  71
ATOM     71  C   UNL A   1      40.046  27.788  29.515  1.00  0.00     0.064 A 
ATOM     72  C   UNL A   1      39.609  26.535  29.014  1.00  0.00     0.173 A 
ATOM     73  C   UNL A   1      40.450  28.646  28.468  1.00  0.00     0.173 A 
ATOM     74  F   UNL A   1      38.825  25.728  29.737  1.00  0.00    -0.203 F 
ATOM     75  C   UNL A   1      39.847  26.090  27.700  1.00  0.00     0.198 A 
ATOM     76  C   UNL A   1      40.716  28.208  27.156  1.00  0.00     0.198 A 
ATOM     77  F   UNL A   1      40.480  29.975  28.636  1.00  0.00    -0.203 F 
ATOM     78  F   UNL A   1      39.446  24.865  27.328  1.00  0.00    -0.200 F 
ATOM     79  C   UNL A   1      40.454  26.911  26.782  1.00  0.00     0.200 A 
ATOM     80  F   UNL A   1      41.200  29.071  26.250  1.00  0.00    -0.200 F 
ATOM     81  F   UNL A   1      40.692  26.491  25.532  1.00  0.00    -0.200 F 
ENDBRANCH  57  71
BRANCH  58  82
ATOM     82  C   UNL A   1      41.641  33.739  37.971  1.00  0.00     0.064 A 
ATOM     83  C   UNL A   1      41.996  34.991  37.427  1.00  0.00     0.173 A 
ATOM     84  C   UNL A   1      40.559  33.734  38.878  1.00  0.00     0.173 A 
ATOM     85  F   UNL A   1      43.008  35.086  36.553  1.00  0.00    -0.203 F 
ATOM     86  C   UNL A   1      41.188  36.122  37.630  1.00  0.00     0.198 A 
ATOM     87  C   UNL A   1      39.734  34.849  39.039  1.00  0.00     0.198 A 
ATOM     88  F   UNL A   1      40.183  32.576  39.446  1.00  0.00    -0.203 F 
ATOM     89  F   UNL A   1      41.452  37.262  36.974  1.00  0.00    -0.200 F 
ATOM     90  C   UNL A   1      40.025  36.030  38.380  1.00  0.00     0.200 A 
ATOM     91  F   UNL A   1      38.593  34.737  39.735  1.00  0.00    -0.200 F 
ATOM     92  F   UNL A   1      39.155  37.051  38.407  1.00  0.00    -0.200 F 
ENDBRANCH  58  82
BRANCH  70  93
ATOM     93  C   UNL A   1      44.506  27.502  35.233  1.00  0.00     0.064 A 
ATOM     94  C   UNL A   1      43.636  26.774  36.051  1.00  0.00     0.173 A 
ATOM     95  C   UNL A   1      45.510  26.749  34.569  1.00  0.00     0.173 A 
ATOM     96  F   UNL A   1      42.557  27.341  36.604  1.00  0.00    -0.203 F 
ATOM     97  C   UNL A   1      43.792  25.402  36.246  1.00  0.00     0.198 A 
ATOM     98  C   UNL A   1      45.586  25.363  34.674  1.00  0.00     0.198 A 
ATOM     99  F   UNL A   1      46.396  27.339  33.753  1.00  0.00    -0.203 F 
ATOM    100  F   UNL A   1      42.970  24.759  37.087  1.00  0.00    -0.200 F 
ATOM    101  C   UNL A   1      44.741  24.692  35.534  1.00  0.00     0.200 A 
ATOM    102  F   UNL A   1      46.449  24.679  33.910  1.00  0.00    -0.200 F 
ATOM    103  F   UNL A   1      44.819  23.360  35.652  1.00  0.00    -0.200 F 
ENDBRANCH  70  93
ENDBRANCH  44  45
ENDBRANCH  37  39
ENDBRANCH  36  37
ENDBRANCH  35  36
ENDBRANCH  34  35
ENDBRANCH  33  34
ENDBRANCH  32  33
ENDBRANCH  31  32
ENDBRANCH  30  31
ENDBRANCH   1  30
TORSDOF 24
ENDMDL
MODEL 2
REMARK VINA RESULT:     -11.0      1.490      2.462
REMARK SMILES COc1cc(C(=O)N[C@H](C(=O)OCCOCCOCCOCCOC(=O)c2ccc(-c3c4nc(c(-c5c(F)c(F)c(F)c(F)c5F)c5ccc([nH]5)c(-c5c(F)c(F)c(F)c(F)c5F)c5nc(c(-c6c(F)c(F)c(F)c(F)c6F)c6ccc3[nH]6)C=C5)C=C4)cc2)C2=C(C)N=N[C@H]2C)ccc1C
REMARK SMILES IDX 17 1 16 2 15 3 14 4 13 5 12 6 10 7 11 8 9 9 8 10 6 11 7 12
REMARK SMILES IDX 5 14 3 15 4 16 99 17 98 18 100 19 97 20 2 21 1 22 90 23
REMARK SMILES IDX 91 24 95 25 92 26 93 27 94 28 96 29 18 30 19 31 20 32 21 33
REMARK SMILES IDX 22 34 23 35 24 36 25 37 26 38 27 39 28 40 89 41 29 42 88 43
REMARK SMILES IDX 30 44 31 45 32 46 82 47 33 48 87 49 81 50 83 51 34 52 86 53
REMARK SMILES IDX 80 54 79 55 35 57 67 58 47 59 66 60 48 61 51 62 65 63 84 64
REMARK SMILES IDX 49 65 50 66 64 68 85 69 52 70 36 71 37 72 45 73 38 74 39 75
REMARK SMILES IDX 43 76 46 77 40 78 41 79 44 80 42 81 68 82 69 83 77 84 70 85
REMARK SMILES IDX 71 86 75 87 78 88 72 89 73 90 76 91 74 92 53 93 54 94 62 95
REMARK SMILES IDX 55 96 56 97 60 98 63 99 57 100 58 101 61 102 59 103
REMARK H PARENT 8 13 83 56 51 67
REMARK Flexibility Score: inf
ROOT
ATOM      1  C   UNL A   1      35.378  31.120  27.824  1.00  0.00     0.188 C 
ENDROOT
BRANCH   1   2
ATOM      2  C   UNL A   1      33.954  30.787  27.379  1.00  0.00     0.188 C 
BRANCH   2   3
ATOM      3  O   UNL A   1      33.712  29.814  26.381  1.00  0.00    -0.376 OA
BRANCH   3   4
ATOM      4  C   UNL A   1      34.373  28.579  26.338  1.00  0.00     0.202 C 
BRANCH   4   5
ATOM      5  C   UNL A   1      33.710  27.361  25.672  1.00  0.00     0.261 C 
BRANCH   5   6
ATOM      6  O   UNL A   1      33.810  27.000  24.270  1.00  0.00    -0.461 OA
BRANCH   6   7
ATOM      7  C   UNL A   1      33.609  25.784  23.690  1.00  0.00     0.333 C 
ATOM      8  O   UNL A   1      33.843  25.476  22.561  1.00  0.00    -0.249 OA
BRANCH   7   9
ATOM      9  C   UNL A   1      33.044  24.798  24.716  1.00  0.00     0.223 C 
BRANCH   9  10
ATOM     10  N   UNL A   1      34.011  24.334  25.724  1.00  0.00    -0.335 N 
ATOM     11  C   UNL A   1      35.002  23.375  25.712  1.00  0.00     0.252 C 
ATOM     12  O   UNL A   1      36.094  23.805  26.085  1.00  0.00    -0.269 OA
ATOM     13  H   UNL A   1      33.936  24.807  26.584  1.00  0.00     0.165 HD
BRANCH  11  14
ATOM     14  C   UNL A   1      34.774  21.945  25.249  1.00  0.00     0.043 A 
ATOM     15  C   UNL A   1      35.584  19.787  25.014  1.00  0.00     0.122 A 
ATOM     16  C   UNL A   1      35.753  21.091  25.477  1.00  0.00     0.060 A 
ATOM     17  C   UNL A   1      34.233  19.198  24.462  1.00  0.00    -0.009 A 
ATOM     18  C   UNL A   1      33.213  20.018  24.468  1.00  0.00     0.008 A 
ATOM     19  C   UNL A   1      33.544  17.950  23.750  1.00  0.00     0.048 C 
ATOM     20  C   UNL A   1      33.621  21.279  24.730  1.00  0.00     0.014 A 
BRANCH  15  21
ATOM     21  O   UNL A   1      36.835  19.209  24.882  1.00  0.00    -0.496 OA
ATOM     22  C   UNL A   1      38.063  19.921  24.944  1.00  0.00     0.278 C 
ENDBRANCH  15  21
ENDBRANCH  11  14
ENDBRANCH   9  10
BRANCH   9  23
ATOM     23  C   UNL A   1      31.683  25.039  25.342  1.00  0.00     0.012 C 
ATOM     24  C   UNL A   1      30.614  25.857  25.231  1.00  0.00     0.064 C 
ATOM     25  C   UNL A   1      31.200  23.994  26.314  1.00  0.00     0.156 C 
ATOM     26  C   UNL A   1      30.199  26.951  24.303  1.00  0.00     0.069 C 
ATOM     27  N   UNL A   1      29.638  25.572  26.162  1.00  0.00    -0.160 NA
ATOM     28  N   UNL A   1      29.939  24.558  26.832  1.00  0.00    -0.181 NA
ATOM     29  C   UNL A   1      30.848  22.697  25.582  1.00  0.00     0.040 C 
ENDBRANCH   9  23
ENDBRANCH   7   9
ENDBRANCH   6   7
ENDBRANCH   5   6
ENDBRANCH   4   5
ENDBRANCH   3   4
ENDBRANCH   2   3
ENDBRANCH   1   2
BRANCH   1  30
ATOM     30  O   UNL A   1      35.632  32.464  28.248  1.00  0.00    -0.377 OA
BRANCH  30  31
ATOM     31  C   UNL A   1      34.505  33.328  28.373  1.00  0.00     0.188 C 
BRANCH  31  32
ATOM     32  C   UNL A   1      34.697  34.689  27.689  1.00  0.00     0.188 C 
BRANCH  32  33
ATOM     33  O   UNL A   1      34.060  35.724  28.419  1.00  0.00    -0.376 OA
BRANCH  33  34
ATOM     34  C   UNL A   1      33.045  35.262  29.314  1.00  0.00     0.202 C 
BRANCH  34  35
ATOM     35  C   UNL A   1      32.600  36.434  30.177  1.00  0.00     0.261 C 
BRANCH  35  36
ATOM     36  O   UNL A   1      32.546  35.952  31.539  1.00  0.00    -0.460 OA
BRANCH  36  37
ATOM     37  C   UNL A   1      33.650  36.250  32.278  1.00  0.00     0.338 C 
ATOM     38  O   UNL A   1      33.969  37.373  32.644  1.00  0.00    -0.246 OA
BRANCH  37  39
ATOM     39  C   UNL A   1      34.524  35.050  32.468  1.00  0.00     0.060 A 
ATOM     40  C   UNL A   1      34.075  34.008  33.287  1.00  0.00     0.016 A 
ATOM     41  C   UNL A   1      35.841  35.014  32.009  1.00  0.00     0.016 A 
ATOM     42  C   UNL A   1      34.933  32.948  33.640  1.00  0.00     0.010 A 
ATOM     43  C   UNL A   1      36.706  33.982  32.413  1.00  0.00     0.010 A 
ATOM     44  C   UNL A   1      36.273  32.915  33.214  1.00  0.00    -0.014 A 
BRANCH  44  45
ATOM     45  C   UNL A   1      37.204  31.827  33.755  1.00  0.00     0.031 A 
ATOM     46  C   UNL A   1      37.272  30.381  32.613  1.00  0.00     0.074 A 
ATOM     47  C   UNL A   1      38.243  32.503  34.507  1.00  0.00     0.049 A 
ATOM     48  N   UNL A   1      38.069  29.286  32.644  1.00  0.00    -0.248 NA
ATOM     49  C   UNL A   1      36.554  30.287  31.332  1.00  0.00     0.031 C 
ATOM     50  C   UNL A   1      39.291  33.284  33.844  1.00  0.00     0.029 A 
ATOM     51  N   UNL A   1      38.859  32.497  35.842  1.00  0.00    -0.354 N 
ATOM     52  C   UNL A   1      38.422  28.792  31.398  1.00  0.00     0.074 A 
ATOM     53  C   UNL A   1      37.258  29.346  30.648  1.00  0.00     0.031 C 
ATOM     54  C   UNL A   1      40.389  33.495  34.605  1.00  0.00     0.029 A 
ATOM     55  C   UNL A   1      40.273  32.845  35.889  1.00  0.00     0.049 A 
ATOM     56  H   UNL A   1      38.348  32.271  36.653  1.00  0.00     0.167 HD
ATOM     57  C   UNL A   1      39.684  28.243  30.968  1.00  0.00     0.037 A 
ATOM     58  C   UNL A   1      41.330  32.936  36.819  1.00  0.00     0.037 A 
ATOM     59  C   UNL A   1      41.152  28.479  31.713  1.00  0.00     0.049 A 
ATOM     60  C   UNL A   1      42.939  32.196  36.683  1.00  0.00     0.074 A 
ATOM     61  C   UNL A   1      42.342  28.998  31.150  1.00  0.00     0.029 A 
ATOM     62  N   UNL A   1      41.628  28.261  33.079  1.00  0.00    -0.354 N 
ATOM     63  N   UNL A   1      43.643  31.791  35.609  1.00  0.00    -0.248 NA
ATOM     64  C   UNL A   1      43.446  31.365  37.806  1.00  0.00     0.031 C 
ATOM     65  C   UNL A   1      43.426  29.151  32.102  1.00  0.00     0.029 A 
ATOM     66  C   UNL A   1      42.971  28.919  33.398  1.00  0.00     0.049 A 
ATOM     67  H   UNL A   1      41.124  27.732  33.741  1.00  0.00     0.167 HD
ATOM     68  C   UNL A   1      43.985  30.313  35.749  1.00  0.00     0.074 A 
ATOM     69  C   UNL A   1      44.135  30.345  37.221  1.00  0.00     0.031 C 
ATOM     70  C   UNL A   1      43.671  29.099  34.908  1.00  0.00     0.037 A 
BRANCH  57  71
ATOM     71  C   UNL A   1      39.780  27.727  29.447  1.00  0.00     0.064 A 
ATOM     72  C   UNL A   1      39.452  26.405  29.050  1.00  0.00     0.173 A 
ATOM     73  C   UNL A   1      40.160  28.516  28.339  1.00  0.00     0.173 A 
ATOM     74  F   UNL A   1      38.702  25.610  29.819  1.00  0.00    -0.203 F 
ATOM     75  C   UNL A   1      39.771  25.863  27.791  1.00  0.00     0.198 A 
ATOM     76  C   UNL A   1      40.507  27.984  27.081  1.00  0.00     0.198 A 
ATOM     77  F   UNL A   1      40.089  29.853  28.384  1.00  0.00    -0.203 F 
ATOM     78  F   UNL A   1      39.474  24.584  27.521  1.00  0.00    -0.200 F 
ATOM     79  C   UNL A   1      40.353  26.642  26.821  1.00  0.00     0.200 A 
ATOM     80  F   UNL A   1      40.961  28.796  26.115  1.00  0.00    -0.200 F 
ATOM     81  F   UNL A   1      40.667  26.132  25.622  1.00  0.00    -0.200 F 
ENDBRANCH  57  71
BRANCH  58  82
ATOM     82  C   UNL A   1      41.147  34.302  37.470  1.00  0.00     0.064 A 
ATOM     83  C   UNL A   1      40.477  34.444  38.702  1.00  0.00     0.173 A 
ATOM     84  C   UNL A   1      42.156  35.250  37.192  1.00  0.00     0.173 A 
ATOM     85  F   UNL A   1      39.509  33.584  39.048  1.00  0.00    -0.203 F 
ATOM     86  C   UNL A   1      40.931  35.355  39.671  1.00  0.00     0.198 A 
ATOM     87  C   UNL A   1      42.633  36.120  38.174  1.00  0.00     0.198 A 
ATOM     88  F   UNL A   1      42.820  35.181  36.026  1.00  0.00    -0.203 F 
ATOM     89  F   UNL A   1      40.382  35.362  40.895  1.00  0.00    -0.200 F 
ATOM     90  C   UNL A   1      42.047  36.141  39.427  1.00  0.00     0.200 A 
ATOM     91  F   UNL A   1      43.735  36.848  37.940  1.00  0.00    -0.200 F 
ATOM     92  F   UNL A   1      42.597  36.860  40.418  1.00  0.00    -0.200 F 
ENDBRANCH  58  82
BRANCH  70  93
ATOM     93  C   UNL A   1      43.799  27.695  35.489  1.00  0.00     0.064 A 
ATOM     94  C   UNL A   1      44.975  26.939  35.454  1.00  0.00     0.173 A 
ATOM     95  C   UNL A   1      42.785  27.225  36.364  1.00  0.00     0.173 A 
ATOM     96  F   UNL A   1      46.059  27.362  34.792  1.00  0.00    -0.203 F 
ATOM     97  C   UNL A   1      45.110  25.762  36.191  1.00  0.00     0.198 A 
ATOM     98  C   UNL A   1      42.971  26.117  37.186  1.00  0.00     0.198 A 
ATOM     99  F   UNL A   1      41.616  27.873  36.486  1.00  0.00    -0.203 F 
ATOM    100  F   UNL A   1      46.233  25.040  36.077  1.00  0.00    -0.200 F 
ATOM    101  C   UNL A   1      44.126  25.370  37.079  1.00  0.00     0.200 A 
ATOM    102  F   UNL A   1      42.049  25.802  38.106  1.00  0.00    -0.200 F 
ATOM    103  F   UNL A   1      44.306  24.293  37.855  1.00  0.00    -0.200 F 
ENDBRANCH  70  93
ENDBRANCH  44  45
ENDBRANCH  37  39
ENDBRANCH  36  37
ENDBRANCH  35  36
ENDBRANCH  34  35
ENDBRANCH  33  34
ENDBRANCH  32  33
ENDBRANCH  31  32
ENDBRANCH  30  31
ENDBRANCH   1  30
TORSDOF 24
ENDMDL
MODEL 3
REMARK VINA RESULT:     -10.6      6.265     11.555
REMARK SMILES COc1cc(C(=O)N[C@H](C(=O)OCCOCCOCCOCCOC(=O)c2ccc(-c3c4nc(c(-c5c(F)c(F)c(F)c(F)c5F)c5ccc([nH]5)c(-c5c(F)c(F)c(F)c(F)c5F)c5nc(c(-c6c(F)c(F)c(F)c(F)c6F)c6ccc3[nH]6)C=C5)C=C4)cc2)C2=C(C)N=N[C@H]2C)ccc1C
REMARK SMILES IDX 17 1 16 2 15 3 14 4 13 5 12 6 10 7 11 8 9 9 8 10 6 11 7 12
REMARK SMILES IDX 5 14 3 15 4 16 99 17 98 18 100 19 97 20 2 21 1 22 90 23
REMARK SMILES IDX 91 24 95 25 92 26 93 27 94 28 96 29 18 30 19 31 20 32 21 33
REMARK SMILES IDX 22 34 23 35 24 36 25 37 26 38 27 39 28 40 89 41 29 42 88 43
REMARK SMILES IDX 30 44 31 45 32 46 82 47 33 48 87 49 81 50 83 51 34 52 86 53
REMARK SMILES IDX 80 54 79 55 35 57 67 58 47 59 66 60 48 61 51 62 65 63 84 64
REMARK SMILES IDX 49 65 50 66 64 68 85 69 52 70 36 71 37 72 45 73 38 74 39 75
REMARK SMILES IDX 43 76 46 77 40 78 41 79 44 80 42 81 68 82 69 83 77 84 70 85
REMARK SMILES IDX 71 86 75 87 78 88 72 89 73 90 76 91 74 92 53 93 54 94 62 95
REMARK SMILES IDX 55 96 56 97 60 98 63 99 57 100 58 101 61 102 59 103
REMARK H PARENT 8 13 83 56 51 67
REMARK Flexibility Score: inf
ROOT
ATOM      1  C   UNL A   1      38.149  21.253  25.901  1.00  0.00     0.188 C 
ENDROOT
BRANCH   1   2
ATOM      2  C   UNL A   1      37.169  21.576  24.774  1.00  0.00     0.188 C 
BRANCH   2   3
ATOM      3  O   UNL A   1      36.989  22.905  24.322  1.00  0.00    -0.376 OA
BRANCH   3   4
ATOM      4  C   UNL A   1      36.403  23.223  23.091  1.00  0.00     0.202 C 
BRANCH   4   5
ATOM      5  C   UNL A   1      34.880  23.403  22.974  1.00  0.00     0.261 C 
BRANCH   5   6
ATOM      6  O   UNL A   1      34.167  24.665  23.025  1.00  0.00    -0.461 OA
BRANCH   6   7
ATOM      7  C   UNL A   1      33.374  25.233  22.072  1.00  0.00     0.333 C 
ATOM      8  O   UNL A   1      33.400  25.028  20.897  1.00  0.00    -0.249 OA
BRANCH   7   9
ATOM      9  C   UNL A   1      32.373  26.191  22.723  1.00  0.00     0.223 C 
BRANCH   9  10
ATOM     10  N   UNL A   1      31.073  25.590  23.062  1.00  0.00    -0.335 N 
ATOM     11  C   UNL A   1      30.663  24.724  24.053  1.00  0.00     0.252 C 
ATOM     12  O   UNL A   1      29.685  25.138  24.680  1.00  0.00    -0.269 OA
ATOM     13  H   UNL A   1      30.347  25.863  22.456  1.00  0.00     0.165 HD
BRANCH  11  14
ATOM     14  C   UNL A   1      31.368  23.414  24.362  1.00  0.00     0.043 A 
ATOM     15  C   UNL A   1      32.301  21.991  25.936  1.00  0.00     0.122 A 
ATOM     16  C   UNL A   1      31.609  23.164  25.636  1.00  0.00     0.060 A 
ATOM     17  C   UNL A   1      32.599  20.836  24.908  1.00  0.00    -0.009 A 
ATOM     18  C   UNL A   1      32.135  21.020  23.698  1.00  0.00     0.008 A 
ATOM     19  C   UNL A   1      33.374  19.464  24.671  1.00  0.00     0.048 C 
ATOM     20  C   UNL A   1      31.705  22.292  23.545  1.00  0.00     0.014 A 
BRANCH  15  21
ATOM     21  O   UNL A   1      32.888  22.141  27.181  1.00  0.00    -0.496 OA
ATOM     22  C   UNL A   1      34.228  21.784  27.488  1.00  0.00     0.278 C 
ENDBRANCH  15  21
ENDBRANCH  11  14
ENDBRANCH   9  10
BRANCH   9  23
ATOM     23  C   UNL A   1      32.826  27.150  23.809  1.00  0.00     0.012 C 
ATOM     24  C   UNL A   1      33.282  27.147  25.079  1.00  0.00     0.064 C 
ATOM     25  C   UNL A   1      33.004  28.589  23.397  1.00  0.00     0.156 C 
ATOM     26  C   UNL A   1      33.671  26.099  26.071  1.00  0.00     0.069 C 
ATOM     27  N   UNL A   1      33.507  28.419  25.559  1.00  0.00    -0.160 NA
ATOM     28  N   UNL A   1      33.319  29.275  24.665  1.00  0.00    -0.181 NA
ATOM     29  C   UNL A   1      34.223  28.743  22.485  1.00  0.00     0.040 C 
ENDBRANCH   9  23
ENDBRANCH   7   9
ENDBRANCH   6   7
ENDBRANCH   5   6
ENDBRANCH   4   5
ENDBRANCH   3   4
ENDBRANCH   2   3
ENDBRANCH   1   2
BRANCH   1  30
ATOM     30  O   UNL A   1      39.254  22.147  26.082  1.00  0.00    -0.377 OA
BRANCH  30  31
ATOM     31  C   UNL A   1      40.544  21.560  26.232  1.00  0.00     0.188 C 
BRANCH  31  32
ATOM     32  C   UNL A   1      40.538  20.029  26.125  1.00  0.00     0.188 C 
BRANCH  32  33
ATOM     33  O   UNL A   1      41.814  19.488  26.425  1.00  0.00    -0.376 OA
BRANCH  33  34
ATOM     34  C   UNL A   1      42.844  19.898  25.522  1.00  0.00     0.202 C 
BRANCH  34  35
ATOM     35  C   UNL A   1      43.824  18.745  25.359  1.00  0.00     0.261 C 
BRANCH  35  36
ATOM     36  O   UNL A   1      45.093  19.201  25.879  1.00  0.00    -0.460 OA
BRANCH  36  37
ATOM     37  C   UNL A   1      45.807  19.967  25.009  1.00  0.00     0.338 C 
ATOM     38  O   UNL A   1      46.726  19.566  24.309  1.00  0.00    -0.246 OA
BRANCH  37  39
ATOM     39  C   UNL A   1      45.433  21.412  25.116  1.00  0.00     0.060 A 
ATOM     40  C   UNL A   1      45.360  22.182  23.949  1.00  0.00     0.016 A 
ATOM     41  C   UNL A   1      45.334  22.061  26.347  1.00  0.00     0.016 A 
ATOM     42  C   UNL A   1      45.193  23.579  24.016  1.00  0.00     0.010 A 
ATOM     43  C   UNL A   1      45.224  23.462  26.405  1.00  0.00     0.010 A 
ATOM     44  C   UNL A   1      45.127  24.252  25.250  1.00  0.00    -0.014 A 
BRANCH  44  45
ATOM     45  C   UNL A   1      45.104  25.782  25.268  1.00  0.00     0.031 A 
ATOM     46  C   UNL A   1      43.386  26.421  25.476  1.00  0.00     0.074 A 
ATOM     47  C   UNL A   1      46.362  26.211  25.847  1.00  0.00     0.049 A 
ATOM     48  N   UNL A   1      42.949  27.686  25.680  1.00  0.00    -0.248 NA
ATOM     49  C   UNL A   1      42.191  25.579  25.635  1.00  0.00     0.031 C 
ATOM     50  C   UNL A   1      46.648  26.048  27.275  1.00  0.00     0.029 A 
ATOM     51  N   UNL A   1      47.507  27.082  25.546  1.00  0.00    -0.354 N 
ATOM     52  C   UNL A   1      41.825  27.786  26.486  1.00  0.00     0.074 A 
ATOM     53  C   UNL A   1      41.298  26.414  26.231  1.00  0.00     0.031 C 
ATOM     54  C   UNL A   1      47.640  26.844  27.735  1.00  0.00     0.029 A 
ATOM     55  C   UNL A   1      48.147  27.708  26.696  1.00  0.00     0.049 A 
ATOM     56  H   UNL A   1      47.821  27.234  24.625  1.00  0.00     0.167 HD
ATOM     57  C   UNL A   1      41.516  28.776  27.487  1.00  0.00     0.037 A 
ATOM     58  C   UNL A   1      49.178  28.627  26.988  1.00  0.00     0.037 A 
ATOM     59  C   UNL A   1      42.613  29.772  28.242  1.00  0.00     0.049 A 
ATOM     60  C   UNL A   1      49.061  30.070  28.016  1.00  0.00     0.074 A 
ATOM     61  C   UNL A   1      42.850  29.915  29.629  1.00  0.00     0.029 A 
ATOM     62  N   UNL A   1      43.611  30.719  27.745  1.00  0.00    -0.354 N 
ATOM     63  N   UNL A   1      48.214  30.383  29.017  1.00  0.00    -0.248 NA
ATOM     64  C   UNL A   1      49.509  31.379  27.473  1.00  0.00     0.031 C 
ATOM     65  C   UNL A   1      43.942  30.815  29.950  1.00  0.00     0.029 A 
ATOM     66  C   UNL A   1      44.624  31.184  28.793  1.00  0.00     0.049 A 
ATOM     67  H   UNL A   1      43.630  31.034  26.812  1.00  0.00     0.167 HD
ATOM     68  C   UNL A   1      47.494  31.685  28.689  1.00  0.00     0.074 A 
ATOM     69  C   UNL A   1      48.635  32.298  27.974  1.00  0.00     0.031 C 
ATOM     70  C   UNL A   1      46.036  32.040  28.518  1.00  0.00     0.037 A 
BRANCH  57  71
ATOM     71  C   UNL A   1      40.105  28.633  28.249  1.00  0.00     0.064 A 
ATOM     72  C   UNL A   1      38.919  29.280  27.819  1.00  0.00     0.173 A 
ATOM     73  C   UNL A   1      39.871  27.840  29.394  1.00  0.00     0.173 A 
ATOM     74  F   UNL A   1      38.788  29.745  26.572  1.00  0.00    -0.203 F 
ATOM     75  C   UNL A   1      37.753  29.380  28.601  1.00  0.00     0.198 A 
ATOM     76  C   UNL A   1      38.721  27.949  30.200  1.00  0.00     0.198 A 
ATOM     77  F   UNL A   1      40.689  26.828  29.713  1.00  0.00    -0.203 F 
ATOM     78  F   UNL A   1      36.694  30.060  28.136  1.00  0.00    -0.200 F 
ATOM     79  C   UNL A   1      37.674  28.758  29.823  1.00  0.00     0.200 A 
ATOM     80  F   UNL A   1      38.628  27.234  31.330  1.00  0.00    -0.200 F 
ATOM     81  F   UNL A   1      36.571  28.856  30.577  1.00  0.00    -0.200 F 
ENDBRANCH  57  71
BRANCH  58  82
ATOM     82  C   UNL A   1      50.453  27.793  26.947  1.00  0.00     0.064 A 
ATOM     83  C   UNL A   1      51.302  27.808  25.822  1.00  0.00     0.173 A 
ATOM     84  C   UNL A   1      51.069  27.560  28.195  1.00  0.00     0.173 A 
ATOM     85  F   UNL A   1      50.801  28.028  24.598  1.00  0.00    -0.203 F 
ATOM     86  C   UNL A   1      52.699  27.789  25.971  1.00  0.00     0.198 A 
ATOM     87  C   UNL A   1      52.457  27.589  28.343  1.00  0.00     0.198 A 
ATOM     88  F   UNL A   1      50.313  27.515  29.304  1.00  0.00    -0.203 F 
ATOM     89  F   UNL A   1      53.491  27.966  24.902  1.00  0.00    -0.200 F 
ATOM     90  C   UNL A   1      53.270  27.747  27.234  1.00  0.00     0.200 A 
ATOM     91  F   UNL A   1      52.997  27.585  29.570  1.00  0.00    -0.200 F 
ATOM     92  F   UNL A   1      54.591  27.930  27.386  1.00  0.00    -0.200 F 
ENDBRANCH  58  82
BRANCH  70  93
ATOM     93  C   UNL A   1      45.626  33.323  27.805  1.00  0.00     0.064 A 
ATOM     94  C   UNL A   1      45.243  33.381  26.460  1.00  0.00     0.173 A 
ATOM     95  C   UNL A   1      45.332  34.472  28.584  1.00  0.00     0.173 A 
ATOM     96  F   UNL A   1      45.322  32.308  25.663  1.00  0.00    -0.203 F 
ATOM     97  C   UNL A   1      44.664  34.527  25.914  1.00  0.00     0.198 A 
ATOM     98  C   UNL A   1      44.646  35.565  28.062  1.00  0.00     0.198 A 
ATOM     99  F   UNL A   1      45.647  34.528  29.888  1.00  0.00    -0.203 F 
ATOM    100  F   UNL A   1      44.369  34.556  24.607  1.00  0.00    -0.200 F 
ATOM    101  C   UNL A   1      44.335  35.603  26.718  1.00  0.00     0.200 A 
ATOM    102  F   UNL A   1      44.254  36.559  28.871  1.00  0.00    -0.200 F 
ATOM    103  F   UNL A   1      43.690  36.658  26.205  1.00  0.00    -0.200 F 
ENDBRANCH  70  93
ENDBRANCH  44  45
ENDBRANCH  37  39
ENDBRANCH  36  37
ENDBRANCH  35  36
ENDBRANCH  34  35
ENDBRANCH  33  34
ENDBRANCH  32  33
ENDBRANCH  31  32
ENDBRANCH  30  31
ENDBRANCH   1  30
TORSDOF 24
ENDMDL
