MODEL 1
REMARK VINA RESULT:     -10.2      0.000      0.000
REMARK SMILES O=C(OCCOCCOCCOCCOC(=O)c1ccc(-n2cc(CSc3nc4ccccc4c(=O)n3-c3ccccc3)nn2)cc1)c1ccc(-c2c3nc(c(-c4c(F)c(F)c(F)c(F)c4F)c4ccc([nH]4)c(-c4c(F)c(F)c(F)c(F)c4F)c4nc(c(-c5c(F)c(F)c(F)c(F)c5F)c5ccc2[nH]5)C=C4)C=C3)cc1
REMARK SMILES IDX 10 1 9 2 8 3 7 4 6 5 5 6 4 7 3 8 2 9 1 10 48 11 49 12 110 13
REMARK SMILES IDX 50 14 109 15 51 16 52 17 53 18 103 19 54 20 108 21 102 22
REMARK SMILES IDX 104 23 55 24 107 25 101 26 100 27 56 29 88 30 68 31 87 32
REMARK SMILES IDX 69 33 72 34 86 35 105 36 70 37 71 38 85 40 106 41 73 42
REMARK SMILES IDX 57 43 58 44 66 45 59 46 60 47 64 48 67 49 61 50 62 51 65 52
REMARK SMILES IDX 63 53 89 54 90 55 98 56 91 57 92 58 96 59 99 60 93 61 94 62
REMARK SMILES IDX 97 63 95 64 74 65 75 66 83 67 76 68 77 69 81 70 84 71 78 72
REMARK SMILES IDX 79 73 82 74 80 75 11 76 12 77 13 78 14 79 15 80 16 81 17 82
REMARK SMILES IDX 18 83 19 84 47 85 20 86 46 87 21 88 22 89 23 90 45 91 24 92
REMARK SMILES IDX 44 93 25 94 26 95 27 96 28 97 37 98 29 99 35 100 30 101
REMARK SMILES IDX 34 102 36 103 31 104 33 105 32 106 38 107 39 108 43 109
REMARK SMILES IDX 40 110 42 111 41 112
REMARK H PARENT 104 28 72 39
REMARK Flexibility Score: inf
ROOT
ATOM      1  C   UNL A   1      45.507  24.335  25.734  1.00  0.00     0.188 C 
ENDROOT
BRANCH   1   2
ATOM      2  O   UNL A   1      45.469  23.619  24.523  1.00  0.00    -0.377 OA
BRANCH   2   3
ATOM      3  C   UNL A   1      46.271  22.453  24.513  1.00  0.00     0.188 C 
BRANCH   3   4
ATOM      4  C   UNL A   1      45.543  21.097  24.483  1.00  0.00     0.188 C 
BRANCH   4   5
ATOM      5  O   UNL A   1      44.145  20.852  24.586  1.00  0.00    -0.376 OA
BRANCH   5   6
ATOM      6  C   UNL A   1      43.259  21.107  25.651  1.00  0.00     0.202 C 
BRANCH   6   7
ATOM      7  C   UNL A   1      42.401  22.369  25.725  1.00  0.00     0.261 C 
BRANCH   7   8
ATOM      8  O   UNL A   1      41.418  22.410  26.751  1.00  0.00    -0.460 OA
BRANCH   8   9
ATOM      9  C   UNL A   1      40.230  23.045  26.756  1.00  0.00     0.338 C 
ATOM     10  O   UNL A   1      39.221  22.401  26.471  1.00  0.00    -0.246 OA
BRANCH   9  11
ATOM     11  C   UNL A   1      40.067  24.504  26.982  1.00  0.00     0.060 A 
ATOM     12  C   UNL A   1      40.568  25.520  26.168  1.00  0.00     0.016 A 
ATOM     13  C   UNL A   1      39.401  24.849  28.176  1.00  0.00     0.016 A 
ATOM     14  C   UNL A   1      40.580  26.822  26.619  1.00  0.00     0.010 A 
ATOM     15  C   UNL A   1      39.386  26.154  28.624  1.00  0.00     0.010 A 
ATOM     16  C   UNL A   1      40.077  27.103  27.885  1.00  0.00    -0.014 A 
BRANCH  16  17
ATOM     17  C   UNL A   1      40.422  28.399  28.431  1.00  0.00     0.031 A 
ATOM     18  C   UNL A   1      41.700  28.973  27.945  1.00  0.00     0.074 A 
ATOM     19  C   UNL A   1      39.621  28.966  29.352  1.00  0.00     0.049 A 
ATOM     20  N   UNL A   1      42.752  29.279  28.633  1.00  0.00    -0.248 NA
ATOM     21  C   UNL A   1      41.869  29.104  26.491  1.00  0.00     0.031 C 
ATOM     22  C   UNL A   1      38.261  28.576  29.742  1.00  0.00     0.029 A 
ATOM     23  N   UNL A   1      39.835  30.087  30.085  1.00  0.00    -0.354 N 
ATOM     24  C   UNL A   1      43.662  29.806  27.718  1.00  0.00     0.074 A 
ATOM     25  C   UNL A   1      43.122  29.548  26.408  1.00  0.00     0.031 C 
ATOM     26  C   UNL A   1      37.693  29.582  30.441  1.00  0.00     0.029 A 
ATOM     27  C   UNL A   1      38.690  30.611  30.662  1.00  0.00     0.049 A 
ATOM     28  H   UNL A   1      40.726  30.492  30.197  1.00  0.00     0.167 HD
ATOM     29  C   UNL A   1      44.677  30.617  28.121  1.00  0.00     0.037 A 
ATOM     30  C   UNL A   1      38.567  31.854  31.184  1.00  0.00     0.037 A 
ATOM     31  C   UNL A   1      45.012  30.386  29.502  1.00  0.00     0.049 A 
ATOM     32  C   UNL A   1      39.938  32.346  31.483  1.00  0.00     0.074 A 
ATOM     33  C   UNL A   1      45.487  29.298  30.211  1.00  0.00     0.029 A 
ATOM     34  N   UNL A   1      44.555  31.267  30.449  1.00  0.00    -0.354 N 
ATOM     35  N   UNL A   1      40.699  31.843  32.416  1.00  0.00    -0.248 NA
ATOM     36  C   UNL A   1      40.638  33.075  30.433  1.00  0.00     0.031 C 
ATOM     37  C   UNL A   1      44.841  29.371  31.479  1.00  0.00     0.029 A 
ATOM     38  C   UNL A   1      44.054  30.522  31.485  1.00  0.00     0.049 A 
ATOM     39  H   UNL A   1      44.581  32.250  30.395  1.00  0.00     0.167 HD
ATOM     40  C   UNL A   1      41.974  31.830  31.868  1.00  0.00     0.074 A 
ATOM     41  C   UNL A   1      41.888  32.669  30.677  1.00  0.00     0.031 C 
ATOM     42  C   UNL A   1      42.906  30.914  32.266  1.00  0.00     0.037 A 
BRANCH  29  43
ATOM     43  C   UNL A   1      45.082  31.872  27.382  1.00  0.00     0.064 A 
ATOM     44  C   UNL A   1      46.384  31.961  26.849  1.00  0.00     0.173 A 
ATOM     45  C   UNL A   1      44.375  33.094  27.458  1.00  0.00     0.173 A 
ATOM     46  F   UNL A   1      47.148  30.866  26.724  1.00  0.00    -0.203 F 
ATOM     47  C   UNL A   1      46.970  33.189  26.531  1.00  0.00     0.198 A 
ATOM     48  C   UNL A   1      44.948  34.312  27.095  1.00  0.00     0.198 A 
ATOM     49  F   UNL A   1      43.149  33.186  27.983  1.00  0.00    -0.203 F 
ATOM     50  F   UNL A   1      48.257  33.235  26.165  1.00  0.00    -0.200 F 
ATOM     51  C   UNL A   1      46.257  34.365  26.670  1.00  0.00     0.200 A 
ATOM     52  F   UNL A   1      44.240  35.440  27.246  1.00  0.00    -0.200 F 
ATOM     53  F   UNL A   1      46.840  35.548  26.443  1.00  0.00    -0.200 F 
ENDBRANCH  29  43
BRANCH  30  54
ATOM     54  C   UNL A   1      37.391  32.744  31.050  1.00  0.00     0.064 A 
ATOM     55  C   UNL A   1      37.015  33.267  29.805  1.00  0.00     0.173 A 
ATOM     56  C   UNL A   1      36.464  32.900  32.103  1.00  0.00     0.173 A 
ATOM     57  F   UNL A   1      37.816  33.114  28.741  1.00  0.00    -0.203 F 
ATOM     58  C   UNL A   1      35.781  33.900  29.622  1.00  0.00     0.198 A 
ATOM     59  C   UNL A   1      35.238  33.542  31.921  1.00  0.00     0.198 A 
ATOM     60  F   UNL A   1      36.685  32.354  33.307  1.00  0.00    -0.203 F 
ATOM     61  F   UNL A   1      35.430  34.340  28.404  1.00  0.00    -0.200 F 
ATOM     62  C   UNL A   1      34.891  34.031  30.677  1.00  0.00     0.200 A 
ATOM     63  F   UNL A   1      34.375  33.626  32.942  1.00  0.00    -0.200 F 
ATOM     64  F   UNL A   1      33.689  34.589  30.488  1.00  0.00    -0.200 F 
ENDBRANCH  30  54
BRANCH  42  65
ATOM     65  C   UNL A   1      42.591  30.069  33.467  1.00  0.00     0.064 A 
ATOM     66  C   UNL A   1      42.750  30.515  34.791  1.00  0.00     0.173 A 
ATOM     67  C   UNL A   1      41.952  28.838  33.274  1.00  0.00     0.173 A 
ATOM     68  F   UNL A   1      43.252  31.729  35.052  1.00  0.00    -0.203 F 
ATOM     69  C   UNL A   1      42.328  29.741  35.871  1.00  0.00     0.198 A 
ATOM     70  C   UNL A   1      41.499  28.083  34.352  1.00  0.00     0.198 A 
ATOM     71  F   UNL A   1      41.715  28.393  32.029  1.00  0.00    -0.203 F 
ATOM     72  F   UNL A   1      42.494  30.189  37.125  1.00  0.00    -0.200 F 
ATOM     73  C   UNL A   1      41.695  28.530  35.649  1.00  0.00     0.200 A 
ATOM     74  F   UNL A   1      40.839  26.938  34.132  1.00  0.00    -0.200 F 
ATOM     75  F   UNL A   1      41.244  27.808  36.685  1.00  0.00    -0.200 F 
ENDBRANCH  42  65
ENDBRANCH  16  17
ENDBRANCH   9  11
ENDBRANCH   8   9
ENDBRANCH   7   8
ENDBRANCH   6   7
ENDBRANCH   5   6
ENDBRANCH   4   5
ENDBRANCH   3   4
ENDBRANCH   2   3
ENDBRANCH   1   2
BRANCH   1  76
ATOM     76  C   UNL A   1      45.297  25.853  25.563  1.00  0.00     0.188 C 
BRANCH  76  77
ATOM     77  O   UNL A   1      46.401  26.745  25.558  1.00  0.00    -0.376 OA
BRANCH  77  78
ATOM     78  C   UNL A   1      46.676  27.557  26.689  1.00  0.00     0.202 C 
BRANCH  78  79
ATOM     79  C   UNL A   1      48.006  27.439  27.456  1.00  0.00     0.261 C 
BRANCH  79  80
ATOM     80  O   UNL A   1      47.955  26.783  28.730  1.00  0.00    -0.460 OA
BRANCH  80  81
ATOM     81  C   UNL A   1      48.603  27.410  29.753  1.00  0.00     0.338 C 
ATOM     82  O   UNL A   1      48.710  28.592  29.942  1.00  0.00    -0.246 OA
BRANCH  81  83
ATOM     83  C   UNL A   1      48.997  26.373  30.741  1.00  0.00     0.060 A 
ATOM     84  C   UNL A   1      50.123  25.579  30.467  1.00  0.00     0.018 A 
ATOM     85  C   UNL A   1      48.305  26.227  31.944  1.00  0.00     0.018 A 
ATOM     86  C   UNL A   1      50.558  24.630  31.395  1.00  0.00     0.029 A 
ATOM     87  C   UNL A   1      48.745  25.290  32.881  1.00  0.00     0.029 A 
ATOM     88  C   UNL A   1      49.861  24.484  32.597  1.00  0.00     0.066 A 
BRANCH  88  89
ATOM     89  N   UNL A   1      50.187  23.438  33.490  1.00  0.00    -0.220 N 
ATOM     90  C   UNL A   1      49.295  22.581  34.112  1.00  0.00     0.141 A 
ATOM     91  N   UNL A   1      51.391  23.354  34.090  1.00  0.00    -0.062 NA
ATOM     92  C   UNL A   1      49.925  22.242  35.290  1.00  0.00     0.093 A 
ATOM     93  N   UNL A   1      51.252  22.600  35.166  1.00  0.00    -0.134 NA
BRANCH  92  94
ATOM     94  C   UNL A   1      49.497  21.887  36.665  1.00  0.00     0.138 C 
BRANCH  94  95
ATOM     95  S   UNL A   1      49.579  20.345  37.531  1.00  0.00    -0.081 SA
BRANCH  95  96
ATOM     96  C   UNL A   1      48.077  19.704  38.105  1.00  0.00     0.176 A 
ATOM     97  N   UNL A   1      48.267  19.000  39.183  1.00  0.00    -0.223 NA
ATOM     98  N   UNL A   1      46.815  19.876  37.554  1.00  0.00    -0.255 N 
ATOM     99  C   UNL A   1      47.196  18.301  39.736  1.00  0.00     0.079 A 
ATOM    100  C   UNL A   1      45.980  18.754  37.694  1.00  0.00     0.266 A 
ATOM    101  C   UNL A   1      47.275  17.767  41.021  1.00  0.00     0.029 A 
ATOM    102  C   UNL A   1      46.088  18.014  38.958  1.00  0.00     0.066 A 
ATOM    103  O   UNL A   1      45.217  18.308  36.837  1.00  0.00    -0.268 OA
ATOM    104  C   UNL A   1      46.280  16.899  41.484  1.00  0.00     0.002 A 
ATOM    105  C   UNL A   1      45.114  17.106  39.380  1.00  0.00     0.016 A 
ATOM    106  C   UNL A   1      45.219  16.540  40.649  1.00  0.00     0.001 A 
BRANCH  98 107
ATOM    107  C   UNL A   1      46.316  21.014  36.796  1.00  0.00     0.051 A 
ATOM    108  C   UNL A   1      45.960  22.205  37.465  1.00  0.00     0.027 A 
ATOM    109  C   UNL A   1      46.174  21.045  35.406  1.00  0.00     0.027 A 
ATOM    110  C   UNL A   1      45.310  23.263  36.824  1.00  0.00     0.002 A 
ATOM    111  C   UNL A   1      45.470  22.073  34.760  1.00  0.00     0.002 A 
ATOM    112  C   UNL A   1      45.008  23.169  35.476  1.00  0.00     0.000 A 
ENDBRANCH  98 107
ENDBRANCH  95  96
ENDBRANCH  94  95
ENDBRANCH  92  94
ENDBRANCH  88  89
ENDBRANCH  81  83
ENDBRANCH  80  81
ENDBRANCH  79  80
ENDBRANCH  78  79
ENDBRANCH  77  78
ENDBRANCH  76  77
ENDBRANCH   1  76
TORSDOF 25
ENDMDL
MODEL 2
REMARK VINA RESULT:      -9.6      6.025     12.301
REMARK SMILES O=C(OCCOCCOCCOCCOC(=O)c1ccc(-n2cc(CSc3nc4ccccc4c(=O)n3-c3ccccc3)nn2)cc1)c1ccc(-c2c3nc(c(-c4c(F)c(F)c(F)c(F)c4F)c4ccc([nH]4)c(-c4c(F)c(F)c(F)c(F)c4F)c4nc(c(-c5c(F)c(F)c(F)c(F)c5F)c5ccc2[nH]5)C=C4)C=C3)cc1
REMARK SMILES IDX 10 1 9 2 8 3 7 4 6 5 5 6 4 7 3 8 2 9 1 10 48 11 49 12 110 13
REMARK SMILES IDX 50 14 109 15 51 16 52 17 53 18 103 19 54 20 108 21 102 22
REMARK SMILES IDX 104 23 55 24 107 25 101 26 100 27 56 29 88 30 68 31 87 32
REMARK SMILES IDX 69 33 72 34 86 35 105 36 70 37 71 38 85 40 106 41 73 42
REMARK SMILES IDX 57 43 58 44 66 45 59 46 60 47 64 48 67 49 61 50 62 51 65 52
REMARK SMILES IDX 63 53 89 54 90 55 98 56 91 57 92 58 96 59 99 60 93 61 94 62
REMARK SMILES IDX 97 63 95 64 74 65 75 66 83 67 76 68 77 69 81 70 84 71 78 72
REMARK SMILES IDX 79 73 82 74 80 75 11 76 12 77 13 78 14 79 15 80 16 81 17 82
REMARK SMILES IDX 18 83 19 84 47 85 20 86 46 87 21 88 22 89 23 90 45 91 24 92
REMARK SMILES IDX 44 93 25 94 26 95 27 96 28 97 37 98 29 99 35 100 30 101
REMARK SMILES IDX 34 102 36 103 31 104 33 105 32 106 38 107 39 108 43 109
REMARK SMILES IDX 40 110 42 111 41 112
REMARK H PARENT 104 28 72 39
REMARK Flexibility Score: inf
ROOT
ATOM      1  C   UNL A   1      37.323  33.051  34.817  1.00  0.00     0.188 C 
ENDROOT
BRANCH   1   2
ATOM      2  O   UNL A   1      37.324  31.735  34.319  1.00  0.00    -0.377 OA
BRANCH   2   3
ATOM      3  C   UNL A   1      36.770  31.605  33.023  1.00  0.00     0.188 C 
BRANCH   3   4
ATOM      4  C   UNL A   1      35.439  32.331  32.749  1.00  0.00     0.188 C 
BRANCH   4   5
ATOM      5  O   UNL A   1      35.221  33.484  31.945  1.00  0.00    -0.376 OA
BRANCH   5   6
ATOM      6  C   UNL A   1      34.445  33.639  30.780  1.00  0.00     0.202 C 
BRANCH   6   7
ATOM      7  C   UNL A   1      34.735  34.714  29.734  1.00  0.00     0.261 C 
BRANCH   7   8
ATOM      8  O   UNL A   1      35.696  34.389  28.737  1.00  0.00    -0.460 OA
BRANCH   8   9
ATOM      9  C   UNL A   1      36.263  33.198  28.468  1.00  0.00     0.338 C 
ATOM     10  O   UNL A   1      35.813  32.534  27.534  1.00  0.00    -0.246 OA
BRANCH   9  11
ATOM     11  C   UNL A   1      37.333  32.580  29.292  1.00  0.00     0.060 A 
ATOM     12  C   UNL A   1      38.288  33.265  30.043  1.00  0.00     0.016 A 
ATOM     13  C   UNL A   1      37.398  31.172  29.221  1.00  0.00     0.016 A 
ATOM     14  C   UNL A   1      39.381  32.594  30.546  1.00  0.00     0.010 A 
ATOM     15  C   UNL A   1      38.477  30.489  29.744  1.00  0.00     0.010 A 
ATOM     16  C   UNL A   1      39.508  31.231  30.303  1.00  0.00    -0.014 A 
BRANCH  16  17
ATOM     17  C   UNL A   1      40.816  30.662  30.552  1.00  0.00     0.031 A 
ATOM     18  C   UNL A   1      41.941  31.319  29.846  1.00  0.00     0.074 A 
ATOM     19  C   UNL A   1      40.928  29.577  31.342  1.00  0.00     0.049 A 
ATOM     20  N   UNL A   1      42.751  30.804  28.978  1.00  0.00    -0.248 NA
ATOM     21  C   UNL A   1      42.102  32.767  30.038  1.00  0.00     0.031 C 
ATOM     22  C   UNL A   1      39.918  28.985  32.228  1.00  0.00     0.029 A 
ATOM     23  N   UNL A   1      42.022  28.813  31.581  1.00  0.00    -0.354 N 
ATOM     24  C   UNL A   1      43.639  31.823  28.639  1.00  0.00     0.074 A 
ATOM     25  C   UNL A   1      43.112  33.034  29.212  1.00  0.00     0.031 C 
ATOM     26  C   UNL A   1      40.520  28.128  33.079  1.00  0.00     0.029 A 
ATOM     27  C   UNL A   1      41.915  28.010  32.704  1.00  0.00     0.049 A 
ATOM     28  H   UNL A   1      42.822  28.829  31.007  1.00  0.00     0.167 HD
ATOM     29  C   UNL A   1      44.860  31.544  28.107  1.00  0.00     0.037 A 
ATOM     30  C   UNL A   1      42.942  27.387  33.329  1.00  0.00     0.037 A 
ATOM     31  C   UNL A   1      44.863  30.263  27.450  1.00  0.00     0.049 A 
ATOM     32  C   UNL A   1      44.063  27.296  32.356  1.00  0.00     0.074 A 
ATOM     33  C   UNL A   1      44.179  29.728  26.376  1.00  0.00     0.029 A 
ATOM     34  N   UNL A   1      45.420  29.190  28.100  1.00  0.00    -0.354 N 
ATOM     35  N   UNL A   1      44.033  26.548  31.287  1.00  0.00    -0.248 NA
ATOM     36  C   UNL A   1      45.018  28.396  32.321  1.00  0.00     0.031 C 
ATOM     37  C   UNL A   1      43.950  28.365  26.723  1.00  0.00     0.029 A 
ATOM     38  C   UNL A   1      44.551  28.140  27.961  1.00  0.00     0.049 A 
ATOM     39  H   UNL A   1      46.281  29.177  28.576  1.00  0.00     0.167 HD
ATOM     40  C   UNL A   1      44.648  27.308  30.302  1.00  0.00     0.074 A 
ATOM     41  C   UNL A   1      45.300  28.403  31.014  1.00  0.00     0.031 C 
ATOM     42  C   UNL A   1      44.333  27.145  28.984  1.00  0.00     0.037 A 
BRANCH  29  43
ATOM     43  C   UNL A   1      46.130  32.250  28.525  1.00  0.00     0.064 A 
ATOM     44  C   UNL A   1      47.011  32.719  27.529  1.00  0.00     0.173 A 
ATOM     45  C   UNL A   1      46.667  32.197  29.831  1.00  0.00     0.173 A 
ATOM     46  F   UNL A   1      46.610  32.818  26.253  1.00  0.00    -0.203 F 
ATOM     47  C   UNL A   1      48.353  32.995  27.801  1.00  0.00     0.198 A 
ATOM     48  C   UNL A   1      47.995  32.519  30.106  1.00  0.00     0.198 A 
ATOM     49  F   UNL A   1      45.977  31.730  30.877  1.00  0.00    -0.203 F 
ATOM     50  F   UNL A   1      49.185  33.298  26.796  1.00  0.00    -0.200 F 
ATOM     51  C   UNL A   1      48.848  32.880  29.086  1.00  0.00     0.200 A 
ATOM     52  F   UNL A   1      48.456  32.391  31.358  1.00  0.00    -0.200 F 
ATOM     53  F   UNL A   1      50.150  33.066  29.336  1.00  0.00    -0.200 F 
ENDBRANCH  29  43
BRANCH  30  54
ATOM     54  C   UNL A   1      43.119  27.250  34.793  1.00  0.00     0.064 A 
ATOM     55  C   UNL A   1      43.144  25.990  35.407  1.00  0.00     0.173 A 
ATOM     56  C   UNL A   1      43.516  28.345  35.591  1.00  0.00     0.173 A 
ATOM     57  F   UNL A   1      42.832  24.893  34.702  1.00  0.00    -0.203 F 
ATOM     58  C   UNL A   1      43.552  25.833  36.736  1.00  0.00     0.198 A 
ATOM     59  C   UNL A   1      43.912  28.188  36.919  1.00  0.00     0.198 A 
ATOM     60  F   UNL A   1      43.618  29.578  35.074  1.00  0.00    -0.203 F 
ATOM     61  F   UNL A   1      43.617  24.607  37.274  1.00  0.00    -0.200 F 
ATOM     62  C   UNL A   1      43.942  26.930  37.489  1.00  0.00     0.200 A 
ATOM     63  F   UNL A   1      44.321  29.255  37.621  1.00  0.00    -0.200 F 
ATOM     64  F   UNL A   1      44.382  26.773  38.743  1.00  0.00    -0.200 F 
ENDBRANCH  30  54
BRANCH  42  65
ATOM     65  C   UNL A   1      43.475  25.971  28.607  1.00  0.00     0.064 A 
ATOM     66  C   UNL A   1      43.984  24.679  28.388  1.00  0.00     0.173 A 
ATOM     67  C   UNL A   1      42.083  26.121  28.634  1.00  0.00     0.173 A 
ATOM     68  F   UNL A   1      45.299  24.436  28.456  1.00  0.00    -0.203 F 
ATOM     69  C   UNL A   1      43.135  23.596  28.162  1.00  0.00     0.198 A 
ATOM     70  C   UNL A   1      41.237  25.032  28.444  1.00  0.00     0.198 A 
ATOM     71  F   UNL A   1      41.542  27.320  28.903  1.00  0.00    -0.203 F 
ATOM     72  F   UNL A   1      43.645  22.373  27.953  1.00  0.00    -0.200 F 
ATOM     73  C   UNL A   1      41.762  23.773  28.199  1.00  0.00     0.200 A 
ATOM     74  F   UNL A   1      39.910  25.197  28.534  1.00  0.00    -0.200 F 
ATOM     75  F   UNL A   1      40.944  22.724  28.032  1.00  0.00    -0.200 F 
ENDBRANCH  42  65
ENDBRANCH  16  17
ENDBRANCH   9  11
ENDBRANCH   8   9
ENDBRANCH   7   8
ENDBRANCH   6   7
ENDBRANCH   5   6
ENDBRANCH   4   5
ENDBRANCH   3   4
ENDBRANCH   2   3
ENDBRANCH   1   2
BRANCH   1  76
ATOM     76  C   UNL A   1      38.560  33.388  35.675  1.00  0.00     0.188 C 
BRANCH  76  77
ATOM     77  O   UNL A   1      39.483  34.385  35.262  1.00  0.00    -0.376 OA
BRANCH  77  78
ATOM     78  C   UNL A   1      39.587  34.750  33.894  1.00  0.00     0.202 C 
BRANCH  78  79
ATOM     79  C   UNL A   1      40.931  34.682  33.147  1.00  0.00     0.261 C 
BRANCH  79  80
ATOM     80  O   UNL A   1      41.785  33.575  33.464  1.00  0.00    -0.460 OA
BRANCH  80  81
ATOM     81  C   UNL A   1      42.669  33.773  34.482  1.00  0.00     0.338 C 
ATOM     82  O   UNL A   1      42.610  33.342  35.602  1.00  0.00    -0.246 OA
BRANCH  81  83
ATOM     83  C   UNL A   1      43.861  34.459  33.919  1.00  0.00     0.060 A 
ATOM     84  C   UNL A   1      44.438  35.510  34.650  1.00  0.00     0.018 A 
ATOM     85  C   UNL A   1      44.436  34.032  32.721  1.00  0.00     0.018 A 
ATOM     86  C   UNL A   1      45.590  36.144  34.182  1.00  0.00     0.029 A 
ATOM     87  C   UNL A   1      45.597  34.653  32.257  1.00  0.00     0.029 A 
ATOM     88  C   UNL A   1      46.163  35.717  32.981  1.00  0.00     0.066 A 
BRANCH  88  89
ATOM     89  N   UNL A   1      47.240  36.430  32.409  1.00  0.00    -0.220 N 
ATOM     90  C   UNL A   1      47.331  37.805  32.266  1.00  0.00     0.141 A 
ATOM     91  N   UNL A   1      48.174  35.831  31.644  1.00  0.00    -0.062 NA
ATOM     92  C   UNL A   1      48.126  37.971  31.151  1.00  0.00     0.093 A 
ATOM     93  N   UNL A   1      48.744  36.763  30.901  1.00  0.00    -0.134 NA
BRANCH  92  94
ATOM     94  C   UNL A   1      48.240  38.971  30.062  1.00  0.00     0.138 C 
BRANCH  94  95
ATOM     95  S   UNL A   1      47.010  39.625  28.969  1.00  0.00    -0.081 SA
BRANCH  95  96
ATOM     96  C   UNL A   1      45.594  38.657  28.739  1.00  0.00     0.176 A 
ATOM     97  N   UNL A   1      45.830  37.706  27.881  1.00  0.00    -0.223 NA
ATOM     98  N   UNL A   1      44.355  38.804  29.346  1.00  0.00    -0.255 N 
ATOM     99  C   UNL A   1      44.781  36.886  27.469  1.00  0.00     0.079 A 
ATOM    100  C   UNL A   1      43.274  38.462  28.516  1.00  0.00     0.266 A 
ATOM    101  C   UNL A   1      45.027  35.700  26.779  1.00  0.00     0.029 A 
ATOM    102  C   UNL A   1      43.474  37.313  27.625  1.00  0.00     0.066 A 
ATOM    103  O   UNL A   1      42.208  39.071  28.429  1.00  0.00    -0.268 OA
ATOM    104  C   UNL A   1      43.969  34.995  26.197  1.00  0.00     0.002 A 
ATOM    105  C   UNL A   1      42.411  36.653  27.003  1.00  0.00     0.016 A 
ATOM    106  C   UNL A   1      42.665  35.492  26.277  1.00  0.00     0.001 A 
BRANCH  98 107
ATOM    107  C   UNL A   1      44.064  39.344  30.667  1.00  0.00     0.051 A 
ATOM    108  C   UNL A   1      43.991  38.478  31.780  1.00  0.00     0.027 A 
ATOM    109  C   UNL A   1      43.867  40.698  30.949  1.00  0.00     0.027 A 
ATOM    110  C   UNL A   1      43.540  38.902  33.034  1.00  0.00     0.002 A 
ATOM    111  C   UNL A   1      43.358  41.126  32.186  1.00  0.00     0.002 A 
ATOM    112  C   UNL A   1      43.164  40.221  33.219  1.00  0.00     0.000 A 
ENDBRANCH  98 107
ENDBRANCH  95  96
ENDBRANCH  94  95
ENDBRANCH  92  94
ENDBRANCH  88  89
ENDBRANCH  81  83
ENDBRANCH  80  81
ENDBRANCH  79  80
ENDBRANCH  78  79
ENDBRANCH  77  78
ENDBRANCH  76  77
ENDBRANCH   1  76
TORSDOF 25
ENDMDL
MODEL 3
REMARK VINA RESULT:      -9.6      5.368     12.032
REMARK SMILES O=C(OCCOCCOCCOCCOC(=O)c1ccc(-n2cc(CSc3nc4ccccc4c(=O)n3-c3ccccc3)nn2)cc1)c1ccc(-c2c3nc(c(-c4c(F)c(F)c(F)c(F)c4F)c4ccc([nH]4)c(-c4c(F)c(F)c(F)c(F)c4F)c4nc(c(-c5c(F)c(F)c(F)c(F)c5F)c5ccc2[nH]5)C=C4)C=C3)cc1
REMARK SMILES IDX 10 1 9 2 8 3 7 4 6 5 5 6 4 7 3 8 2 9 1 10 48 11 49 12 110 13
REMARK SMILES IDX 50 14 109 15 51 16 52 17 53 18 103 19 54 20 108 21 102 22
REMARK SMILES IDX 104 23 55 24 107 25 101 26 100 27 56 29 88 30 68 31 87 32
REMARK SMILES IDX 69 33 72 34 86 35 105 36 70 37 71 38 85 40 106 41 73 42
REMARK SMILES IDX 57 43 58 44 66 45 59 46 60 47 64 48 67 49 61 50 62 51 65 52
REMARK SMILES IDX 63 53 89 54 90 55 98 56 91 57 92 58 96 59 99 60 93 61 94 62
REMARK SMILES IDX 97 63 95 64 74 65 75 66 83 67 76 68 77 69 81 70 84 71 78 72
REMARK SMILES IDX 79 73 82 74 80 75 11 76 12 77 13 78 14 79 15 80 16 81 17 82
REMARK SMILES IDX 18 83 19 84 47 85 20 86 46 87 21 88 22 89 23 90 45 91 24 92
REMARK SMILES IDX 44 93 25 94 26 95 27 96 28 97 37 98 29 99 35 100 30 101
REMARK SMILES IDX 34 102 36 103 31 104 33 105 32 106 38 107 39 108 43 109
REMARK SMILES IDX 40 110 42 111 41 112
REMARK H PARENT 104 28 72 39
REMARK Flexibility Score: inf
ROOT
ATOM      1  C   UNL A   1      47.225  41.962  26.797  1.00  0.00     0.188 C 
ENDROOT
BRANCH   1   2
ATOM      2  O   UNL A   1      46.844  43.172  27.407  1.00  0.00    -0.377 OA
BRANCH   2   3
ATOM      3  C   UNL A   1      45.598  43.116  28.077  1.00  0.00     0.188 C 
BRANCH   3   4
ATOM      4  C   UNL A   1      45.183  44.351  28.898  1.00  0.00     0.188 C 
BRANCH   4   5
ATOM      5  O   UNL A   1      44.386  44.391  30.076  1.00  0.00    -0.376 OA
BRANCH   5   6
ATOM      6  C   UNL A   1      43.807  43.338  30.810  1.00  0.00     0.202 C 
BRANCH   6   7
ATOM      7  C   UNL A   1      44.638  42.338  31.613  1.00  0.00     0.261 C 
BRANCH   7   8
ATOM      8  O   UNL A   1      44.198  40.986  31.595  1.00  0.00    -0.460 OA
BRANCH   8   9
ATOM      9  C   UNL A   1      43.370  40.357  32.451  1.00  0.00     0.338 C 
ATOM     10  O   UNL A   1      42.530  41.026  33.052  1.00  0.00    -0.246 OA
BRANCH   9  11
ATOM     11  C   UNL A   1      43.471  38.917  32.800  1.00  0.00     0.060 A 
ATOM     12  C   UNL A   1      43.993  37.911  31.986  1.00  0.00     0.016 A 
ATOM     13  C   UNL A   1      42.911  38.567  34.047  1.00  0.00     0.016 A 
ATOM     14  C   UNL A   1      43.790  36.587  32.310  1.00  0.00     0.010 A 
ATOM     15  C   UNL A   1      42.727  37.243  34.391  1.00  0.00     0.010 A 
ATOM     16  C   UNL A   1      43.073  36.275  33.460  1.00  0.00    -0.014 A 
BRANCH  16  17
ATOM     17  C   UNL A   1      42.606  34.909  33.564  1.00  0.00     0.031 A 
ATOM     18  C   UNL A   1      41.659  34.478  32.508  1.00  0.00     0.074 A 
ATOM     19  C   UNL A   1      43.002  34.149  34.602  1.00  0.00     0.049 A 
ATOM     20  N   UNL A   1      40.437  34.075  32.645  1.00  0.00    -0.248 NA
ATOM     21  C   UNL A   1      42.089  34.639  31.112  1.00  0.00     0.031 C 
ATOM     22  C   UNL A   1      44.072  34.415  35.571  1.00  0.00     0.029 A 
ATOM     23  N   UNL A   1      42.572  32.914  34.961  1.00  0.00    -0.354 N 
ATOM     24  C   UNL A   1      39.995  33.765  31.361  1.00  0.00     0.074 A 
ATOM     25  C   UNL A   1      40.997  34.257  30.451  1.00  0.00     0.031 C 
ATOM     26  C   UNL A   1      44.367  33.276  36.233  1.00  0.00     0.029 A 
ATOM     27  C   UNL A   1      43.418  32.253  35.837  1.00  0.00     0.049 A 
ATOM     28  H   UNL A   1      41.732  32.521  34.627  1.00  0.00     0.167 HD
ATOM     29  C   UNL A   1      38.946  32.921  31.161  1.00  0.00     0.037 A 
ATOM     30  C   UNL A   1      43.387  30.929  36.116  1.00  0.00     0.037 A 
ATOM     31  C   UNL A   1      38.077  32.889  32.309  1.00  0.00     0.049 A 
ATOM     32  C   UNL A   1      42.037  30.430  35.742  1.00  0.00     0.074 A 
ATOM     33  C   UNL A   1      37.305  33.831  32.961  1.00  0.00     0.029 A 
ATOM     34  N   UNL A   1      38.165  31.826  33.173  1.00  0.00    -0.354 N 
ATOM     35  N   UNL A   1      40.943  30.764  36.369  1.00  0.00    -0.248 NA
ATOM     36  C   UNL A   1      41.851  29.940  34.382  1.00  0.00     0.031 C 
ATOM     37  C   UNL A   1      37.395  33.493  34.343  1.00  0.00     0.029 A 
ATOM     38  C   UNL A   1      38.173  32.340  34.443  1.00  0.00     0.049 A 
ATOM     39  H   UNL A   1      38.212  30.874  32.926  1.00  0.00     0.167 HD
ATOM     40  C   UNL A   1      39.992  30.921  35.370  1.00  0.00     0.074 A 
ATOM     41  C   UNL A   1      40.589  30.328  34.177  1.00  0.00     0.031 C 
ATOM     42  C   UNL A   1      38.934  31.769  35.528  1.00  0.00     0.037 A 
BRANCH  29  43
ATOM     43  C   UNL A   1      38.934  31.847  30.097  1.00  0.00     0.064 A 
ATOM     44  C   UNL A   1      37.853  31.793  29.194  1.00  0.00     0.173 A 
ATOM     45  C   UNL A   1      39.752  30.695  30.132  1.00  0.00     0.173 A 
ATOM     46  F   UNL A   1      37.012  32.829  29.070  1.00  0.00    -0.203 F 
ATOM     47  C   UNL A   1      37.549  30.633  28.475  1.00  0.00     0.198 A 
ATOM     48  C   UNL A   1      39.471  29.557  29.377  1.00  0.00     0.198 A 
ATOM     49  F   UNL A   1      40.787  30.570  30.969  1.00  0.00    -0.203 F 
ATOM     50  F   UNL A   1      36.430  30.583  27.740  1.00  0.00    -0.200 F 
ATOM     51  C   UNL A   1      38.349  29.512  28.579  1.00  0.00     0.200 A 
ATOM     52  F   UNL A   1      40.256  28.477  29.500  1.00  0.00    -0.200 F 
ATOM     53  F   UNL A   1      38.017  28.375  27.955  1.00  0.00    -0.200 F 
ENDBRANCH  29  43
BRANCH  30  54
ATOM     54  C   UNL A   1      44.563  30.048  36.297  1.00  0.00     0.064 A 
ATOM     55  C   UNL A   1      44.996  29.669  37.575  1.00  0.00     0.173 A 
ATOM     56  C   UNL A   1      45.137  29.356  35.209  1.00  0.00     0.173 A 
ATOM     57  F   UNL A   1      44.461  30.240  38.663  1.00  0.00    -0.203 F 
ATOM     58  C   UNL A   1      45.940  28.652  37.755  1.00  0.00     0.198 A 
ATOM     59  C   UNL A   1      46.087  28.350  35.389  1.00  0.00     0.198 A 
ATOM     60  F   UNL A   1      44.723  29.576  33.953  1.00  0.00    -0.203 F 
ATOM     61  F   UNL A   1      46.291  28.277  38.993  1.00  0.00    -0.200 F 
ATOM     62  C   UNL A   1      46.480  27.989  36.663  1.00  0.00     0.200 A 
ATOM     63  F   UNL A   1      46.570  27.694  34.324  1.00  0.00    -0.200 F 
ATOM     64  F   UNL A   1      47.343  26.981  36.837  1.00  0.00    -0.200 F 
ENDBRANCH  30  54
BRANCH  42  65
ATOM     65  C   UNL A   1      38.701  32.353  36.892  1.00  0.00     0.064 A 
ATOM     66  C   UNL A   1      39.151  33.630  37.275  1.00  0.00     0.173 A 
ATOM     67  C   UNL A   1      37.857  31.675  37.779  1.00  0.00     0.173 A 
ATOM     68  F   UNL A   1      39.871  34.385  36.436  1.00  0.00    -0.203 F 
ATOM     69  C   UNL A   1      38.804  34.179  38.508  1.00  0.00     0.198 A 
ATOM     70  C   UNL A   1      37.482  32.240  38.995  1.00  0.00     0.198 A 
ATOM     71  F   UNL A   1      37.345  30.481  37.438  1.00  0.00    -0.203 F 
ATOM     72  F   UNL A   1      39.248  35.398  38.850  1.00  0.00    -0.200 F 
ATOM     73  C   UNL A   1      37.963  33.487  39.363  1.00  0.00     0.200 A 
ATOM     74  F   UNL A   1      36.625  31.591  39.795  1.00  0.00    -0.200 F 
ATOM     75  F   UNL A   1      37.589  34.035  40.528  1.00  0.00    -0.200 F 
ENDBRANCH  42  65
ENDBRANCH  16  17
ENDBRANCH   9  11
ENDBRANCH   8   9
ENDBRANCH   7   8
ENDBRANCH   6   7
ENDBRANCH   5   6
ENDBRANCH   4   5
ENDBRANCH   3   4
ENDBRANCH   2   3
ENDBRANCH   1   2
BRANCH   1  76
ATOM     76  C   UNL A   1      46.106  40.902  26.773  1.00  0.00     0.188 C 
BRANCH  76  77
ATOM     77  O   UNL A   1      46.215  39.710  27.538  1.00  0.00    -0.376 OA
BRANCH  77  78
ATOM     78  C   UNL A   1      45.350  39.479  28.639  1.00  0.00     0.202 C 
BRANCH  78  79
ATOM     79  C   UNL A   1      43.861  39.148  28.432  1.00  0.00     0.261 C 
BRANCH  79  80
ATOM     80  O   UNL A   1      43.504  37.760  28.454  1.00  0.00    -0.460 OA
BRANCH  80  81
ATOM     81  C   UNL A   1      42.831  37.296  27.363  1.00  0.00     0.338 C 
ATOM     82  O   UNL A   1      42.130  37.918  26.611  1.00  0.00    -0.246 OA
BRANCH  81  83
ATOM     83  C   UNL A   1      43.275  35.899  27.118  1.00  0.00     0.060 A 
ATOM     84  C   UNL A   1      43.028  35.327  25.860  1.00  0.00     0.018 A 
ATOM     85  C   UNL A   1      43.978  35.188  28.092  1.00  0.00     0.018 A 
ATOM     86  C   UNL A   1      43.476  34.037  25.571  1.00  0.00     0.029 A 
ATOM     87  C   UNL A   1      44.442  33.903  27.803  1.00  0.00     0.029 A 
ATOM     88  C   UNL A   1      44.177  33.325  26.549  1.00  0.00     0.066 A 
BRANCH  88  89
ATOM     89  N   UNL A   1      44.517  31.970  26.341  1.00  0.00    -0.220 N 
ATOM     90  C   UNL A   1      43.975  30.877  26.998  1.00  0.00     0.141 A 
ATOM     91  N   UNL A   1      45.642  31.601  25.698  1.00  0.00    -0.062 NA
ATOM     92  C   UNL A   1      44.991  29.945  26.986  1.00  0.00     0.093 A 
ATOM     93  N   UNL A   1      45.920  30.359  26.053  1.00  0.00    -0.134 NA
BRANCH  92  94
ATOM     94  C   UNL A   1      45.440  28.845  27.873  1.00  0.00     0.138 C 
BRANCH  94  95
ATOM     95  S   UNL A   1      44.511  27.765  28.925  1.00  0.00    -0.081 SA
BRANCH  95  96
ATOM     96  C   UNL A   1      43.676  26.464  28.146  1.00  0.00     0.176 A 
ATOM     97  N   UNL A   1      42.392  26.677  28.161  1.00  0.00    -0.223 NA
ATOM     98  N   UNL A   1      44.225  25.331  27.564  1.00  0.00    -0.255 N 
ATOM     99  C   UNL A   1      41.534  25.687  27.686  1.00  0.00     0.079 A 
ATOM    100  C   UNL A   1      43.427  24.182  27.702  1.00  0.00     0.266 A 
ATOM    101  C   UNL A   1      40.194  25.966  27.423  1.00  0.00     0.029 A 
ATOM    102  C   UNL A   1      41.977  24.379  27.597  1.00  0.00     0.066 A 
ATOM    103  O   UNL A   1      43.831  23.047  27.957  1.00  0.00    -0.268 OA
ATOM    104  C   UNL A   1      39.301  24.925  27.145  1.00  0.00     0.002 A 
ATOM    105  C   UNL A   1      41.091  23.321  27.377  1.00  0.00     0.016 A 
ATOM    106  C   UNL A   1      39.743  23.600  27.158  1.00  0.00     0.001 A 
BRANCH  98 107
ATOM    107  C   UNL A   1      45.529  25.191  26.933  1.00  0.00     0.051 A 
ATOM    108  C   UNL A   1      46.704  25.330  27.704  1.00  0.00     0.027 A 
ATOM    109  C   UNL A   1      45.734  24.894  25.583  1.00  0.00     0.027 A 
ATOM    110  C   UNL A   1      47.978  25.387  27.132  1.00  0.00     0.002 A 
ATOM    111  C   UNL A   1      47.001  25.007  24.987  1.00  0.00     0.002 A 
ATOM    112  C   UNL A   1      48.119  25.287  25.759  1.00  0.00     0.000 A 
ENDBRANCH  98 107
ENDBRANCH  95  96
ENDBRANCH  94  95
ENDBRANCH  92  94
ENDBRANCH  88  89
ENDBRANCH  81  83
ENDBRANCH  80  81
ENDBRANCH  79  80
ENDBRANCH  78  79
ENDBRANCH  77  78
ENDBRANCH  76  77
ENDBRANCH   1  76
TORSDOF 25
ENDMDL
