MODEL 1
REMARK VINA RESULT:     -10.8      0.000      0.000
REMARK SMILES C[C@H](NC(=O)N1CCN(/C=C/c2ccccc2)CC1)C(=O)OCCOCCOCCOCCOC(=O)c1ccc(-c2c3nc(c(-c4c(F)c(F)c(F)c(F)c4F)c4ccc([nH]4)c(-c4c(F)c(F)c(F)c(F)c4F)c4nc(c(-c5c(F)c(F)c(F)c(F)c5F)c5ccc2[nH]5)C=C4)C=C3)cc1
REMARK SMILES IDX 27 1 26 2 25 3 24 4 23 5 22 6 20 7 21 8 2 9 1 10 3 11 4 12
REMARK SMILES IDX 5 14 6 15 7 16 19 17 8 18 18 19 9 20 10 21 11 22 12 23 13 24
REMARK SMILES IDX 17 25 14 26 16 27 15 28 28 29 29 30 30 31 31 32 32 33 33 34
REMARK SMILES IDX 34 35 35 36 36 37 37 38 38 39 99 40 39 41 98 42 40 43 41 44
REMARK SMILES IDX 42 45 92 46 43 47 97 48 91 49 93 50 44 51 96 52 90 53 89 54
REMARK SMILES IDX 45 56 77 57 57 58 76 59 58 60 61 61 75 62 94 63 59 64 60 65
REMARK SMILES IDX 74 67 95 68 62 69 46 70 47 71 55 72 48 73 49 74 53 75 56 76
REMARK SMILES IDX 50 77 51 78 54 79 52 80 78 81 79 82 87 83 80 84 81 85 85 86
REMARK SMILES IDX 88 87 82 88 83 89 86 90 84 91 63 92 64 93 72 94 65 95 66 96
REMARK SMILES IDX 70 97 73 98 67 99 68 100 71 101 69 102
REMARK H PARENT 3 13 93 55 61 66
REMARK Flexibility Score: inf
ROOT
ATOM      1  C   UNL A   1      39.066  22.082  26.213  1.00  0.00     0.188 C 
ENDROOT
BRANCH   1   2
ATOM      2  C   UNL A   1      38.048  21.026  25.751  1.00  0.00     0.188 C 
BRANCH   2   3
ATOM      3  O   UNL A   1      37.223  21.203  24.611  1.00  0.00    -0.376 OA
BRANCH   3   4
ATOM      4  C   UNL A   1      36.178  22.152  24.470  1.00  0.00     0.202 C 
BRANCH   4   5
ATOM      5  C   UNL A   1      36.340  23.661  24.258  1.00  0.00     0.261 C 
BRANCH   5   6
ATOM      6  O   UNL A   1      35.286  24.484  24.732  1.00  0.00    -0.462 OA
BRANCH   6   7
ATOM      7  C   UNL A   1      34.515  25.003  23.749  1.00  0.00     0.328 C 
ATOM      8  O   UNL A   1      34.361  24.499  22.641  1.00  0.00    -0.250 OA
BRANCH   7   9
ATOM      9  C   UNL A   1      33.952  26.373  24.120  1.00  0.00     0.190 C 
ATOM     10  C   UNL A   1      33.993  26.338  25.634  1.00  0.00     0.043 C 
BRANCH   9  11
ATOM     11  N   UNL A   1      32.649  26.686  23.527  1.00  0.00    -0.325 N 
ATOM     12  C   UNL A   1      31.400  26.198  23.644  1.00  0.00     0.318 C 
ATOM     13  H   UNL A   1      32.699  27.434  22.888  1.00  0.00     0.166 HD
ATOM     14  O   UNL A   1      30.505  26.791  23.038  1.00  0.00    -0.249 OA
ATOM     15  N   UNL A   1      31.168  25.006  24.248  1.00  0.00    -0.321 N 
ATOM     16  C   UNL A   1      30.331  24.058  23.532  1.00  0.00     0.143 C 
ATOM     17  C   UNL A   1      31.649  24.494  25.523  1.00  0.00     0.143 C 
ATOM     18  C   UNL A   1      31.206  22.869  23.137  1.00  0.00     0.137 C 
ATOM     19  C   UNL A   1      32.233  23.061  25.459  1.00  0.00     0.137 C 
ATOM     20  N   UNL A   1      31.791  22.208  24.325  1.00  0.00    -0.374 N 
BRANCH  20  21
ATOM     21  C   UNL A   1      32.131  20.865  24.331  1.00  0.00     0.081 C 
ATOM     22  C   UNL A   1      32.653  20.114  25.309  1.00  0.00     0.025 C 
BRANCH  22  23
ATOM     23  C   UNL A   1      33.132  18.747  25.077  1.00  0.00    -0.024 A 
ATOM     24  C   UNL A   1      32.617  17.687  25.829  1.00  0.00     0.008 A 
ATOM     25  C   UNL A   1      34.193  18.499  24.191  1.00  0.00     0.008 A 
ATOM     26  C   UNL A   1      33.145  16.401  25.685  1.00  0.00     0.001 A 
ATOM     27  C   UNL A   1      34.715  17.216  24.044  1.00  0.00     0.001 A 
ATOM     28  C   UNL A   1      34.192  16.168  24.794  1.00  0.00     0.000 A 
ENDBRANCH  22  23
ENDBRANCH  20  21
ENDBRANCH   9  11
ENDBRANCH   7   9
ENDBRANCH   6   7
ENDBRANCH   5   6
ENDBRANCH   4   5
ENDBRANCH   3   4
ENDBRANCH   2   3
ENDBRANCH   1   2
BRANCH   1  29
ATOM     29  O   UNL A   1      40.261  21.548  26.741  1.00  0.00    -0.377 OA
BRANCH  29  30
ATOM     30  C   UNL A   1      40.814  20.409  26.084  1.00  0.00     0.188 C 
BRANCH  30  31
ATOM     31  C   UNL A   1      42.286  20.012  26.346  1.00  0.00     0.188 C 
BRANCH  31  32
ATOM     32  O   UNL A   1      43.142  20.160  25.224  1.00  0.00    -0.376 OA
BRANCH  32  33
ATOM     33  C   UNL A   1      44.543  20.216  25.439  1.00  0.00     0.202 C 
BRANCH  33  34
ATOM     34  C   UNL A   1      45.214  21.598  25.382  1.00  0.00     0.261 C 
BRANCH  34  35
ATOM     35  O   UNL A   1      44.500  22.678  26.006  1.00  0.00    -0.460 OA
BRANCH  35  36
ATOM     36  C   UNL A   1      44.378  23.834  25.326  1.00  0.00     0.338 C 
ATOM     37  O   UNL A   1      44.693  24.045  24.164  1.00  0.00    -0.246 OA
BRANCH  36  38
ATOM     38  C   UNL A   1      43.598  24.774  26.156  1.00  0.00     0.060 A 
ATOM     39  C   UNL A   1      43.960  26.127  26.172  1.00  0.00     0.016 A 
ATOM     40  C   UNL A   1      42.531  24.319  26.934  1.00  0.00     0.016 A 
ATOM     41  C   UNL A   1      43.293  27.020  27.009  1.00  0.00     0.010 A 
ATOM     42  C   UNL A   1      41.877  25.209  27.790  1.00  0.00     0.010 A 
ATOM     43  C   UNL A   1      42.287  26.553  27.865  1.00  0.00    -0.014 A 
BRANCH  43  44
ATOM     44  C   UNL A   1      41.830  27.411  28.986  1.00  0.00     0.031 A 
ATOM     45  C   UNL A   1      42.606  27.366  30.276  1.00  0.00     0.074 A 
ATOM     46  C   UNL A   1      40.782  28.242  28.857  1.00  0.00     0.049 A 
ATOM     47  N   UNL A   1      42.386  27.990  31.404  1.00  0.00    -0.248 NA
ATOM     48  C   UNL A   1      43.791  26.493  30.292  1.00  0.00     0.031 C 
ATOM     49  C   UNL A   1      39.984  28.414  27.647  1.00  0.00     0.029 A 
ATOM     50  N   UNL A   1      40.207  29.094  29.767  1.00  0.00    -0.354 N 
ATOM     51  C   UNL A   1      43.398  27.580  32.264  1.00  0.00     0.074 A 
ATOM     52  C   UNL A   1      44.210  26.627  31.540  1.00  0.00     0.031 C 
ATOM     53  C   UNL A   1      39.012  29.311  27.891  1.00  0.00     0.029 A 
ATOM     54  C   UNL A   1      39.100  29.748  29.284  1.00  0.00     0.049 A 
ATOM     55  H   UNL A   1      40.555  29.225  30.679  1.00  0.00     0.167 HD
ATOM     56  C   UNL A   1      43.634  27.968  33.539  1.00  0.00     0.037 A 
ATOM     57  C   UNL A   1      38.245  30.582  29.908  1.00  0.00     0.037 A 
ATOM     58  C   UNL A   1      42.821  28.915  34.258  1.00  0.00     0.049 A 
ATOM     59  C   UNL A   1      38.480  30.934  31.356  1.00  0.00     0.074 A 
ATOM     60  C   UNL A   1      42.983  29.386  35.548  1.00  0.00     0.029 A 
ATOM     61  N   UNL A   1      41.684  29.525  33.748  1.00  0.00    -0.354 N 
ATOM     62  N   UNL A   1      39.450  30.562  32.157  1.00  0.00    -0.248 NA
ATOM     63  C   UNL A   1      37.500  31.831  31.987  1.00  0.00     0.031 C 
ATOM     64  C   UNL A   1      41.908  30.231  35.843  1.00  0.00     0.029 A 
ATOM     65  C   UNL A   1      41.118  30.346  34.711  1.00  0.00     0.049 A 
ATOM     66  H   UNL A   1      41.333  29.395  32.838  1.00  0.00     0.167 HD
ATOM     67  C   UNL A   1      39.219  31.205  33.367  1.00  0.00     0.074 A 
ATOM     68  C   UNL A   1      38.023  32.002  33.192  1.00  0.00     0.031 C 
ATOM     69  C   UNL A   1      39.933  31.144  34.520  1.00  0.00     0.037 A 
BRANCH  56  70
ATOM     70  C   UNL A   1      44.799  27.342  34.251  1.00  0.00     0.064 A 
ATOM     71  C   UNL A   1      46.038  27.994  34.364  1.00  0.00     0.173 A 
ATOM     72  C   UNL A   1      44.666  26.082  34.854  1.00  0.00     0.173 A 
ATOM     73  F   UNL A   1      46.225  29.193  33.794  1.00  0.00    -0.203 F 
ATOM     74  C   UNL A   1      47.106  27.392  35.026  1.00  0.00     0.198 A 
ATOM     75  C   UNL A   1      45.725  25.500  35.544  1.00  0.00     0.198 A 
ATOM     76  F   UNL A   1      43.503  25.416  34.780  1.00  0.00    -0.203 F 
ATOM     77  F   UNL A   1      48.295  28.009  35.072  1.00  0.00    -0.200 F 
ATOM     78  C   UNL A   1      46.946  26.151  35.622  1.00  0.00     0.200 A 
ATOM     79  F   UNL A   1      45.564  24.306  36.133  1.00  0.00    -0.200 F 
ATOM     80  F   UNL A   1      47.973  25.578  36.265  1.00  0.00    -0.200 F 
ENDBRANCH  56  70
BRANCH  57  81
ATOM     81  C   UNL A   1      37.075  31.136  29.175  1.00  0.00     0.064 A 
ATOM     82  C   UNL A   1      37.038  32.479  28.777  1.00  0.00     0.173 A 
ATOM     83  C   UNL A   1      35.954  30.343  28.887  1.00  0.00     0.173 A 
ATOM     84  F   UNL A   1      38.073  33.288  29.053  1.00  0.00    -0.203 F 
ATOM     85  C   UNL A   1      35.918  33.014  28.141  1.00  0.00     0.198 A 
ATOM     86  C   UNL A   1      34.849  30.868  28.222  1.00  0.00     0.198 A 
ATOM     87  F   UNL A   1      35.933  29.051  29.251  1.00  0.00    -0.203 F 
ATOM     88  F   UNL A   1      35.888  34.315  27.824  1.00  0.00    -0.200 F 
ATOM     89  C   UNL A   1      34.827  32.206  27.860  1.00  0.00     0.200 A 
ATOM     90  F   UNL A   1      33.802  30.081  27.940  1.00  0.00    -0.200 F 
ATOM     91  F   UNL A   1      33.751  32.719  27.247  1.00  0.00    -0.200 F 
ENDBRANCH  57  81
BRANCH  69  92
ATOM     92  C   UNL A   1      39.474  32.001  35.668  1.00  0.00     0.064 A 
ATOM     93  C   UNL A   1      39.981  33.292  35.881  1.00  0.00     0.173 A 
ATOM     94  C   UNL A   1      38.483  31.534  36.546  1.00  0.00     0.173 A 
ATOM     95  F   UNL A   1      40.937  33.783  35.080  1.00  0.00    -0.203 F 
ATOM     96  C   UNL A   1      39.538  34.067  36.950  1.00  0.00     0.198 A 
ATOM     97  C   UNL A   1      38.015  32.327  37.591  1.00  0.00     0.198 A 
ATOM     98  F   UNL A   1      37.954  30.312  36.383  1.00  0.00    -0.203 F 
ATOM     99  F   UNL A   1      40.080  35.274  37.170  1.00  0.00    -0.200 F 
ATOM    100  C   UNL A   1      38.551  33.588  37.799  1.00  0.00     0.200 A 
ATOM    101  F   UNL A   1      37.047  31.869  38.396  1.00  0.00    -0.200 F 
ATOM    102  F   UNL A   1      38.122  34.339  38.823  1.00  0.00    -0.200 F 
ENDBRANCH  69  92
ENDBRANCH  43  44
ENDBRANCH  36  38
ENDBRANCH  35  36
ENDBRANCH  34  35
ENDBRANCH  33  34
ENDBRANCH  32  33
ENDBRANCH  31  32
ENDBRANCH  30  31
ENDBRANCH  29  30
ENDBRANCH   1  29
TORSDOF 23
ENDMDL
MODEL 2
REMARK VINA RESULT:     -10.6      0.907      2.155
REMARK SMILES C[C@H](NC(=O)N1CCN(/C=C/c2ccccc2)CC1)C(=O)OCCOCCOCCOCCOC(=O)c1ccc(-c2c3nc(c(-c4c(F)c(F)c(F)c(F)c4F)c4ccc([nH]4)c(-c4c(F)c(F)c(F)c(F)c4F)c4nc(c(-c5c(F)c(F)c(F)c(F)c5F)c5ccc2[nH]5)C=C4)C=C3)cc1
REMARK SMILES IDX 27 1 26 2 25 3 24 4 23 5 22 6 20 7 21 8 2 9 1 10 3 11 4 12
REMARK SMILES IDX 5 14 6 15 7 16 19 17 8 18 18 19 9 20 10 21 11 22 12 23 13 24
REMARK SMILES IDX 17 25 14 26 16 27 15 28 28 29 29 30 30 31 31 32 32 33 33 34
REMARK SMILES IDX 34 35 35 36 36 37 37 38 38 39 99 40 39 41 98 42 40 43 41 44
REMARK SMILES IDX 42 45 92 46 43 47 97 48 91 49 93 50 44 51 96 52 90 53 89 54
REMARK SMILES IDX 45 56 77 57 57 58 76 59 58 60 61 61 75 62 94 63 59 64 60 65
REMARK SMILES IDX 74 67 95 68 62 69 46 70 47 71 55 72 48 73 49 74 53 75 56 76
REMARK SMILES IDX 50 77 51 78 54 79 52 80 78 81 79 82 87 83 80 84 81 85 85 86
REMARK SMILES IDX 88 87 82 88 83 89 86 90 84 91 63 92 64 93 72 94 65 95 66 96
REMARK SMILES IDX 70 97 73 98 67 99 68 100 71 101 69 102
REMARK H PARENT 3 13 93 55 61 66
REMARK Flexibility Score: inf
ROOT
ATOM      1  C   UNL A   1      37.827  23.107  25.914  1.00  0.00     0.188 C 
ENDROOT
BRANCH   1   2
ATOM      2  C   UNL A   1      36.784  21.993  25.716  1.00  0.00     0.188 C 
BRANCH   2   3
ATOM      3  O   UNL A   1      36.252  21.658  24.446  1.00  0.00    -0.376 OA
BRANCH   3   4
ATOM      4  C   UNL A   1      35.097  22.220  23.844  1.00  0.00     0.202 C 
BRANCH   4   5
ATOM      5  C   UNL A   1      35.007  23.576  23.135  1.00  0.00     0.261 C 
BRANCH   5   6
ATOM      6  O   UNL A   1      34.503  24.658  23.901  1.00  0.00    -0.462 OA
BRANCH   6   7
ATOM      7  C   UNL A   1      33.188  24.905  23.699  1.00  0.00     0.328 C 
ATOM      8  O   UNL A   1      32.446  24.214  23.008  1.00  0.00    -0.250 OA
BRANCH   7   9
ATOM      9  C   UNL A   1      32.746  26.226  24.321  1.00  0.00     0.190 C 
ATOM     10  C   UNL A   1      33.821  26.468  25.362  1.00  0.00     0.043 C 
BRANCH   9  11
ATOM     11  N   UNL A   1      31.367  26.245  24.817  1.00  0.00    -0.325 N 
ATOM     12  C   UNL A   1      30.687  25.600  25.783  1.00  0.00     0.318 C 
ATOM     13  H   UNL A   1      30.801  26.883  24.324  1.00  0.00     0.166 HD
ATOM     14  O   UNL A   1      29.521  25.951  25.980  1.00  0.00    -0.249 OA
ATOM     15  N   UNL A   1      31.199  24.496  26.382  1.00  0.00    -0.321 N 
ATOM     16  C   UNL A   1      30.331  23.333  26.470  1.00  0.00     0.143 C 
ATOM     17  C   UNL A   1      32.519  24.267  26.951  1.00  0.00     0.143 C 
ATOM     18  C   UNL A   1      30.925  22.241  25.580  1.00  0.00     0.137 C 
ATOM     19  C   UNL A   1      33.190  22.946  26.502  1.00  0.00     0.137 C 
ATOM     20  N   UNL A   1      32.289  21.870  26.014  1.00  0.00    -0.374 N 
BRANCH  20  21
ATOM     21  C   UNL A   1      32.820  20.610  25.787  1.00  0.00     0.081 C 
ATOM     22  C   UNL A   1      32.528  19.712  24.839  1.00  0.00     0.025 C 
BRANCH  22  23
ATOM     23  C   UNL A   1      33.055  18.343  24.866  1.00  0.00    -0.024 A 
ATOM     24  C   UNL A   1      34.004  17.939  23.923  1.00  0.00     0.008 A 
ATOM     25  C   UNL A   1      32.531  17.390  25.754  1.00  0.00     0.008 A 
ATOM     26  C   UNL A   1      34.431  16.608  23.880  1.00  0.00     0.001 A 
ATOM     27  C   UNL A   1      32.960  16.065  25.715  1.00  0.00     0.001 A 
ATOM     28  C   UNL A   1      33.908  15.674  24.774  1.00  0.00     0.000 A 
ENDBRANCH  22  23
ENDBRANCH  20  21
ENDBRANCH   9  11
ENDBRANCH   7   9
ENDBRANCH   6   7
ENDBRANCH   5   6
ENDBRANCH   4   5
ENDBRANCH   3   4
ENDBRANCH   2   3
ENDBRANCH   1   2
BRANCH   1  29
ATOM     29  O   UNL A   1      39.041  22.674  26.490  1.00  0.00    -0.377 OA
BRANCH  29  30
ATOM     30  C   UNL A   1      39.778  21.677  25.786  1.00  0.00     0.188 C 
BRANCH  30  31
ATOM     31  C   UNL A   1      40.766  20.767  26.555  1.00  0.00     0.188 C 
BRANCH  31  32
ATOM     32  O   UNL A   1      41.796  20.211  25.754  1.00  0.00    -0.376 OA
BRANCH  32  33
ATOM     33  C   UNL A   1      43.147  20.448  26.118  1.00  0.00     0.202 C 
BRANCH  33  34
ATOM     34  C   UNL A   1      43.873  21.614  25.429  1.00  0.00     0.261 C 
BRANCH  34  35
ATOM     35  O   UNL A   1      44.030  22.814  26.204  1.00  0.00    -0.460 OA
BRANCH  35  36
ATOM     36  C   UNL A   1      44.004  23.995  25.557  1.00  0.00     0.338 C 
ATOM     37  O   UNL A   1      44.375  24.220  24.414  1.00  0.00    -0.246 OA
BRANCH  36  38
ATOM     38  C   UNL A   1      43.252  24.957  26.388  1.00  0.00     0.060 A 
ATOM     39  C   UNL A   1      43.702  26.281  26.468  1.00  0.00     0.016 A 
ATOM     40  C   UNL A   1      42.125  24.549  27.104  1.00  0.00     0.016 A 
ATOM     41  C   UNL A   1      43.059  27.188  27.309  1.00  0.00     0.010 A 
ATOM     42  C   UNL A   1      41.494  25.452  27.965  1.00  0.00     0.010 A 
ATOM     43  C   UNL A   1      41.988  26.762  28.105  1.00  0.00    -0.014 A 
BRANCH  43  44
ATOM     44  C   UNL A   1      41.541  27.610  29.238  1.00  0.00     0.031 A 
ATOM     45  C   UNL A   1      42.307  27.529  30.531  1.00  0.00     0.074 A 
ATOM     46  C   UNL A   1      40.510  28.463  29.115  1.00  0.00     0.049 A 
ATOM     47  N   UNL A   1      42.092  28.139  31.668  1.00  0.00    -0.248 NA
ATOM     48  C   UNL A   1      43.475  26.633  30.541  1.00  0.00     0.031 C 
ATOM     49  C   UNL A   1      39.723  28.670  27.903  1.00  0.00     0.029 A 
ATOM     50  N   UNL A   1      39.945  29.311  30.035  1.00  0.00    -0.354 N 
ATOM     51  C   UNL A   1      43.089  27.695  32.528  1.00  0.00     0.074 A 
ATOM     52  C   UNL A   1      43.888  26.738  31.793  1.00  0.00     0.031 C 
ATOM     53  C   UNL A   1      38.767  29.581  28.156  1.00  0.00     0.029 A 
ATOM     54  C   UNL A   1      38.855  29.994  29.556  1.00  0.00     0.049 A 
ATOM     55  H   UNL A   1      40.290  29.420  30.951  1.00  0.00     0.167 HD
ATOM     56  C   UNL A   1      43.324  28.058  33.811  1.00  0.00     0.037 A 
ATOM     57  C   UNL A   1      38.011  30.834  30.188  1.00  0.00     0.037 A 
ATOM     58  C   UNL A   1      42.525  29.008  34.539  1.00  0.00     0.049 A 
ATOM     59  C   UNL A   1      38.244  31.159  31.643  1.00  0.00     0.074 A 
ATOM     60  C   UNL A   1      42.688  29.455  35.838  1.00  0.00     0.029 A 
ATOM     61  N   UNL A   1      41.404  29.649  34.032  1.00  0.00    -0.354 N 
ATOM     62  N   UNL A   1      39.201  30.755  32.444  1.00  0.00    -0.248 NA
ATOM     63  C   UNL A   1      37.277  32.064  32.282  1.00  0.00     0.031 C 
ATOM     64  C   UNL A   1      41.627  30.316  36.140  1.00  0.00     0.029 A 
ATOM     65  C   UNL A   1      40.847  30.465  35.005  1.00  0.00     0.049 A 
ATOM     66  H   UNL A   1      41.056  29.541  33.118  1.00  0.00     0.167 HD
ATOM     67  C   UNL A   1      38.974  31.382  33.663  1.00  0.00     0.074 A 
ATOM     68  C   UNL A   1      37.795  32.206  33.493  1.00  0.00     0.031 C 
ATOM     69  C   UNL A   1      39.679  31.288  34.819  1.00  0.00     0.037 A 
BRANCH  56  70
ATOM     70  C   UNL A   1      44.472  27.398  34.520  1.00  0.00     0.064 A 
ATOM     71  C   UNL A   1      44.319  26.187  35.214  1.00  0.00     0.173 A 
ATOM     72  C   UNL A   1      45.752  27.974  34.484  1.00  0.00     0.173 A 
ATOM     73  F   UNL A   1      43.115  25.601  35.293  1.00  0.00    -0.203 F 
ATOM     74  C   UNL A   1      45.397  25.595  35.868  1.00  0.00     0.198 A 
ATOM     75  C   UNL A   1      46.833  27.362  35.110  1.00  0.00     0.198 A 
ATOM     76  F   UNL A   1      45.955  29.130  33.833  1.00  0.00    -0.203 F 
ATOM     77  F   UNL A   1      45.215  24.468  36.570  1.00  0.00    -0.200 F 
ATOM     78  C   UNL A   1      46.654  26.178  35.809  1.00  0.00     0.200 A 
ATOM     79  F   UNL A   1      48.050  27.919  35.038  1.00  0.00    -0.200 F 
ATOM     80  F   UNL A   1      47.691  25.602  36.432  1.00  0.00    -0.200 F 
ENDBRANCH  56  70
BRANCH  57  81
ATOM     81  C   UNL A   1      36.857  31.423  29.457  1.00  0.00     0.064 A 
ATOM     82  C   UNL A   1      35.768  30.635  29.063  1.00  0.00     0.173 A 
ATOM     83  C   UNL A   1      36.835  32.782  29.107  1.00  0.00     0.173 A 
ATOM     84  F   UNL A   1      35.753  29.323  29.348  1.00  0.00    -0.203 F 
ATOM     85  C   UNL A   1      34.714  31.175  28.328  1.00  0.00     0.198 A 
ATOM     86  C   UNL A   1      35.766  33.329  28.402  1.00  0.00     0.198 A 
ATOM     87  F   UNL A   1      37.855  33.582  29.454  1.00  0.00    -0.203 F 
ATOM     88  F   UNL A   1      33.714  30.384  27.915  1.00  0.00    -0.200 F 
ATOM     89  C   UNL A   1      34.711  32.523  28.003  1.00  0.00     0.200 A 
ATOM     90  F   UNL A   1      35.761  34.635  28.101  1.00  0.00    -0.200 F 
ATOM     91  F   UNL A   1      33.697  33.042  27.297  1.00  0.00    -0.200 F 
ENDBRANCH  57  81
BRANCH  69  92
ATOM     92  C   UNL A   1      39.229  32.136  35.978  1.00  0.00     0.064 A 
ATOM     93  C   UNL A   1      38.316  31.664  36.934  1.00  0.00     0.173 A 
ATOM     94  C   UNL A   1      39.749  33.428  36.153  1.00  0.00     0.173 A 
ATOM     95  F   UNL A   1      37.779  30.442  36.810  1.00  0.00    -0.203 F 
ATOM     96  C   UNL A   1      37.917  32.468  38.000  1.00  0.00     0.198 A 
ATOM     97  C   UNL A   1      39.377  34.213  37.240  1.00  0.00     0.198 A 
ATOM     98  F   UNL A   1      40.634  33.926  35.275  1.00  0.00    -0.203 F 
ATOM     99  F   UNL A   1      36.998  32.018  38.867  1.00  0.00    -0.200 F 
ATOM    100  C   UNL A   1      38.452  33.738  38.156  1.00  0.00     0.200 A 
ATOM    101  F   UNL A   1      39.912  35.431  37.400  1.00  0.00    -0.200 F 
ATOM    102  F   UNL A   1      38.072  34.505  39.186  1.00  0.00    -0.200 F 
ENDBRANCH  69  92
ENDBRANCH  43  44
ENDBRANCH  36  38
ENDBRANCH  35  36
ENDBRANCH  34  35
ENDBRANCH  33  34
ENDBRANCH  32  33
ENDBRANCH  31  32
ENDBRANCH  30  31
ENDBRANCH  29  30
ENDBRANCH   1  29
TORSDOF 23
ENDMDL
MODEL 3
REMARK VINA RESULT:     -10.2      5.212     10.880
REMARK SMILES C[C@H](NC(=O)N1CCN(/C=C/c2ccccc2)CC1)C(=O)OCCOCCOCCOCCOC(=O)c1ccc(-c2c3nc(c(-c4c(F)c(F)c(F)c(F)c4F)c4ccc([nH]4)c(-c4c(F)c(F)c(F)c(F)c4F)c4nc(c(-c5c(F)c(F)c(F)c(F)c5F)c5ccc2[nH]5)C=C4)C=C3)cc1
REMARK SMILES IDX 27 1 26 2 25 3 24 4 23 5 22 6 20 7 21 8 2 9 1 10 3 11 4 12
REMARK SMILES IDX 5 14 6 15 7 16 19 17 8 18 18 19 9 20 10 21 11 22 12 23 13 24
REMARK SMILES IDX 17 25 14 26 16 27 15 28 28 29 29 30 30 31 31 32 32 33 33 34
REMARK SMILES IDX 34 35 35 36 36 37 37 38 38 39 99 40 39 41 98 42 40 43 41 44
REMARK SMILES IDX 42 45 92 46 43 47 97 48 91 49 93 50 44 51 96 52 90 53 89 54
REMARK SMILES IDX 45 56 77 57 57 58 76 59 58 60 61 61 75 62 94 63 59 64 60 65
REMARK SMILES IDX 74 67 95 68 62 69 46 70 47 71 55 72 48 73 49 74 53 75 56 76
REMARK SMILES IDX 50 77 51 78 54 79 52 80 78 81 79 82 87 83 80 84 81 85 85 86
REMARK SMILES IDX 88 87 82 88 83 89 86 90 84 91 63 92 64 93 72 94 65 95 66 96
REMARK SMILES IDX 70 97 73 98 67 99 68 100 71 101 69 102
REMARK H PARENT 3 13 93 55 61 66
REMARK Flexibility Score: inf
ROOT
ATOM      1  C   UNL A   1      34.101  31.135  27.225  1.00  0.00     0.188 C 
ENDROOT
BRANCH   1   2
ATOM      2  C   UNL A   1      34.116  29.768  27.930  1.00  0.00     0.188 C 
BRANCH   2   3
ATOM      3  O   UNL A   1      34.201  28.542  27.223  1.00  0.00    -0.376 OA
BRANCH   3   4
ATOM      4  C   UNL A   1      33.125  27.842  26.621  1.00  0.00     0.202 C 
BRANCH   4   5
ATOM      5  C   UNL A   1      32.836  26.342  26.734  1.00  0.00     0.261 C 
BRANCH   5   6
ATOM      6  O   UNL A   1      33.816  25.466  26.200  1.00  0.00    -0.462 OA
BRANCH   6   7
ATOM      7  C   UNL A   1      33.474  24.159  26.266  1.00  0.00     0.328 C 
ATOM      8  O   UNL A   1      34.066  23.314  26.932  1.00  0.00    -0.250 OA
BRANCH   7   9
ATOM      9  C   UNL A   1      32.340  23.810  25.306  1.00  0.00     0.190 C 
ATOM     10  C   UNL A   1      31.407  23.006  26.190  1.00  0.00     0.043 C 
BRANCH   9  11
ATOM     11  N   UNL A   1      32.761  23.154  24.064  1.00  0.00    -0.325 N 
ATOM     12  C   UNL A   1      33.265  23.566  22.886  1.00  0.00     0.318 C 
ATOM     13  H   UNL A   1      32.646  22.177  24.101  1.00  0.00     0.166 HD
ATOM     14  O   UNL A   1      33.596  22.693  22.081  1.00  0.00    -0.249 OA
ATOM     15  N   UNL A   1      33.237  24.875  22.532  1.00  0.00    -0.321 N 
ATOM     16  C   UNL A   1      32.719  25.187  21.210  1.00  0.00     0.143 C 
ATOM     17  C   UNL A   1      33.631  26.057  23.285  1.00  0.00     0.143 C 
ATOM     18  C   UNL A   1      31.409  25.954  21.392  1.00  0.00     0.137 C 
ATOM     19  C   UNL A   1      32.589  27.202  23.271  1.00  0.00     0.137 C 
ATOM     20  N   UNL A   1      31.616  27.209  22.147  1.00  0.00    -0.374 N 
BRANCH  20  21
ATOM     21  C   UNL A   1      30.795  28.313  21.985  1.00  0.00     0.081 C 
ATOM     22  C   UNL A   1      30.564  29.341  22.809  1.00  0.00     0.025 C 
BRANCH  22  23
ATOM     23  C   UNL A   1      29.509  30.329  22.555  1.00  0.00    -0.024 A 
ATOM     24  C   UNL A   1      29.015  30.508  21.259  1.00  0.00     0.008 A 
ATOM     25  C   UNL A   1      29.069  31.188  23.574  1.00  0.00     0.008 A 
ATOM     26  C   UNL A   1      28.087  31.519  20.994  1.00  0.00     0.001 A 
ATOM     27  C   UNL A   1      28.140  32.192  23.311  1.00  0.00     0.001 A 
ATOM     28  C   UNL A   1      27.652  32.359  22.019  1.00  0.00     0.000 A 
ENDBRANCH  22  23
ENDBRANCH  20  21
ENDBRANCH   9  11
ENDBRANCH   7   9
ENDBRANCH   6   7
ENDBRANCH   5   6
ENDBRANCH   4   5
ENDBRANCH   3   4
ENDBRANCH   2   3
ENDBRANCH   1   2
BRANCH   1  29
ATOM     29  O   UNL A   1      33.599  32.193  28.014  1.00  0.00    -0.377 OA
BRANCH  29  30
ATOM     30  C   UNL A   1      34.418  32.653  29.086  1.00  0.00     0.188 C 
BRANCH  30  31
ATOM     31  C   UNL A   1      34.223  34.084  29.641  1.00  0.00     0.188 C 
BRANCH  31  32
ATOM     32  O   UNL A   1      35.043  34.399  30.755  1.00  0.00    -0.376 OA
BRANCH  32  33
ATOM     33  C   UNL A   1      34.428  34.608  32.017  1.00  0.00     0.202 C 
BRANCH  33  34
ATOM     34  C   UNL A   1      34.206  33.377  32.910  1.00  0.00     0.261 C 
BRANCH  34  35
ATOM     35  O   UNL A   1      35.065  32.251  32.668  1.00  0.00    -0.460 OA
BRANCH  35  36
ATOM     36  C   UNL A   1      36.287  32.252  33.233  1.00  0.00     0.338 C 
ATOM     37  O   UNL A   1      36.585  32.654  34.348  1.00  0.00    -0.246 OA
BRANCH  36  38
ATOM     38  C   UNL A   1      37.198  31.486  32.357  1.00  0.00     0.060 A 
ATOM     39  C   UNL A   1      38.083  30.567  32.937  1.00  0.00     0.016 A 
ATOM     40  C   UNL A   1      37.196  31.691  30.976  1.00  0.00     0.016 A 
ATOM     41  C   UNL A   1      39.008  29.892  32.143  1.00  0.00     0.010 A 
ATOM     42  C   UNL A   1      38.139  31.032  30.183  1.00  0.00     0.010 A 
ATOM     43  C   UNL A   1      39.079  30.165  30.771  1.00  0.00    -0.014 A 
BRANCH  43  44
ATOM     44  C   UNL A   1      40.271  29.726  30.003  1.00  0.00     0.031 A 
ATOM     45  C   UNL A   1      41.380  30.719  29.783  1.00  0.00     0.074 A 
ATOM     46  C   UNL A   1      40.389  28.468  29.545  1.00  0.00     0.049 A 
ATOM     47  N   UNL A   1      42.499  30.588  29.118  1.00  0.00    -0.248 NA
ATOM     48  C   UNL A   1      41.198  32.044  30.398  1.00  0.00     0.031 C 
ATOM     49  C   UNL A   1      39.410  27.402  29.736  1.00  0.00     0.029 A 
ATOM     50  N   UNL A   1      41.393  27.879  28.815  1.00  0.00    -0.354 N 
ATOM     51  C   UNL A   1      43.148  31.812  29.228  1.00  0.00     0.074 A 
ATOM     52  C   UNL A   1      42.283  32.684  29.992  1.00  0.00     0.031 C 
ATOM     53  C   UNL A   1      39.856  26.288  29.129  1.00  0.00     0.029 A 
ATOM     54  C   UNL A   1      41.134  26.574  28.478  1.00  0.00     0.049 A 
ATOM     55  H   UNL A   1      42.220  28.349  28.560  1.00  0.00     0.167 HD
ATOM     56  C   UNL A   1      44.359  32.174  28.744  1.00  0.00     0.037 A 
ATOM     57  C   UNL A   1      41.838  25.721  27.708  1.00  0.00     0.037 A 
ATOM     58  C   UNL A   1      45.215  31.303  27.981  1.00  0.00     0.049 A 
ATOM     59  C   UNL A   1      43.147  26.176  27.108  1.00  0.00     0.074 A 
ATOM     60  C   UNL A   1      46.468  31.570  27.457  1.00  0.00     0.029 A 
ATOM     61  N   UNL A   1      44.900  30.000  27.625  1.00  0.00    -0.354 N 
ATOM     62  N   UNL A   1      43.766  27.325  27.234  1.00  0.00    -0.248 NA
ATOM     63  C   UNL A   1      43.858  25.206  26.260  1.00  0.00     0.031 C 
ATOM     64  C   UNL A   1      46.882  30.450  26.727  1.00  0.00     0.029 A 
ATOM     65  C   UNL A   1      45.923  29.460  26.861  1.00  0.00     0.049 A 
ATOM     66  H   UNL A   1      44.074  29.529  27.877  1.00  0.00     0.167 HD
ATOM     67  C   UNL A   1      44.950  27.205  26.516  1.00  0.00     0.074 A 
ATOM     68  C   UNL A   1      44.970  25.865  25.968  1.00  0.00     0.031 C 
ATOM     69  C   UNL A   1      45.935  28.120  26.329  1.00  0.00     0.037 A 
BRANCH  56  70
ATOM     70  C   UNL A   1      44.814  33.583  28.994  1.00  0.00     0.064 A 
ATOM     71  C   UNL A   1      44.369  34.658  28.207  1.00  0.00     0.173 A 
ATOM     72  C   UNL A   1      45.689  33.867  30.053  1.00  0.00     0.173 A 
ATOM     73  F   UNL A   1      43.543  34.442  27.172  1.00  0.00    -0.203 F 
ATOM     74  C   UNL A   1      44.807  35.957  28.455  1.00  0.00     0.198 A 
ATOM     75  C   UNL A   1      46.098  35.170  30.319  1.00  0.00     0.198 A 
ATOM     76  F   UNL A   1      46.144  32.878  30.838  1.00  0.00    -0.203 F 
ATOM     77  F   UNL A   1      44.412  36.959  27.657  1.00  0.00    -0.200 F 
ATOM     78  C   UNL A   1      45.664  36.213  29.515  1.00  0.00     0.200 A 
ATOM     79  F   UNL A   1      46.914  35.417  31.353  1.00  0.00    -0.200 F 
ATOM     80  F   UNL A   1      46.078  37.465  29.756  1.00  0.00    -0.200 F 
ENDBRANCH  56  70
BRANCH  57  81
ATOM     81  C   UNL A   1      41.322  24.351  27.446  1.00  0.00     0.064 A 
ATOM     82  C   UNL A   1      40.209  24.140  26.620  1.00  0.00     0.173 A 
ATOM     83  C   UNL A   1      41.910  23.226  28.044  1.00  0.00     0.173 A 
ATOM     84  F   UNL A   1      39.593  25.185  26.047  1.00  0.00    -0.203 F 
ATOM     85  C   UNL A   1      39.690  22.862  26.421  1.00  0.00     0.198 A 
ATOM     86  C   UNL A   1      41.411  21.945  27.817  1.00  0.00     0.198 A 
ATOM     87  F   UNL A   1      42.973  23.370  28.848  1.00  0.00    -0.203 F 
ATOM     88  F   UNL A   1      38.591  22.697  25.673  1.00  0.00    -0.200 F 
ATOM     89  C   UNL A   1      40.295  21.765  27.015  1.00  0.00     0.200 A 
ATOM     90  F   UNL A   1      42.007  20.886  28.383  1.00  0.00    -0.200 F 
ATOM     91  F   UNL A   1      39.797  20.535  26.822  1.00  0.00    -0.200 F 
ENDBRANCH  57  81
BRANCH  69  92
ATOM     92  C   UNL A   1      47.143  27.690  25.543  1.00  0.00     0.064 A 
ATOM     93  C   UNL A   1      47.201  27.805  24.146  1.00  0.00     0.173 A 
ATOM     94  C   UNL A   1      48.275  27.189  26.205  1.00  0.00     0.173 A 
ATOM     95  F   UNL A   1      46.145  28.267  23.461  1.00  0.00    -0.203 F 
ATOM     96  C   UNL A   1      48.332  27.402  23.440  1.00  0.00     0.198 A 
ATOM     97  C   UNL A   1      49.418  26.822  25.501  1.00  0.00     0.198 A 
ATOM     98  F   UNL A   1      48.280  27.067  27.542  1.00  0.00    -0.203 F 
ATOM     99  F   UNL A   1      48.342  27.465  22.101  1.00  0.00    -0.200 F 
ATOM    100  C   UNL A   1      49.442  26.918  24.118  1.00  0.00     0.200 A 
ATOM    101  F   UNL A   1      50.496  26.375  26.159  1.00  0.00    -0.200 F 
ATOM    102  F   UNL A   1      50.532  26.538  23.437  1.00  0.00    -0.200 F 
ENDBRANCH  69  92
ENDBRANCH  43  44
ENDBRANCH  36  38
ENDBRANCH  35  36
ENDBRANCH  34  35
ENDBRANCH  33  34
ENDBRANCH  32  33
ENDBRANCH  31  32
ENDBRANCH  30  31
ENDBRANCH  29  30
ENDBRANCH   1  29
TORSDOF 23
ENDMDL
