MODEL 1
REMARK VINA RESULT:      -9.3      0.000      0.000
REMARK SMILES CC[C@@H]1CCC[C@@H]([NH+]2CC(n3cc(C(=O)OCCOCCOCCOCCOC(=O)c4ccc(-c5c6nc(c(-c7c(F)c(F)c(F)c(F)c7F)c7ccc([nH]7)c(-c7c(F)c(F)c(F)c(F)c7F)c7nc(c(-c8c(F)c(F)c(F)c(F)c8F)c8ccc5[nH]8)C=C7)C=C6)cc4)nn3)C2)C1
REMARK SMILES IDX 21 1 20 2 19 3 18 4 17 5 16 6 14 7 15 8 13 9 11 10 12 11
REMARK SMILES IDX 95 12 94 13 10 14 8 15 9 16 96 17 7 19 3 20 4 21 97 22 5 23
REMARK SMILES IDX 6 24 2 25 1 26 22 27 23 28 24 29 25 30 26 31 27 32 28 33
REMARK SMILES IDX 29 34 30 35 31 36 32 37 93 38 33 39 92 40 34 41 35 42 36 43
REMARK SMILES IDX 86 44 37 45 91 46 85 47 87 48 38 49 90 50 84 51 83 52 39 54
REMARK SMILES IDX 71 55 51 56 70 57 52 58 55 59 69 60 88 61 53 62 54 63 68 65
REMARK SMILES IDX 89 66 56 67 40 68 41 69 49 70 42 71 43 72 47 73 50 74 44 75
REMARK SMILES IDX 45 76 48 77 46 78 72 79 73 80 81 81 74 82 75 83 79 84 82 85
REMARK SMILES IDX 76 86 77 87 80 88 78 89 57 90 58 91 66 92 59 93 60 94 64 95
REMARK SMILES IDX 67 96 61 97 62 98 65 99 63 100
REMARK H PARENT 8 18 87 53 55 64
REMARK Flexibility Score: inf
ROOT
ATOM      1  C   UNL A   1      33.367  25.553  25.975  1.00  0.00     0.188 C 
ENDROOT
BRANCH   1   2
ATOM      2  C   UNL A   1      32.543  26.857  25.959  1.00  0.00     0.188 C 
BRANCH   2   3
ATOM      3  O   UNL A   1      32.854  27.698  24.870  1.00  0.00    -0.376 OA
BRANCH   3   4
ATOM      4  C   UNL A   1      33.184  29.055  25.032  1.00  0.00     0.202 C 
BRANCH   4   5
ATOM      5  C   UNL A   1      32.196  30.008  25.712  1.00  0.00     0.261 C 
BRANCH   5   6
ATOM      6  O   UNL A   1      32.738  30.890  26.695  1.00  0.00    -0.458 OA
BRANCH   6   7
ATOM      7  C   UNL A   1      32.107  32.083  26.855  1.00  0.00     0.360 C 
ATOM      8  O   UNL A   1      30.940  32.299  26.515  1.00  0.00    -0.244 OA
BRANCH   7   9
ATOM      9  C   UNL A   1      32.934  33.021  27.584  1.00  0.00     0.190 A 
ATOM     10  N   UNL A   1      34.533  34.003  28.663  1.00  0.00    -0.237 N 
ATOM     11  C   UNL A   1      34.252  32.864  27.969  1.00  0.00     0.147 A 
ATOM     12  N   UNL A   1      33.444  34.783  28.772  1.00  0.00    -0.066 NA
ATOM     13  N   UNL A   1      32.463  34.203  28.095  1.00  0.00    -0.123 NA
BRANCH  10  14
ATOM     14  C   UNL A   1      35.725  34.186  29.419  1.00  0.00     0.218 C 
ATOM     15  N   UNL A   1      37.262  33.033  30.310  1.00  0.00    -0.329 N 
ATOM     16  C   UNL A   1      36.938  33.399  28.917  1.00  0.00     0.296 C 
ATOM     17  C   UNL A   1      35.846  33.306  30.678  1.00  0.00     0.296 C 
ATOM     18  H   UNL A   1      37.716  32.140  30.495  1.00  0.00     0.348 HD
BRANCH  15  19
ATOM     19  C   UNL A   1      38.255  33.856  31.036  1.00  0.00     0.184 C 
ATOM     20  C   UNL A   1      40.465  32.560  30.685  1.00  0.00    -0.006 C 
ATOM     21  C   UNL A   1      41.084  33.797  30.014  1.00  0.00     0.004 C 
ATOM     22  C   UNL A   1      39.357  32.968  31.671  1.00  0.00     0.068 C 
ATOM     23  C   UNL A   1      40.053  34.745  29.407  1.00  0.00     0.006 C 
ATOM     24  C   UNL A   1      38.928  35.081  30.381  1.00  0.00     0.065 C 
BRANCH  20  25
ATOM     25  C   UNL A   1      41.553  31.692  31.347  1.00  0.00     0.000 C 
ATOM     26  C   UNL A   1      42.898  31.878  30.651  1.00  0.00     0.004 C 
ENDBRANCH  20  25
ENDBRANCH  15  19
ENDBRANCH  10  14
ENDBRANCH   7   9
ENDBRANCH   6   7
ENDBRANCH   5   6
ENDBRANCH   4   5
ENDBRANCH   3   4
ENDBRANCH   2   3
ENDBRANCH   1   2
BRANCH   1  27
ATOM     27  O   UNL A   1      34.411  25.351  25.034  1.00  0.00    -0.377 OA
BRANCH  27  28
ATOM     28  C   UNL A   1      35.082  24.098  24.935  1.00  0.00     0.188 C 
BRANCH  28  29
ATOM     29  C   UNL A   1      34.442  22.798  24.367  1.00  0.00     0.188 C 
BRANCH  29  30
ATOM     30  O   UNL A   1      35.236  21.633  24.372  1.00  0.00    -0.376 OA
BRANCH  30  31
ATOM     31  C   UNL A   1      36.242  21.326  25.309  1.00  0.00     0.202 C 
BRANCH  31  32
ATOM     32  C   UNL A   1      37.541  20.640  24.922  1.00  0.00     0.261 C 
BRANCH  32  33
ATOM     33  O   UNL A   1      38.678  21.103  25.611  1.00  0.00    -0.460 OA
BRANCH  33  34
ATOM     34  C   UNL A   1      39.668  20.198  25.689  1.00  0.00     0.338 C 
ATOM     35  O   UNL A   1      39.607  19.004  25.440  1.00  0.00    -0.246 OA
BRANCH  34  36
ATOM     36  C   UNL A   1      40.826  20.862  26.281  1.00  0.00     0.060 A 
ATOM     37  C   UNL A   1      40.976  20.698  27.655  1.00  0.00     0.016 A 
ATOM     38  C   UNL A   1      41.406  21.925  25.571  1.00  0.00     0.016 A 
ATOM     39  C   UNL A   1      41.443  21.773  28.364  1.00  0.00     0.010 A 
ATOM     40  C   UNL A   1      41.851  23.005  26.282  1.00  0.00     0.010 A 
ATOM     41  C   UNL A   1      41.757  22.947  27.666  1.00  0.00    -0.014 A 
BRANCH  41  42
ATOM     42  C   UNL A   1      42.092  24.113  28.439  1.00  0.00     0.031 A 
ATOM     43  C   UNL A   1      41.048  25.148  28.334  1.00  0.00     0.074 A 
ATOM     44  C   UNL A   1      43.198  24.188  29.200  1.00  0.00     0.049 A 
ATOM     45  N   UNL A   1      41.141  26.284  27.729  1.00  0.00    -0.248 NA
ATOM     46  C   UNL A   1      39.684  24.791  28.757  1.00  0.00     0.031 C 
ATOM     47  C   UNL A   1      44.156  23.138  29.548  1.00  0.00     0.029 A 
ATOM     48  N   UNL A   1      43.656  25.260  29.898  1.00  0.00    -0.354 N 
ATOM     49  C   UNL A   1      39.896  26.875  27.874  1.00  0.00     0.074 A 
ATOM     50  C   UNL A   1      38.996  25.849  28.328  1.00  0.00     0.031 C 
ATOM     51  C   UNL A   1      44.941  23.570  30.565  1.00  0.00     0.029 A 
ATOM     52  C   UNL A   1      44.629  24.962  30.843  1.00  0.00     0.049 A 
ATOM     53  H   UNL A   1      43.324  26.174  29.746  1.00  0.00     0.167 HD
ATOM     54  C   UNL A   1      39.779  28.228  27.879  1.00  0.00     0.037 A 
ATOM     55  C   UNL A   1      45.060  25.807  31.814  1.00  0.00     0.037 A 
ATOM     56  C   UNL A   1      40.917  28.853  27.253  1.00  0.00     0.049 A 
ATOM     57  C   UNL A   1      44.692  27.186  31.391  1.00  0.00     0.074 A 
ATOM     58  C   UNL A   1      41.473  28.787  25.989  1.00  0.00     0.029 A 
ATOM     59  N   UNL A   1      41.900  29.368  28.062  1.00  0.00    -0.354 N 
ATOM     60  N   UNL A   1      45.254  27.803  30.389  1.00  0.00    -0.248 NA
ATOM     61  C   UNL A   1      43.372  27.677  31.766  1.00  0.00     0.031 C 
ATOM     62  C   UNL A   1      42.882  28.800  26.199  1.00  0.00     0.029 A 
ATOM     63  C   UNL A   1      43.109  28.946  27.566  1.00  0.00     0.049 A 
ATOM     64  H   UNL A   1      41.764  29.936  28.855  1.00  0.00     0.167 HD
ATOM     65  C   UNL A   1      44.209  28.442  29.738  1.00  0.00     0.074 A 
ATOM     66  C   UNL A   1      43.084  28.385  30.670  1.00  0.00     0.031 C 
ATOM     67  C   UNL A   1      44.262  28.687  28.396  1.00  0.00     0.037 A 
BRANCH  54  68
ATOM     68  C   UNL A   1      38.842  28.956  28.802  1.00  0.00     0.064 A 
ATOM     69  C   UNL A   1      39.079  28.917  30.187  1.00  0.00     0.173 A 
ATOM     70  C   UNL A   1      37.571  29.441  28.412  1.00  0.00     0.173 A 
ATOM     71  F   UNL A   1      40.239  28.445  30.666  1.00  0.00    -0.203 F 
ATOM     72  C   UNL A   1      38.094  29.272  31.110  1.00  0.00     0.198 A 
ATOM     73  C   UNL A   1      36.613  29.849  29.334  1.00  0.00     0.198 A 
ATOM     74  F   UNL A   1      37.156  29.431  27.140  1.00  0.00    -0.203 F 
ATOM     75  F   UNL A   1      38.318  29.099  32.419  1.00  0.00    -0.200 F 
ATOM     76  C   UNL A   1      36.861  29.735  30.683  1.00  0.00     0.200 A 
ATOM     77  F   UNL A   1      35.419  30.274  28.896  1.00  0.00    -0.200 F 
ATOM     78  F   UNL A   1      35.896  30.021  31.566  1.00  0.00    -0.200 F 
ENDBRANCH  54  68
BRANCH  55  79
ATOM     79  C   UNL A   1      45.457  25.498  33.210  1.00  0.00     0.064 A 
ATOM     80  C   UNL A   1      44.494  25.131  34.166  1.00  0.00     0.173 A 
ATOM     81  C   UNL A   1      46.801  25.267  33.555  1.00  0.00     0.173 A 
ATOM     82  F   UNL A   1      43.188  25.277  33.902  1.00  0.00    -0.203 F 
ATOM     83  C   UNL A   1      44.856  24.533  35.379  1.00  0.00     0.198 A 
ATOM     84  C   UNL A   1      47.160  24.676  34.768  1.00  0.00     0.198 A 
ATOM     85  F   UNL A   1      47.788  25.514  32.683  1.00  0.00    -0.203 F 
ATOM     86  F   UNL A   1      43.905  24.133  36.237  1.00  0.00    -0.200 F 
ATOM     87  C   UNL A   1      46.187  24.294  35.672  1.00  0.00     0.200 A 
ATOM     88  F   UNL A   1      48.450  24.414  35.023  1.00  0.00    -0.200 F 
ATOM     89  F   UNL A   1      46.530  23.660  36.802  1.00  0.00    -0.200 F 
ENDBRANCH  55  79
BRANCH  67  90
ATOM     90  C   UNL A   1      45.576  28.459  27.700  1.00  0.00     0.064 A 
ATOM     91  C   UNL A   1      46.612  29.410  27.633  1.00  0.00     0.173 A 
ATOM     92  C   UNL A   1      45.843  27.185  27.181  1.00  0.00     0.173 A 
ATOM     93  F   UNL A   1      46.480  30.615  28.201  1.00  0.00    -0.203 F 
ATOM     94  C   UNL A   1      47.831  29.113  27.023  1.00  0.00     0.198 A 
ATOM     95  C   UNL A   1      47.074  26.879  26.608  1.00  0.00     0.198 A 
ATOM     96  F   UNL A   1      44.916  26.219  27.268  1.00  0.00    -0.203 F 
ATOM     97  F   UNL A   1      48.793  30.045  26.951  1.00  0.00    -0.200 F 
ATOM     98  C   UNL A   1      48.061  27.846  26.515  1.00  0.00     0.200 A 
ATOM     99  F   UNL A   1      47.310  25.637  26.165  1.00  0.00    -0.200 F 
ATOM    100  F   UNL A   1      49.244  27.549  25.958  1.00  0.00    -0.200 F 
ENDBRANCH  67  90
ENDBRANCH  41  42
ENDBRANCH  34  36
ENDBRANCH  33  34
ENDBRANCH  32  33
ENDBRANCH  31  32
ENDBRANCH  30  31
ENDBRANCH  29  30
ENDBRANCH  28  29
ENDBRANCH  27  28
ENDBRANCH   1  27
TORSDOF 23
ENDMDL
MODEL 2
REMARK VINA RESULT:      -8.9      4.961     11.108
REMARK SMILES CC[C@@H]1CCC[C@@H]([NH+]2CC(n3cc(C(=O)OCCOCCOCCOCCOC(=O)c4ccc(-c5c6nc(c(-c7c(F)c(F)c(F)c(F)c7F)c7ccc([nH]7)c(-c7c(F)c(F)c(F)c(F)c7F)c7nc(c(-c8c(F)c(F)c(F)c(F)c8F)c8ccc5[nH]8)C=C7)C=C6)cc4)nn3)C2)C1
REMARK SMILES IDX 21 1 20 2 19 3 18 4 17 5 16 6 14 7 15 8 13 9 11 10 12 11
REMARK SMILES IDX 95 12 94 13 10 14 8 15 9 16 96 17 7 19 3 20 4 21 97 22 5 23
REMARK SMILES IDX 6 24 2 25 1 26 22 27 23 28 24 29 25 30 26 31 27 32 28 33
REMARK SMILES IDX 29 34 30 35 31 36 32 37 93 38 33 39 92 40 34 41 35 42 36 43
REMARK SMILES IDX 86 44 37 45 91 46 85 47 87 48 38 49 90 50 84 51 83 52 39 54
REMARK SMILES IDX 71 55 51 56 70 57 52 58 55 59 69 60 88 61 53 62 54 63 68 65
REMARK SMILES IDX 89 66 56 67 40 68 41 69 49 70 42 71 43 72 47 73 50 74 44 75
REMARK SMILES IDX 45 76 48 77 46 78 72 79 73 80 81 81 74 82 75 83 79 84 82 85
REMARK SMILES IDX 76 86 77 87 80 88 78 89 57 90 58 91 66 92 59 93 60 94 64 95
REMARK SMILES IDX 67 96 61 97 62 98 65 99 63 100
REMARK H PARENT 8 18 87 53 55 64
REMARK Flexibility Score: inf
ROOT
ATOM      1  C   UNL A   1      45.768  22.576  26.102  1.00  0.00     0.188 C 
ENDROOT
BRANCH   1   2
ATOM      2  C   UNL A   1      45.469  22.334  24.608  1.00  0.00     0.188 C 
BRANCH   2   3
ATOM      3  O   UNL A   1      45.686  20.999  24.206  1.00  0.00    -0.376 OA
BRANCH   3   4
ATOM      4  C   UNL A   1      46.131  20.005  25.094  1.00  0.00     0.202 C 
BRANCH   4   5
ATOM      5  C   UNL A   1      45.259  18.775  25.367  1.00  0.00     0.261 C 
BRANCH   5   6
ATOM      6  O   UNL A   1      43.867  18.906  25.078  1.00  0.00    -0.458 OA
BRANCH   6   7
ATOM      7  C   UNL A   1      43.005  18.576  26.075  1.00  0.00     0.360 C 
ATOM      8  O   UNL A   1      42.972  17.470  26.622  1.00  0.00    -0.244 OA
BRANCH   7   9
ATOM      9  C   UNL A   1      42.224  19.720  26.494  1.00  0.00     0.190 A 
ATOM     10  N   UNL A   1      41.428  21.708  26.813  1.00  0.00    -0.237 N 
ATOM     11  C   UNL A   1      42.366  21.034  26.089  1.00  0.00     0.147 A 
ATOM     12  N   UNL A   1      40.795  20.885  27.668  1.00  0.00    -0.066 NA
ATOM     13  N   UNL A   1      41.258  19.660  27.466  1.00  0.00    -0.123 NA
BRANCH  10  14
ATOM     14  C   UNL A   1      41.350  23.128  26.867  1.00  0.00     0.218 C 
ATOM     15  N   UNL A   1      40.461  24.650  28.042  1.00  0.00    -0.329 N 
ATOM     16  C   UNL A   1      41.604  23.738  28.248  1.00  0.00     0.296 C 
ATOM     17  C   UNL A   1      39.928  23.702  27.025  1.00  0.00     0.296 C 
ATOM     18  H   UNL A   1      39.917  24.954  28.848  1.00  0.00     0.348 HD
BRANCH  15  19
ATOM     19  C   UNL A   1      40.736  26.011  27.529  1.00  0.00     0.184 C 
ATOM     20  C   UNL A   1      39.356  27.526  29.105  1.00  0.00    -0.006 C 
ATOM     21  C   UNL A   1      40.640  28.264  29.519  1.00  0.00     0.004 C 
ATOM     22  C   UNL A   1      39.497  26.929  27.695  1.00  0.00     0.068 C 
ATOM     23  C   UNL A   1      41.909  27.436  29.337  1.00  0.00     0.006 C 
ATOM     24  C   UNL A   1      41.994  26.799  27.953  1.00  0.00     0.065 C 
BRANCH  20  25
ATOM     25  C   UNL A   1      38.127  28.446  29.236  1.00  0.00     0.000 C 
ATOM     26  C   UNL A   1      38.546  29.871  29.588  1.00  0.00     0.004 C 
ENDBRANCH  20  25
ENDBRANCH  15  19
ENDBRANCH  10  14
ENDBRANCH   7   9
ENDBRANCH   6   7
ENDBRANCH   5   6
ENDBRANCH   4   5
ENDBRANCH   3   4
ENDBRANCH   2   3
ENDBRANCH   1   2
BRANCH   1  27
ATOM     27  O   UNL A   1      45.425  23.812  26.712  1.00  0.00    -0.377 OA
BRANCH  27  28
ATOM     28  C   UNL A   1      46.350  24.895  26.754  1.00  0.00     0.188 C 
BRANCH  28  29
ATOM     29  C   UNL A   1      47.724  24.908  26.024  1.00  0.00     0.188 C 
BRANCH  29  30
ATOM     30  O   UNL A   1      47.925  25.904  25.045  1.00  0.00    -0.376 OA
BRANCH  30  31
ATOM     31  C   UNL A   1      47.802  27.292  25.246  1.00  0.00     0.202 C 
BRANCH  31  32
ATOM     32  C   UNL A   1      46.689  28.115  24.620  1.00  0.00     0.261 C 
BRANCH  32  33
ATOM     33  O   UNL A   1      46.206  29.161  25.430  1.00  0.00    -0.460 OA
BRANCH  33  34
ATOM     34  C   UNL A   1      45.132  28.823  26.164  1.00  0.00     0.338 C 
ATOM     35  O   UNL A   1      44.462  27.806  26.080  1.00  0.00    -0.246 OA
BRANCH  34  36
ATOM     36  C   UNL A   1      44.793  29.970  27.002  1.00  0.00     0.060 A 
ATOM     37  C   UNL A   1      45.804  30.417  27.848  1.00  0.00     0.016 A 
ATOM     38  C   UNL A   1      43.434  30.236  27.229  1.00  0.00     0.016 A 
ATOM     39  C   UNL A   1      45.429  30.859  29.089  1.00  0.00     0.010 A 
ATOM     40  C   UNL A   1      43.062  30.655  28.477  1.00  0.00     0.010 A 
ATOM     41  C   UNL A   1      44.066  30.853  29.415  1.00  0.00    -0.014 A 
BRANCH  41  42
ATOM     42  C   UNL A   1      43.704  31.167  30.772  1.00  0.00     0.031 A 
ATOM     43  C   UNL A   1      43.664  29.958  31.613  1.00  0.00     0.074 A 
ATOM     44  C   UNL A   1      43.495  32.426  31.197  1.00  0.00     0.049 A 
ATOM     45  N   UNL A   1      42.616  29.399  32.117  1.00  0.00    -0.248 NA
ATOM     46  C   UNL A   1      44.895  29.159  31.724  1.00  0.00     0.031 C 
ATOM     47  C   UNL A   1      43.742  33.691  30.502  1.00  0.00     0.029 A 
ATOM     48  N   UNL A   1      43.071  32.830  32.421  1.00  0.00    -0.354 N 
ATOM     49  C   UNL A   1      43.087  28.279  32.785  1.00  0.00     0.074 A 
ATOM     50  C   UNL A   1      44.442  28.073  32.349  1.00  0.00     0.031 C 
ATOM     51  C   UNL A   1      43.677  34.709  31.394  1.00  0.00     0.029 A 
ATOM     52  C   UNL A   1      43.256  34.182  32.681  1.00  0.00     0.049 A 
ATOM     53  H   UNL A   1      42.663  32.214  33.073  1.00  0.00     0.167 HD
ATOM     54  C   UNL A   1      42.411  27.788  33.855  1.00  0.00     0.037 A 
ATOM     55  C   UNL A   1      43.137  34.767  33.900  1.00  0.00     0.037 A 
ATOM     56  C   UNL A   1      41.036  28.222  33.849  1.00  0.00     0.049 A 
ATOM     57  C   UNL A   1      42.328  33.850  34.750  1.00  0.00     0.074 A 
ATOM     58  C   UNL A   1      39.985  28.068  32.964  1.00  0.00     0.029 A 
ATOM     59  N   UNL A   1      40.686  29.275  34.658  1.00  0.00    -0.354 N 
ATOM     60  N   UNL A   1      41.057  33.630  34.560  1.00  0.00    -0.248 NA
ATOM     61  C   UNL A   1      43.038  32.814  35.489  1.00  0.00     0.031 C 
ATOM     62  C   UNL A   1      39.304  29.319  32.972  1.00  0.00     0.029 A 
ATOM     63  C   UNL A   1      39.928  30.141  33.909  1.00  0.00     0.049 A 
ATOM     64  H   UNL A   1      40.934  29.390  35.604  1.00  0.00     0.167 HD
ATOM     65  C   UNL A   1      40.904  32.265  34.754  1.00  0.00     0.074 A 
ATOM     66  C   UNL A   1      42.144  31.826  35.392  1.00  0.00     0.031 C 
ATOM     67  C   UNL A   1      39.920  31.570  34.111  1.00  0.00     0.037 A 
BRANCH  54  68
ATOM     68  C   UNL A   1      43.106  27.266  35.082  1.00  0.00     0.064 A 
ATOM     69  C   UNL A   1      42.733  26.013  35.597  1.00  0.00     0.173 A 
ATOM     70  C   UNL A   1      43.907  28.064  35.932  1.00  0.00     0.173 A 
ATOM     71  F   UNL A   1      41.949  25.190  34.886  1.00  0.00    -0.203 F 
ATOM     72  C   UNL A   1      43.081  25.619  36.891  1.00  0.00     0.198 A 
ATOM     73  C   UNL A   1      44.301  27.643  37.198  1.00  0.00     0.198 A 
ATOM     74  F   UNL A   1      44.245  29.323  35.630  1.00  0.00    -0.203 F 
ATOM     75  F   UNL A   1      42.599  24.472  37.387  1.00  0.00    -0.200 F 
ATOM     76  C   UNL A   1      43.861  26.435  37.691  1.00  0.00     0.200 A 
ATOM     77  F   UNL A   1      45.039  28.461  37.963  1.00  0.00    -0.200 F 
ATOM     78  F   UNL A   1      44.147  26.085  38.951  1.00  0.00    -0.200 F 
ENDBRANCH  54  68
BRANCH  55  79
ATOM     79  C   UNL A   1      43.932  35.874  34.485  1.00  0.00     0.064 A 
ATOM     80  C   UNL A   1      45.319  35.742  34.673  1.00  0.00     0.173 A 
ATOM     81  C   UNL A   1      43.409  37.176  34.589  1.00  0.00     0.173 A 
ATOM     82  F   UNL A   1      45.907  34.544  34.549  1.00  0.00    -0.203 F 
ATOM     83  C   UNL A   1      46.136  36.853  34.914  1.00  0.00     0.198 A 
ATOM     84  C   UNL A   1      44.224  38.282  34.835  1.00  0.00     0.198 A 
ATOM     85  F   UNL A   1      42.111  37.418  34.354  1.00  0.00    -0.203 F 
ATOM     86  F   UNL A   1      47.464  36.696  35.020  1.00  0.00    -0.200 F 
ATOM     87  C   UNL A   1      45.590  38.122  34.982  1.00  0.00     0.200 A 
ATOM     88  F   UNL A   1      43.688  39.511  34.860  1.00  0.00    -0.200 F 
ATOM     89  F   UNL A   1      46.379  39.194  35.144  1.00  0.00    -0.200 F 
ENDBRANCH  55  79
BRANCH  67  90
ATOM     90  C   UNL A   1      38.873  32.365  33.380  1.00  0.00     0.064 A 
ATOM     91  C   UNL A   1      39.014  32.832  32.059  1.00  0.00     0.173 A 
ATOM     92  C   UNL A   1      37.631  32.560  33.998  1.00  0.00     0.173 A 
ATOM     93  F   UNL A   1      40.128  32.592  31.357  1.00  0.00    -0.203 F 
ATOM     94  C   UNL A   1      37.979  33.513  31.416  1.00  0.00     0.198 A 
ATOM     95  C   UNL A   1      36.587  33.204  33.340  1.00  0.00     0.198 A 
ATOM     96  F   UNL A   1      37.417  32.085  35.235  1.00  0.00    -0.203 F 
ATOM     97  F   UNL A   1      38.148  33.969  30.166  1.00  0.00    -0.200 F 
ATOM     98  C   UNL A   1      36.766  33.694  32.057  1.00  0.00     0.200 A 
ATOM     99  F   UNL A   1      35.399  33.331  33.946  1.00  0.00    -0.200 F 
ATOM    100  F   UNL A   1      35.759  34.319  31.429  1.00  0.00    -0.200 F 
ENDBRANCH  67  90
ENDBRANCH  41  42
ENDBRANCH  34  36
ENDBRANCH  33  34
ENDBRANCH  32  33
ENDBRANCH  31  32
ENDBRANCH  30  31
ENDBRANCH  29  30
ENDBRANCH  28  29
ENDBRANCH  27  28
ENDBRANCH   1  27
TORSDOF 23
ENDMDL
MODEL 3
REMARK VINA RESULT:      -8.9      3.706      9.276
REMARK SMILES CC[C@@H]1CCC[C@@H]([NH+]2CC(n3cc(C(=O)OCCOCCOCCOCCOC(=O)c4ccc(-c5c6nc(c(-c7c(F)c(F)c(F)c(F)c7F)c7ccc([nH]7)c(-c7c(F)c(F)c(F)c(F)c7F)c7nc(c(-c8c(F)c(F)c(F)c(F)c8F)c8ccc5[nH]8)C=C7)C=C6)cc4)nn3)C2)C1
REMARK SMILES IDX 21 1 20 2 19 3 18 4 17 5 16 6 14 7 15 8 13 9 11 10 12 11
REMARK SMILES IDX 95 12 94 13 10 14 8 15 9 16 96 17 7 19 3 20 4 21 97 22 5 23
REMARK SMILES IDX 6 24 2 25 1 26 22 27 23 28 24 29 25 30 26 31 27 32 28 33
REMARK SMILES IDX 29 34 30 35 31 36 32 37 93 38 33 39 92 40 34 41 35 42 36 43
REMARK SMILES IDX 86 44 37 45 91 46 85 47 87 48 38 49 90 50 84 51 83 52 39 54
REMARK SMILES IDX 71 55 51 56 70 57 52 58 55 59 69 60 88 61 53 62 54 63 68 65
REMARK SMILES IDX 89 66 56 67 40 68 41 69 49 70 42 71 43 72 47 73 50 74 44 75
REMARK SMILES IDX 45 76 48 77 46 78 72 79 73 80 81 81 74 82 75 83 79 84 82 85
REMARK SMILES IDX 76 86 77 87 80 88 78 89 57 90 58 91 66 92 59 93 60 94 64 95
REMARK SMILES IDX 67 96 61 97 62 98 65 99 63 100
REMARK H PARENT 8 18 87 53 55 64
REMARK Flexibility Score: inf
ROOT
ATOM      1  C   UNL A   1      35.165  33.875  34.361  1.00  0.00     0.188 C 
ENDROOT
BRANCH   1   2
ATOM      2  C   UNL A   1      34.344  33.429  33.133  1.00  0.00     0.188 C 
BRANCH   2   3
ATOM      3  O   UNL A   1      33.879  34.507  32.352  1.00  0.00    -0.376 OA
BRANCH   3   4
ATOM      4  C   UNL A   1      34.065  34.568  30.960  1.00  0.00     0.202 C 
BRANCH   4   5
ATOM      5  C   UNL A   1      35.072  33.635  30.280  1.00  0.00     0.261 C 
BRANCH   5   6
ATOM      6  O   UNL A   1      34.534  32.479  29.638  1.00  0.00    -0.458 OA
BRANCH   6   7
ATOM      7  C   UNL A   1      34.045  32.652  28.382  1.00  0.00     0.360 C 
ATOM      8  O   UNL A   1      33.753  33.750  27.900  1.00  0.00    -0.244 OA
BRANCH   7   9
ATOM      9  C   UNL A   1      34.032  31.406  27.647  1.00  0.00     0.190 A 
ATOM     10  N   UNL A   1      33.468  29.648  26.516  1.00  0.00    -0.237 N 
ATOM     11  C   UNL A   1      32.962  30.820  26.996  1.00  0.00     0.147 A 
ATOM     12  N   UNL A   1      34.743  29.477  26.905  1.00  0.00    -0.066 NA
ATOM     13  N   UNL A   1      35.108  30.557  27.580  1.00  0.00    -0.123 NA
BRANCH  10  14
ATOM     14  C   UNL A   1      32.662  28.623  25.945  1.00  0.00     0.218 C 
ATOM     15  N   UNL A   1      32.867  26.681  25.123  1.00  0.00    -0.329 N 
ATOM     16  C   UNL A   1      32.916  27.217  26.498  1.00  0.00     0.296 C 
ATOM     17  C   UNL A   1      33.179  28.045  24.614  1.00  0.00     0.296 C 
ATOM     18  H   UNL A   1      33.431  25.865  24.889  1.00  0.00     0.348 HD
BRANCH  15  19
ATOM     19  C   UNL A   1      31.587  26.122  24.637  1.00  0.00     0.184 C 
ATOM     20  C   UNL A   1      32.169  23.649  24.155  1.00  0.00    -0.006 C 
ATOM     21  C   UNL A   1      31.091  23.200  25.156  1.00  0.00     0.004 C 
ATOM     22  C   UNL A   1      31.830  25.027  23.564  1.00  0.00     0.068 C 
ATOM     23  C   UNL A   1      30.763  24.249  26.215  1.00  0.00     0.006 C 
ATOM     24  C   UNL A   1      30.497  25.624  25.610  1.00  0.00     0.065 C 
BRANCH  20  25
ATOM     25  C   UNL A   1      32.389  22.578  23.068  1.00  0.00     0.000 C 
ATOM     26  C   UNL A   1      32.278  21.174  23.654  1.00  0.00     0.004 C 
ENDBRANCH  20  25
ENDBRANCH  15  19
ENDBRANCH  10  14
ENDBRANCH   7   9
ENDBRANCH   6   7
ENDBRANCH   5   6
ENDBRANCH   4   5
ENDBRANCH   3   4
ENDBRANCH   2   3
ENDBRANCH   1   2
BRANCH   1  27
ATOM     27  O   UNL A   1      36.236  33.075  34.839  1.00  0.00    -0.377 OA
BRANCH  27  28
ATOM     28  C   UNL A   1      37.008  33.476  35.968  1.00  0.00     0.188 C 
BRANCH  28  29
ATOM     29  C   UNL A   1      38.564  33.496  36.007  1.00  0.00     0.188 C 
BRANCH  29  30
ATOM     30  O   UNL A   1      39.243  32.706  35.056  1.00  0.00    -0.376 OA
BRANCH  30  31
ATOM     31  C   UNL A   1      40.140  33.183  34.080  1.00  0.00     0.202 C 
BRANCH  31  32
ATOM     32  C   UNL A   1      40.761  32.281  33.028  1.00  0.00     0.261 C 
BRANCH  32  33
ATOM     33  O   UNL A   1      40.870  32.860  31.749  1.00  0.00    -0.460 OA
BRANCH  33  34
ATOM     34  C   UNL A   1      39.870  32.525  30.917  1.00  0.00     0.338 C 
ATOM     35  O   UNL A   1      38.699  32.865  30.985  1.00  0.00    -0.246 OA
BRANCH  34  36
ATOM     36  C   UNL A   1      40.392  31.536  29.976  1.00  0.00     0.060 A 
ATOM     37  C   UNL A   1      39.576  30.431  29.753  1.00  0.00     0.016 A 
ATOM     38  C   UNL A   1      41.774  31.528  29.735  1.00  0.00     0.016 A 
ATOM     39  C   UNL A   1      40.197  29.221  29.587  1.00  0.00     0.010 A 
ATOM     40  C   UNL A   1      42.393  30.317  29.594  1.00  0.00     0.010 A 
ATOM     41  C   UNL A   1      41.598  29.179  29.633  1.00  0.00    -0.014 A 
BRANCH  41  42
ATOM     42  C   UNL A   1      42.226  27.885  29.619  1.00  0.00     0.031 A 
ATOM     43  C   UNL A   1      42.783  27.541  30.939  1.00  0.00     0.074 A 
ATOM     44  C   UNL A   1      42.231  27.090  28.534  1.00  0.00     0.049 A 
ATOM     45  N   UNL A   1      44.031  27.458  31.255  1.00  0.00    -0.248 NA
ATOM     46  C   UNL A   1      41.859  27.502  32.084  1.00  0.00     0.031 C 
ATOM     47  C   UNL A   1      41.508  27.243  27.270  1.00  0.00     0.029 A 
ATOM     48  N   UNL A   1      42.861  25.897  28.381  1.00  0.00    -0.354 N 
ATOM     49  C   UNL A   1      44.044  27.153  32.608  1.00  0.00     0.074 A 
ATOM     50  C   UNL A   1      42.713  27.387  33.101  1.00  0.00     0.031 C 
ATOM     51  C   UNL A   1      41.564  26.077  26.581  1.00  0.00     0.029 A 
ATOM     52  C   UNL A   1      42.431  25.152  27.290  1.00  0.00     0.049 A 
ATOM     53  H   UNL A   1      43.566  25.585  28.993  1.00  0.00     0.167 HD
ATOM     54  C   UNL A   1      45.081  26.459  33.142  1.00  0.00     0.037 A 
ATOM     55  C   UNL A   1      42.731  23.847  27.068  1.00  0.00     0.037 A 
ATOM     56  C   UNL A   1      46.256  26.555  32.311  1.00  0.00     0.049 A 
ATOM     57  C   UNL A   1      43.936  23.528  27.883  1.00  0.00     0.074 A 
ATOM     58  C   UNL A   1      47.034  27.608  31.867  1.00  0.00     0.029 A 
ATOM     59  N   UNL A   1      46.547  25.504  31.476  1.00  0.00    -0.354 N 
ATOM     60  N   UNL A   1      45.122  24.004  27.625  1.00  0.00    -0.248 NA
ATOM     61  C   UNL A   1      43.725  23.086  29.255  1.00  0.00     0.031 C 
ATOM     62  C   UNL A   1      47.368  27.284  30.520  1.00  0.00     0.029 A 
ATOM     63  C   UNL A   1      46.842  26.023  30.241  1.00  0.00     0.049 A 
ATOM     64  H   UNL A   1      46.544  24.549  31.720  1.00  0.00     0.167 HD
ATOM     65  C   UNL A   1      45.648  24.330  28.867  1.00  0.00     0.074 A 
ATOM     66  C   UNL A   1      44.771  23.679  29.838  1.00  0.00     0.031 C 
ATOM     67  C   UNL A   1      46.559  25.339  29.002  1.00  0.00     0.037 A 
BRANCH  54  68
ATOM     68  C   UNL A   1      44.892  25.390  34.182  1.00  0.00     0.064 A 
ATOM     69  C   UNL A   1      45.545  25.518  35.420  1.00  0.00     0.173 A 
ATOM     70  C   UNL A   1      44.338  24.117  33.911  1.00  0.00     0.173 A 
ATOM     71  F   UNL A   1      46.133  26.673  35.763  1.00  0.00    -0.203 F 
ATOM     72  C   UNL A   1      45.690  24.435  36.288  1.00  0.00     0.198 A 
ATOM     73  C   UNL A   1      44.433  23.056  34.805  1.00  0.00     0.198 A 
ATOM     74  F   UNL A   1      43.787  23.808  32.731  1.00  0.00    -0.203 F 
ATOM     75  F   UNL A   1      46.428  24.568  37.397  1.00  0.00    -0.200 F 
ATOM     76  C   UNL A   1      45.137  23.204  35.979  1.00  0.00     0.200 A 
ATOM     77  F   UNL A   1      43.907  21.868  34.473  1.00  0.00    -0.200 F 
ATOM     78  F   UNL A   1      45.324  22.150  36.782  1.00  0.00    -0.200 F 
ENDBRANCH  54  68
BRANCH  55  79
ATOM     79  C   UNL A   1      41.880  22.781  26.484  1.00  0.00     0.064 A 
ATOM     80  C   UNL A   1      42.438  21.554  26.084  1.00  0.00     0.173 A 
ATOM     81  C   UNL A   1      40.477  22.827  26.583  1.00  0.00     0.173 A 
ATOM     82  F   UNL A   1      43.768  21.410  26.004  1.00  0.00    -0.203 F 
ATOM     83  C   UNL A   1      41.640  20.432  25.834  1.00  0.00     0.198 A 
ATOM     84  C   UNL A   1      39.682  21.708  26.329  1.00  0.00     0.198 A 
ATOM     85  F   UNL A   1      39.854  23.928  27.027  1.00  0.00    -0.203 F 
ATOM     86  F   UNL A   1      42.212  19.260  25.522  1.00  0.00    -0.200 F 
ATOM     87  C   UNL A   1      40.264  20.506  25.970  1.00  0.00     0.200 A 
ATOM     88  F   UNL A   1      38.355  21.783  26.501  1.00  0.00    -0.200 F 
ATOM     89  F   UNL A   1      39.505  19.416  25.799  1.00  0.00    -0.200 F 
ENDBRANCH  55  79
BRANCH  67  90
ATOM     90  C   UNL A   1      47.144  25.918  27.743  1.00  0.00     0.064 A 
ATOM     91  C   UNL A   1      46.584  26.998  27.034  1.00  0.00     0.173 A 
ATOM     92  C   UNL A   1      48.385  25.439  27.303  1.00  0.00     0.173 A 
ATOM     93  F   UNL A   1      45.456  27.586  27.451  1.00  0.00    -0.203 F 
ATOM     94  C   UNL A   1      47.210  27.527  25.905  1.00  0.00     0.198 A 
ATOM     95  C   UNL A   1      49.027  25.995  26.201  1.00  0.00     0.198 A 
ATOM     96  F   UNL A   1      48.997  24.450  27.973  1.00  0.00    -0.203 F 
ATOM     97  F   UNL A   1      46.643  28.540  25.233  1.00  0.00    -0.200 F 
ATOM     98  C   UNL A   1      48.434  27.027  25.492  1.00  0.00     0.200 A 
ATOM     99  F   UNL A   1      50.235  25.543  25.837  1.00  0.00    -0.200 F 
ATOM    100  F   UNL A   1      49.053  27.557  24.428  1.00  0.00    -0.200 F 
ENDBRANCH  67  90
ENDBRANCH  41  42
ENDBRANCH  34  36
ENDBRANCH  33  34
ENDBRANCH  32  33
ENDBRANCH  31  32
ENDBRANCH  30  31
ENDBRANCH  29  30
ENDBRANCH  28  29
ENDBRANCH  27  28
ENDBRANCH   1  27
TORSDOF 23
ENDMDL
