MODEL 1
REMARK VINA RESULT:      -9.5      0.000      0.000
REMARK SMILES Cc1ccc(S(=O)(=O)n2cc(C(=O)C(=O)N[C@H](Cc3c[nH]c4ccccc34)C(=O)NCC(=O)OCCOCCOCCOCCOC(=O)c3ccc(-c4c5nc(c(-c6c(F)c(F)c(F)c(F)c6F)c6ccc([nH]6)c(-c6c(F)c(F)c(F)c(F)c6F)c6nc(c(-c7c(F)c(F)c(F)c(F)c7F)c7ccc4[nH]7)C=C6)C=C5)cc3)c3ccccc32)cc1
REMARK SMILES IDX 38 1 37 2 36 3 35 4 34 5 32 6 33 7 31 8 30 9 28 10 29 11
REMARK SMILES IDX 17 13 16 14 14 15 15 16 12 18 13 19 11 20 9 21 10 22 117 23
REMARK SMILES IDX 112 24 116 25 113 26 115 27 114 28 6 29 7 30 8 31 5 32 1 33
REMARK SMILES IDX 2 34 3 35 119 36 4 37 118 38 18 39 19 40 20 41 27 42 21 43
REMARK SMILES IDX 22 44 26 45 23 47 25 48 24 49 39 50 40 51 41 52 42 53 43 54
REMARK SMILES IDX 44 55 45 56 46 57 47 58 48 59 49 60 50 61 111 62 51 63
REMARK SMILES IDX 110 64 52 65 53 66 54 67 104 68 55 69 109 70 103 71 105 72
REMARK SMILES IDX 56 73 108 74 102 75 101 76 57 78 89 79 69 80 88 81 70 82
REMARK SMILES IDX 73 83 87 84 106 85 71 86 72 87 86 89 107 90 74 91 58 92
REMARK SMILES IDX 59 93 67 94 60 95 61 96 65 97 68 98 62 99 63 100 66 101
REMARK SMILES IDX 64 102 90 103 91 104 99 105 92 106 93 107 97 108 100 109
REMARK SMILES IDX 94 110 95 111 98 112 96 113 75 114 76 115 84 116 77 117
REMARK SMILES IDX 78 118 82 119 85 120 79 121 80 122 83 123 81 124
REMARK H PARENT 30 12 16 17 21 46 105 77 73 88
REMARK Flexibility Score: inf
ROOT
ATOM      1  C   UNL A   1      43.767  28.379  31.199  1.00  0.00     0.188 C 
ENDROOT
BRANCH   1   2
ATOM      2  O   UNL A   1      42.832  29.414  31.317  1.00  0.00    -0.376 OA
BRANCH   2   3
ATOM      3  C   UNL A   1      41.930  29.465  30.253  1.00  0.00     0.202 C 
BRANCH   3   4
ATOM      4  C   UNL A   1      41.947  28.269  29.288  1.00  0.00     0.261 C 
BRANCH   4   5
ATOM      5  O   UNL A   1      40.679  27.858  28.770  1.00  0.00    -0.462 OA
BRANCH   5   6
ATOM      6  C   UNL A   1      40.641  27.082  27.659  1.00  0.00     0.325 C 
ATOM      7  O   UNL A   1      41.009  27.416  26.538  1.00  0.00    -0.250 OA
BRANCH   6   8
ATOM      8  C   UNL A   1      39.905  25.802  27.889  1.00  0.00     0.238 C 
BRANCH   8   9
ATOM      9  N   UNL A   1      40.771  24.769  28.394  1.00  0.00    -0.343 N 
ATOM     10  C   UNL A   1      41.275  23.676  27.773  1.00  0.00     0.243 C 
ATOM     11  O   UNL A   1      41.931  22.944  28.524  1.00  0.00    -0.273 OA
ATOM     12  H   UNL A   1      41.038  24.872  29.336  1.00  0.00     0.164 HD
BRANCH  10  13
ATOM     13  C   UNL A   1      41.008  23.275  26.273  1.00  0.00     0.176 C 
BRANCH  13  14
ATOM     14  N   UNL A   1      40.016  22.118  26.003  1.00  0.00    -0.337 N 
ATOM     15  C   UNL A   1      38.639  21.887  25.723  1.00  0.00     0.293 C 
ATOM     16  O   UNL A   1      38.295  20.717  25.558  1.00  0.00    -0.265 OA
ATOM     17  H   UNL A   1      40.495  21.259  26.034  1.00  0.00     0.164 HD
BRANCH  15  18
ATOM     18  C   UNL A   1      37.581  23.017  25.581  1.00  0.00     0.252 C 
ATOM     19  O   UNL A   1      37.908  24.003  26.220  1.00  0.00    -0.283 OA
BRANCH  18  20
ATOM     20  C   UNL A   1      36.276  23.087  24.803  1.00  0.00     0.054 A 
ATOM     21  N   UNL A   1      34.126  23.878  24.130  1.00  0.00    -0.240 N 
ATOM     22  C   UNL A   1      35.448  24.201  24.566  1.00  0.00     0.117 A 
ATOM     23  C   UNL A   1      34.062  22.627  23.508  1.00  0.00     0.065 A 
ATOM     24  C   UNL A   1      35.445  21.901  24.360  1.00  0.00     0.012 A 
ATOM     25  C   UNL A   1      32.589  21.641  23.134  1.00  0.00     0.028 A 
ATOM     26  C   UNL A   1      35.182  20.194  25.048  1.00  0.00     0.011 A 
ATOM     27  C   UNL A   1      32.441  19.849  23.635  1.00  0.00     0.002 A 
ATOM     28  C   UNL A   1      33.727  19.129  24.632  1.00  0.00     0.001 A 
BRANCH  21  29
ATOM     29  S   UNL A   1      32.776  24.950  24.356  1.00  0.00     0.268 S 
ATOM     30  O   UNL A   1      32.193  24.972  23.022  1.00  0.00    -0.201 OA
ATOM     31  O   UNL A   1      32.092  24.305  25.462  1.00  0.00    -0.201 OA
BRANCH  29  32
ATOM     32  C   UNL A   1      32.762  26.707  24.838  1.00  0.00     0.088 A 
ATOM     33  C   UNL A   1      32.869  30.326  27.292  1.00  0.00     0.044 C 
ATOM     34  C   UNL A   1      32.764  29.128  26.392  1.00  0.00    -0.051 A 
ATOM     35  C   UNL A   1      33.725  28.893  25.408  1.00  0.00     0.005 A 
ATOM     36  C   UNL A   1      31.736  28.201  26.530  1.00  0.00     0.005 A 
ATOM     37  C   UNL A   1      33.720  27.699  24.650  1.00  0.00     0.022 A 
ATOM     38  C   UNL A   1      31.740  27.018  25.768  1.00  0.00     0.022 A 
ENDBRANCH  29  32
ENDBRANCH  21  29
ENDBRANCH  18  20
ENDBRANCH  15  18
ENDBRANCH  13  14
BRANCH  13  39
ATOM     39  C   UNL A   1      42.287  23.254  25.420  1.00  0.00     0.072 C 
BRANCH  39  40
ATOM     40  C   UNL A   1      43.554  22.462  25.721  1.00  0.00    -0.020 A 
ATOM     41  C   UNL A   1      44.682  23.110  26.216  1.00  0.00     0.087 A 
ATOM     42  C   UNL A   1      43.975  21.099  25.546  1.00  0.00     0.003 A 
ATOM     43  N   UNL A   1      45.774  22.320  25.988  1.00  0.00    -0.361 N 
ATOM     44  C   UNL A   1      45.376  21.108  25.501  1.00  0.00     0.046 A 
ATOM     45  C   UNL A   1      43.350  19.854  25.353  1.00  0.00     0.010 A 
ATOM     46  H   UNL A   1      46.708  22.586  26.151  1.00  0.00     0.166 HD
ATOM     47  C   UNL A   1      46.153  20.031  25.055  1.00  0.00     0.026 A 
ATOM     48  C   UNL A   1      44.124  18.718  25.062  1.00  0.00     0.001 A 
ATOM     49  C   UNL A   1      45.497  18.819  24.858  1.00  0.00     0.002 A 
ENDBRANCH  39  40
ENDBRANCH  13  39
ENDBRANCH  10  13
ENDBRANCH   8   9
ENDBRANCH   6   8
ENDBRANCH   5   6
ENDBRANCH   4   5
ENDBRANCH   3   4
ENDBRANCH   2   3
ENDBRANCH   1   2
BRANCH   1  50
ATOM     50  C   UNL A   1      45.224  28.800  30.884  1.00  0.00     0.188 C 
BRANCH  50  51
ATOM     51  O   UNL A   1      45.743  28.811  29.562  1.00  0.00    -0.377 OA
BRANCH  51  52
ATOM     52  C   UNL A   1      46.821  29.598  29.051  1.00  0.00     0.188 C 
BRANCH  52  53
ATOM     53  C   UNL A   1      48.200  28.978  28.994  1.00  0.00     0.188 C 
BRANCH  53  54
ATOM     54  O   UNL A   1      49.087  29.821  28.267  1.00  0.00    -0.376 OA
BRANCH  54  55
ATOM     55  C   UNL A   1      48.554  30.358  27.067  1.00  0.00     0.202 C 
BRANCH  55  56
ATOM     56  C   UNL A   1      49.030  31.802  26.912  1.00  0.00     0.261 C 
BRANCH  56  57
ATOM     57  O   UNL A   1      47.945  32.518  26.230  1.00  0.00    -0.460 OA
BRANCH  57  58
ATOM     58  C   UNL A   1      46.637  32.243  26.537  1.00  0.00     0.338 C 
ATOM     59  O   UNL A   1      45.914  31.519  25.871  1.00  0.00    -0.246 OA
BRANCH  58  60
ATOM     60  C   UNL A   1      46.120  33.084  27.691  1.00  0.00     0.060 A 
ATOM     61  C   UNL A   1      44.742  33.333  27.883  1.00  0.00     0.016 A 
ATOM     62  C   UNL A   1      47.015  33.844  28.428  1.00  0.00     0.016 A 
ATOM     63  C   UNL A   1      44.286  34.416  28.681  1.00  0.00     0.010 A 
ATOM     64  C   UNL A   1      46.564  34.975  29.095  1.00  0.00     0.010 A 
ATOM     65  C   UNL A   1      45.202  35.314  29.225  1.00  0.00    -0.014 A 
BRANCH  65  66
ATOM     66  C   UNL A   1      44.943  36.704  29.768  1.00  0.00     0.031 A 
ATOM     67  C   UNL A   1      44.796  37.793  28.668  1.00  0.00     0.074 A 
ATOM     68  C   UNL A   1      44.480  36.701  31.054  1.00  0.00     0.049 A 
ATOM     69  N   UNL A   1      44.091  38.875  28.638  1.00  0.00    -0.248 NA
ATOM     70  C   UNL A   1      45.525  37.636  27.386  1.00  0.00     0.031 C 
ATOM     71  C   UNL A   1      43.387  37.378  31.742  1.00  0.00     0.029 A 
ATOM     72  N   UNL A   1      44.881  35.886  32.094  1.00  0.00    -0.354 N 
ATOM     73  C   UNL A   1      44.237  39.515  27.382  1.00  0.00     0.074 A 
ATOM     74  C   UNL A   1      45.070  38.637  26.618  1.00  0.00     0.031 C 
ATOM     75  C   UNL A   1      43.487  37.356  33.072  1.00  0.00     0.029 A 
ATOM     76  C   UNL A   1      44.637  36.589  33.284  1.00  0.00     0.049 A 
ATOM     77  H   UNL A   1      45.264  34.982  32.016  1.00  0.00     0.167 HD
ATOM     78  C   UNL A   1      43.629  40.723  27.129  1.00  0.00     0.037 A 
ATOM     79  C   UNL A   1      45.252  36.573  34.469  1.00  0.00     0.037 A 
ATOM     80  C   UNL A   1      43.155  41.209  28.382  1.00  0.00     0.049 A 
ATOM     81  C   UNL A   1      45.601  38.184  34.361  1.00  0.00     0.074 A 
ATOM     82  C   UNL A   1      41.964  41.002  28.961  1.00  0.00     0.029 A 
ATOM     83  N   UNL A   1      44.033  41.782  29.270  1.00  0.00    -0.354 N 
ATOM     84  N   UNL A   1      45.821  38.940  33.274  1.00  0.00    -0.248 NA
ATOM     85  C   UNL A   1      45.165  39.058  35.478  1.00  0.00     0.031 C 
ATOM     86  C   UNL A   1      42.299  41.045  30.309  1.00  0.00     0.029 A 
ATOM     87  C   UNL A   1      43.777  41.446  30.773  1.00  0.00     0.049 A 
ATOM     88  H   UNL A   1      44.772  42.363  28.978  1.00  0.00     0.167 HD
ATOM     89  C   UNL A   1      45.345  40.318  33.471  1.00  0.00     0.074 A 
ATOM     90  C   UNL A   1      44.914  40.249  34.893  1.00  0.00     0.031 C 
ATOM     91  C   UNL A   1      44.917  41.458  32.486  1.00  0.00     0.037 A 
BRANCH  78  92
ATOM     92  C   UNL A   1      43.303  41.574  25.901  1.00  0.00     0.064 A 
ATOM     93  C   UNL A   1      44.030  42.794  25.687  1.00  0.00     0.173 A 
ATOM     94  C   UNL A   1      42.313  41.333  24.945  1.00  0.00     0.173 A 
ATOM     95  F   UNL A   1      44.949  43.232  26.556  1.00  0.00    -0.203 F 
ATOM     96  C   UNL A   1      43.831  43.646  24.601  1.00  0.00     0.198 A 
ATOM     97  C   UNL A   1      42.102  42.206  23.853  1.00  0.00     0.198 A 
ATOM     98  F   UNL A   1      41.514  40.265  25.037  1.00  0.00    -0.203 F 
ATOM     99  F   UNL A   1      44.562  44.764  24.482  1.00  0.00    -0.200 F 
ATOM    100  C   UNL A   1      42.870  43.345  23.672  1.00  0.00     0.200 A 
ATOM    101  F   UNL A   1      41.131  41.939  22.968  1.00  0.00    -0.200 F 
ATOM    102  F   UNL A   1      42.676  44.155  22.622  1.00  0.00    -0.200 F 
ENDBRANCH  78  92
BRANCH  79 103
ATOM    103  C   UNL A   1      45.530  35.050  34.416  1.00  0.00     0.064 A 
ATOM    104  C   UNL A   1      46.892  34.709  33.966  1.00  0.00     0.173 A 
ATOM    105  C   UNL A   1      44.982  34.055  35.232  1.00  0.00     0.173 A 
ATOM    106  F   UNL A   1      47.691  35.697  33.543  1.00  0.00    -0.203 F 
ATOM    107  C   UNL A   1      47.621  33.565  34.326  1.00  0.00     0.198 A 
ATOM    108  C   UNL A   1      45.745  32.911  35.628  1.00  0.00     0.198 A 
ATOM    109  F   UNL A   1      43.829  34.286  35.869  1.00  0.00    -0.203 F 
ATOM    110  F   UNL A   1      48.933  33.476  34.039  1.00  0.00    -0.200 F 
ATOM    111  C   UNL A   1      47.051  32.678  35.195  1.00  0.00     0.200 A 
ATOM    112  F   UNL A   1      45.266  32.106  36.588  1.00  0.00    -0.200 F 
ATOM    113  F   UNL A   1      47.800  31.700  35.729  1.00  0.00    -0.200 F 
ENDBRANCH  79 103
BRANCH  91 114
ATOM    114  C   UNL A   1      46.230  42.625  33.081  1.00  0.00     0.064 A 
ATOM    115  C   UNL A   1      47.484  42.799  32.433  1.00  0.00     0.173 A 
ATOM    116  C   UNL A   1      46.205  43.541  34.233  1.00  0.00     0.173 A 
ATOM    117  F   UNL A   1      47.687  42.544  31.138  1.00  0.00    -0.203 F 
ATOM    118  C   UNL A   1      48.598  43.445  33.010  1.00  0.00     0.198 A 
ATOM    119  C   UNL A   1      47.306  44.169  34.811  1.00  0.00     0.198 A 
ATOM    120  F   UNL A   1      45.094  43.960  34.873  1.00  0.00    -0.203 F 
ATOM    121  F   UNL A   1      49.742  43.507  32.315  1.00  0.00    -0.200 F 
ATOM    122  C   UNL A   1      48.527  44.069  34.229  1.00  0.00     0.200 A 
ATOM    123  F   UNL A   1      47.128  44.898  35.922  1.00  0.00    -0.200 F 
ATOM    124  F   UNL A   1      49.589  44.671  34.774  1.00  0.00    -0.200 F 
ENDBRANCH  91 114
ENDBRANCH  65  66
ENDBRANCH  58  60
ENDBRANCH  57  58
ENDBRANCH  56  57
ENDBRANCH  55  56
ENDBRANCH  54  55
ENDBRANCH  53  54
ENDBRANCH  52  53
ENDBRANCH  51  52
ENDBRANCH  50  51
ENDBRANCH   1  50
TORSDOF 29
ENDMDL
MODEL 2
REMARK VINA RESULT:      -9.0      4.850     10.735
REMARK SMILES Cc1ccc(S(=O)(=O)n2cc(C(=O)C(=O)N[C@H](Cc3c[nH]c4ccccc34)C(=O)NCC(=O)OCCOCCOCCOCCOC(=O)c3ccc(-c4c5nc(c(-c6c(F)c(F)c(F)c(F)c6F)c6ccc([nH]6)c(-c6c(F)c(F)c(F)c(F)c6F)c6nc(c(-c7c(F)c(F)c(F)c(F)c7F)c7ccc4[nH]7)C=C6)C=C5)cc3)c3ccccc32)cc1
REMARK SMILES IDX 38 1 37 2 36 3 35 4 34 5 32 6 33 7 31 8 30 9 28 10 29 11
REMARK SMILES IDX 17 13 16 14 14 15 15 16 12 18 13 19 11 20 9 21 10 22 117 23
REMARK SMILES IDX 112 24 116 25 113 26 115 27 114 28 6 29 7 30 8 31 5 32 1 33
REMARK SMILES IDX 2 34 3 35 119 36 4 37 118 38 18 39 19 40 20 41 27 42 21 43
REMARK SMILES IDX 22 44 26 45 23 47 25 48 24 49 39 50 40 51 41 52 42 53 43 54
REMARK SMILES IDX 44 55 45 56 46 57 47 58 48 59 49 60 50 61 111 62 51 63
REMARK SMILES IDX 110 64 52 65 53 66 54 67 104 68 55 69 109 70 103 71 105 72
REMARK SMILES IDX 56 73 108 74 102 75 101 76 57 78 89 79 69 80 88 81 70 82
REMARK SMILES IDX 73 83 87 84 106 85 71 86 72 87 86 89 107 90 74 91 58 92
REMARK SMILES IDX 59 93 67 94 60 95 61 96 65 97 68 98 62 99 63 100 66 101
REMARK SMILES IDX 64 102 90 103 91 104 99 105 92 106 93 107 97 108 100 109
REMARK SMILES IDX 94 110 95 111 98 112 96 113 75 114 76 115 84 116 77 117
REMARK SMILES IDX 78 118 82 119 85 120 79 121 80 122 83 123 81 124
REMARK H PARENT 30 12 16 17 21 46 105 77 73 88
REMARK Flexibility Score: inf
ROOT
ATOM      1  C   UNL A   1      34.482  30.875  27.352  1.00  0.00     0.188 C 
ENDROOT
BRANCH   1   2
ATOM      2  O   UNL A   1      35.127  29.784  27.949  1.00  0.00    -0.376 OA
BRANCH   2   3
ATOM      3  C   UNL A   1      36.295  29.405  27.284  1.00  0.00     0.202 C 
BRANCH   3   4
ATOM      4  C   UNL A   1      37.611  29.967  27.844  1.00  0.00     0.261 C 
BRANCH   4   5
ATOM      5  O   UNL A   1      38.443  29.041  28.547  1.00  0.00    -0.462 OA
BRANCH   5   6
ATOM      6  C   UNL A   1      39.698  28.805  28.093  1.00  0.00     0.325 C 
ATOM      7  O   UNL A   1      39.989  28.382  26.979  1.00  0.00    -0.250 OA
BRANCH   6   8
ATOM      8  C   UNL A   1      40.724  28.928  29.172  1.00  0.00     0.238 C 
BRANCH   8   9
ATOM      9  N   UNL A   1      41.247  30.266  29.266  1.00  0.00    -0.343 N 
ATOM     10  C   UNL A   1      42.240  30.758  30.043  1.00  0.00     0.243 C 
ATOM     11  O   UNL A   1      42.389  31.981  29.932  1.00  0.00    -0.273 OA
ATOM     12  H   UNL A   1      40.816  30.924  28.675  1.00  0.00     0.164 HD
BRANCH  10  13
ATOM     13  C   UNL A   1      43.092  29.923  31.074  1.00  0.00     0.176 C 
BRANCH  13  14
ATOM     14  N   UNL A   1      43.184  30.451  32.525  1.00  0.00    -0.337 N 
ATOM     15  C   UNL A   1      43.873  30.208  33.747  1.00  0.00     0.293 C 
ATOM     16  O   UNL A   1      43.605  30.948  34.693  1.00  0.00    -0.265 OA
ATOM     17  H   UNL A   1      42.560  31.203  32.642  1.00  0.00     0.164 HD
BRANCH  15  18
ATOM     18  C   UNL A   1      44.952  29.103  33.930  1.00  0.00     0.252 C 
ATOM     19  O   UNL A   1      45.983  29.573  34.384  1.00  0.00    -0.283 OA
BRANCH  18  20
ATOM     20  C   UNL A   1      44.924  27.608  33.657  1.00  0.00     0.054 A 
ATOM     21  N   UNL A   1      44.851  25.575  32.406  1.00  0.00    -0.240 N 
ATOM     22  C   UNL A   1      45.345  26.912  32.506  1.00  0.00     0.117 A 
ATOM     23  C   UNL A   1      44.529  25.032  33.655  1.00  0.00     0.065 A 
ATOM     24  C   UNL A   1      44.167  26.574  34.463  1.00  0.00     0.012 A 
ATOM     25  C   UNL A   1      43.545  23.553  34.007  1.00  0.00     0.028 A 
ATOM     26  C   UNL A   1      42.602  26.629  35.465  1.00  0.00     0.011 A 
ATOM     27  C   UNL A   1      42.110  23.577  35.202  1.00  0.00     0.002 A 
ATOM     28  C   UNL A   1      41.609  25.131  35.907  1.00  0.00     0.001 A 
BRANCH  21  29
ATOM     29  S   UNL A   1      44.694  24.745  30.887  1.00  0.00     0.268 S 
ATOM     30  O   UNL A   1      45.951  25.084  30.236  1.00  0.00    -0.201 OA
ATOM     31  O   UNL A   1      44.425  23.391  31.338  1.00  0.00    -0.201 OA
BRANCH  29  32
ATOM     32  C   UNL A   1      43.468  24.983  29.559  1.00  0.00     0.088 A 
ATOM     33  C   UNL A   1      41.732  25.661  25.603  1.00  0.00     0.044 C 
ATOM     34  C   UNL A   1      42.256  25.485  26.999  1.00  0.00    -0.051 A 
ATOM     35  C   UNL A   1      41.988  24.319  27.716  1.00  0.00     0.005 A 
ATOM     36  C   UNL A   1      43.048  26.453  27.608  1.00  0.00     0.005 A 
ATOM     37  C   UNL A   1      42.591  24.077  28.973  1.00  0.00     0.022 A 
ATOM     38  C   UNL A   1      43.639  26.203  28.860  1.00  0.00     0.022 A 
ENDBRANCH  29  32
ENDBRANCH  21  29
ENDBRANCH  18  20
ENDBRANCH  15  18
ENDBRANCH  13  14
BRANCH  13  39
ATOM     39  C   UNL A   1      44.411  29.403  30.480  1.00  0.00     0.072 C 
BRANCH  39  40
ATOM     40  C   UNL A   1      45.597  30.255  30.044  1.00  0.00    -0.020 A 
ATOM     41  C   UNL A   1      46.392  30.886  30.996  1.00  0.00     0.087 A 
ATOM     42  C   UNL A   1      46.135  30.692  28.785  1.00  0.00     0.003 A 
ATOM     43  N   UNL A   1      47.075  31.903  30.390  1.00  0.00    -0.361 N 
ATOM     44  C   UNL A   1      46.871  31.858  29.040  1.00  0.00     0.046 A 
ATOM     45  C   UNL A   1      46.043  30.291  27.440  1.00  0.00     0.010 A 
ATOM     46  H   UNL A   1      47.630  32.569  30.857  1.00  0.00     0.166 HD
ATOM     47  C   UNL A   1      47.306  32.744  28.045  1.00  0.00     0.026 A 
ATOM     48  C   UNL A   1      46.614  31.084  26.431  1.00  0.00     0.001 A 
ATOM     49  C   UNL A   1      47.183  32.320  26.726  1.00  0.00     0.002 A 
ENDBRANCH  39  40
ENDBRANCH  13  39
ENDBRANCH  10  13
ENDBRANCH   8   9
ENDBRANCH   6   8
ENDBRANCH   5   6
ENDBRANCH   4   5
ENDBRANCH   3   4
ENDBRANCH   2   3
ENDBRANCH   1   2
BRANCH   1  50
ATOM     50  C   UNL A   1      34.409  32.174  28.192  1.00  0.00     0.188 C 
BRANCH  50  51
ATOM     51  O   UNL A   1      34.196  32.160  29.596  1.00  0.00    -0.377 OA
BRANCH  51  52
ATOM     52  C   UNL A   1      35.067  32.648  30.619  1.00  0.00     0.188 C 
BRANCH  52  53
ATOM     53  C   UNL A   1      35.680  31.651  31.577  1.00  0.00     0.188 C 
BRANCH  53  54
ATOM     54  O   UNL A   1      36.075  30.475  30.877  1.00  0.00    -0.376 OA
BRANCH  54  55
ATOM     55  C   UNL A   1      36.655  29.464  31.685  1.00  0.00     0.202 C 
BRANCH  55  56
ATOM     56  C   UNL A   1      37.733  30.090  32.569  1.00  0.00     0.261 C 
BRANCH  56  57
ATOM     57  O   UNL A   1      38.853  30.415  31.678  1.00  0.00    -0.460 OA
BRANCH  57  58
ATOM     58  C   UNL A   1      39.028  31.699  31.229  1.00  0.00     0.338 C 
ATOM     59  O   UNL A   1      39.011  32.021  30.052  1.00  0.00    -0.246 OA
BRANCH  58  60
ATOM     60  C   UNL A   1      39.434  32.654  32.337  1.00  0.00     0.060 A 
ATOM     61  C   UNL A   1      38.848  33.931  32.483  1.00  0.00     0.016 A 
ATOM     62  C   UNL A   1      40.581  32.391  33.070  1.00  0.00     0.016 A 
ATOM     63  C   UNL A   1      39.482  34.961  33.228  1.00  0.00     0.010 A 
ATOM     64  C   UNL A   1      41.256  33.437  33.684  1.00  0.00     0.010 A 
ATOM     65  C   UNL A   1      40.751  34.751  33.764  1.00  0.00    -0.014 A 
BRANCH  65  66
ATOM     66  C   UNL A   1      41.747  35.785  34.249  1.00  0.00     0.031 A 
ATOM     67  C   UNL A   1      41.570  36.177  35.743  1.00  0.00     0.074 A 
ATOM     68  C   UNL A   1      42.851  35.884  33.450  1.00  0.00     0.049 A 
ATOM     69  N   UNL A   1      42.436  36.544  36.629  1.00  0.00    -0.248 NA
ATOM     70  C   UNL A   1      40.221  36.121  36.357  1.00  0.00     0.031 C 
ATOM     71  C   UNL A   1      44.286  35.930  33.701  1.00  0.00     0.029 A 
ATOM     72  N   UNL A   1      42.903  35.831  32.070  1.00  0.00    -0.354 N 
ATOM     73  C   UNL A   1      41.799  36.733  37.881  1.00  0.00     0.074 A 
ATOM     74  C   UNL A   1      40.436  36.359  37.659  1.00  0.00     0.031 C 
ATOM     75  C   UNL A   1      45.005  36.368  32.666  1.00  0.00     0.029 A 
ATOM     76  C   UNL A   1      44.037  36.557  31.675  1.00  0.00     0.049 A 
ATOM     77  H   UNL A   1      42.266  35.370  31.478  1.00  0.00     0.167 HD
ATOM     78  C   UNL A   1      42.505  37.186  38.972  1.00  0.00     0.037 A 
ATOM     79  C   UNL A   1      44.300  37.268  30.575  1.00  0.00     0.037 A 
ATOM     80  C   UNL A   1      43.767  37.631  38.482  1.00  0.00     0.049 A 
ATOM     81  C   UNL A   1      44.542  38.639  31.463  1.00  0.00     0.074 A 
ATOM     82  C   UNL A   1      44.901  36.930  38.339  1.00  0.00     0.029 A 
ATOM     83  N   UNL A   1      43.866  38.848  37.853  1.00  0.00    -0.354 N 
ATOM     84  N   UNL A   1      43.994  39.010  32.631  1.00  0.00    -0.248 NA
ATOM     85  C   UNL A   1      45.831  39.353  31.285  1.00  0.00     0.031 C 
ATOM     86  C   UNL A   1      45.483  37.564  37.248  1.00  0.00     0.029 A 
ATOM     87  C   UNL A   1      44.836  38.890  36.629  1.00  0.00     0.049 A 
ATOM     88  H   UNL A   1      43.360  39.638  38.152  1.00  0.00     0.167 HD
ATOM     89  C   UNL A   1      44.934  39.800  33.440  1.00  0.00     0.074 A 
ATOM     90  C   UNL A   1      46.074  39.910  32.491  1.00  0.00     0.031 C 
ATOM     91  C   UNL A   1      45.046  40.094  34.975  1.00  0.00     0.037 A 
BRANCH  78  92
ATOM     92  C   UNL A   1      42.298  37.256  40.485  1.00  0.00     0.064 A 
ATOM     93  C   UNL A   1      42.222  36.033  41.234  1.00  0.00     0.173 A 
ATOM     94  C   UNL A   1      42.116  38.404  41.261  1.00  0.00     0.173 A 
ATOM     95  F   UNL A   1      42.277  34.834  40.640  1.00  0.00    -0.203 F 
ATOM     96  C   UNL A   1      42.047  35.968  42.616  1.00  0.00     0.198 A 
ATOM     97  C   UNL A   1      41.924  38.336  42.660  1.00  0.00     0.198 A 
ATOM     98  F   UNL A   1      42.106  39.618  40.701  1.00  0.00    -0.203 F 
ATOM     99  F   UNL A   1      41.992  34.778  43.231  1.00  0.00    -0.200 F 
ATOM    100  C   UNL A   1      41.910  37.126  43.336  1.00  0.00     0.200 A 
ATOM    101  F   UNL A   1      41.742  39.465  43.360  1.00  0.00    -0.200 F 
ATOM    102  F   UNL A   1      41.748  37.074  44.665  1.00  0.00    -0.200 F 
ENDBRANCH  78  92
BRANCH  79 103
ATOM    103  C   UNL A   1      43.539  36.292  29.642  1.00  0.00     0.064 A 
ATOM    104  C   UNL A   1      42.605  36.960  28.716  1.00  0.00     0.173 A 
ATOM    105  C   UNL A   1      43.989  35.067  29.141  1.00  0.00     0.173 A 
ATOM    106  F   UNL A   1      42.414  38.279  28.844  1.00  0.00    -0.203 F 
ATOM    107  C   UNL A   1      42.223  36.496  27.449  1.00  0.00     0.198 A 
ATOM    108  C   UNL A   1      43.628  34.619  27.831  1.00  0.00     0.198 A 
ATOM    109  F   UNL A   1      44.976  34.419  29.770  1.00  0.00    -0.203 F 
ATOM    110  F   UNL A   1      41.550  37.299  26.605  1.00  0.00    -0.200 F 
ATOM    111  C   UNL A   1      42.771  35.332  26.990  1.00  0.00     0.200 A 
ATOM    112  F   UNL A   1      44.262  33.561  27.304  1.00  0.00    -0.200 F 
ATOM    113  F   UNL A   1      42.602  34.980  25.705  1.00  0.00    -0.200 F 
ENDBRANCH  79 103
BRANCH  91 114
ATOM    114  C   UNL A   1      44.863  41.927  34.756  1.00  0.00     0.064 A 
ATOM    115  C   UNL A   1      43.645  42.559  34.384  1.00  0.00     0.173 A 
ATOM    116  C   UNL A   1      45.865  42.989  34.943  1.00  0.00     0.173 A 
ATOM    117  F   UNL A   1      42.439  42.027  34.605  1.00  0.00    -0.203 F 
ATOM    118  C   UNL A   1      43.542  43.892  33.932  1.00  0.00     0.198 A 
ATOM    119  C   UNL A   1      45.770  44.302  34.485  1.00  0.00     0.198 A 
ATOM    120  F   UNL A   1      47.011  42.866  35.642  1.00  0.00    -0.203 F 
ATOM    121  F   UNL A   1      42.341  44.361  33.566  1.00  0.00    -0.200 F 
ATOM    122  C   UNL A   1      44.619  44.741  33.917  1.00  0.00     0.200 A 
ATOM    123  F   UNL A   1      46.816  45.124  34.650  1.00  0.00    -0.200 F 
ATOM    124  F   UNL A   1      44.518  45.999  33.477  1.00  0.00    -0.200 F 
ENDBRANCH  91 114
ENDBRANCH  65  66
ENDBRANCH  58  60
ENDBRANCH  57  58
ENDBRANCH  56  57
ENDBRANCH  55  56
ENDBRANCH  54  55
ENDBRANCH  53  54
ENDBRANCH  52  53
ENDBRANCH  51  52
ENDBRANCH  50  51
ENDBRANCH   1  50
TORSDOF 29
ENDMDL
MODEL 3
REMARK VINA RESULT:      -8.7      7.454     11.707
REMARK SMILES Cc1ccc(S(=O)(=O)n2cc(C(=O)C(=O)N[C@H](Cc3c[nH]c4ccccc34)C(=O)NCC(=O)OCCOCCOCCOCCOC(=O)c3ccc(-c4c5nc(c(-c6c(F)c(F)c(F)c(F)c6F)c6ccc([nH]6)c(-c6c(F)c(F)c(F)c(F)c6F)c6nc(c(-c7c(F)c(F)c(F)c(F)c7F)c7ccc4[nH]7)C=C6)C=C5)cc3)c3ccccc32)cc1
REMARK SMILES IDX 38 1 37 2 36 3 35 4 34 5 32 6 33 7 31 8 30 9 28 10 29 11
REMARK SMILES IDX 17 13 16 14 14 15 15 16 12 18 13 19 11 20 9 21 10 22 117 23
REMARK SMILES IDX 112 24 116 25 113 26 115 27 114 28 6 29 7 30 8 31 5 32 1 33
REMARK SMILES IDX 2 34 3 35 119 36 4 37 118 38 18 39 19 40 20 41 27 42 21 43
REMARK SMILES IDX 22 44 26 45 23 47 25 48 24 49 39 50 40 51 41 52 42 53 43 54
REMARK SMILES IDX 44 55 45 56 46 57 47 58 48 59 49 60 50 61 111 62 51 63
REMARK SMILES IDX 110 64 52 65 53 66 54 67 104 68 55 69 109 70 103 71 105 72
REMARK SMILES IDX 56 73 108 74 102 75 101 76 57 78 89 79 69 80 88 81 70 82
REMARK SMILES IDX 73 83 87 84 106 85 71 86 72 87 86 89 107 90 74 91 58 92
REMARK SMILES IDX 59 93 67 94 60 95 61 96 65 97 68 98 62 99 63 100 66 101
REMARK SMILES IDX 64 102 90 103 91 104 99 105 92 106 93 107 97 108 100 109
REMARK SMILES IDX 94 110 95 111 98 112 96 113 75 114 76 115 84 116 77 117
REMARK SMILES IDX 78 118 82 119 85 120 79 121 80 122 83 123 81 124
REMARK H PARENT 30 12 16 17 21 46 105 77 73 88
REMARK Flexibility Score: inf
ROOT
ATOM      1  C   UNL A   1      52.482  29.652  28.338  1.00  0.00     0.188 C 
ENDROOT
BRANCH   1   2
ATOM      2  O   UNL A   1      52.086  28.697  29.283  1.00  0.00    -0.376 OA
BRANCH   2   3
ATOM      3  C   UNL A   1      51.573  27.534  28.705  1.00  0.00     0.202 C 
BRANCH   3   4
ATOM      4  C   UNL A   1      50.081  27.555  28.339  1.00  0.00     0.261 C 
BRANCH   4   5
ATOM      5  O   UNL A   1      49.176  27.878  29.398  1.00  0.00    -0.462 OA
BRANCH   5   6
ATOM      6  C   UNL A   1      48.443  26.888  29.964  1.00  0.00     0.325 C 
ATOM      7  O   UNL A   1      48.841  25.757  30.218  1.00  0.00    -0.250 OA
BRANCH   6   8
ATOM      8  C   UNL A   1      46.998  27.249  30.078  1.00  0.00     0.238 C 
BRANCH   8   9
ATOM      9  N   UNL A   1      46.149  26.087  30.041  1.00  0.00    -0.343 N 
ATOM     10  C   UNL A   1      45.023  25.810  30.739  1.00  0.00     0.243 C 
ATOM     11  O   UNL A   1      44.575  24.677  30.519  1.00  0.00    -0.273 OA
ATOM     12  H   UNL A   1      46.430  25.386  29.409  1.00  0.00     0.164 HD
BRANCH  10  13
ATOM     13  C   UNL A   1      44.356  26.756  31.808  1.00  0.00     0.176 C 
BRANCH  13  14
ATOM     14  N   UNL A   1      43.741  26.099  33.067  1.00  0.00    -0.337 N 
ATOM     15  C   UNL A   1      44.109  25.305  34.190  1.00  0.00     0.293 C 
ATOM     16  O   UNL A   1      43.216  25.023  34.988  1.00  0.00    -0.265 OA
ATOM     17  H   UNL A   1      42.777  26.295  33.103  1.00  0.00     0.164 HD
BRANCH  15  18
ATOM     18  C   UNL A   1      45.560  24.821  34.472  1.00  0.00     0.252 C 
ATOM     19  O   UNL A   1      45.881  23.935  33.697  1.00  0.00    -0.283 OA
BRANCH  18  20
ATOM     20  C   UNL A   1      46.590  25.261  35.500  1.00  0.00     0.054 A 
ATOM     21  N   UNL A   1      48.580  25.211  36.819  1.00  0.00    -0.240 N 
ATOM     22  C   UNL A   1      47.967  24.970  35.551  1.00  0.00     0.117 A 
ATOM     23  C   UNL A   1      47.887  26.164  37.572  1.00  0.00     0.065 A 
ATOM     24  C   UNL A   1      46.287  25.874  36.851  1.00  0.00     0.012 A 
ATOM     25  C   UNL A   1      48.051  26.523  39.340  1.00  0.00     0.028 A 
ATOM     26  C   UNL A   1      44.867  25.712  38.040  1.00  0.00     0.011 A 
ATOM     27  C   UNL A   1      46.574  26.583  40.481  1.00  0.00     0.002 A 
ATOM     28  C   UNL A   1      44.976  26.137  39.838  1.00  0.00     0.001 A 
BRANCH  21  29
ATOM     29  S   UNL A   1      50.030  24.399  37.328  1.00  0.00     0.268 S 
ATOM     30  O   UNL A   1      50.914  25.522  37.604  1.00  0.00    -0.201 OA
ATOM     31  O   UNL A   1      49.518  23.566  38.402  1.00  0.00    -0.201 OA
BRANCH  29  32
ATOM     32  C   UNL A   1      51.102  23.253  36.401  1.00  0.00     0.088 A 
ATOM     33  C   UNL A   1      52.495  20.437  33.358  1.00  0.00     0.044 C 
ATOM     34  C   UNL A   1      52.067  21.351  34.471  1.00  0.00    -0.051 A 
ATOM     35  C   UNL A   1      52.708  22.573  34.673  1.00  0.00     0.005 A 
ATOM     36  C   UNL A   1      51.003  21.030  35.308  1.00  0.00     0.005 A 
ATOM     37  C   UNL A   1      52.226  23.505  35.622  1.00  0.00     0.022 A 
ATOM     38  C   UNL A   1      50.534  21.964  36.250  1.00  0.00     0.022 A 
ENDBRANCH  29  32
ENDBRANCH  21  29
ENDBRANCH  18  20
ENDBRANCH  15  18
ENDBRANCH  13  14
BRANCH  13  39
ATOM     39  C   UNL A   1      43.514  27.877  31.176  1.00  0.00     0.072 C 
BRANCH  39  40
ATOM     40  C   UNL A   1      42.389  27.694  30.165  1.00  0.00    -0.020 A 
ATOM     41  C   UNL A   1      42.504  26.742  29.158  1.00  0.00     0.087 A 
ATOM     42  C   UNL A   1      41.142  28.354  29.891  1.00  0.00     0.003 A 
ATOM     43  N   UNL A   1      41.626  27.057  28.157  1.00  0.00    -0.361 N 
ATOM     44  C   UNL A   1      40.831  28.096  28.549  1.00  0.00     0.046 A 
ATOM     45  C   UNL A   1      40.258  29.198  30.588  1.00  0.00     0.010 A 
ATOM     46  H   UNL A   1      41.576  26.602  27.286  1.00  0.00     0.166 HD
ATOM     47  C   UNL A   1      39.858  28.793  27.821  1.00  0.00     0.026 A 
ATOM     48  C   UNL A   1      39.173  29.785  29.916  1.00  0.00     0.001 A 
ATOM     49  C   UNL A   1      39.013  29.632  28.542  1.00  0.00     0.002 A 
ENDBRANCH  39  40
ENDBRANCH  13  39
ENDBRANCH  10  13
ENDBRANCH   8   9
ENDBRANCH   6   8
ENDBRANCH   5   6
ENDBRANCH   4   5
ENDBRANCH   3   4
ENDBRANCH   2   3
ENDBRANCH   1   2
BRANCH   1  50
ATOM     50  C   UNL A   1      52.701  31.092  28.867  1.00  0.00     0.188 C 
BRANCH  50  51
ATOM     51  O   UNL A   1      51.665  31.841  29.483  1.00  0.00    -0.377 OA
BRANCH  51  52
ATOM     52  C   UNL A   1      50.389  32.183  28.938  1.00  0.00     0.188 C 
BRANCH  52  53
ATOM     53  C   UNL A   1      50.273  33.452  28.121  1.00  0.00     0.188 C 
BRANCH  53  54
ATOM     54  O   UNL A   1      49.196  33.342  27.195  1.00  0.00    -0.376 OA
BRANCH  54  55
ATOM     55  C   UNL A   1      48.243  34.390  27.259  1.00  0.00     0.202 C 
BRANCH  55  56
ATOM     56  C   UNL A   1      47.282  34.264  26.077  1.00  0.00     0.261 C 
BRANCH  56  57
ATOM     57  O   UNL A   1      45.941  34.122  26.656  1.00  0.00    -0.460 OA
BRANCH  57  58
ATOM     58  C   UNL A   1      45.267  32.931  26.555  1.00  0.00     0.338 C 
ATOM     59  O   UNL A   1      44.905  32.437  25.500  1.00  0.00    -0.246 OA
BRANCH  58  60
ATOM     60  C   UNL A   1      44.850  32.381  27.907  1.00  0.00     0.060 A 
ATOM     61  C   UNL A   1      43.929  31.317  28.036  1.00  0.00     0.016 A 
ATOM     62  C   UNL A   1      45.168  33.092  29.054  1.00  0.00     0.016 A 
ATOM     63  C   UNL A   1      43.236  31.076  29.252  1.00  0.00     0.010 A 
ATOM     64  C   UNL A   1      44.393  32.932  30.195  1.00  0.00     0.010 A 
ATOM     65  C   UNL A   1      43.394  31.947  30.328  1.00  0.00    -0.014 A 
BRANCH  65  66
ATOM     66  C   UNL A   1      42.505  32.105  31.545  1.00  0.00     0.031 A 
ATOM     67  C   UNL A   1      41.120  32.739  31.235  1.00  0.00     0.074 A 
ATOM     68  C   UNL A   1      42.883  31.311  32.591  1.00  0.00     0.049 A 
ATOM     69  N   UNL A   1      39.967  32.563  31.789  1.00  0.00    -0.248 NA
ATOM     70  C   UNL A   1      40.993  33.700  30.112  1.00  0.00     0.031 C 
ATOM     71  C   UNL A   1      42.170  30.421  33.500  1.00  0.00     0.029 A 
ATOM     72  N   UNL A   1      44.166  31.023  33.013  1.00  0.00    -0.354 N 
ATOM     73  C   UNL A   1      38.981  33.322  31.111  1.00  0.00     0.074 A 
ATOM     74  C   UNL A   1      39.676  33.931  30.018  1.00  0.00     0.031 C 
ATOM     75  C   UNL A   1      42.862  30.095  34.594  1.00  0.00     0.029 A 
ATOM     76  C   UNL A   1      44.091  30.727  34.383  1.00  0.00     0.049 A 
ATOM     77  H   UNL A   1      44.979  31.023  32.458  1.00  0.00     0.167 HD
ATOM     78  C   UNL A   1      37.679  33.347  31.553  1.00  0.00     0.037 A 
ATOM     79  C   UNL A   1      44.964  30.895  35.379  1.00  0.00     0.037 A 
ATOM     80  C   UNL A   1      37.677  32.746  32.846  1.00  0.00     0.049 A 
ATOM     81  C   UNL A   1      43.910  31.864  36.202  1.00  0.00     0.074 A 
ATOM     82  C   UNL A   1      37.511  31.456  33.166  1.00  0.00     0.029 A 
ATOM     83  N   UNL A   1      38.112  33.464  33.934  1.00  0.00    -0.354 N 
ATOM     84  N   UNL A   1      42.956  32.682  35.732  1.00  0.00    -0.248 NA
ATOM     85  C   UNL A   1      43.581  31.490  37.599  1.00  0.00     0.031 C 
ATOM     86  C   UNL A   1      38.279  31.354  34.320  1.00  0.00     0.029 A 
ATOM     87  C   UNL A   1      38.937  32.654  34.982  1.00  0.00     0.049 A 
ATOM     88  H   UNL A   1      37.916  34.423  34.044  1.00  0.00     0.167 HD
ATOM     89  C   UNL A   1      41.807  32.751  36.646  1.00  0.00     0.074 A 
ATOM     90  C   UNL A   1      42.311  31.918  37.770  1.00  0.00     0.031 C 
ATOM     91  C   UNL A   1      40.299  33.128  36.450  1.00  0.00     0.037 A 
BRANCH  78  92
ATOM     92  C   UNL A   1      36.318  33.772  30.999  1.00  0.00     0.064 A 
ATOM     93  C   UNL A   1      35.971  33.409  29.654  1.00  0.00     0.173 A 
ATOM     94  C   UNL A   1      35.347  34.543  31.643  1.00  0.00     0.173 A 
ATOM     95  F   UNL A   1      36.822  32.753  28.855  1.00  0.00    -0.203 F 
ATOM     96  C   UNL A   1      34.759  33.729  29.043  1.00  0.00     0.198 A 
ATOM     97  C   UNL A   1      34.125  34.879  31.017  1.00  0.00     0.198 A 
ATOM     98  F   UNL A   1      35.546  35.006  32.882  1.00  0.00    -0.203 F 
ATOM     99  F   UNL A   1      34.521  33.342  27.781  1.00  0.00    -0.200 F 
ATOM    100  C   UNL A   1      33.825  34.457  29.731  1.00  0.00     0.200 A 
ATOM    101  F   UNL A   1      33.229  35.632  31.671  1.00  0.00    -0.200 F 
ATOM    102  F   UNL A   1      32.654  34.763  29.154  1.00  0.00    -0.200 F 
ENDBRANCH  78  92
BRANCH  79 103
ATOM    103  C   UNL A   1      46.190  30.552  34.495  1.00  0.00     0.064 A 
ATOM    104  C   UNL A   1      47.246  31.582  34.517  1.00  0.00     0.173 A 
ATOM    105  C   UNL A   1      46.698  29.284  34.198  1.00  0.00     0.173 A 
ATOM    106  F   UNL A   1      47.008  32.726  35.171  1.00  0.00    -0.203 F 
ATOM    107  C   UNL A   1      48.618  31.363  34.326  1.00  0.00     0.198 A 
ATOM    108  C   UNL A   1      48.104  29.062  34.044  1.00  0.00     0.198 A 
ATOM    109  F   UNL A   1      45.907  28.212  34.314  1.00  0.00    -0.203 F 
ATOM    110  F   UNL A   1      49.506  32.338  34.596  1.00  0.00    -0.200 F 
ATOM    111  C   UNL A   1      49.051  30.084  34.125  1.00  0.00     0.200 A 
ATOM    112  F   UNL A   1      48.564  27.803  33.991  1.00  0.00    -0.200 F 
ATOM    113  F   UNL A   1      50.366  29.815  34.162  1.00  0.00    -0.200 F 
ENDBRANCH  79 103
BRANCH  91 114
ATOM    114  C   UNL A   1      40.376  34.546  37.644  1.00  0.00     0.064 A 
ATOM    115  C   UNL A   1      39.397  34.788  38.646  1.00  0.00     0.173 A 
ATOM    116  C   UNL A   1      41.407  35.588  37.781  1.00  0.00     0.173 A 
ATOM    117  F   UNL A   1      38.613  33.835  39.157  1.00  0.00    -0.203 F 
ATOM    118  C   UNL A   1      39.271  35.997  39.364  1.00  0.00     0.198 A 
ATOM    119  C   UNL A   1      41.278  36.787  38.479  1.00  0.00     0.198 A 
ATOM    120  F   UNL A   1      42.662  35.513  37.295  1.00  0.00    -0.203 F 
ATOM    121  F   UNL A   1      38.277  36.120  40.254  1.00  0.00    -0.200 F 
ATOM    122  C   UNL A   1      40.172  37.021  39.228  1.00  0.00     0.200 A 
ATOM    123  F   UNL A   1      42.277  37.680  38.425  1.00  0.00    -0.200 F 
ATOM    124  F   UNL A   1      40.041  38.168  39.903  1.00  0.00    -0.200 F 
ENDBRANCH  91 114
ENDBRANCH  65  66
ENDBRANCH  58  60
ENDBRANCH  57  58
ENDBRANCH  56  57
ENDBRANCH  55  56
ENDBRANCH  54  55
ENDBRANCH  53  54
ENDBRANCH  52  53
ENDBRANCH  51  52
ENDBRANCH  50  51
ENDBRANCH   1  50
TORSDOF 29
ENDMDL
