MODEL 1
REMARK VINA RESULT:     -10.6      0.000      0.000
REMARK SMILES O=C(/C=C/c1cc(C(=O)Nc2ccc(F)cc2Cl)cs1)OCCOCCOCCOCCOC(=O)c1ccc(-c2c3nc(c(-c4c(F)c(F)c(F)c(F)c4F)c4ccc([nH]4)c(-c4c(F)c(F)c(F)c(F)c4F)c4nc(c(-c5c(F)c(F)c(F)c(F)c5F)c5ccc2[nH]5)C=C4)C=C3)cc1
REMARK SMILES IDX 26 1 25 2 24 3 23 4 22 5 21 6 2 7 1 8 3 9 4 10 5 11 6 12
REMARK SMILES IDX 20 13 7 14 19 15 8 16 9 17 10 18 11 20 12 21 17 22 13 23
REMARK SMILES IDX 16 24 18 25 14 26 15 27 27 28 28 29 29 30 30 31 31 32 32 33
REMARK SMILES IDX 33 34 34 35 35 36 36 37 37 38 98 39 38 40 97 41 39 42 40 43
REMARK SMILES IDX 41 44 91 45 42 46 96 47 90 48 92 49 43 50 95 51 89 52 88 53
REMARK SMILES IDX 44 55 76 56 56 57 75 58 57 59 60 60 74 61 93 62 58 63 59 64
REMARK SMILES IDX 73 66 94 67 61 68 45 69 46 70 54 71 47 72 48 73 52 74 55 75
REMARK SMILES IDX 49 76 50 77 53 78 51 79 77 80 78 81 86 82 79 83 80 84 84 85
REMARK SMILES IDX 87 86 81 87 82 88 85 89 83 90 62 91 63 92 71 93 64 94 65 95
REMARK SMILES IDX 69 96 72 97 66 98 67 99 70 100 68 101
REMARK H PARENT 10 19 92 54 60 65
REMARK Flexibility Score: inf
ROOT
ATOM      1  C   UNL A   1      35.058  30.335  27.613  1.00  0.00     0.188 C 
ENDROOT
BRANCH   1   2
ATOM      2  C   UNL A   1      34.063  29.322  27.063  1.00  0.00     0.188 C 
BRANCH   2   3
ATOM      3  O   UNL A   1      33.516  29.462  25.761  1.00  0.00    -0.376 OA
BRANCH   3   4
ATOM      4  C   UNL A   1      33.528  28.519  24.710  1.00  0.00     0.202 C 
BRANCH   4   5
ATOM      5  C   UNL A   1      33.103  28.840  23.282  1.00  0.00     0.261 C 
BRANCH   5   6
ATOM      6  O   UNL A   1      32.701  27.767  22.433  1.00  0.00    -0.460 OA
BRANCH   6   7
ATOM      7  C   UNL A   1      31.449  27.268  22.352  1.00  0.00     0.330 C 
ATOM      8  O   UNL A   1      30.513  27.978  22.005  1.00  0.00    -0.247 OA
BRANCH   7   9
ATOM      9  C   UNL A   1      31.169  25.977  22.994  1.00  0.00     0.095 C 
ATOM     10  C   UNL A   1      31.925  25.344  23.900  1.00  0.00     0.026 C 
BRANCH  10  11
ATOM     11  C   UNL A   1      31.500  24.124  24.491  1.00  0.00     0.028 A 
ATOM     12  C   UNL A   1      31.465  22.843  23.970  1.00  0.00     0.033 A 
ATOM     13  S   UNL A   1      30.921  24.063  26.111  1.00  0.00    -0.144 S 
ATOM     14  C   UNL A   1      31.790  21.921  25.015  1.00  0.00     0.051 A 
ATOM     15  C   UNL A   1      31.224  22.375  26.191  1.00  0.00     0.079 A 
BRANCH  14  16
ATOM     16  C   UNL A   1      32.524  20.664  24.892  1.00  0.00     0.256 C 
ATOM     17  O   UNL A   1      31.943  19.581  24.864  1.00  0.00    -0.269 OA
ATOM     18  N   UNL A   1      33.904  20.695  24.771  1.00  0.00    -0.321 N 
ATOM     19  H   UNL A   1      34.314  19.835  24.524  1.00  0.00     0.170 HD
BRANCH  18  20
ATOM     20  C   UNL A   1      34.822  21.757  24.945  1.00  0.00     0.060 A 
ATOM     21  C   UNL A   1      35.484  22.363  23.867  1.00  0.00     0.031 A 
ATOM     22  C   UNL A   1      35.124  22.182  26.252  1.00  0.00     0.067 A 
ATOM     23  C   UNL A   1      36.501  23.297  24.102  1.00  0.00     0.041 A 
ATOM     24  C   UNL A   1      36.162  23.083  26.485  1.00  0.00     0.062 A 
ATOM     25  Cl  UNL A   1      34.307  21.507  27.617  1.00  0.00    -0.082 Cl
ATOM     26  C   UNL A   1      36.850  23.621  25.408  1.00  0.00     0.124 A 
ATOM     27  F   UNL A   1      37.876  24.451  25.633  1.00  0.00    -0.207 F 
ENDBRANCH  18  20
ENDBRANCH  14  16
ENDBRANCH  10  11
ENDBRANCH   7   9
ENDBRANCH   6   7
ENDBRANCH   5   6
ENDBRANCH   4   5
ENDBRANCH   3   4
ENDBRANCH   2   3
ENDBRANCH   1   2
BRANCH   1  28
ATOM     28  O   UNL A   1      34.686  31.693  27.460  1.00  0.00    -0.377 OA
BRANCH  28  29
ATOM     29  C   UNL A   1      35.556  32.594  28.111  1.00  0.00     0.188 C 
BRANCH  29  30
ATOM     30  C   UNL A   1      35.079  34.066  28.137  1.00  0.00     0.188 C 
BRANCH  30  31
ATOM     31  O   UNL A   1      34.379  34.596  29.249  1.00  0.00    -0.376 OA
BRANCH  31  32
ATOM     32  C   UNL A   1      33.221  35.386  29.055  1.00  0.00     0.202 C 
BRANCH  32  33
ATOM     33  C   UNL A   1      32.784  36.446  30.088  1.00  0.00     0.261 C 
BRANCH  33  34
ATOM     34  O   UNL A   1      32.122  35.978  31.273  1.00  0.00    -0.460 OA
BRANCH  34  35
ATOM     35  C   UNL A   1      32.710  36.265  32.461  1.00  0.00     0.338 C 
ATOM     36  O   UNL A   1      32.293  37.007  33.334  1.00  0.00    -0.246 OA
BRANCH  35  37
ATOM     37  C   UNL A   1      33.858  35.341  32.644  1.00  0.00     0.060 A 
ATOM     38  C   UNL A   1      33.599  33.994  32.954  1.00  0.00     0.016 A 
ATOM     39  C   UNL A   1      35.168  35.768  32.424  1.00  0.00     0.016 A 
ATOM     40  C   UNL A   1      34.645  33.072  33.032  1.00  0.00     0.010 A 
ATOM     41  C   UNL A   1      36.219  34.853  32.550  1.00  0.00     0.010 A 
ATOM     42  C   UNL A   1      35.965  33.505  32.869  1.00  0.00    -0.014 A 
BRANCH  42  43
ATOM     43  C   UNL A   1      37.094  32.621  33.243  1.00  0.00     0.031 A 
ATOM     44  C   UNL A   1      37.801  32.905  34.539  1.00  0.00     0.074 A 
ATOM     45  C   UNL A   1      37.514  31.622  32.447  1.00  0.00     0.049 A 
ATOM     46  N   UNL A   1      38.905  32.394  35.015  1.00  0.00    -0.248 NA
ATOM     47  C   UNL A   1      37.178  33.914  35.413  1.00  0.00     0.031 C 
ATOM     48  C   UNL A   1      36.882  31.214  31.194  1.00  0.00     0.029 A 
ATOM     49  N   UNL A   1      38.599  30.786  32.566  1.00  0.00    -0.354 N 
ATOM     50  C   UNL A   1      39.123  33.037  36.226  1.00  0.00     0.074 A 
ATOM     51  C   UNL A   1      38.040  33.976  36.416  1.00  0.00     0.031 C 
ATOM     52  C   UNL A   1      37.616  30.233  30.637  1.00  0.00     0.029 A 
ATOM     53  C   UNL A   1      38.790  29.976  31.472  1.00  0.00     0.049 A 
ATOM     54  H   UNL A   1      39.183  30.770  33.357  1.00  0.00     0.167 HD
ATOM     55  C   UNL A   1      40.143  32.864  37.098  1.00  0.00     0.037 A 
ATOM     56  C   UNL A   1      39.822  29.164  31.161  1.00  0.00     0.037 A 
ATOM     57  C   UNL A   1      41.212  31.922  36.911  1.00  0.00     0.049 A 
ATOM     58  C   UNL A   1      40.986  29.047  32.117  1.00  0.00     0.074 A 
ATOM     59  C   UNL A   1      42.259  31.632  37.766  1.00  0.00     0.029 A 
ATOM     60  N   UNL A   1      41.378  31.132  35.786  1.00  0.00    -0.354 N 
ATOM     61  N   UNL A   1      41.163  29.619  33.284  1.00  0.00    -0.248 NA
ATOM     62  C   UNL A   1      42.102  28.179  31.708  1.00  0.00     0.031 C 
ATOM     63  C   UNL A   1      43.099  30.715  37.128  1.00  0.00     0.029 A 
ATOM     64  C   UNL A   1      42.540  30.387  35.903  1.00  0.00     0.049 A 
ATOM     65  H   UNL A   1      40.764  31.104  35.017  1.00  0.00     0.167 HD
ATOM     66  C   UNL A   1      42.390  29.164  33.753  1.00  0.00     0.074 A 
ATOM     67  C   UNL A   1      42.907  28.253  32.757  1.00  0.00     0.031 C 
ATOM     68  C   UNL A   1      43.034  29.476  34.905  1.00  0.00     0.037 A 
BRANCH  55  69
ATOM     69  C   UNL A   1      40.182  33.737  38.315  1.00  0.00     0.064 A 
ATOM     70  C   UNL A   1      39.485  33.410  39.486  1.00  0.00     0.173 A 
ATOM     71  C   UNL A   1      40.991  34.884  38.327  1.00  0.00     0.173 A 
ATOM     72  F   UNL A   1      38.687  32.334  39.518  1.00  0.00    -0.203 F 
ATOM     73  C   UNL A   1      39.592  34.205  40.624  1.00  0.00     0.198 A 
ATOM     74  C   UNL A   1      41.116  35.660  39.474  1.00  0.00     0.198 A 
ATOM     75  F   UNL A   1      41.677  35.239  37.229  1.00  0.00    -0.203 F 
ATOM     76  F   UNL A   1      38.895  33.891  41.725  1.00  0.00    -0.200 F 
ATOM     77  C   UNL A   1      40.415  35.322  40.621  1.00  0.00     0.200 A 
ATOM     78  F   UNL A   1      41.922  36.731  39.471  1.00  0.00    -0.200 F 
ATOM     79  F   UNL A   1      40.532  36.074  41.724  1.00  0.00    -0.200 F 
ENDBRANCH  55  69
BRANCH  56  80
ATOM     80  C   UNL A   1      39.849  28.439  29.859  1.00  0.00     0.064 A 
ATOM     81  C   UNL A   1      39.274  27.168  29.721  1.00  0.00     0.173 A 
ATOM     82  C   UNL A   1      40.510  28.976  28.744  1.00  0.00     0.173 A 
ATOM     83  F   UNL A   1      38.656  26.596  30.767  1.00  0.00    -0.203 F 
ATOM     84  C   UNL A   1      39.385  26.450  28.531  1.00  0.00     0.198 A 
ATOM     85  C   UNL A   1      40.590  28.273  27.543  1.00  0.00     0.198 A 
ATOM     86  F   UNL A   1      41.084  30.186  28.820  1.00  0.00    -0.203 F 
ATOM     87  F   UNL A   1      38.884  25.210  28.451  1.00  0.00    -0.200 F 
ATOM     88  C   UNL A   1      40.040  27.005  27.442  1.00  0.00     0.200 A 
ATOM     89  F   UNL A   1      41.215  28.818  26.490  1.00  0.00    -0.200 F 
ATOM     90  F   UNL A   1      40.151  26.312  26.300  1.00  0.00    -0.200 F 
ENDBRANCH  56  80
BRANCH  68  91
ATOM     91  C   UNL A   1      44.354  28.811  35.170  1.00  0.00     0.064 A 
ATOM     92  C   UNL A   1      44.432  27.520  35.714  1.00  0.00     0.173 A 
ATOM     93  C   UNL A   1      45.555  29.443  34.808  1.00  0.00     0.173 A 
ATOM     94  F   UNL A   1      43.315  26.877  36.088  1.00  0.00    -0.203 F 
ATOM     95  C   UNL A   1      45.662  26.894  35.901  1.00  0.00     0.198 A 
ATOM     96  C   UNL A   1      46.780  28.802  34.967  1.00  0.00     0.198 A 
ATOM     97  F   UNL A   1      45.536  30.675  34.275  1.00  0.00    -0.203 F 
ATOM     98  F   UNL A   1      45.714  25.677  36.458  1.00  0.00    -0.200 F 
ATOM     99  C   UNL A   1      46.833  27.531  35.517  1.00  0.00     0.200 A 
ATOM    100  F   UNL A   1      47.908  29.412  34.578  1.00  0.00    -0.200 F 
ATOM    101  F   UNL A   1      48.015  26.921  35.682  1.00  0.00    -0.200 F 
ENDBRANCH  68  91
ENDBRANCH  42  43
ENDBRANCH  35  37
ENDBRANCH  34  35
ENDBRANCH  33  34
ENDBRANCH  32  33
ENDBRANCH  31  32
ENDBRANCH  30  31
ENDBRANCH  29  30
ENDBRANCH  28  29
ENDBRANCH   1  28
TORSDOF 23
ENDMDL
MODEL 2
REMARK VINA RESULT:      -9.6      1.663      2.637
REMARK SMILES O=C(/C=C/c1cc(C(=O)Nc2ccc(F)cc2Cl)cs1)OCCOCCOCCOCCOC(=O)c1ccc(-c2c3nc(c(-c4c(F)c(F)c(F)c(F)c4F)c4ccc([nH]4)c(-c4c(F)c(F)c(F)c(F)c4F)c4nc(c(-c5c(F)c(F)c(F)c(F)c5F)c5ccc2[nH]5)C=C4)C=C3)cc1
REMARK SMILES IDX 26 1 25 2 24 3 23 4 22 5 21 6 2 7 1 8 3 9 4 10 5 11 6 12
REMARK SMILES IDX 20 13 7 14 19 15 8 16 9 17 10 18 11 20 12 21 17 22 13 23
REMARK SMILES IDX 16 24 18 25 14 26 15 27 27 28 28 29 29 30 30 31 31 32 32 33
REMARK SMILES IDX 33 34 34 35 35 36 36 37 37 38 98 39 38 40 97 41 39 42 40 43
REMARK SMILES IDX 41 44 91 45 42 46 96 47 90 48 92 49 43 50 95 51 89 52 88 53
REMARK SMILES IDX 44 55 76 56 56 57 75 58 57 59 60 60 74 61 93 62 58 63 59 64
REMARK SMILES IDX 73 66 94 67 61 68 45 69 46 70 54 71 47 72 48 73 52 74 55 75
REMARK SMILES IDX 49 76 50 77 53 78 51 79 77 80 78 81 86 82 79 83 80 84 84 85
REMARK SMILES IDX 87 86 81 87 82 88 85 89 83 90 62 91 63 92 71 93 64 94 65 95
REMARK SMILES IDX 69 96 72 97 66 98 67 99 70 100 68 101
REMARK H PARENT 10 19 92 54 60 65
REMARK Flexibility Score: inf
ROOT
ATOM      1  C   UNL A   1      32.215  30.211  26.906  1.00  0.00     0.188 C 
ENDROOT
BRANCH   1   2
ATOM      2  C   UNL A   1      31.768  30.104  25.454  1.00  0.00     0.188 C 
BRANCH   2   3
ATOM      3  O   UNL A   1      32.564  29.437  24.488  1.00  0.00    -0.376 OA
BRANCH   3   4
ATOM      4  C   UNL A   1      32.155  28.908  23.243  1.00  0.00     0.202 C 
BRANCH   4   5
ATOM      5  C   UNL A   1      30.729  28.998  22.715  1.00  0.00     0.261 C 
BRANCH   5   6
ATOM      6  O   UNL A   1      30.060  27.792  22.352  1.00  0.00    -0.460 OA
BRANCH   6   7
ATOM      7  C   UNL A   1      29.732  26.798  23.206  1.00  0.00     0.330 C 
ATOM      8  O   UNL A   1      28.739  26.886  23.918  1.00  0.00    -0.247 OA
BRANCH   7   9
ATOM      9  C   UNL A   1      30.743  25.776  23.508  1.00  0.00     0.095 C 
ATOM     10  C   UNL A   1      30.620  24.450  23.366  1.00  0.00     0.026 C 
BRANCH  10  11
ATOM     11  C   UNL A   1      31.707  23.576  23.636  1.00  0.00     0.028 A 
ATOM     12  C   UNL A   1      32.609  23.571  24.685  1.00  0.00     0.033 A 
ATOM     13  S   UNL A   1      32.083  22.259  22.594  1.00  0.00    -0.144 S 
ATOM     14  C   UNL A   1      32.910  22.211  25.015  1.00  0.00     0.051 A 
ATOM     15  C   UNL A   1      32.964  21.478  23.843  1.00  0.00     0.079 A 
BRANCH  14  16
ATOM     16  C   UNL A   1      33.196  21.661  26.337  1.00  0.00     0.256 C 
ATOM     17  O   UNL A   1      33.274  22.381  27.329  1.00  0.00    -0.269 OA
ATOM     18  N   UNL A   1      33.349  20.291  26.482  1.00  0.00    -0.321 N 
ATOM     19  H   UNL A   1      33.370  19.976  27.414  1.00  0.00     0.170 HD
BRANCH  18  20
ATOM     20  C   UNL A   1      33.482  19.270  25.512  1.00  0.00     0.060 A 
ATOM     21  C   UNL A   1      32.441  18.379  25.210  1.00  0.00     0.031 A 
ATOM     22  C   UNL A   1      34.722  19.107  24.867  1.00  0.00     0.067 A 
ATOM     23  C   UNL A   1      32.672  17.288  24.363  1.00  0.00     0.041 A 
ATOM     24  C   UNL A   1      34.961  17.999  24.055  1.00  0.00     0.062 A 
ATOM     25  Cl  UNL A   1      36.027  20.201  25.161  1.00  0.00    -0.082 Cl
ATOM     26  C   UNL A   1      33.938  17.092  23.823  1.00  0.00     0.124 A 
ATOM     27  F   UNL A   1      34.181  16.005  23.080  1.00  0.00    -0.207 F 
ENDBRANCH  18  20
ENDBRANCH  14  16
ENDBRANCH  10  11
ENDBRANCH   7   9
ENDBRANCH   6   7
ENDBRANCH   5   6
ENDBRANCH   4   5
ENDBRANCH   3   4
ENDBRANCH   2   3
ENDBRANCH   1   2
BRANCH   1  28
ATOM     28  O   UNL A   1      32.891  31.408  27.245  1.00  0.00    -0.377 OA
BRANCH  28  29
ATOM     29  C   UNL A   1      34.204  31.201  27.720  1.00  0.00     0.188 C 
BRANCH  29  30
ATOM     30  C   UNL A   1      34.848  32.419  28.425  1.00  0.00     0.188 C 
BRANCH  30  31
ATOM     31  O   UNL A   1      34.070  33.336  29.174  1.00  0.00    -0.376 OA
BRANCH  31  32
ATOM     32  C   UNL A   1      33.827  34.640  28.681  1.00  0.00     0.202 C 
BRANCH  32  33
ATOM     33  C   UNL A   1      33.039  35.681  29.503  1.00  0.00     0.261 C 
BRANCH  33  34
ATOM     34  O   UNL A   1      32.375  35.218  30.689  1.00  0.00    -0.460 OA
BRANCH  34  35
ATOM     35  C   UNL A   1      32.763  35.769  31.866  1.00  0.00     0.338 C 
ATOM     36  O   UNL A   1      32.188  36.634  32.504  1.00  0.00    -0.246 OA
BRANCH  35  37
ATOM     37  C   UNL A   1      33.906  34.980  32.392  1.00  0.00     0.060 A 
ATOM     38  C   UNL A   1      35.191  35.549  32.363  1.00  0.00     0.016 A 
ATOM     39  C   UNL A   1      33.706  33.735  32.990  1.00  0.00     0.016 A 
ATOM     40  C   UNL A   1      36.274  34.883  32.943  1.00  0.00     0.010 A 
ATOM     41  C   UNL A   1      34.801  33.047  33.526  1.00  0.00     0.010 A 
ATOM     42  C   UNL A   1      36.090  33.610  33.491  1.00  0.00    -0.014 A 
BRANCH  42  43
ATOM     43  C   UNL A   1      37.261  32.766  33.831  1.00  0.00     0.031 A 
ATOM     44  C   UNL A   1      37.981  33.059  35.118  1.00  0.00     0.074 A 
ATOM     45  C   UNL A   1      37.703  31.795  33.013  1.00  0.00     0.049 A 
ATOM     46  N   UNL A   1      39.114  32.586  35.565  1.00  0.00    -0.248 NA
ATOM     47  C   UNL A   1      37.337  34.031  36.018  1.00  0.00     0.031 C 
ATOM     48  C   UNL A   1      37.064  31.379  31.766  1.00  0.00     0.029 A 
ATOM     49  N   UNL A   1      38.822  31.000  33.099  1.00  0.00    -0.354 N 
ATOM     50  C   UNL A   1      39.330  33.220  36.780  1.00  0.00     0.074 A 
ATOM     51  C   UNL A   1      38.216  34.113  37.004  1.00  0.00     0.031 C 
ATOM     52  C   UNL A   1      37.824  30.435  31.181  1.00  0.00     0.029 A 
ATOM     53  C   UNL A   1      39.023  30.213  31.990  1.00  0.00     0.049 A 
ATOM     54  H   UNL A   1      39.421  30.996  33.879  1.00  0.00     0.167 HD
ATOM     55  C   UNL A   1      40.373  33.075  37.630  1.00  0.00     0.037 A 
ATOM     56  C   UNL A   1      40.079  29.446  31.647  1.00  0.00     0.037 A 
ATOM     57  C   UNL A   1      41.474  32.178  37.409  1.00  0.00     0.049 A 
ATOM     58  C   UNL A   1      41.266  29.362  32.580  1.00  0.00     0.074 A 
ATOM     59  C   UNL A   1      42.548  31.917  38.240  1.00  0.00     0.029 A 
ATOM     60  N   UNL A   1      41.649  31.411  36.270  1.00  0.00    -0.354 N 
ATOM     61  N   UNL A   1      41.443  29.925  33.751  1.00  0.00    -0.248 NA
ATOM     62  C   UNL A   1      42.406  28.544  32.137  1.00  0.00     0.031 C 
ATOM     63  C   UNL A   1      43.411  31.043  37.573  1.00  0.00     0.029 A 
ATOM     64  C   UNL A   1      42.840  30.710  36.354  1.00  0.00     0.049 A 
ATOM     65  H   UNL A   1      41.021  31.369  35.512  1.00  0.00     0.167 HD
ATOM     66  C   UNL A   1      42.696  29.512  34.190  1.00  0.00     0.074 A 
ATOM     67  C   UNL A   1      43.229  28.635  33.171  1.00  0.00     0.031 C 
ATOM     68  C   UNL A   1      43.350  29.833  35.334  1.00  0.00     0.037 A 
BRANCH  55  69
ATOM     69  C   UNL A   1      40.402  33.932  38.859  1.00  0.00     0.064 A 
ATOM     70  C   UNL A   1      41.028  35.186  38.874  1.00  0.00     0.173 A 
ATOM     71  C   UNL A   1      39.729  33.516  40.017  1.00  0.00     0.173 A 
ATOM     72  F   UNL A   1      41.698  35.619  37.797  1.00  0.00    -0.203 F 
ATOM     73  C   UNL A   1      40.984  35.990  40.010  1.00  0.00     0.198 A 
ATOM     74  C   UNL A   1      39.663  34.334  41.140  1.00  0.00     0.198 A 
ATOM     75  F   UNL A   1      39.115  32.323  40.052  1.00  0.00    -0.203 F 
ATOM     76  F   UNL A   1      41.613  37.174  40.014  1.00  0.00    -0.200 F 
ATOM     77  C   UNL A   1      40.293  35.570  41.137  1.00  0.00     0.200 A 
ATOM     78  F   UNL A   1      38.985  33.930  42.223  1.00  0.00    -0.200 F 
ATOM     79  F   UNL A   1      40.235  36.354  42.222  1.00  0.00    -0.200 F 
ENDBRANCH  55  69
BRANCH  56  80
ATOM     80  C   UNL A   1      40.108  28.741  30.336  1.00  0.00     0.064 A 
ATOM     81  C   UNL A   1      40.685  29.334  29.203  1.00  0.00     0.173 A 
ATOM     82  C   UNL A   1      39.500  27.487  30.173  1.00  0.00     0.173 A 
ATOM     83  F   UNL A   1      41.252  30.546  29.297  1.00  0.00    -0.203 F 
ATOM     84  C   UNL A   1      40.625  28.715  27.954  1.00  0.00     0.198 A 
ATOM     85  C   UNL A   1      39.471  26.853  28.932  1.00  0.00     0.198 A 
ATOM     86  F   UNL A   1      38.928  26.876  31.220  1.00  0.00    -0.203 F 
ATOM     87  F   UNL A   1      41.124  29.336  26.877  1.00  0.00    -0.200 F 
ATOM     88  C   UNL A   1      40.021  27.473  27.820  1.00  0.00     0.200 A 
ATOM     89  F   UNL A   1      38.897  25.648  28.810  1.00  0.00    -0.200 F 
ATOM     90  F   UNL A   1      39.959  26.882  26.620  1.00  0.00    -0.200 F 
ENDBRANCH  56  80
BRANCH  68  91
ATOM     91  C   UNL A   1      44.700  29.216  35.564  1.00  0.00     0.064 A 
ATOM     92  C   UNL A   1      44.839  27.936  36.122  1.00  0.00     0.173 A 
ATOM     93  C   UNL A   1      45.866  29.884  35.155  1.00  0.00     0.173 A 
ATOM     94  F   UNL A   1      43.758  27.262  36.540  1.00  0.00    -0.203 F 
ATOM     95  C   UNL A   1      46.095  27.355  36.276  1.00  0.00     0.198 A 
ATOM     96  C   UNL A   1      47.117  29.287  35.281  1.00  0.00     0.198 A 
ATOM     97  F   UNL A   1      45.788  31.106  34.607  1.00  0.00    -0.203 F 
ATOM     98  F   UNL A   1      46.207  26.148  36.846  1.00  0.00    -0.200 F 
ATOM     99  C   UNL A   1      47.231  28.025  35.845  1.00  0.00     0.200 A 
ATOM    100  F   UNL A   1      48.210  29.929  34.847  1.00  0.00    -0.200 F 
ATOM    101  F   UNL A   1      48.437  27.458  35.979  1.00  0.00    -0.200 F 
ENDBRANCH  68  91
ENDBRANCH  42  43
ENDBRANCH  35  37
ENDBRANCH  34  35
ENDBRANCH  33  34
ENDBRANCH  32  33
ENDBRANCH  31  32
ENDBRANCH  30  31
ENDBRANCH  29  30
ENDBRANCH  28  29
ENDBRANCH   1  28
TORSDOF 23
ENDMDL
MODEL 3
REMARK VINA RESULT:      -8.8      5.458     10.510
REMARK SMILES O=C(/C=C/c1cc(C(=O)Nc2ccc(F)cc2Cl)cs1)OCCOCCOCCOCCOC(=O)c1ccc(-c2c3nc(c(-c4c(F)c(F)c(F)c(F)c4F)c4ccc([nH]4)c(-c4c(F)c(F)c(F)c(F)c4F)c4nc(c(-c5c(F)c(F)c(F)c(F)c5F)c5ccc2[nH]5)C=C4)C=C3)cc1
REMARK SMILES IDX 26 1 25 2 24 3 23 4 22 5 21 6 2 7 1 8 3 9 4 10 5 11 6 12
REMARK SMILES IDX 20 13 7 14 19 15 8 16 9 17 10 18 11 20 12 21 17 22 13 23
REMARK SMILES IDX 16 24 18 25 14 26 15 27 27 28 28 29 29 30 30 31 31 32 32 33
REMARK SMILES IDX 33 34 34 35 35 36 36 37 37 38 98 39 38 40 97 41 39 42 40 43
REMARK SMILES IDX 41 44 91 45 42 46 96 47 90 48 92 49 43 50 95 51 89 52 88 53
REMARK SMILES IDX 44 55 76 56 56 57 75 58 57 59 60 60 74 61 93 62 58 63 59 64
REMARK SMILES IDX 73 66 94 67 61 68 45 69 46 70 54 71 47 72 48 73 52 74 55 75
REMARK SMILES IDX 49 76 50 77 53 78 51 79 77 80 78 81 86 82 79 83 80 84 84 85
REMARK SMILES IDX 87 86 81 87 82 88 85 89 83 90 62 91 63 92 71 93 64 94 65 95
REMARK SMILES IDX 69 96 72 97 66 98 67 99 70 100 68 101
REMARK H PARENT 10 19 92 54 60 65
REMARK Flexibility Score: inf
ROOT
ATOM      1  C   UNL A   1      35.576  32.599  31.048  1.00  0.00     0.188 C 
ENDROOT
BRANCH   1   2
ATOM      2  C   UNL A   1      35.375  33.939  30.353  1.00  0.00     0.188 C 
BRANCH   2   3
ATOM      3  O   UNL A   1      34.193  34.698  30.549  1.00  0.00    -0.376 OA
BRANCH   3   4
ATOM      4  C   UNL A   1      33.347  35.255  29.565  1.00  0.00     0.202 C 
BRANCH   4   5
ATOM      5  C   UNL A   1      33.269  34.745  28.131  1.00  0.00     0.261 C 
BRANCH   5   6
ATOM      6  O   UNL A   1      32.661  33.478  27.891  1.00  0.00    -0.460 OA
BRANCH   6   7
ATOM      7  C   UNL A   1      33.327  32.334  27.626  1.00  0.00     0.330 C 
ATOM      8  O   UNL A   1      34.548  32.285  27.720  1.00  0.00    -0.247 OA
BRANCH   7   9
ATOM      9  C   UNL A   1      32.619  31.262  26.914  1.00  0.00     0.095 C 
ATOM     10  C   UNL A   1      32.905  29.954  26.932  1.00  0.00     0.026 C 
BRANCH  10  11
ATOM     11  C   UNL A   1      32.091  29.013  26.244  1.00  0.00     0.028 A 
ATOM     12  C   UNL A   1      31.442  29.115  25.027  1.00  0.00     0.033 A 
ATOM     13  S   UNL A   1      31.779  27.450  26.894  1.00  0.00    -0.144 S 
ATOM     14  C   UNL A   1      31.491  27.838  24.382  1.00  0.00     0.051 A 
ATOM     15  C   UNL A   1      31.345  26.856  25.343  1.00  0.00     0.079 A 
BRANCH  14  16
ATOM     16  C   UNL A   1      31.596  27.572  22.949  1.00  0.00     0.256 C 
ATOM     17  O   UNL A   1      32.487  26.859  22.493  1.00  0.00    -0.269 OA
ATOM     18  N   UNL A   1      30.650  28.106  22.090  1.00  0.00    -0.321 N 
ATOM     19  H   UNL A   1      30.682  27.751  21.173  1.00  0.00     0.170 HD
BRANCH  18  20
ATOM     20  C   UNL A   1      29.647  29.078  22.312  1.00  0.00     0.060 A 
ATOM     21  C   UNL A   1      29.790  30.414  21.906  1.00  0.00     0.031 A 
ATOM     22  C   UNL A   1      28.487  28.705  23.016  1.00  0.00     0.067 A 
ATOM     23  C   UNL A   1      28.843  31.371  22.291  1.00  0.00     0.041 A 
ATOM     24  C   UNL A   1      27.566  29.666  23.431  1.00  0.00     0.062 A 
ATOM     25  Cl  UNL A   1      28.231  27.066  23.500  1.00  0.00    -0.082 Cl
ATOM     26  C   UNL A   1      27.761  30.992  23.077  1.00  0.00     0.124 A 
ATOM     27  F   UNL A   1      26.901  31.921  23.512  1.00  0.00    -0.207 F 
ENDBRANCH  18  20
ENDBRANCH  14  16
ENDBRANCH  10  11
ENDBRANCH   7   9
ENDBRANCH   6   7
ENDBRANCH   5   6
ENDBRANCH   4   5
ENDBRANCH   3   4
ENDBRANCH   2   3
ENDBRANCH   1   2
BRANCH   1  28
ATOM     28  O   UNL A   1      36.493  32.608  32.127  1.00  0.00    -0.377 OA
BRANCH  28  29
ATOM     29  C   UNL A   1      37.555  33.524  31.959  1.00  0.00     0.188 C 
BRANCH  29  30
ATOM     30  C   UNL A   1      37.587  34.686  32.979  1.00  0.00     0.188 C 
BRANCH  30  31
ATOM     31  O   UNL A   1      36.978  34.569  34.253  1.00  0.00    -0.376 OA
BRANCH  31  32
ATOM     32  C   UNL A   1      37.478  33.649  35.205  1.00  0.00     0.202 C 
BRANCH  32  33
ATOM     33  C   UNL A   1      38.979  33.298  35.277  1.00  0.00     0.261 C 
BRANCH  33  34
ATOM     34  O   UNL A   1      39.340  32.091  35.967  1.00  0.00    -0.460 OA
BRANCH  34  35
ATOM     35  C   UNL A   1      38.862  30.926  35.462  1.00  0.00     0.338 C 
ATOM     36  O   UNL A   1      37.844  30.340  35.787  1.00  0.00    -0.246 OA
BRANCH  35  37
ATOM     37  C   UNL A   1      39.667  30.578  34.263  1.00  0.00     0.060 A 
ATOM     38  C   UNL A   1      40.958  30.053  34.444  1.00  0.00     0.016 A 
ATOM     39  C   UNL A   1      39.128  30.678  32.980  1.00  0.00     0.016 A 
ATOM     40  C   UNL A   1      41.706  29.615  33.348  1.00  0.00     0.010 A 
ATOM     41  C   UNL A   1      39.897  30.286  31.878  1.00  0.00     0.010 A 
ATOM     42  C   UNL A   1      41.193  29.767  32.056  1.00  0.00    -0.014 A 
BRANCH  42  43
ATOM     43  C   UNL A   1      42.076  29.598  30.876  1.00  0.00     0.031 A 
ATOM     44  C   UNL A   1      41.884  28.367  30.035  1.00  0.00     0.074 A 
ATOM     45  C   UNL A   1      43.044  30.481  30.576  1.00  0.00     0.049 A 
ATOM     46  N   UNL A   1      42.619  27.902  29.060  1.00  0.00    -0.248 NA
ATOM     47  C   UNL A   1      40.706  27.540  30.348  1.00  0.00     0.031 C 
ATOM     48  C   UNL A   1      43.296  31.736  31.281  1.00  0.00     0.029 A 
ATOM     49  N   UNL A   1      44.021  30.435  29.609  1.00  0.00    -0.354 N 
ATOM     50  C   UNL A   1      42.009  26.720  28.663  1.00  0.00     0.074 A 
ATOM     51  C   UNL A   1      40.845  26.534  29.499  1.00  0.00     0.031 C 
ATOM     52  C   UNL A   1      44.386  32.321  30.750  1.00  0.00     0.029 A 
ATOM     53  C   UNL A   1      44.931  31.461  29.700  1.00  0.00     0.049 A 
ATOM     54  H   UNL A   1      44.064  29.734  28.920  1.00  0.00     0.167 HD
ATOM     55  C   UNL A   1      42.393  25.862  27.690  1.00  0.00     0.037 A 
ATOM     56  C   UNL A   1      46.096  31.649  29.045  1.00  0.00     0.037 A 
ATOM     57  C   UNL A   1      43.545  26.056  26.853  1.00  0.00     0.049 A 
ATOM     58  C   UNL A   1      46.541  30.634  28.017  1.00  0.00     0.074 A 
ATOM     59  C   UNL A   1      43.983  25.272  25.801  1.00  0.00     0.029 A 
ATOM     60  N   UNL A   1      44.449  27.097  26.984  1.00  0.00    -0.354 N 
ATOM     61  N   UNL A   1      45.935  29.544  27.610  1.00  0.00    -0.248 NA
ATOM     62  C   UNL A   1      47.838  30.870  27.364  1.00  0.00     0.031 C 
ATOM     63  C   UNL A   1      45.191  25.801  25.339  1.00  0.00     0.029 A 
ATOM     64  C   UNL A   1      45.471  26.950  26.062  1.00  0.00     0.049 A 
ATOM     65  H   UNL A   1      44.376  27.831  27.636  1.00  0.00     0.167 HD
ATOM     66  C   UNL A   1      46.763  28.983  26.644  1.00  0.00     0.074 A 
ATOM     67  C   UNL A   1      47.904  29.860  26.509  1.00  0.00     0.031 C 
ATOM     68  C   UNL A   1      46.595  27.840  25.935  1.00  0.00     0.037 A 
BRANCH  55  69
ATOM     69  C   UNL A   1      41.591  24.611  27.500  1.00  0.00     0.064 A 
ATOM     70  C   UNL A   1      40.340  24.620  26.869  1.00  0.00     0.173 A 
ATOM     71  C   UNL A   1      42.121  23.373  27.897  1.00  0.00     0.173 A 
ATOM     72  F   UNL A   1      39.784  25.779  26.487  1.00  0.00    -0.203 F 
ATOM     73  C   UNL A   1      39.645  23.434  26.647  1.00  0.00     0.198 A 
ATOM     74  C   UNL A   1      41.437  22.188  27.649  1.00  0.00     0.198 A 
ATOM     75  F   UNL A   1      43.315  23.313  28.507  1.00  0.00    -0.203 F 
ATOM     76  F   UNL A   1      38.437  23.466  26.066  1.00  0.00    -0.200 F 
ATOM     77  C   UNL A   1      40.198  22.219  27.026  1.00  0.00     0.200 A 
ATOM     78  F   UNL A   1      41.979  21.016  28.005  1.00  0.00    -0.200 F 
ATOM     79  F   UNL A   1      39.537  21.077  26.793  1.00  0.00    -0.200 F 
ENDBRANCH  55  69
BRANCH  56  80
ATOM     80  C   UNL A   1      46.970  32.809  29.376  1.00  0.00     0.064 A 
ATOM     81  C   UNL A   1      46.873  34.019  28.674  1.00  0.00     0.173 A 
ATOM     82  C   UNL A   1      47.968  32.708  30.358  1.00  0.00     0.173 A 
ATOM     83  F   UNL A   1      45.956  34.157  27.705  1.00  0.00    -0.203 F 
ATOM     84  C   UNL A   1      47.757  35.070  28.919  1.00  0.00     0.198 A 
ATOM     85  C   UNL A   1      48.829  33.771  30.627  1.00  0.00     0.198 A 
ATOM     86  F   UNL A   1      48.112  31.572  31.057  1.00  0.00    -0.203 F 
ATOM     87  F   UNL A   1      47.682  36.188  28.186  1.00  0.00    -0.200 F 
ATOM     88  C   UNL A   1      48.732  34.946  29.898  1.00  0.00     0.200 A 
ATOM     89  F   UNL A   1      49.762  33.650  31.581  1.00  0.00    -0.200 F 
ATOM     90  F   UNL A   1      49.584  35.954  30.129  1.00  0.00    -0.200 F 
ENDBRANCH  56  80
BRANCH  68  91
ATOM     91  C   UNL A   1      47.650  27.480  24.928  1.00  0.00     0.064 A 
ATOM     92  C   UNL A   1      47.524  27.826  23.574  1.00  0.00     0.173 A 
ATOM     93  C   UNL A   1      48.835  26.846  25.336  1.00  0.00     0.173 A 
ATOM     94  F   UNL A   1      46.407  28.422  23.132  1.00  0.00    -0.203 F 
ATOM     95  C   UNL A   1      48.538  27.537  22.664  1.00  0.00     0.198 A 
ATOM     96  C   UNL A   1      49.859  26.587  24.429  1.00  0.00     0.198 A 
ATOM     97  F   UNL A   1      49.010  26.502  26.621  1.00  0.00    -0.203 F 
ATOM     98  F   UNL A   1      48.379  27.842  21.369  1.00  0.00    -0.200 F 
ATOM     99  C   UNL A   1      49.707  26.928  23.094  1.00  0.00     0.200 A 
ATOM    100  F   UNL A   1      50.995  26.015  24.851  1.00  0.00    -0.200 F 
ATOM    101  F   UNL A   1      50.688  26.665  22.220  1.00  0.00    -0.200 F 
ENDBRANCH  68  91
ENDBRANCH  42  43
ENDBRANCH  35  37
ENDBRANCH  34  35
ENDBRANCH  33  34
ENDBRANCH  32  33
ENDBRANCH  31  32
ENDBRANCH  30  31
ENDBRANCH  29  30
ENDBRANCH  28  29
ENDBRANCH   1  28
TORSDOF 23
ENDMDL
