MODEL 1
REMARK VINA RESULT:     -10.7      0.000      0.000
REMARK SMILES C=CC[C@@]1(C(=O)OCCOCCOCCOCCOC(=O)c2ccc(-c3c4nc(c(-c5c(F)c(F)c(F)c(F)c5F)c5ccc([nH]5)c(-c5c(F)c(F)c(F)c(F)c5F)c5nc(c(-c6c(F)c(F)c(F)c(F)c6F)c6ccc3[nH]6)C=C5)C=C4)cc2)CCCN(c2nccc(N3CCC(O)CC3)n2)C1
REMARK SMILES IDX 12 1 11 2 10 3 9 4 8 5 7 6 5 7 6 8 4 9 85 10 102 11 86 12
REMARK SMILES IDX 88 13 87 14 3 15 2 16 1 17 89 18 90 19 101 20 91 21 93 22
REMARK SMILES IDX 92 23 94 24 95 25 100 26 96 27 99 28 97 29 98 30 13 32 14 33
REMARK SMILES IDX 15 34 16 35 17 36 18 37 19 38 20 39 21 40 22 41 23 42 84 43
REMARK SMILES IDX 24 44 83 45 25 46 26 47 27 48 77 49 28 50 82 51 76 52 78 53
REMARK SMILES IDX 29 54 81 55 75 56 74 57 30 59 62 60 42 61 61 62 43 63 46 64
REMARK SMILES IDX 60 65 79 66 44 67 45 68 59 70 80 71 47 72 31 73 32 74 40 75
REMARK SMILES IDX 33 76 34 77 38 78 41 79 35 80 36 81 39 82 37 83 63 84 64 85
REMARK SMILES IDX 72 86 65 87 66 88 70 89 73 90 67 91 68 92 71 93 69 94 48 95
REMARK SMILES IDX 49 96 57 97 50 98 51 99 55 100 58 101 52 102 53 103 56 104
REMARK SMILES IDX 54 105
REMARK H PARENT 98 31 78 58 46 69
REMARK Flexibility Score: inf
ROOT
ATOM      1  C   UNL A   1      40.361  20.914  26.589  1.00  0.00     0.188 C 
ENDROOT
BRANCH   1   2
ATOM      2  C   UNL A   1      39.057  21.511  26.073  1.00  0.00     0.188 C 
BRANCH   2   3
ATOM      3  O   UNL A   1      38.802  22.887  26.332  1.00  0.00    -0.376 OA
BRANCH   3   4
ATOM      4  C   UNL A   1      37.762  23.549  25.619  1.00  0.00     0.202 C 
BRANCH   4   5
ATOM      5  C   UNL A   1      36.303  23.423  26.095  1.00  0.00     0.261 C 
BRANCH   5   6
ATOM      6  O   UNL A   1      35.269  23.658  25.119  1.00  0.00    -0.463 OA
BRANCH   6   7
ATOM      7  C   UNL A   1      34.133  24.198  25.632  1.00  0.00     0.314 C 
ATOM      8  O   UNL A   1      33.788  24.033  26.800  1.00  0.00    -0.252 OA
BRANCH   7   9
ATOM      9  C   UNL A   1      33.289  24.988  24.622  1.00  0.00     0.089 C 
ATOM     10  C   UNL A   1      32.007  25.477  25.392  1.00  0.00     0.023 C 
ATOM     11  C   UNL A   1      32.858  24.037  23.506  1.00  0.00     0.138 C 
ATOM     12  C   UNL A   1      31.062  24.350  25.828  1.00  0.00     0.023 C 
ATOM     13  N   UNL A   1      31.971  23.018  24.038  1.00  0.00    -0.340 N 
ATOM     14  C   UNL A   1      30.732  23.411  24.670  1.00  0.00     0.120 C 
BRANCH   9  15
ATOM     15  C   UNL A   1      33.932  26.292  24.066  1.00  0.00     0.047 C 
BRANCH  15  16
ATOM     16  C   UNL A   1      33.378  27.683  24.193  1.00  0.00    -0.034 C 
ATOM     17  C   UNL A   1      33.575  28.754  23.418  1.00  0.00     0.004 C 
ENDBRANCH  15  16
ENDBRANCH   9  15
BRANCH  13  18
ATOM     18  C   UNL A   1      32.160  21.741  23.585  1.00  0.00     0.227 A 
ATOM     19  N   UNL A   1      31.669  21.452  22.368  1.00  0.00    -0.221 NA
ATOM     20  N   UNL A   1      32.777  20.850  24.370  1.00  0.00    -0.196 NA
ATOM     21  C   UNL A   1      31.857  20.208  21.913  1.00  0.00     0.119 A 
ATOM     22  C   UNL A   1      32.911  19.599  23.902  1.00  0.00     0.134 A 
ATOM     23  C   UNL A   1      32.481  19.236  22.643  1.00  0.00     0.067 A 
BRANCH  22  24
ATOM     24  N   UNL A   1      33.448  18.642  24.732  1.00  0.00    -0.356 N 
ATOM     25  C   UNL A   1      34.729  18.053  24.382  1.00  0.00     0.121 C 
ATOM     26  C   UNL A   1      32.665  18.112  25.831  1.00  0.00     0.121 C 
ATOM     27  C   UNL A   1      34.608  16.543  24.257  1.00  0.00     0.053 C 
ATOM     28  C   UNL A   1      32.522  16.604  25.668  1.00  0.00     0.053 C 
ATOM     29  C   UNL A   1      33.888  15.953  25.467  1.00  0.00     0.118 C 
BRANCH  29  30
ATOM     30  O   UNL A   1      33.731  14.547  25.295  1.00  0.00    -0.393 OA
ATOM     31  H   UNL A   1      32.795  14.312  25.394  1.00  0.00     0.210 HD
ENDBRANCH  29  30
ENDBRANCH  22  24
ENDBRANCH  13  18
ENDBRANCH   7   9
ENDBRANCH   6   7
ENDBRANCH   5   6
ENDBRANCH   4   5
ENDBRANCH   3   4
ENDBRANCH   2   3
ENDBRANCH   1   2
BRANCH   1  32
ATOM     32  O   UNL A   1      41.308  21.909  26.942  1.00  0.00    -0.377 OA
BRANCH  32  33
ATOM     33  C   UNL A   1      42.697  21.603  26.953  1.00  0.00     0.188 C 
BRANCH  33  34
ATOM     34  C   UNL A   1      43.250  20.736  25.820  1.00  0.00     0.188 C 
BRANCH  34  35
ATOM     35  O   UNL A   1      44.600  20.936  25.393  1.00  0.00    -0.376 OA
BRANCH  35  36
ATOM     36  C   UNL A   1      44.855  21.552  24.137  1.00  0.00     0.202 C 
BRANCH  36  37
ATOM     37  C   UNL A   1      45.249  23.031  24.163  1.00  0.00     0.261 C 
BRANCH  37  38
ATOM     38  O   UNL A   1      44.609  23.768  25.211  1.00  0.00    -0.460 OA
BRANCH  38  39
ATOM     39  C   UNL A   1      44.901  25.090  25.211  1.00  0.00     0.338 C 
ATOM     40  O   UNL A   1      45.712  25.675  24.520  1.00  0.00    -0.246 OA
BRANCH  39  41
ATOM     41  C   UNL A   1      43.967  25.790  26.111  1.00  0.00     0.060 A 
ATOM     42  C   UNL A   1      44.165  27.159  26.317  1.00  0.00     0.016 A 
ATOM     43  C   UNL A   1      42.975  25.096  26.808  1.00  0.00     0.016 A 
ATOM     44  C   UNL A   1      43.393  27.839  27.245  1.00  0.00     0.010 A 
ATOM     45  C   UNL A   1      42.221  25.771  27.769  1.00  0.00     0.010 A 
ATOM     46  C   UNL A   1      42.458  27.135  28.013  1.00  0.00    -0.014 A 
BRANCH  46  47
ATOM     47  C   UNL A   1      41.894  27.810  29.199  1.00  0.00     0.031 A 
ATOM     48  C   UNL A   1      42.640  27.715  30.499  1.00  0.00     0.074 A 
ATOM     49  C   UNL A   1      40.800  28.580  29.084  1.00  0.00     0.049 A 
ATOM     50  N   UNL A   1      42.378  28.277  31.651  1.00  0.00    -0.248 NA
ATOM     51  C   UNL A   1      43.852  26.879  30.498  1.00  0.00     0.031 C 
ATOM     52  C   UNL A   1      40.041  28.783  27.851  1.00  0.00     0.029 A 
ATOM     53  N   UNL A   1      40.149  29.345  30.015  1.00  0.00    -0.354 N 
ATOM     54  C   UNL A   1      43.390  27.866  32.507  1.00  0.00     0.074 A 
ATOM     55  C   UNL A   1      44.252  26.979  31.756  1.00  0.00     0.031 C 
ATOM     56  C   UNL A   1      39.023  29.623  28.103  1.00  0.00     0.029 A 
ATOM     57  C   UNL A   1      39.046  29.989  29.518  1.00  0.00     0.049 A 
ATOM     58  H   UNL A   1      40.445  29.424  30.950  1.00  0.00     0.167 HD
ATOM     59  C   UNL A   1      43.586  28.208  33.803  1.00  0.00     0.037 A 
ATOM     60  C   UNL A   1      38.150  30.774  30.147  1.00  0.00     0.037 A 
ATOM     61  C   UNL A   1      42.715  29.086  34.540  1.00  0.00     0.049 A 
ATOM     62  C   UNL A   1      38.351  31.076  31.609  1.00  0.00     0.074 A 
ATOM     63  C   UNL A   1      42.818  29.502  35.855  1.00  0.00     0.029 A 
ATOM     64  N   UNL A   1      41.568  29.674  34.024  1.00  0.00    -0.354 N 
ATOM     65  N   UNL A   1      39.318  30.700  32.411  1.00  0.00    -0.248 NA
ATOM     66  C   UNL A   1      37.337  31.923  32.250  1.00  0.00     0.031 C 
ATOM     67  C   UNL A   1      41.701  30.290  36.152  1.00  0.00     0.029 A 
ATOM     68  C   UNL A   1      40.937  30.423  35.003  1.00  0.00     0.049 A 
ATOM     69  H   UNL A   1      41.250  29.573  33.097  1.00  0.00     0.167 HD
ATOM     70  C   UNL A   1      39.045  31.283  33.642  1.00  0.00     0.074 A 
ATOM     71  C   UNL A   1      37.836  32.062  33.468  1.00  0.00     0.031 C 
ATOM     72  C   UNL A   1      39.726  31.183  34.812  1.00  0.00     0.037 A 
BRANCH  59  73
ATOM     73  C   UNL A   1      44.763  27.599  34.511  1.00  0.00     0.064 A 
ATOM     74  C   UNL A   1      44.692  26.340  35.126  1.00  0.00     0.173 A 
ATOM     75  C   UNL A   1      45.989  28.282  34.557  1.00  0.00     0.173 A 
ATOM     76  F   UNL A   1      43.539  25.653  35.128  1.00  0.00    -0.203 F 
ATOM     77  C   UNL A   1      45.796  25.799  35.782  1.00  0.00     0.198 A 
ATOM     78  C   UNL A   1      47.099  27.723  35.185  1.00  0.00     0.198 A 
ATOM     79  F   UNL A   1      46.112  29.490  33.987  1.00  0.00    -0.203 F 
ATOM     80  F   UNL A   1      45.690  24.618  36.407  1.00  0.00    -0.200 F 
ATOM     81  C   UNL A   1      47.000  26.486  35.804  1.00  0.00     0.200 A 
ATOM     82  F   UNL A   1      48.264  28.385  35.193  1.00  0.00    -0.200 F 
ATOM     83  F   UNL A   1      48.063  25.961  36.428  1.00  0.00    -0.200 F 
ENDBRANCH  59  73
BRANCH  60  84
ATOM     84  C   UNL A   1      36.984  31.317  29.402  1.00  0.00     0.064 A 
ATOM     85  C   UNL A   1      35.910  30.498  29.031  1.00  0.00     0.173 A 
ATOM     86  C   UNL A   1      36.932  32.669  29.028  1.00  0.00     0.173 A 
ATOM     87  F   UNL A   1      35.921  29.195  29.347  1.00  0.00    -0.203 F 
ATOM     88  C   UNL A   1      34.840  31.003  28.294  1.00  0.00     0.198 A 
ATOM     89  C   UNL A   1      35.846  33.180  28.322  1.00  0.00     0.198 A 
ATOM     90  F   UNL A   1      37.934  33.498  29.358  1.00  0.00    -0.203 F 
ATOM     91  F   UNL A   1      33.852  30.186  27.906  1.00  0.00    -0.200 F 
ATOM     92  C   UNL A   1      34.807  32.345  27.944  1.00  0.00     0.200 A 
ATOM     93  F   UNL A   1      35.809  34.483  28.006  1.00  0.00    -0.200 F 
ATOM     94  F   UNL A   1      33.776  32.832  27.241  1.00  0.00    -0.200 F 
ENDBRANCH  60  84
BRANCH  72  95
ATOM     95  C   UNL A   1      39.186  31.960  35.981  1.00  0.00     0.064 A 
ATOM     96  C   UNL A   1      38.272  31.396  36.884  1.00  0.00     0.173 A 
ATOM     97  C   UNL A   1      39.586  33.288  36.198  1.00  0.00     0.173 A 
ATOM     98  F   UNL A   1      37.848  30.134  36.717  1.00  0.00    -0.203 F 
ATOM     99  C   UNL A   1      37.737  32.150  37.927  1.00  0.00     0.198 A 
ATOM    100  C   UNL A   1      39.081  34.024  37.266  1.00  0.00     0.198 A 
ATOM    101  F   UNL A   1      40.469  33.873  35.374  1.00  0.00    -0.203 F 
ATOM    102  F   UNL A   1      36.805  31.614  38.727  1.00  0.00    -0.200 F 
ATOM    103  C   UNL A   1      38.146  33.460  38.120  1.00  0.00     0.200 A 
ATOM    104  F   UNL A   1      39.493  35.284  37.463  1.00  0.00    -0.200 F 
ATOM    105  F   UNL A   1      37.627  34.186  39.120  1.00  0.00    -0.200 F 
ENDBRANCH  72  95
ENDBRANCH  46  47
ENDBRANCH  39  41
ENDBRANCH  38  39
ENDBRANCH  37  38
ENDBRANCH  36  37
ENDBRANCH  35  36
ENDBRANCH  34  35
ENDBRANCH  33  34
ENDBRANCH  32  33
ENDBRANCH   1  32
TORSDOF 25
ENDMDL
MODEL 2
REMARK VINA RESULT:     -10.2      1.980      4.901
REMARK SMILES C=CC[C@@]1(C(=O)OCCOCCOCCOCCOC(=O)c2ccc(-c3c4nc(c(-c5c(F)c(F)c(F)c(F)c5F)c5ccc([nH]5)c(-c5c(F)c(F)c(F)c(F)c5F)c5nc(c(-c6c(F)c(F)c(F)c(F)c6F)c6ccc3[nH]6)C=C5)C=C4)cc2)CCCN(c2nccc(N3CCC(O)CC3)n2)C1
REMARK SMILES IDX 12 1 11 2 10 3 9 4 8 5 7 6 5 7 6 8 4 9 85 10 102 11 86 12
REMARK SMILES IDX 88 13 87 14 3 15 2 16 1 17 89 18 90 19 101 20 91 21 93 22
REMARK SMILES IDX 92 23 94 24 95 25 100 26 96 27 99 28 97 29 98 30 13 32 14 33
REMARK SMILES IDX 15 34 16 35 17 36 18 37 19 38 20 39 21 40 22 41 23 42 84 43
REMARK SMILES IDX 24 44 83 45 25 46 26 47 27 48 77 49 28 50 82 51 76 52 78 53
REMARK SMILES IDX 29 54 81 55 75 56 74 57 30 59 62 60 42 61 61 62 43 63 46 64
REMARK SMILES IDX 60 65 79 66 44 67 45 68 59 70 80 71 47 72 31 73 32 74 40 75
REMARK SMILES IDX 33 76 34 77 38 78 41 79 35 80 36 81 39 82 37 83 63 84 64 85
REMARK SMILES IDX 72 86 65 87 66 88 70 89 73 90 67 91 68 92 71 93 69 94 48 95
REMARK SMILES IDX 49 96 57 97 50 98 51 99 55 100 58 101 52 102 53 103 56 104
REMARK SMILES IDX 54 105
REMARK H PARENT 98 31 78 58 46 69
REMARK Flexibility Score: inf
ROOT
ATOM      1  C   UNL A   1      38.844  20.657  25.333  1.00  0.00     0.188 C 
ENDROOT
BRANCH   1   2
ATOM      2  C   UNL A   1      37.432  21.176  25.089  1.00  0.00     0.188 C 
BRANCH   2   3
ATOM      3  O   UNL A   1      36.846  22.014  26.079  1.00  0.00    -0.376 OA
BRANCH   3   4
ATOM      4  C   UNL A   1      36.648  23.395  25.795  1.00  0.00     0.202 C 
BRANCH   4   5
ATOM      5  C   UNL A   1      35.268  24.038  26.032  1.00  0.00     0.261 C 
BRANCH   5   6
ATOM      6  O   UNL A   1      34.506  24.408  24.867  1.00  0.00    -0.463 OA
BRANCH   6   7
ATOM      7  C   UNL A   1      34.130  23.358  24.091  1.00  0.00     0.314 C 
ATOM      8  O   UNL A   1      34.724  23.047  23.060  1.00  0.00    -0.252 OA
BRANCH   7   9
ATOM      9  C   UNL A   1      32.874  22.621  24.577  1.00  0.00     0.089 C 
ATOM     10  C   UNL A   1      32.141  22.086  23.292  1.00  0.00     0.023 C 
ATOM     11  C   UNL A   1      31.965  23.630  25.277  1.00  0.00     0.138 C 
ATOM     12  C   UNL A   1      31.570  23.185  22.386  1.00  0.00     0.023 C 
ATOM     13  N   UNL A   1      31.490  24.616  24.323  1.00  0.00    -0.340 N 
ATOM     14  C   UNL A   1      30.725  24.185  23.173  1.00  0.00     0.120 C 
BRANCH   9  15
ATOM     15  C   UNL A   1      33.119  21.352  25.444  1.00  0.00     0.047 C 
BRANCH  15  16
ATOM     16  C   UNL A   1      32.709  19.947  25.103  1.00  0.00    -0.034 C 
ATOM     17  C   UNL A   1      33.404  18.809  25.198  1.00  0.00     0.004 C 
ENDBRANCH  15  16
ENDBRANCH   9  15
BRANCH  13  18
ATOM     18  C   UNL A   1      31.456  25.917  24.746  1.00  0.00     0.227 A 
ATOM     19  N   UNL A   1      31.924  26.163  25.981  1.00  0.00    -0.221 NA
ATOM     20  N   UNL A   1      30.939  26.855  23.944  1.00  0.00    -0.196 NA
ATOM     21  C   UNL A   1      31.905  27.433  26.399  1.00  0.00     0.119 A 
ATOM     22  C   UNL A   1      30.893  28.113  24.411  1.00  0.00     0.134 A 
ATOM     23  C   UNL A   1      31.400  28.456  25.646  1.00  0.00     0.067 A 
BRANCH  22  24
ATOM     24  N   UNL A   1      30.271  29.074  23.647  1.00  0.00    -0.356 N 
ATOM     25  C   UNL A   1      30.509  30.473  23.956  1.00  0.00     0.121 C 
ATOM     26  C   UNL A   1      29.267  28.690  22.676  1.00  0.00     0.121 C 
ATOM     27  C   UNL A   1      29.199  31.186  24.250  1.00  0.00     0.053 C 
ATOM     28  C   UNL A   1      27.952  29.384  23.008  1.00  0.00     0.053 C 
ATOM     29  C   UNL A   1      28.163  30.888  23.169  1.00  0.00     0.118 C 
BRANCH  29  30
ATOM     30  O   UNL A   1      26.927  31.515  23.501  1.00  0.00    -0.393 OA
ATOM     31  H   UNL A   1      26.672  32.123  22.790  1.00  0.00     0.210 HD
ENDBRANCH  29  30
ENDBRANCH  22  24
ENDBRANCH  13  18
ENDBRANCH   7   9
ENDBRANCH   6   7
ENDBRANCH   5   6
ENDBRANCH   4   5
ENDBRANCH   3   4
ENDBRANCH   2   3
ENDBRANCH   1   2
BRANCH   1  32
ATOM     32  O   UNL A   1      39.580  21.489  26.213  1.00  0.00    -0.377 OA
BRANCH  32  33
ATOM     33  C   UNL A   1      40.753  20.996  26.851  1.00  0.00     0.188 C 
BRANCH  33  34
ATOM     34  C   UNL A   1      41.735  20.175  26.012  1.00  0.00     0.188 C 
BRANCH  34  35
ATOM     35  O   UNL A   1      43.113  20.147  26.392  1.00  0.00    -0.376 OA
BRANCH  35  36
ATOM     36  C   UNL A   1      44.119  20.228  25.390  1.00  0.00     0.202 C 
BRANCH  36  37
ATOM     37  C   UNL A   1      44.807  21.583  25.213  1.00  0.00     0.261 C 
BRANCH  37  38
ATOM     38  O   UNL A   1      44.202  22.629  25.984  1.00  0.00    -0.460 OA
BRANCH  38  39
ATOM     39  C   UNL A   1      44.173  23.828  25.356  1.00  0.00     0.338 C 
ATOM     40  O   UNL A   1      44.599  24.102  24.251  1.00  0.00    -0.246 OA
BRANCH  39  41
ATOM     41  C   UNL A   1      43.400  24.780  26.171  1.00  0.00     0.060 A 
ATOM     42  C   UNL A   1      44.028  25.971  26.551  1.00  0.00     0.016 A 
ATOM     43  C   UNL A   1      42.118  24.468  26.631  1.00  0.00     0.016 A 
ATOM     44  C   UNL A   1      43.390  26.845  27.418  1.00  0.00     0.010 A 
ATOM     45  C   UNL A   1      41.489  25.329  27.531  1.00  0.00     0.010 A 
ATOM     46  C   UNL A   1      42.144  26.500  27.953  1.00  0.00    -0.014 A 
BRANCH  46  47
ATOM     47  C   UNL A   1      41.649  27.281  29.104  1.00  0.00     0.031 A 
ATOM     48  C   UNL A   1      42.421  27.226  30.392  1.00  0.00     0.074 A 
ATOM     49  C   UNL A   1      40.599  28.104  28.962  1.00  0.00     0.049 A 
ATOM     50  N   UNL A   1      42.220  27.875  31.509  1.00  0.00    -0.248 NA
ATOM     51  C   UNL A   1      43.583  26.322  30.420  1.00  0.00     0.031 C 
ATOM     52  C   UNL A   1      39.822  28.272  27.735  1.00  0.00     0.029 A 
ATOM     53  N   UNL A   1      40.016  28.964  29.855  1.00  0.00    -0.354 N 
ATOM     54  C   UNL A   1      43.228  27.461  32.369  1.00  0.00     0.074 A 
ATOM     55  C   UNL A   1      44.019  26.479  31.660  1.00  0.00     0.031 C 
ATOM     56  C   UNL A   1      38.860  29.185  27.953  1.00  0.00     0.029 A 
ATOM     57  C   UNL A   1      38.939  29.638  29.340  1.00  0.00     0.049 A 
ATOM     58  H   UNL A   1      40.340  29.086  30.776  1.00  0.00     0.167 HD
ATOM     59  C   UNL A   1      43.476  27.873  33.635  1.00  0.00     0.037 A 
ATOM     60  C   UNL A   1      38.106  30.513  29.935  1.00  0.00     0.037 A 
ATOM     61  C   UNL A   1      42.675  28.846  34.332  1.00  0.00     0.049 A 
ATOM     62  C   UNL A   1      38.360  30.896  31.369  1.00  0.00     0.074 A 
ATOM     63  C   UNL A   1      42.835  29.339  35.614  1.00  0.00     0.029 A 
ATOM     64  N   UNL A   1      41.551  29.466  33.803  1.00  0.00    -0.354 N 
ATOM     65  N   UNL A   1      39.323  30.516  32.175  1.00  0.00    -0.248 NA
ATOM     66  C   UNL A   1      37.412  31.840  31.975  1.00  0.00     0.031 C 
ATOM     67  C   UNL A   1      41.772  30.208  35.883  1.00  0.00     0.029 A 
ATOM     68  C   UNL A   1      40.988  30.312  34.744  1.00  0.00     0.049 A 
ATOM     69  H   UNL A   1      41.205  29.325  32.892  1.00  0.00     0.167 HD
ATOM     70  C   UNL A   1      39.115  31.192  33.370  1.00  0.00     0.074 A 
ATOM     71  C   UNL A   1      37.949  32.028  33.171  1.00  0.00     0.031 C 
ATOM     72  C   UNL A   1      39.818  31.128  34.529  1.00  0.00     0.037 A 
BRANCH  59  73
ATOM     73  C   UNL A   1      44.634  27.244  34.357  1.00  0.00     0.064 A 
ATOM     74  C   UNL A   1      45.947  27.719  34.216  1.00  0.00     0.173 A 
ATOM     75  C   UNL A   1      44.420  26.158  35.221  1.00  0.00     0.173 A 
ATOM     76  F   UNL A   1      46.209  28.743  33.388  1.00  0.00    -0.203 F 
ATOM     77  C   UNL A   1      47.005  27.115  34.892  1.00  0.00     0.198 A 
ATOM     78  C   UNL A   1      45.475  25.579  35.920  1.00  0.00     0.198 A 
ATOM     79  F   UNL A   1      43.186  25.662  35.391  1.00  0.00    -0.203 F 
ATOM     80  F   UNL A   1      48.257  27.553  34.701  1.00  0.00    -0.200 F 
ATOM     81  C   UNL A   1      46.768  26.052  35.749  1.00  0.00     0.200 A 
ATOM     82  F   UNL A   1      45.241  24.558  36.757  1.00  0.00    -0.200 F 
ATOM     83  F   UNL A   1      47.785  25.477  36.405  1.00  0.00    -0.200 F 
ENDBRANCH  59  73
BRANCH  60  84
ATOM     84  C   UNL A   1      36.954  31.075  29.181  1.00  0.00     0.064 A 
ATOM     85  C   UNL A   1      36.941  32.410  28.757  1.00  0.00     0.173 A 
ATOM     86  C   UNL A   1      35.830  30.287  28.887  1.00  0.00     0.173 A 
ATOM     87  F   UNL A   1      37.983  33.209  29.031  1.00  0.00    -0.203 F 
ATOM     88  C   UNL A   1      35.841  32.944  28.091  1.00  0.00     0.198 A 
ATOM     89  C   UNL A   1      34.745  30.812  28.190  1.00  0.00     0.198 A 
ATOM     90  F   UNL A   1      35.790  29.002  29.269  1.00  0.00    -0.203 F 
ATOM     91  F   UNL A   1      35.832  34.237  27.744  1.00  0.00    -0.200 F 
ATOM     92  C   UNL A   1      34.745  32.143  27.803  1.00  0.00     0.200 A 
ATOM     93  F   UNL A   1      33.698  30.027  27.896  1.00  0.00    -0.200 F 
ATOM     94  F   UNL A   1      33.689  32.654  27.156  1.00  0.00    -0.200 F 
ENDBRANCH  60  84
BRANCH  72  95
ATOM     95  C   UNL A   1      39.353  32.008  35.656  1.00  0.00     0.064 A 
ATOM     96  C   UNL A   1      39.788  33.337  35.784  1.00  0.00     0.173 A 
ATOM     97  C   UNL A   1      38.465  31.514  36.625  1.00  0.00     0.173 A 
ATOM     98  F   UNL A   1      40.645  33.856  34.893  1.00  0.00    -0.203 F 
ATOM     99  C   UNL A   1      39.393  34.118  36.868  1.00  0.00     0.198 A 
ATOM    100  C   UNL A   1      38.041  32.312  37.684  1.00  0.00     0.198 A 
ATOM    101  F   UNL A   1      38.007  30.255  36.545  1.00  0.00    -0.203 F 
ATOM    102  F   UNL A   1      39.886  35.356  37.011  1.00  0.00    -0.200 F 
ATOM    103  C   UNL A   1      38.517  33.607  37.813  1.00  0.00     0.200 A 
ATOM    104  F   UNL A   1      37.178  31.823  38.584  1.00  0.00    -0.200 F 
ATOM    105  F   UNL A   1      38.143  34.358  38.858  1.00  0.00    -0.200 F 
ENDBRANCH  72  95
ENDBRANCH  46  47
ENDBRANCH  39  41
ENDBRANCH  38  39
ENDBRANCH  37  38
ENDBRANCH  36  37
ENDBRANCH  35  36
ENDBRANCH  34  35
ENDBRANCH  33  34
ENDBRANCH  32  33
ENDBRANCH   1  32
TORSDOF 25
ENDMDL
MODEL 3
REMARK VINA RESULT:     -10.1      1.169      2.314
REMARK SMILES C=CC[C@@]1(C(=O)OCCOCCOCCOCCOC(=O)c2ccc(-c3c4nc(c(-c5c(F)c(F)c(F)c(F)c5F)c5ccc([nH]5)c(-c5c(F)c(F)c(F)c(F)c5F)c5nc(c(-c6c(F)c(F)c(F)c(F)c6F)c6ccc3[nH]6)C=C5)C=C4)cc2)CCCN(c2nccc(N3CCC(O)CC3)n2)C1
REMARK SMILES IDX 12 1 11 2 10 3 9 4 8 5 7 6 5 7 6 8 4 9 85 10 102 11 86 12
REMARK SMILES IDX 88 13 87 14 3 15 2 16 1 17 89 18 90 19 101 20 91 21 93 22
REMARK SMILES IDX 92 23 94 24 95 25 100 26 96 27 99 28 97 29 98 30 13 32 14 33
REMARK SMILES IDX 15 34 16 35 17 36 18 37 19 38 20 39 21 40 22 41 23 42 84 43
REMARK SMILES IDX 24 44 83 45 25 46 26 47 27 48 77 49 28 50 82 51 76 52 78 53
REMARK SMILES IDX 29 54 81 55 75 56 74 57 30 59 62 60 42 61 61 62 43 63 46 64
REMARK SMILES IDX 60 65 79 66 44 67 45 68 59 70 80 71 47 72 31 73 32 74 40 75
REMARK SMILES IDX 33 76 34 77 38 78 41 79 35 80 36 81 39 82 37 83 63 84 64 85
REMARK SMILES IDX 72 86 65 87 66 88 70 89 73 90 67 91 68 92 71 93 69 94 48 95
REMARK SMILES IDX 49 96 57 97 50 98 51 99 55 100 58 101 52 102 53 103 56 104
REMARK SMILES IDX 54 105
REMARK H PARENT 98 31 78 58 46 69
REMARK Flexibility Score: inf
ROOT
ATOM      1  C   UNL A   1      38.342  20.072  25.367  1.00  0.00     0.188 C 
ENDROOT
BRANCH   1   2
ATOM      2  C   UNL A   1      36.966  20.581  24.954  1.00  0.00     0.188 C 
BRANCH   2   3
ATOM      3  O   UNL A   1      36.886  21.848  24.309  1.00  0.00    -0.376 OA
BRANCH   3   4
ATOM      4  C   UNL A   1      35.611  22.449  24.109  1.00  0.00     0.202 C 
BRANCH   4   5
ATOM      5  C   UNL A   1      35.515  23.863  23.505  1.00  0.00     0.261 C 
BRANCH   5   6
ATOM      6  O   UNL A   1      34.200  24.439  23.386  1.00  0.00    -0.463 OA
BRANCH   6   7
ATOM      7  C   UNL A   1      33.760  25.061  24.510  1.00  0.00     0.314 C 
ATOM      8  O   UNL A   1      34.511  25.373  25.433  1.00  0.00    -0.252 OA
BRANCH   7   9
ATOM      9  C   UNL A   1      32.244  25.296  24.561  1.00  0.00     0.089 C 
ATOM     10  C   UNL A   1      31.853  25.387  26.082  1.00  0.00     0.023 C 
ATOM     11  C   UNL A   1      31.548  24.081  23.947  1.00  0.00     0.138 C 
ATOM     12  C   UNL A   1      32.027  24.077  26.860  1.00  0.00     0.023 C 
ATOM     13  N   UNL A   1      31.785  22.907  24.768  1.00  0.00    -0.340 N 
ATOM     14  C   UNL A   1      31.356  22.904  26.148  1.00  0.00     0.120 C 
BRANCH   9  15
ATOM     15  C   UNL A   1      31.740  26.633  23.946  1.00  0.00     0.047 C 
BRANCH  15  16
ATOM     16  C   UNL A   1      32.578  27.841  23.632  1.00  0.00    -0.034 C 
ATOM     17  C   UNL A   1      33.054  28.785  24.451  1.00  0.00     0.004 C 
ENDBRANCH  15  16
ENDBRANCH   9  15
BRANCH  13  18
ATOM     18  C   UNL A   1      32.051  21.738  24.108  1.00  0.00     0.227 A 
ATOM     19  N   UNL A   1      31.696  21.680  22.813  1.00  0.00    -0.221 NA
ATOM     20  N   UNL A   1      32.605  20.719  24.774  1.00  0.00    -0.196 NA
ATOM     21  C   UNL A   1      31.962  20.545  22.157  1.00  0.00     0.119 A 
ATOM     22  C   UNL A   1      32.818  19.579  24.099  1.00  0.00     0.134 A 
ATOM     23  C   UNL A   1      32.530  19.456  22.756  1.00  0.00     0.067 A 
BRANCH  22  24
ATOM     24  N   UNL A   1      33.289  18.485  24.789  1.00  0.00    -0.356 N 
ATOM     25  C   UNL A   1      34.384  17.719  24.219  1.00  0.00     0.121 C 
ATOM     26  C   UNL A   1      32.588  18.013  25.966  1.00  0.00     0.121 C 
ATOM     27  C   UNL A   1      33.982  16.264  24.039  1.00  0.00     0.053 C 
ATOM     28  C   UNL A   1      32.160  16.567  25.752  1.00  0.00     0.053 C 
ATOM     29  C   UNL A   1      33.347  15.713  25.314  1.00  0.00     0.118 C 
BRANCH  29  30
ATOM     30  O   UNL A   1      32.922  14.370  25.097  1.00  0.00    -0.393 OA
ATOM     31  H   UNL A   1      31.957  14.350  24.996  1.00  0.00     0.210 HD
ENDBRANCH  29  30
ENDBRANCH  22  24
ENDBRANCH  13  18
ENDBRANCH   7   9
ENDBRANCH   6   7
ENDBRANCH   5   6
ENDBRANCH   4   5
ENDBRANCH   3   4
ENDBRANCH   2   3
ENDBRANCH   1   2
BRANCH   1  32
ATOM     32  O   UNL A   1      39.224  21.126  25.716  1.00  0.00    -0.377 OA
BRANCH  32  33
ATOM     33  C   UNL A   1      40.343  20.873  26.558  1.00  0.00     0.188 C 
BRANCH  33  34
ATOM     34  C   UNL A   1      41.334  19.789  26.128  1.00  0.00     0.188 C 
BRANCH  34  35
ATOM     35  O   UNL A   1      42.721  19.960  26.433  1.00  0.00    -0.376 OA
BRANCH  35  36
ATOM     36  C   UNL A   1      43.657  20.122  25.375  1.00  0.00     0.202 C 
BRANCH  36  37
ATOM     37  C   UNL A   1      44.086  21.554  25.049  1.00  0.00     0.261 C 
BRANCH  37  38
ATOM     38  O   UNL A   1      43.880  22.467  26.134  1.00  0.00    -0.460 OA
BRANCH  38  39
ATOM     39  C   UNL A   1      43.811  23.765  25.755  1.00  0.00     0.338 C 
ATOM     40  O   UNL A   1      43.762  24.210  24.625  1.00  0.00    -0.246 OA
BRANCH  39  41
ATOM     41  C   UNL A   1      43.663  24.609  26.952  1.00  0.00     0.060 A 
ATOM     42  C   UNL A   1      42.998  24.064  28.056  1.00  0.00     0.016 A 
ATOM     43  C   UNL A   1      44.088  25.940  26.958  1.00  0.00     0.016 A 
ATOM     44  C   UNL A   1      42.725  24.854  29.161  1.00  0.00     0.010 A 
ATOM     45  C   UNL A   1      43.783  26.747  28.055  1.00  0.00     0.010 A 
ATOM     46  C   UNL A   1      43.067  26.211  29.140  1.00  0.00    -0.014 A 
BRANCH  46  47
ATOM     47  C   UNL A   1      42.480  27.084  30.177  1.00  0.00     0.031 A 
ATOM     48  C   UNL A   1      43.174  27.184  31.505  1.00  0.00     0.074 A 
ATOM     49  C   UNL A   1      41.416  27.851  29.893  1.00  0.00     0.049 A 
ATOM     50  N   UNL A   1      42.888  27.932  32.538  1.00  0.00    -0.248 NA
ATOM     51  C   UNL A   1      44.359  26.330  31.690  1.00  0.00     0.031 C 
ATOM     52  C   UNL A   1      40.709  27.869  28.613  1.00  0.00     0.029 A 
ATOM     53  N   UNL A   1      40.755  28.774  30.660  1.00  0.00    -0.354 N 
ATOM     54  C   UNL A   1      43.855  27.642  33.491  1.00  0.00     0.074 A 
ATOM     55  C   UNL A   1      44.715  26.624  32.930  1.00  0.00     0.031 C 
ATOM     56  C   UNL A   1      39.709  28.764  28.683  1.00  0.00     0.029 A 
ATOM     57  C   UNL A   1      39.691  29.355  30.020  1.00  0.00     0.049 A 
ATOM     58  H   UNL A   1      41.019  28.997  31.581  1.00  0.00     0.167 HD
ATOM     59  C   UNL A   1      44.013  28.186  34.721  1.00  0.00     0.037 A 
ATOM     60  C   UNL A   1      38.798  30.253  30.476  1.00  0.00     0.037 A 
ATOM     61  C   UNL A   1      43.143  29.193  35.270  1.00  0.00     0.049 A 
ATOM     62  C   UNL A   1      38.954  30.785  31.876  1.00  0.00     0.074 A 
ATOM     63  C   UNL A   1      43.210  29.816  36.503  1.00  0.00     0.029 A 
ATOM     64  N   UNL A   1      42.035  29.717  34.618  1.00  0.00    -0.354 N 
ATOM     65  N   UNL A   1      39.878  30.521  32.769  1.00  0.00    -0.248 NA
ATOM     66  C   UNL A   1      37.944  31.749  32.329  1.00  0.00     0.031 C 
ATOM     67  C   UNL A   1      42.108  30.668  36.622  1.00  0.00     0.029 A 
ATOM     68  C   UNL A   1      41.391  30.632  35.436  1.00  0.00     0.049 A 
ATOM     69  H   UNL A   1      41.748  29.474  33.708  1.00  0.00     0.167 HD
ATOM     70  C   UNL A   1      39.578  31.304  33.876  1.00  0.00     0.074 A 
ATOM     71  C   UNL A   1      38.401  32.074  33.529  1.00  0.00     0.031 C 
ATOM     72  C   UNL A   1      40.212  31.379  35.074  1.00  0.00     0.037 A 
BRANCH  59  73
ATOM     73  C   UNL A   1      45.144  27.672  35.567  1.00  0.00     0.064 A 
ATOM     74  C   UNL A   1      46.425  28.244  35.524  1.00  0.00     0.173 A 
ATOM     75  C   UNL A   1      44.933  26.603  36.451  1.00  0.00     0.173 A 
ATOM     76  F   UNL A   1      46.685  29.256  34.682  1.00  0.00    -0.203 F 
ATOM     77  C   UNL A   1      47.459  27.746  36.315  1.00  0.00     0.198 A 
ATOM     78  C   UNL A   1      45.961  26.131  37.264  1.00  0.00     0.198 A 
ATOM     79  F   UNL A   1      43.729  26.018  36.532  1.00  0.00    -0.203 F 
ATOM     80  F   UNL A   1      48.687  28.274  36.218  1.00  0.00    -0.200 F 
ATOM     81  C   UNL A   1      47.224  26.697  37.189  1.00  0.00     0.200 A 
ATOM     82  F   UNL A   1      45.728  25.124  38.117  1.00  0.00    -0.200 F 
ATOM     83  F   UNL A   1      48.218  26.225  37.955  1.00  0.00    -0.200 F 
ENDBRANCH  59  73
BRANCH  60  84
ATOM     84  C   UNL A   1      37.677  30.696  29.605  1.00  0.00     0.064 A 
ATOM     85  C   UNL A   1      37.633  31.993  29.077  1.00  0.00     0.173 A 
ATOM     86  C   UNL A   1      36.614  29.832  29.300  1.00  0.00     0.173 A 
ATOM     87  F   UNL A   1      38.615  32.863  29.354  1.00  0.00    -0.203 F 
ATOM     88  C   UNL A   1      36.558  32.417  28.298  1.00  0.00     0.198 A 
ATOM     89  C   UNL A   1      35.558  30.246  28.493  1.00  0.00     0.198 A 
ATOM     90  F   UNL A   1      36.606  28.579  29.779  1.00  0.00    -0.203 F 
ATOM     91  F   UNL A   1      36.514  33.679  27.851  1.00  0.00    -0.200 F 
ATOM     92  C   UNL A   1      35.523  31.541  28.003  1.00  0.00     0.200 A 
ATOM     93  F   UNL A   1      34.572  29.388  28.193  1.00  0.00    -0.200 F 
ATOM     94  F   UNL A   1      34.493  31.947  27.249  1.00  0.00    -0.200 F 
ENDBRANCH  60  84
BRANCH  72  95
ATOM     95  C   UNL A   1      39.654  32.349  36.079  1.00  0.00     0.064 A 
ATOM     96  C   UNL A   1      40.169  33.647  36.218  1.00  0.00     0.173 A 
ATOM     97  C   UNL A   1      38.593  31.973  36.917  1.00  0.00     0.173 A 
ATOM     98  F   UNL A   1      41.190  34.055  35.450  1.00  0.00    -0.203 F 
ATOM     99  C   UNL A   1      39.680  34.512  37.195  1.00  0.00     0.198 A 
ATOM    100  C   UNL A   1      38.079  32.855  37.864  1.00  0.00     0.198 A 
ATOM    101  F   UNL A   1      38.053  30.749  36.819  1.00  0.00    -0.203 F 
ATOM    102  F   UNL A   1      40.243  35.716  37.362  1.00  0.00    -0.200 F 
ATOM    103  C   UNL A   1      38.633  34.117  38.013  1.00  0.00     0.200 A 
ATOM    104  F   UNL A   1      37.053  32.478  38.639  1.00  0.00    -0.200 F 
ATOM    105  F   UNL A   1      38.166  34.947  38.956  1.00  0.00    -0.200 F 
ENDBRANCH  72  95
ENDBRANCH  46  47
ENDBRANCH  39  41
ENDBRANCH  38  39
ENDBRANCH  37  38
ENDBRANCH  36  37
ENDBRANCH  35  36
ENDBRANCH  34  35
ENDBRANCH  33  34
ENDBRANCH  32  33
ENDBRANCH   1  32
TORSDOF 25
ENDMDL
