MODEL 1
REMARK VINA RESULT:     -10.3      0.000      0.000
REMARK SMILES CC[C@H]1CC[C@](O)([C@H](F)C(=O)OCCOCCOCCOCCOC(=O)c2ccc(-c3c4nc(c(-c5c(F)c(F)c(F)c(F)c5F)c5ccc([nH]5)c(-c5c(F)c(F)c(F)c(F)c5F)c5nc(c(-c6c(F)c(F)c(F)c(F)c6F)c6ccc3[nH]6)C=C5)C=C4)cc2)CC1
REMARK SMILES IDX 18 1 17 2 16 3 15 4 14 5 13 6 12 7 10 8 11 9 8 10 9 11 6 12
REMARK SMILES IDX 3 13 4 14 91 15 5 16 90 17 2 18 1 19 7 20 19 22 20 23 21 24
REMARK SMILES IDX 22 25 23 26 24 27 25 28 26 29 27 30 28 31 89 32 29 33 88 34
REMARK SMILES IDX 30 35 31 36 32 37 82 38 33 39 87 40 81 41 83 42 34 43 86 44
REMARK SMILES IDX 80 45 79 46 35 48 67 49 47 50 66 51 48 52 51 53 65 54 84 55
REMARK SMILES IDX 49 56 50 57 64 59 85 60 52 61 36 62 37 63 45 64 38 65 39 66
REMARK SMILES IDX 43 67 46 68 40 69 41 70 44 71 42 72 68 73 69 74 77 75 70 76
REMARK SMILES IDX 71 77 75 78 78 79 72 80 73 81 76 82 74 83 53 84 54 85 62 86
REMARK SMILES IDX 55 87 56 88 60 89 63 90 57 91 58 92 61 93 59 94
REMARK H PARENT 7 21 83 47 51 58
REMARK Flexibility Score: inf
ROOT
ATOM      1  O   UNL A   1      39.087  22.855  26.862  1.00  0.00    -0.377 OA
ENDROOT
BRANCH   1   2
ATOM      2  C   UNL A   1      38.156  23.619  26.116  1.00  0.00     0.188 C 
BRANCH   2   3
ATOM      3  C   UNL A   1      37.063  22.778  25.413  1.00  0.00     0.188 C 
BRANCH   3   4
ATOM      4  O   UNL A   1      36.264  21.838  26.136  1.00  0.00    -0.376 OA
BRANCH   4   5
ATOM      5  C   UNL A   1      34.844  21.883  26.089  1.00  0.00     0.202 C 
BRANCH   5   6
ATOM      6  C   UNL A   1      34.127  23.140  25.601  1.00  0.00     0.261 C 
BRANCH   6   7
ATOM      7  O   UNL A   1      33.448  23.830  26.645  1.00  0.00    -0.461 OA
BRANCH   7   8
ATOM      8  C   UNL A   1      32.090  23.800  26.683  1.00  0.00     0.343 C 
ATOM      9  O   UNL A   1      31.430  23.300  27.583  1.00  0.00    -0.249 OA
BRANCH   8  10
ATOM     10  C   UNL A   1      31.527  24.427  25.407  1.00  0.00     0.307 C 
ATOM     11  F   UNL A   1      30.684  23.586  24.741  1.00  0.00    -0.232 F 
BRANCH  10  12
ATOM     12  C   UNL A   1      30.782  25.751  25.695  1.00  0.00     0.107 C 
ATOM     13  C   UNL A   1      31.852  28.069  23.973  1.00  0.00    -0.011 C 
ATOM     14  C   UNL A   1      31.071  26.871  23.439  1.00  0.00     0.006 C 
ATOM     15  C   UNL A   1      32.529  27.688  25.307  1.00  0.00     0.006 C 
ATOM     16  C   UNL A   1      30.074  26.340  24.469  1.00  0.00     0.039 C 
ATOM     17  C   UNL A   1      31.706  26.842  26.300  1.00  0.00     0.039 C 
BRANCH  13  18
ATOM     18  C   UNL A   1      30.970  29.330  24.024  1.00  0.00    -0.000 C 
ATOM     19  C   UNL A   1      31.248  30.172  25.274  1.00  0.00     0.004 C 
ENDBRANCH  13  18
BRANCH  12  20
ATOM     20  O   UNL A   1      29.790  25.434  26.691  1.00  0.00    -0.386 OA
ATOM     21  H   UNL A   1      29.507  24.513  26.584  1.00  0.00     0.211 HD
ENDBRANCH  12  20
ENDBRANCH  10  12
ENDBRANCH   8  10
ENDBRANCH   7   8
ENDBRANCH   6   7
ENDBRANCH   5   6
ENDBRANCH   4   5
ENDBRANCH   3   4
ENDBRANCH   2   3
ENDBRANCH   1   2
BRANCH   1  22
ATOM     22  C   UNL A   1      39.715  21.799  26.138  1.00  0.00     0.188 C 
BRANCH  22  23
ATOM     23  C   UNL A   1      40.609  20.814  26.931  1.00  0.00     0.188 C 
BRANCH  23  24
ATOM     24  O   UNL A   1      41.986  21.161  26.951  1.00  0.00    -0.376 OA
BRANCH  24  25
ATOM     25  C   UNL A   1      42.821  20.776  25.873  1.00  0.00     0.202 C 
BRANCH  25  26
ATOM     26  C   UNL A   1      43.775  21.838  25.305  1.00  0.00     0.261 C 
BRANCH  26  27
ATOM     27  O   UNL A   1      43.161  23.073  24.910  1.00  0.00    -0.460 OA
BRANCH  27  28
ATOM     28  C   UNL A   1      43.900  24.189  25.059  1.00  0.00     0.338 C 
ATOM     29  O   UNL A   1      44.938  24.473  24.477  1.00  0.00    -0.246 OA
BRANCH  28  30
ATOM     30  C   UNL A   1      43.144  25.124  25.909  1.00  0.00     0.060 A 
ATOM     31  C   UNL A   1      43.586  26.450  26.011  1.00  0.00     0.016 A 
ATOM     32  C   UNL A   1      42.021  24.691  26.619  1.00  0.00     0.016 A 
ATOM     33  C   UNL A   1      42.933  27.337  26.863  1.00  0.00     0.010 A 
ATOM     34  C   UNL A   1      41.384  25.573  27.493  1.00  0.00     0.010 A 
ATOM     35  C   UNL A   1      41.867  26.884  27.650  1.00  0.00    -0.014 A 
BRANCH  35  36
ATOM     36  C   UNL A   1      41.426  27.703  28.803  1.00  0.00     0.031 A 
ATOM     37  C   UNL A   1      42.208  27.597  30.084  1.00  0.00     0.074 A 
ATOM     38  C   UNL A   1      40.387  28.549  28.707  1.00  0.00     0.049 A 
ATOM     39  N   UNL A   1      41.998  28.171  31.240  1.00  0.00    -0.248 NA
ATOM     40  C   UNL A   1      43.388  26.718  30.054  1.00  0.00     0.031 C 
ATOM     41  C   UNL A   1      39.591  28.777  27.504  1.00  0.00     0.029 A 
ATOM     42  N   UNL A   1      39.822  29.370  29.649  1.00  0.00    -0.354 N 
ATOM     43  C   UNL A   1      43.012  27.715  32.073  1.00  0.00     0.074 A 
ATOM     44  C   UNL A   1      43.815  26.792  31.305  1.00  0.00     0.031 C 
ATOM     45  C   UNL A   1      38.628  29.672  27.785  1.00  0.00     0.029 A 
ATOM     46  C   UNL A   1      38.719  30.050  29.195  1.00  0.00     0.049 A 
ATOM     47  H   UNL A   1      40.174  29.463  30.564  1.00  0.00     0.167 HD
ATOM     48  C   UNL A   1      43.255  28.047  33.363  1.00  0.00     0.037 A 
ATOM     49  C   UNL A   1      37.871  30.861  29.856  1.00  0.00     0.037 A 
ATOM     50  C   UNL A   1      42.450  28.966  34.123  1.00  0.00     0.049 A 
ATOM     51  C   UNL A   1      38.116  31.150  31.317  1.00  0.00     0.074 A 
ATOM     52  C   UNL A   1      42.613  29.377  35.433  1.00  0.00     0.029 A 
ATOM     53  N   UNL A   1      41.319  29.608  33.640  1.00  0.00    -0.354 N 
ATOM     54  N   UNL A   1      39.084  30.732  32.097  1.00  0.00    -0.248 NA
ATOM     55  C   UNL A   1      37.148  32.029  31.988  1.00  0.00     0.031 C 
ATOM     56  C   UNL A   1      41.547  30.218  35.763  1.00  0.00     0.029 A 
ATOM     57  C   UNL A   1      40.759  30.392  34.636  1.00  0.00     0.049 A 
ATOM     58  H   UNL A   1      40.967  29.521  32.724  1.00  0.00     0.167 HD
ATOM     59  C   UNL A   1      38.866  31.327  33.334  1.00  0.00     0.074 A 
ATOM     60  C   UNL A   1      37.679  32.144  33.198  1.00  0.00     0.031 C 
ATOM     61  C   UNL A   1      39.584  31.211  34.479  1.00  0.00     0.037 A 
BRANCH  48  62
ATOM     62  C   UNL A   1      44.417  27.383  34.042  1.00  0.00     0.064 A 
ATOM     63  C   UNL A   1      45.679  27.992  34.122  1.00  0.00     0.173 A 
ATOM     64  C   UNL A   1      44.259  26.125  34.646  1.00  0.00     0.173 A 
ATOM     65  F   UNL A   1      45.890  29.186  33.548  1.00  0.00    -0.203 F 
ATOM     66  C   UNL A   1      46.744  27.356  34.755  1.00  0.00     0.198 A 
ATOM     67  C   UNL A   1      45.316  25.508  35.308  1.00  0.00     0.198 A 
ATOM     68  F   UNL A   1      43.075  25.497  34.600  1.00  0.00    -0.203 F 
ATOM     69  F   UNL A   1      47.953  27.934  34.772  1.00  0.00    -0.200 F 
ATOM     70  C   UNL A   1      46.560  26.120  35.355  1.00  0.00     0.200 A 
ATOM     71  F   UNL A   1      45.132  24.319  35.900  1.00  0.00    -0.200 F 
ATOM     72  F   UNL A   1      47.583  25.513  35.973  1.00  0.00    -0.200 F 
ENDBRANCH  48  62
BRANCH  49  73
ATOM     73  C   UNL A   1      36.702  31.451  29.152  1.00  0.00     0.064 A 
ATOM     74  C   UNL A   1      36.654  32.818  28.841  1.00  0.00     0.173 A 
ATOM     75  C   UNL A   1      35.592  30.667  28.803  1.00  0.00     0.173 A 
ATOM     76  F   UNL A   1      37.678  33.616  29.176  1.00  0.00    -0.203 F 
ATOM     77  C   UNL A   1      35.533  33.380  28.234  1.00  0.00     0.198 A 
ATOM     78  C   UNL A   1      34.486  31.224  28.164  1.00  0.00     0.198 A 
ATOM     79  F   UNL A   1      35.582  29.355  29.078  1.00  0.00    -0.203 F 
ATOM     80  F   UNL A   1      35.492  34.700  28.001  1.00  0.00    -0.200 F 
ATOM     81  C   UNL A   1      34.452  32.582  27.890  1.00  0.00     0.200 A 
ATOM     82  F   UNL A   1      33.450  30.446  27.823  1.00  0.00    -0.200 F 
ATOM     83  F   UNL A   1      33.375  33.124  27.306  1.00  0.00    -0.200 F 
ENDBRANCH  49  73
BRANCH  61  84
ATOM     84  C   UNL A   1      39.144  32.031  35.661  1.00  0.00     0.064 A 
ATOM     85  C   UNL A   1      38.314  31.507  36.663  1.00  0.00     0.173 A 
ATOM     86  C   UNL A   1      39.598  33.351  35.812  1.00  0.00     0.173 A 
ATOM     87  F   UNL A   1      37.842  30.254  36.564  1.00  0.00    -0.203 F 
ATOM     88  C   UNL A   1      37.926  32.285  37.751  1.00  0.00     0.198 A 
ATOM     89  C   UNL A   1      39.239  34.113  36.919  1.00  0.00     0.198 A 
ATOM     90  F   UNL A   1      40.404  33.898  34.890  1.00  0.00    -0.203 F 
ATOM     91  F   UNL A   1      37.085  31.782  38.665  1.00  0.00    -0.200 F 
ATOM     92  C   UNL A   1      38.395  33.584  37.883  1.00  0.00     0.200 A 
ATOM     93  F   UNL A   1      39.711  35.361  37.054  1.00  0.00    -0.200 F 
ATOM     94  F   UNL A   1      38.027  34.328  38.935  1.00  0.00    -0.200 F 
ENDBRANCH  61  84
ENDBRANCH  35  36
ENDBRANCH  28  30
ENDBRANCH  27  28
ENDBRANCH  26  27
ENDBRANCH  25  26
ENDBRANCH  24  25
ENDBRANCH  23  24
ENDBRANCH  22  23
ENDBRANCH   1  22
TORSDOF 23
ENDMDL
MODEL 2
REMARK VINA RESULT:      -9.8      4.546      8.728
REMARK SMILES CC[C@H]1CC[C@](O)([C@H](F)C(=O)OCCOCCOCCOCCOC(=O)c2ccc(-c3c4nc(c(-c5c(F)c(F)c(F)c(F)c5F)c5ccc([nH]5)c(-c5c(F)c(F)c(F)c(F)c5F)c5nc(c(-c6c(F)c(F)c(F)c(F)c6F)c6ccc3[nH]6)C=C5)C=C4)cc2)CC1
REMARK SMILES IDX 18 1 17 2 16 3 15 4 14 5 13 6 12 7 10 8 11 9 8 10 9 11 6 12
REMARK SMILES IDX 3 13 4 14 91 15 5 16 90 17 2 18 1 19 7 20 19 22 20 23 21 24
REMARK SMILES IDX 22 25 23 26 24 27 25 28 26 29 27 30 28 31 89 32 29 33 88 34
REMARK SMILES IDX 30 35 31 36 32 37 82 38 33 39 87 40 81 41 83 42 34 43 86 44
REMARK SMILES IDX 80 45 79 46 35 48 67 49 47 50 66 51 48 52 51 53 65 54 84 55
REMARK SMILES IDX 49 56 50 57 64 59 85 60 52 61 36 62 37 63 45 64 38 65 39 66
REMARK SMILES IDX 43 67 46 68 40 69 41 70 44 71 42 72 68 73 69 74 77 75 70 76
REMARK SMILES IDX 71 77 75 78 78 79 72 80 73 81 76 82 74 83 53 84 54 85 62 86
REMARK SMILES IDX 55 87 56 88 60 89 63 90 57 91 58 92 61 93 59 94
REMARK H PARENT 7 21 83 47 51 58
REMARK Flexibility Score: inf
ROOT
ATOM      1  O   UNL A   1      32.451  21.242  25.146  1.00  0.00    -0.377 OA
ENDROOT
BRANCH   1   2
ATOM      2  C   UNL A   1      32.650  21.757  23.840  1.00  0.00     0.188 C 
BRANCH   2   3
ATOM      3  C   UNL A   1      31.464  22.591  23.300  1.00  0.00     0.188 C 
BRANCH   3   4
ATOM      4  O   UNL A   1      31.625  23.962  22.926  1.00  0.00    -0.376 OA
BRANCH   4   5
ATOM      5  C   UNL A   1      32.694  24.380  22.087  1.00  0.00     0.202 C 
BRANCH   5   6
ATOM      6  C   UNL A   1      32.558  25.639  21.234  1.00  0.00     0.261 C 
BRANCH   6   7
ATOM      7  O   UNL A   1      32.642  26.837  21.999  1.00  0.00    -0.461 OA
BRANCH   7   8
ATOM      8  C   UNL A   1      31.520  27.325  22.589  1.00  0.00     0.343 C 
ATOM      9  O   UNL A   1      30.490  27.613  21.995  1.00  0.00    -0.249 OA
BRANCH   8  10
ATOM     10  C   UNL A   1      31.769  27.515  24.086  1.00  0.00     0.307 C 
ATOM     11  F   UNL A   1      32.409  26.449  24.649  1.00  0.00    -0.232 F 
BRANCH  10  12
ATOM     12  C   UNL A   1      32.589  28.794  24.376  1.00  0.00     0.107 C 
ATOM     13  C   UNL A   1      33.507  28.926  27.313  1.00  0.00    -0.011 C 
ATOM     14  C   UNL A   1      34.021  27.926  26.281  1.00  0.00     0.006 C 
ATOM     15  C   UNL A   1      32.111  29.429  26.890  1.00  0.00     0.006 C 
ATOM     16  C   UNL A   1      34.014  28.514  24.870  1.00  0.00     0.039 C 
ATOM     17  C   UNL A   1      31.893  29.736  25.395  1.00  0.00     0.039 C 
BRANCH  13  18
ATOM     18  C   UNL A   1      34.547  30.030  27.582  1.00  0.00    -0.000 C 
ATOM     19  C   UNL A   1      35.951  29.454  27.797  1.00  0.00     0.004 C 
ENDBRANCH  13  18
BRANCH  12  20
ATOM     20  O   UNL A   1      32.665  29.503  23.125  1.00  0.00    -0.386 OA
ATOM     21  H   UNL A   1      32.015  30.223  23.121  1.00  0.00     0.211 HD
ENDBRANCH  12  20
ENDBRANCH  10  12
ENDBRANCH   8  10
ENDBRANCH   7   8
ENDBRANCH   6   7
ENDBRANCH   5   6
ENDBRANCH   4   5
ENDBRANCH   3   4
ENDBRANCH   2   3
ENDBRANCH   1   2
BRANCH   1  22
ATOM     22  C   UNL A   1      33.001  22.037  26.194  1.00  0.00     0.188 C 
BRANCH  22  23
ATOM     23  C   UNL A   1      34.532  22.271  26.192  1.00  0.00     0.188 C 
BRANCH  23  24
ATOM     24  O   UNL A   1      35.305  21.080  26.177  1.00  0.00    -0.376 OA
BRANCH  24  25
ATOM     25  C   UNL A   1      35.943  20.674  24.979  1.00  0.00     0.202 C 
BRANCH  25  26
ATOM     26  C   UNL A   1      37.477  20.582  24.993  1.00  0.00     0.261 C 
BRANCH  26  27
ATOM     27  O   UNL A   1      38.158  21.710  25.561  1.00  0.00    -0.460 OA
BRANCH  27  28
ATOM     28  C   UNL A   1      39.336  21.462  26.165  1.00  0.00     0.338 C 
ATOM     29  O   UNL A   1      39.988  20.428  26.120  1.00  0.00    -0.246 OA
BRANCH  28  30
ATOM     30  C   UNL A   1      39.824  22.724  26.745  1.00  0.00     0.060 A 
ATOM     31  C   UNL A   1      39.249  23.929  26.320  1.00  0.00     0.016 A 
ATOM     32  C   UNL A   1      40.856  22.721  27.687  1.00  0.00     0.016 A 
ATOM     33  C   UNL A   1      39.740  25.141  26.799  1.00  0.00     0.010 A 
ATOM     34  C   UNL A   1      41.365  23.937  28.146  1.00  0.00     0.010 A 
ATOM     35  C   UNL A   1      40.837  25.149  27.668  1.00  0.00    -0.014 A 
BRANCH  35  36
ATOM     36  C   UNL A   1      41.580  26.414  27.877  1.00  0.00     0.031 A 
ATOM     37  C   UNL A   1      40.886  27.524  28.619  1.00  0.00     0.074 A 
ATOM     38  C   UNL A   1      42.847  26.562  27.458  1.00  0.00     0.049 A 
ATOM     39  N   UNL A   1      41.302  28.735  28.889  1.00  0.00    -0.248 NA
ATOM     40  C   UNL A   1      39.536  27.226  29.123  1.00  0.00     0.031 C 
ATOM     41  C   UNL A   1      43.637  25.539  26.779  1.00  0.00     0.029 A 
ATOM     42  N   UNL A   1      43.688  27.642  27.540  1.00  0.00    -0.354 N 
ATOM     43  C   UNL A   1      40.263  29.341  29.583  1.00  0.00     0.074 A 
ATOM     44  C   UNL A   1      39.184  28.381  29.664  1.00  0.00     0.031 C 
ATOM     45  C   UNL A   1      44.850  26.047  26.494  1.00  0.00     0.029 A 
ATOM     46  C   UNL A   1      44.904  27.439  26.937  1.00  0.00     0.049 A 
ATOM     47  H   UNL A   1      43.443  28.484  27.990  1.00  0.00     0.167 HD
ATOM     48  C   UNL A   1      40.217  30.585  30.113  1.00  0.00     0.037 A 
ATOM     49  C   UNL A   1      45.927  28.293  26.746  1.00  0.00     0.037 A 
ATOM     50  C   UNL A   1      41.294  31.536  30.028  1.00  0.00     0.049 A 
ATOM     51  C   UNL A   1      45.820  29.703  27.275  1.00  0.00     0.074 A 
ATOM     52  C   UNL A   1      41.354  32.820  30.538  1.00  0.00     0.029 A 
ATOM     53  N   UNL A   1      42.498  31.307  29.378  1.00  0.00    -0.354 N 
ATOM     54  N   UNL A   1      44.844  30.267  27.945  1.00  0.00    -0.248 NA
ATOM     55  C   UNL A   1      46.962  30.593  27.022  1.00  0.00     0.031 C 
ATOM     56  C   UNL A   1      42.567  33.390  30.142  1.00  0.00     0.029 A 
ATOM     57  C   UNL A   1      43.296  32.437  29.450  1.00  0.00     0.049 A 
ATOM     58  H   UNL A   1      42.748  30.466  28.931  1.00  0.00     0.167 HD
ATOM     59  C   UNL A   1      45.269  31.560  28.229  1.00  0.00     0.074 A 
ATOM     60  C   UNL A   1      46.596  31.693  27.666  1.00  0.00     0.031 C 
ATOM     61  C   UNL A   1      44.622  32.548  28.896  1.00  0.00     0.037 A 
BRANCH  48  62
ATOM     62  C   UNL A   1      38.949  31.000  30.801  1.00  0.00     0.064 A 
ATOM     63  C   UNL A   1      38.764  30.835  32.183  1.00  0.00     0.173 A 
ATOM     64  C   UNL A   1      37.910  31.596  30.069  1.00  0.00     0.173 A 
ATOM     65  F   UNL A   1      39.717  30.256  32.927  1.00  0.00    -0.203 F 
ATOM     66  C   UNL A   1      37.577  31.225  32.799  1.00  0.00     0.198 A 
ATOM     67  C   UNL A   1      36.740  32.017  30.694  1.00  0.00     0.198 A 
ATOM     68  F   UNL A   1      38.033  31.778  28.745  1.00  0.00    -0.203 F 
ATOM     69  F   UNL A   1      37.403  31.008  34.110  1.00  0.00    -0.200 F 
ATOM     70  C   UNL A   1      36.570  31.823  32.057  1.00  0.00     0.200 A 
ATOM     71  F   UNL A   1      35.774  32.607  29.976  1.00  0.00    -0.200 F 
ATOM     72  F   UNL A   1      35.433  32.207  32.653  1.00  0.00    -0.200 F 
ENDBRANCH  48  62
BRANCH  49  73
ATOM     73  C   UNL A   1      47.142  27.850  26.010  1.00  0.00     0.064 A 
ATOM     74  C   UNL A   1      48.329  27.537  26.687  1.00  0.00     0.173 A 
ATOM     75  C   UNL A   1      47.150  27.762  24.609  1.00  0.00     0.173 A 
ATOM     76  F   UNL A   1      48.380  27.630  28.023  1.00  0.00    -0.203 F 
ATOM     77  C   UNL A   1      49.482  27.179  25.992  1.00  0.00     0.198 A 
ATOM     78  C   UNL A   1      48.294  27.371  23.917  1.00  0.00     0.198 A 
ATOM     79  F   UNL A   1      46.044  28.053  23.910  1.00  0.00    -0.203 F 
ATOM     80  F   UNL A   1      50.618  26.941  26.663  1.00  0.00    -0.200 F 
ATOM     81  C   UNL A   1      49.463  27.090  24.608  1.00  0.00     0.200 A 
ATOM     82  F   UNL A   1      48.267  27.273  22.581  1.00  0.00    -0.200 F 
ATOM     83  F   UNL A   1      50.573  26.745  23.941  1.00  0.00    -0.200 F 
ENDBRANCH  49  73
BRANCH  61  84
ATOM     84  C   UNL A   1      45.360  33.841  29.110  1.00  0.00     0.064 A 
ATOM     85  C   UNL A   1      45.263  34.911  28.208  1.00  0.00     0.173 A 
ATOM     86  C   UNL A   1      46.144  34.024  30.261  1.00  0.00     0.173 A 
ATOM     87  F   UNL A   1      44.537  34.786  27.087  1.00  0.00    -0.203 F 
ATOM     88  C   UNL A   1      45.953  36.101  28.433  1.00  0.00     0.198 A 
ATOM     89  C   UNL A   1      46.799  35.227  30.501  1.00  0.00     0.198 A 
ATOM     90  F   UNL A   1      46.261  33.038  31.163  1.00  0.00    -0.203 F 
ATOM     91  F   UNL A   1      45.892  37.087  27.528  1.00  0.00    -0.200 F 
ATOM     92  C   UNL A   1      46.712  36.261  29.582  1.00  0.00     0.200 A 
ATOM     93  F   UNL A   1      47.516  35.386  31.623  1.00  0.00    -0.200 F 
ATOM     94  F   UNL A   1      47.367  37.410  29.800  1.00  0.00    -0.200 F 
ENDBRANCH  61  84
ENDBRANCH  35  36
ENDBRANCH  28  30
ENDBRANCH  27  28
ENDBRANCH  26  27
ENDBRANCH  25  26
ENDBRANCH  24  25
ENDBRANCH  23  24
ENDBRANCH  22  23
ENDBRANCH   1  22
TORSDOF 23
ENDMDL
MODEL 3
REMARK VINA RESULT:      -9.7      1.220      2.137
REMARK SMILES CC[C@H]1CC[C@](O)([C@H](F)C(=O)OCCOCCOCCOCCOC(=O)c2ccc(-c3c4nc(c(-c5c(F)c(F)c(F)c(F)c5F)c5ccc([nH]5)c(-c5c(F)c(F)c(F)c(F)c5F)c5nc(c(-c6c(F)c(F)c(F)c(F)c6F)c6ccc3[nH]6)C=C5)C=C4)cc2)CC1
REMARK SMILES IDX 18 1 17 2 16 3 15 4 14 5 13 6 12 7 10 8 11 9 8 10 9 11 6 12
REMARK SMILES IDX 3 13 4 14 91 15 5 16 90 17 2 18 1 19 7 20 19 22 20 23 21 24
REMARK SMILES IDX 22 25 23 26 24 27 25 28 26 29 27 30 28 31 89 32 29 33 88 34
REMARK SMILES IDX 30 35 31 36 32 37 82 38 33 39 87 40 81 41 83 42 34 43 86 44
REMARK SMILES IDX 80 45 79 46 35 48 67 49 47 50 66 51 48 52 51 53 65 54 84 55
REMARK SMILES IDX 49 56 50 57 64 59 85 60 52 61 36 62 37 63 45 64 38 65 39 66
REMARK SMILES IDX 43 67 46 68 40 69 41 70 44 71 42 72 68 73 69 74 77 75 70 76
REMARK SMILES IDX 71 77 75 78 78 79 72 80 73 81 76 82 74 83 53 84 54 85 62 86
REMARK SMILES IDX 55 87 56 88 60 89 63 90 57 91 58 92 61 93 59 94
REMARK H PARENT 7 21 83 47 51 58
REMARK Flexibility Score: inf
ROOT
ATOM      1  O   UNL A   1      39.526  23.032  27.192  1.00  0.00    -0.377 OA
ENDROOT
BRANCH   1   2
ATOM      2  C   UNL A   1      38.357  23.649  26.679  1.00  0.00     0.188 C 
BRANCH   2   3
ATOM      3  C   UNL A   1      37.753  22.938  25.445  1.00  0.00     0.188 C 
BRANCH   3   4
ATOM      4  O   UNL A   1      36.577  22.132  25.548  1.00  0.00    -0.376 OA
BRANCH   4   5
ATOM      5  C   UNL A   1      35.726  21.917  24.430  1.00  0.00     0.202 C 
BRANCH   5   6
ATOM      6  C   UNL A   1      35.664  22.941  23.299  1.00  0.00     0.261 C 
BRANCH   6   7
ATOM      7  O   UNL A   1      34.767  24.012  23.571  1.00  0.00    -0.461 OA
BRANCH   7   8
ATOM      8  C   UNL A   1      33.667  24.168  22.789  1.00  0.00     0.343 C 
ATOM      9  O   UNL A   1      33.007  23.248  22.326  1.00  0.00    -0.249 OA
BRANCH   8  10
ATOM     10  C   UNL A   1      33.428  25.656  22.530  1.00  0.00     0.307 C 
ATOM     11  F   UNL A   1      33.269  25.936  21.204  1.00  0.00    -0.232 F 
BRANCH  10  12
ATOM     12  C   UNL A   1      32.193  26.183  23.299  1.00  0.00     0.107 C 
ATOM     13  C   UNL A   1      33.000  27.976  25.670  1.00  0.00    -0.011 C 
ATOM     14  C   UNL A   1      33.177  28.341  24.199  1.00  0.00     0.006 C 
ATOM     15  C   UNL A   1      32.939  26.440  25.815  1.00  0.00     0.006 C 
ATOM     16  C   UNL A   1      32.091  27.714  23.325  1.00  0.00     0.039 C 
ATOM     17  C   UNL A   1      32.127  25.662  24.760  1.00  0.00     0.039 C 
BRANCH  13  18
ATOM     18  C   UNL A   1      31.815  28.738  26.294  1.00  0.00    -0.000 C 
ATOM     19  C   UNL A   1      31.486  28.232  27.702  1.00  0.00     0.004 C 
ENDBRANCH  13  18
BRANCH  12  20
ATOM     20  O   UNL A   1      31.045  25.656  22.607  1.00  0.00    -0.386 OA
ATOM     21  H   UNL A   1      30.484  26.389  22.308  1.00  0.00     0.211 HD
ENDBRANCH  12  20
ENDBRANCH  10  12
ENDBRANCH   8  10
ENDBRANCH   7   8
ENDBRANCH   6   7
ENDBRANCH   5   6
ENDBRANCH   4   5
ENDBRANCH   3   4
ENDBRANCH   2   3
ENDBRANCH   1   2
BRANCH   1  22
ATOM     22  C   UNL A   1      39.994  21.914  26.440  1.00  0.00     0.188 C 
BRANCH  22  23
ATOM     23  C   UNL A   1      40.967  20.933  27.139  1.00  0.00     0.188 C 
BRANCH  23  24
ATOM     24  O   UNL A   1      42.338  21.278  27.007  1.00  0.00    -0.376 OA
BRANCH  24  25
ATOM     25  C   UNL A   1      42.978  21.137  25.751  1.00  0.00     0.202 C 
BRANCH  25  26
ATOM     26  C   UNL A   1      43.856  22.304  25.271  1.00  0.00     0.261 C 
BRANCH  26  27
ATOM     27  O   UNL A   1      43.169  23.542  25.045  1.00  0.00    -0.460 OA
BRANCH  27  28
ATOM     28  C   UNL A   1      43.886  24.670  25.210  1.00  0.00     0.338 C 
ATOM     29  O   UNL A   1      44.911  24.988  24.624  1.00  0.00    -0.246 OA
BRANCH  28  30
ATOM     30  C   UNL A   1      43.121  25.570  26.090  1.00  0.00     0.060 A 
ATOM     31  C   UNL A   1      43.575  26.884  26.269  1.00  0.00     0.016 A 
ATOM     32  C   UNL A   1      41.977  25.116  26.750  1.00  0.00     0.016 A 
ATOM     33  C   UNL A   1      42.912  27.735  27.149  1.00  0.00     0.010 A 
ATOM     34  C   UNL A   1      41.330  25.961  27.653  1.00  0.00     0.010 A 
ATOM     35  C   UNL A   1      41.823  27.257  27.888  1.00  0.00    -0.014 A 
BRANCH  35  36
ATOM     36  C   UNL A   1      41.364  28.022  29.070  1.00  0.00     0.031 A 
ATOM     37  C   UNL A   1      42.123  27.852  30.358  1.00  0.00     0.074 A 
ATOM     38  C   UNL A   1      40.330  28.876  28.996  1.00  0.00     0.049 A 
ATOM     39  N   UNL A   1      41.895  28.372  31.536  1.00  0.00    -0.248 NA
ATOM     40  C   UNL A   1      43.301  26.970  30.308  1.00  0.00     0.031 C 
ATOM     41  C   UNL A   1      39.556  29.163  27.792  1.00  0.00     0.029 A 
ATOM     42  N   UNL A   1      39.751  29.654  29.966  1.00  0.00    -0.354 N 
ATOM     43  C   UNL A   1      42.892  27.873  32.365  1.00  0.00     0.074 A 
ATOM     44  C   UNL A   1      43.706  26.984  31.567  1.00  0.00     0.031 C 
ATOM     45  C   UNL A   1      38.591  30.048  28.098  1.00  0.00     0.029 A 
ATOM     46  C   UNL A   1      38.659  30.358  29.525  1.00  0.00     0.049 A 
ATOM     47  H   UNL A   1      40.087  29.702  30.890  1.00  0.00     0.167 HD
ATOM     48  C   UNL A   1      43.113  28.142  33.673  1.00  0.00     0.037 A 
ATOM     49  C   UNL A   1      37.802  31.141  30.209  1.00  0.00     0.037 A 
ATOM     50  C   UNL A   1      42.298  29.028  34.461  1.00  0.00     0.049 A 
ATOM     51  C   UNL A   1      38.021  31.360  31.686  1.00  0.00     0.074 A 
ATOM     52  C   UNL A   1      42.439  29.376  35.792  1.00  0.00     0.029 A 
ATOM     53  N   UNL A   1      41.178  29.697  33.989  1.00  0.00    -0.354 N 
ATOM     54  N   UNL A   1      38.974  30.902  32.462  1.00  0.00    -0.248 NA
ATOM     55  C   UNL A   1      37.045  32.210  32.381  1.00  0.00     0.031 C 
ATOM     56  C   UNL A   1      41.370  30.204  36.142  1.00  0.00     0.029 A 
ATOM     57  C   UNL A   1      40.603  30.435  35.011  1.00  0.00     0.049 A 
ATOM     58  H   UNL A   1      40.842  29.654  33.064  1.00  0.00     0.167 HD
ATOM     59  C   UNL A   1      38.736  31.438  33.722  1.00  0.00     0.074 A 
ATOM     60  C   UNL A   1      37.554  32.265  33.603  1.00  0.00     0.031 C 
ATOM     61  C   UNL A   1      39.433  31.265  34.873  1.00  0.00     0.037 A 
BRANCH  48  62
ATOM     62  C   UNL A   1      44.261  27.442  34.340  1.00  0.00     0.064 A 
ATOM     63  C   UNL A   1      44.101  26.213  34.999  1.00  0.00     0.173 A 
ATOM     64  C   UNL A   1      45.549  27.999  34.299  1.00  0.00     0.173 A 
ATOM     65  F   UNL A   1      42.889  25.645  35.083  1.00  0.00    -0.203 F 
ATOM     66  C   UNL A   1      45.180  25.583  35.613  1.00  0.00     0.198 A 
ATOM     67  C   UNL A   1      46.632  27.349  34.884  1.00  0.00     0.198 A 
ATOM     68  F   UNL A   1      45.760  29.172  33.683  1.00  0.00    -0.203 F 
ATOM     69  F   UNL A   1      44.992  24.437  36.282  1.00  0.00    -0.200 F 
ATOM     70  C   UNL A   1      46.446  26.146  35.548  1.00  0.00     0.200 A 
ATOM     71  F   UNL A   1      47.856  27.889  34.807  1.00  0.00    -0.200 F 
ATOM     72  F   UNL A   1      47.484  25.534  36.132  1.00  0.00    -0.200 F 
ENDBRANCH  48  62
BRANCH  49  73
ATOM     73  C   UNL A   1      36.647  31.769  29.512  1.00  0.00     0.064 A 
ATOM     74  C   UNL A   1      35.569  30.999  29.054  1.00  0.00     0.173 A 
ATOM     75  C   UNL A   1      36.612  33.149  29.262  1.00  0.00     0.173 A 
ATOM     76  F   UNL A   1      35.566  29.672  29.245  1.00  0.00    -0.203 F 
ATOM     77  C   UNL A   1      34.515  31.579  28.351  1.00  0.00     0.198 A 
ATOM     78  C   UNL A   1      35.542  33.734  28.589  1.00  0.00     0.198 A 
ATOM     79  F   UNL A   1      37.618  33.933  29.676  1.00  0.00    -0.203 F 
ATOM     80  F   UNL A   1      33.527  30.810  27.873  1.00  0.00    -0.200 F 
ATOM     81  C   UNL A   1      34.499  32.948  28.124  1.00  0.00     0.200 A 
ATOM     82  F   UNL A   1      35.524  35.058  28.384  1.00  0.00    -0.200 F 
ATOM     83  F   UNL A   1      33.486  33.505  27.447  1.00  0.00    -0.200 F 
ENDBRANCH  49  73
BRANCH  61  84
ATOM     84  C   UNL A   1      38.975  32.030  36.084  1.00  0.00     0.064 A 
ATOM     85  C   UNL A   1      38.118  31.466  37.041  1.00  0.00     0.173 A 
ATOM     86  C   UNL A   1      39.438  33.337  36.310  1.00  0.00     0.173 A 
ATOM     87  F   UNL A   1      37.638  30.225  36.869  1.00  0.00    -0.203 F 
ATOM     88  C   UNL A   1      37.714  32.194  38.157  1.00  0.00     0.198 A 
ATOM     89  C   UNL A   1      39.062  34.047  37.446  1.00  0.00     0.198 A 
ATOM     90  F   UNL A   1      40.269  33.921  35.433  1.00  0.00    -0.203 F 
ATOM     91  F   UNL A   1      36.848  31.655  39.027  1.00  0.00    -0.200 F 
ATOM     92  C   UNL A   1      38.192  33.479  38.364  1.00  0.00     0.200 A 
ATOM     93  F   UNL A   1      39.542  35.281  37.652  1.00  0.00    -0.200 F 
ATOM     94  F   UNL A   1      37.808  34.174  39.443  1.00  0.00    -0.200 F 
ENDBRANCH  61  84
ENDBRANCH  35  36
ENDBRANCH  28  30
ENDBRANCH  27  28
ENDBRANCH  26  27
ENDBRANCH  25  26
ENDBRANCH  24  25
ENDBRANCH  23  24
ENDBRANCH  22  23
ENDBRANCH   1  22
TORSDOF 23
ENDMDL
