MODEL 1
REMARK VINA RESULT:     -10.7      0.000      0.000
REMARK SMILES Cc1ccc2n[nH]cc2c1C(=O)OCCOCCOCCOCCOC(=O)c1ccc(-c2c3nc(c(-c4c(F)c(F)c(F)c(F)c4F)c4ccc([nH]4)c(-c4c(F)c(F)c(F)c(F)c4F)c4nc(c(-c5c(F)c(F)c(F)c(F)c5F)c5ccc2[nH]5)C=C4)C=C3)cc1
REMARK SMILES IDX 20 1 19 2 18 3 17 4 16 5 15 6 14 7 13 8 11 9 12 10 10 11
REMARK SMILES IDX 1 12 2 13 3 14 4 15 9 16 5 17 8 18 6 19 7 20 21 22 22 23
REMARK SMILES IDX 23 24 24 25 25 26 26 27 27 28 28 29 29 30 90 31 30 32 89 33
REMARK SMILES IDX 31 34 32 35 33 36 83 37 34 38 88 39 82 40 84 41 35 42 87 43
REMARK SMILES IDX 81 44 80 45 36 47 68 48 48 49 67 50 49 51 52 52 66 53 85 54
REMARK SMILES IDX 50 55 51 56 65 58 86 59 53 60 37 61 38 62 46 63 39 64 40 65
REMARK SMILES IDX 44 66 47 67 41 68 42 69 45 70 43 71 69 72 70 73 78 74 71 75
REMARK SMILES IDX 72 76 76 77 79 78 73 79 74 80 77 81 75 82 54 83 55 84 63 85
REMARK SMILES IDX 56 86 57 87 61 88 64 89 58 90 59 91 62 92 60 93
REMARK H PARENT 7 21 84 46 52 57
REMARK Flexibility Score: inf
ROOT
ATOM      1  C   UNL A   1      40.522  21.570  26.323  1.00  0.00     0.188 C 
ENDROOT
BRANCH   1   2
ATOM      2  O   UNL A   1      39.245  22.173  26.519  1.00  0.00    -0.377 OA
BRANCH   2   3
ATOM      3  C   UNL A   1      38.191  21.799  25.654  1.00  0.00     0.188 C 
BRANCH   3   4
ATOM      4  C   UNL A   1      37.462  22.948  24.942  1.00  0.00     0.188 C 
BRANCH   4   5
ATOM      5  O   UNL A   1      36.493  23.611  25.744  1.00  0.00    -0.376 OA
BRANCH   5   6
ATOM      6  C   UNL A   1      35.392  22.841  26.209  1.00  0.00     0.202 C 
BRANCH   6   7
ATOM      7  C   UNL A   1      33.973  23.342  25.893  1.00  0.00     0.261 C 
BRANCH   7   8
ATOM      8  O   UNL A   1      33.724  24.710  26.235  1.00  0.00    -0.460 OA
BRANCH   8   9
ATOM      9  C   UNL A   1      32.642  25.305  25.668  1.00  0.00     0.339 C 
ATOM     10  O   UNL A   1      31.517  25.259  26.063  1.00  0.00    -0.246 OA
BRANCH   9  11
ATOM     11  C   UNL A   1      33.150  26.214  24.604  1.00  0.00     0.074 A 
ATOM     12  C   UNL A   1      33.585  28.213  26.141  1.00  0.00     0.045 C 
ATOM     13  C   UNL A   1      33.608  27.556  24.780  1.00  0.00    -0.036 A 
ATOM     14  C   UNL A   1      34.031  28.371  23.669  1.00  0.00     0.006 A 
ATOM     15  C   UNL A   1      33.986  27.966  22.318  1.00  0.00     0.031 A 
ATOM     16  C   UNL A   1      33.089  25.850  23.248  1.00  0.00     0.034 A 
ATOM     17  C   UNL A   1      33.455  26.682  22.126  1.00  0.00     0.093 A 
ATOM     18  C   UNL A   1      32.559  24.705  22.709  1.00  0.00     0.114 A 
ATOM     19  N   UNL A   1      33.167  26.047  20.978  1.00  0.00    -0.176 NA
ATOM     20  N   UNL A   1      32.600  24.888  21.359  1.00  0.00    -0.284 N 
ATOM     21  H   UNL A   1      32.244  24.230  20.720  1.00  0.00     0.189 HD
ENDBRANCH   9  11
ENDBRANCH   8   9
ENDBRANCH   7   8
ENDBRANCH   6   7
ENDBRANCH   5   6
ENDBRANCH   4   5
ENDBRANCH   3   4
ENDBRANCH   2   3
ENDBRANCH   1   2
BRANCH   1  22
ATOM     22  C   UNL A   1      41.447  21.213  27.509  1.00  0.00     0.188 C 
BRANCH  22  23
ATOM     23  O   UNL A   1      42.261  20.078  27.265  1.00  0.00    -0.376 OA
BRANCH  23  24
ATOM     24  C   UNL A   1      42.189  19.504  25.969  1.00  0.00     0.202 C 
BRANCH  24  25
ATOM     25  C   UNL A   1      43.472  18.863  25.412  1.00  0.00     0.261 C 
BRANCH  25  26
ATOM     26  O   UNL A   1      44.595  19.757  25.338  1.00  0.00    -0.460 OA
BRANCH  26  27
ATOM     27  C   UNL A   1      44.710  20.610  24.293  1.00  0.00     0.338 C 
ATOM     28  O   UNL A   1      44.576  20.350  23.113  1.00  0.00    -0.246 OA
BRANCH  27  29
ATOM     29  C   UNL A   1      44.659  21.972  24.891  1.00  0.00     0.060 A 
ATOM     30  C   UNL A   1      45.385  22.281  26.046  1.00  0.00     0.016 A 
ATOM     31  C   UNL A   1      43.612  22.807  24.470  1.00  0.00     0.016 A 
ATOM     32  C   UNL A   1      44.964  23.340  26.847  1.00  0.00     0.010 A 
ATOM     33  C   UNL A   1      43.192  23.865  25.277  1.00  0.00     0.010 A 
ATOM     34  C   UNL A   1      43.838  24.109  26.491  1.00  0.00    -0.014 A 
BRANCH  34  35
ATOM     35  C   UNL A   1      43.559  25.307  27.302  1.00  0.00     0.031 A 
ATOM     36  C   UNL A   1      44.615  26.345  27.146  1.00  0.00     0.074 A 
ATOM     37  C   UNL A   1      42.433  25.607  27.986  1.00  0.00     0.049 A 
ATOM     38  N   UNL A   1      45.346  26.914  28.050  1.00  0.00    -0.248 NA
ATOM     39  C   UNL A   1      44.967  26.706  25.760  1.00  0.00     0.031 C 
ATOM     40  C   UNL A   1      41.164  24.882  27.968  1.00  0.00     0.029 A 
ATOM     41  N   UNL A   1      42.157  26.698  28.778  1.00  0.00    -0.354 N 
ATOM     42  C   UNL A   1      46.138  27.823  27.355  1.00  0.00     0.074 A 
ATOM     43  C   UNL A   1      45.973  27.553  25.952  1.00  0.00     0.031 C 
ATOM     44  C   UNL A   1      40.211  25.632  28.566  1.00  0.00     0.029 A 
ATOM     45  C   UNL A   1      40.806  26.859  29.076  1.00  0.00     0.049 A 
ATOM     46  H   UNL A   1      42.854  27.311  29.105  1.00  0.00     0.167 HD
ATOM     47  C   UNL A   1      46.686  28.910  27.954  1.00  0.00     0.037 A 
ATOM     48  C   UNL A   1      40.201  27.945  29.623  1.00  0.00     0.037 A 
ATOM     49  C   UNL A   1      46.802  28.760  29.374  1.00  0.00     0.049 A 
ATOM     50  C   UNL A   1      41.241  28.785  30.264  1.00  0.00     0.074 A 
ATOM     51  C   UNL A   1      47.494  27.915  30.216  1.00  0.00     0.029 A 
ATOM     52  N   UNL A   1      45.875  29.402  30.148  1.00  0.00    -0.354 N 
ATOM     53  N   UNL A   1      41.879  28.481  31.358  1.00  0.00    -0.248 NA
ATOM     54  C   UNL A   1      41.793  29.901  29.508  1.00  0.00     0.031 C 
ATOM     55  C   UNL A   1      46.689  27.799  31.386  1.00  0.00     0.029 A 
ATOM     56  C   UNL A   1      45.553  28.587  31.200  1.00  0.00     0.049 A 
ATOM     57  H   UNL A   1      45.504  30.298  29.978  1.00  0.00     0.167 HD
ATOM     58  C   UNL A   1      43.120  29.077  31.213  1.00  0.00     0.074 A 
ATOM     59  C   UNL A   1      42.954  30.052  30.147  1.00  0.00     0.031 C 
ATOM     60  C   UNL A   1      44.228  28.514  31.771  1.00  0.00     0.037 A 
BRANCH  47  61
ATOM     61  C   UNL A   1      46.740  30.249  27.267  1.00  0.00     0.064 A 
ATOM     62  C   UNL A   1      47.947  30.965  27.213  1.00  0.00     0.173 A 
ATOM     63  C   UNL A   1      45.577  30.971  26.909  1.00  0.00     0.173 A 
ATOM     64  F   UNL A   1      49.096  30.390  27.598  1.00  0.00    -0.203 F 
ATOM     65  C   UNL A   1      47.981  32.313  26.846  1.00  0.00     0.198 A 
ATOM     66  C   UNL A   1      45.623  32.294  26.483  1.00  0.00     0.198 A 
ATOM     67  F   UNL A   1      44.350  30.458  27.065  1.00  0.00    -0.203 F 
ATOM     68  F   UNL A   1      49.135  32.990  26.912  1.00  0.00    -0.200 F 
ATOM     69  C   UNL A   1      46.823  32.974  26.474  1.00  0.00     0.200 A 
ATOM     70  F   UNL A   1      44.484  32.923  26.160  1.00  0.00    -0.200 F 
ATOM     71  F   UNL A   1      46.850  34.275  26.162  1.00  0.00    -0.200 F 
ENDBRANCH  47  61
BRANCH  48  72
ATOM     72  C   UNL A   1      38.813  28.452  29.441  1.00  0.00     0.064 A 
ATOM     73  C   UNL A   1      37.970  28.695  30.543  1.00  0.00     0.173 A 
ATOM     74  C   UNL A   1      38.371  28.967  28.206  1.00  0.00     0.173 A 
ATOM     75  F   UNL A   1      38.323  28.283  31.770  1.00  0.00    -0.203 F 
ATOM     76  C   UNL A   1      36.785  29.433  30.422  1.00  0.00     0.198 A 
ATOM     77  C   UNL A   1      37.180  29.686  28.083  1.00  0.00     0.198 A 
ATOM     78  F   UNL A   1      39.131  28.872  27.108  1.00  0.00    -0.203 F 
ATOM     79  F   UNL A   1      36.052  29.708  31.510  1.00  0.00    -0.200 F 
ATOM     80  C   UNL A   1      36.397  29.934  29.192  1.00  0.00     0.200 A 
ATOM     81  F   UNL A   1      36.834  30.191  26.890  1.00  0.00    -0.200 F 
ATOM     82  F   UNL A   1      35.296  30.692  29.083  1.00  0.00    -0.200 F 
ENDBRANCH  48  72
BRANCH  60  83
ATOM     83  C   UNL A   1      44.022  27.550  32.899  1.00  0.00     0.064 A 
ATOM     84  C   UNL A   1      44.059  26.153  32.763  1.00  0.00     0.173 A 
ATOM     85  C   UNL A   1      43.900  28.076  34.194  1.00  0.00     0.173 A 
ATOM     86  F   UNL A   1      44.263  25.578  31.569  1.00  0.00    -0.203 F 
ATOM     87  C   UNL A   1      43.938  25.323  33.876  1.00  0.00     0.198 A 
ATOM     88  C   UNL A   1      43.820  27.246  35.306  1.00  0.00     0.198 A 
ATOM     89  F   UNL A   1      43.908  29.406  34.383  1.00  0.00    -0.203 F 
ATOM     90  F   UNL A   1      43.963  23.992  33.726  1.00  0.00    -0.200 F 
ATOM     91  C   UNL A   1      43.829  25.870  35.147  1.00  0.00     0.200 A 
ATOM     92  F   UNL A   1      43.764  27.779  36.534  1.00  0.00    -0.200 F 
ATOM     93  F   UNL A   1      43.762  25.071  36.220  1.00  0.00    -0.200 F 
ENDBRANCH  60  83
ENDBRANCH  34  35
ENDBRANCH  27  29
ENDBRANCH  26  27
ENDBRANCH  25  26
ENDBRANCH  24  25
ENDBRANCH  23  24
ENDBRANCH  22  23
ENDBRANCH   1  22
TORSDOF 20
ENDMDL
MODEL 2
REMARK VINA RESULT:     -10.2      1.440      2.208
REMARK SMILES Cc1ccc2n[nH]cc2c1C(=O)OCCOCCOCCOCCOC(=O)c1ccc(-c2c3nc(c(-c4c(F)c(F)c(F)c(F)c4F)c4ccc([nH]4)c(-c4c(F)c(F)c(F)c(F)c4F)c4nc(c(-c5c(F)c(F)c(F)c(F)c5F)c5ccc2[nH]5)C=C4)C=C3)cc1
REMARK SMILES IDX 20 1 19 2 18 3 17 4 16 5 15 6 14 7 13 8 11 9 12 10 10 11
REMARK SMILES IDX 1 12 2 13 3 14 4 15 9 16 5 17 8 18 6 19 7 20 21 22 22 23
REMARK SMILES IDX 23 24 24 25 25 26 26 27 27 28 28 29 29 30 90 31 30 32 89 33
REMARK SMILES IDX 31 34 32 35 33 36 83 37 34 38 88 39 82 40 84 41 35 42 87 43
REMARK SMILES IDX 81 44 80 45 36 47 68 48 48 49 67 50 49 51 52 52 66 53 85 54
REMARK SMILES IDX 50 55 51 56 65 58 86 59 53 60 37 61 38 62 46 63 39 64 40 65
REMARK SMILES IDX 44 66 47 67 41 68 42 69 45 70 43 71 69 72 70 73 78 74 71 75
REMARK SMILES IDX 72 76 76 77 79 78 73 79 74 80 77 81 75 82 54 83 55 84 63 85
REMARK SMILES IDX 56 86 57 87 61 88 64 89 58 90 59 91 62 92 60 93
REMARK H PARENT 7 21 84 46 52 57
REMARK Flexibility Score: inf
ROOT
ATOM      1  C   UNL A   1      40.932  21.529  26.035  1.00  0.00     0.188 C 
ENDROOT
BRANCH   1   2
ATOM      2  O   UNL A   1      39.827  22.425  26.115  1.00  0.00    -0.377 OA
BRANCH   2   3
ATOM      3  C   UNL A   1      38.532  21.877  26.261  1.00  0.00     0.188 C 
BRANCH   3   4
ATOM      4  C   UNL A   1      37.818  21.475  24.962  1.00  0.00     0.188 C 
BRANCH   4   5
ATOM      5  O   UNL A   1      37.024  22.507  24.390  1.00  0.00    -0.376 OA
BRANCH   5   6
ATOM      6  C   UNL A   1      36.880  23.710  25.135  1.00  0.00     0.202 C 
BRANCH   6   7
ATOM      7  C   UNL A   1      35.485  24.353  25.209  1.00  0.00     0.261 C 
BRANCH   7   8
ATOM      8  O   UNL A   1      34.498  23.756  24.362  1.00  0.00    -0.460 OA
BRANCH   8   9
ATOM      9  C   UNL A   1      33.275  23.518  24.905  1.00  0.00     0.339 C 
ATOM     10  O   UNL A   1      32.446  24.333  25.173  1.00  0.00    -0.246 OA
BRANCH   9  11
ATOM     11  C   UNL A   1      33.066  22.044  24.886  1.00  0.00     0.074 A 
ATOM     12  C   UNL A   1      34.244  21.575  27.109  1.00  0.00     0.045 C 
ATOM     13  C   UNL A   1      33.484  21.114  25.887  1.00  0.00    -0.036 A 
ATOM     14  C   UNL A   1      33.278  19.695  25.744  1.00  0.00     0.006 A 
ATOM     15  C   UNL A   1      32.711  19.080  24.607  1.00  0.00     0.031 A 
ATOM     16  C   UNL A   1      32.533  21.401  23.756  1.00  0.00     0.034 A 
ATOM     17  C   UNL A   1      32.378  19.975  23.581  1.00  0.00     0.093 A 
ATOM     18  C   UNL A   1      32.177  21.966  22.558  1.00  0.00     0.114 A 
ATOM     19  N   UNL A   1      31.936  19.717  22.340  1.00  0.00    -0.176 NA
ATOM     20  N   UNL A   1      31.862  20.920  21.744  1.00  0.00    -0.284 N 
ATOM     21  H   UNL A   1      31.605  21.035  20.801  1.00  0.00     0.189 HD
ENDBRANCH   9  11
ENDBRANCH   8   9
ENDBRANCH   7   8
ENDBRANCH   6   7
ENDBRANCH   5   6
ENDBRANCH   4   5
ENDBRANCH   3   4
ENDBRANCH   2   3
ENDBRANCH   1   2
BRANCH   1  22
ATOM     22  C   UNL A   1      41.759  21.137  27.281  1.00  0.00     0.188 C 
BRANCH  22  23
ATOM     23  O   UNL A   1      42.278  19.820  27.220  1.00  0.00    -0.376 OA
BRANCH  23  24
ATOM     24  C   UNL A   1      42.302  19.198  25.944  1.00  0.00     0.202 C 
BRANCH  24  25
ATOM     25  C   UNL A   1      43.679  18.833  25.365  1.00  0.00     0.261 C 
BRANCH  25  26
ATOM     26  O   UNL A   1      44.647  19.894  25.428  1.00  0.00    -0.460 OA
BRANCH  26  27
ATOM     27  C   UNL A   1      44.774  20.753  24.389  1.00  0.00     0.338 C 
ATOM     28  O   UNL A   1      44.642  20.503  23.207  1.00  0.00    -0.246 OA
BRANCH  27  29
ATOM     29  C   UNL A   1      44.736  22.111  24.997  1.00  0.00     0.060 A 
ATOM     30  C   UNL A   1      45.363  22.373  26.220  1.00  0.00     0.016 A 
ATOM     31  C   UNL A   1      43.778  23.002  24.488  1.00  0.00     0.016 A 
ATOM     32  C   UNL A   1      44.921  23.447  26.990  1.00  0.00     0.010 A 
ATOM     33  C   UNL A   1      43.337  24.075  25.265  1.00  0.00     0.010 A 
ATOM     34  C   UNL A   1      43.876  24.276  26.538  1.00  0.00    -0.014 A 
BRANCH  34  35
ATOM     35  C   UNL A   1      43.581  25.481  27.334  1.00  0.00     0.031 A 
ATOM     36  C   UNL A   1      44.615  26.536  27.150  1.00  0.00     0.074 A 
ATOM     37  C   UNL A   1      42.457  25.770  28.025  1.00  0.00     0.049 A 
ATOM     38  N   UNL A   1      45.344  27.134  28.037  1.00  0.00    -0.248 NA
ATOM     39  C   UNL A   1      44.944  26.883  25.755  1.00  0.00     0.031 C 
ATOM     40  C   UNL A   1      41.202  25.020  28.032  1.00  0.00     0.029 A 
ATOM     41  N   UNL A   1      42.167  26.867  28.803  1.00  0.00    -0.354 N 
ATOM     42  C   UNL A   1      46.110  28.048  27.320  1.00  0.00     0.074 A 
ATOM     43  C   UNL A   1      45.936  27.752  25.923  1.00  0.00     0.031 C 
ATOM     44  C   UNL A   1      40.241  25.760  28.629  1.00  0.00     0.029 A 
ATOM     45  C   UNL A   1      40.817  27.005  29.113  1.00  0.00     0.049 A 
ATOM     46  H   UNL A   1      42.855  27.498  29.113  1.00  0.00     0.167 HD
ATOM     47  C   UNL A   1      46.643  29.155  27.896  1.00  0.00     0.037 A 
ATOM     48  C   UNL A   1      40.197  28.088  29.650  1.00  0.00     0.037 A 
ATOM     49  C   UNL A   1      46.777  29.029  29.316  1.00  0.00     0.049 A 
ATOM     50  C   UNL A   1      41.226  28.958  30.267  1.00  0.00     0.074 A 
ATOM     51  C   UNL A   1      47.494  28.211  30.164  1.00  0.00     0.029 A 
ATOM     52  N   UNL A   1      45.845  29.665  30.091  1.00  0.00    -0.354 N 
ATOM     53  N   UNL A   1      41.882  28.684  31.358  1.00  0.00    -0.248 NA
ATOM     54  C   UNL A   1      41.748  30.073  29.488  1.00  0.00     0.031 C 
ATOM     55  C   UNL A   1      46.704  28.098  31.344  1.00  0.00     0.029 A 
ATOM     56  C   UNL A   1      45.551  28.860  31.158  1.00  0.00     0.049 A 
ATOM     57  H   UNL A   1      45.455  30.551  29.911  1.00  0.00     0.167 HD
ATOM     58  C   UNL A   1      43.109  29.302  31.190  1.00  0.00     0.074 A 
ATOM     59  C   UNL A   1      42.912  30.257  30.111  1.00  0.00     0.031 C 
ATOM     60  C   UNL A   1      44.233  28.770  31.745  1.00  0.00     0.037 A 
BRANCH  47  61
ATOM     61  C   UNL A   1      46.663  30.483  27.188  1.00  0.00     0.064 A 
ATOM     62  C   UNL A   1      47.842  31.243  27.150  1.00  0.00     0.173 A 
ATOM     63  C   UNL A   1      45.483  31.154  26.790  1.00  0.00     0.173 A 
ATOM     64  F   UNL A   1      49.003  30.719  27.572  1.00  0.00    -0.203 F 
ATOM     65  C   UNL A   1      47.835  32.586  26.761  1.00  0.00     0.198 A 
ATOM     66  C   UNL A   1      45.489  32.472  26.343  1.00  0.00     0.198 A 
ATOM     67  F   UNL A   1      44.272  30.597  26.926  1.00  0.00    -0.203 F 
ATOM     68  F   UNL A   1      48.961  33.307  26.843  1.00  0.00    -0.200 F 
ATOM     69  C   UNL A   1      46.662  33.196  26.351  1.00  0.00     0.200 A 
ATOM     70  F   UNL A   1      44.335  33.051  25.983  1.00  0.00    -0.200 F 
ATOM     71  F   UNL A   1      46.648  34.493  26.018  1.00  0.00    -0.200 F 
ENDBRANCH  47  61
BRANCH  48  72
ATOM     72  C   UNL A   1      38.796  28.565  29.475  1.00  0.00     0.064 A 
ATOM     73  C   UNL A   1      37.960  28.807  30.583  1.00  0.00     0.173 A 
ATOM     74  C   UNL A   1      38.332  29.053  28.238  1.00  0.00     0.173 A 
ATOM     75  F   UNL A   1      38.334  28.420  31.812  1.00  0.00    -0.203 F 
ATOM     76  C   UNL A   1      36.760  29.520  30.464  1.00  0.00     0.198 A 
ATOM     77  C   UNL A   1      37.125  29.746  28.117  1.00  0.00     0.198 A 
ATOM     78  F   UNL A   1      39.083  28.957  27.133  1.00  0.00    -0.203 F 
ATOM     79  F   UNL A   1      36.032  29.795  31.555  1.00  0.00    -0.200 F 
ATOM     80  C   UNL A   1      36.349  29.995  29.231  1.00  0.00     0.200 A 
ATOM     81  F   UNL A   1      36.758  30.227  26.921  1.00  0.00    -0.200 F 
ATOM     82  F   UNL A   1      35.232  30.729  29.122  1.00  0.00    -0.200 F 
ENDBRANCH  48  72
BRANCH  60  83
ATOM     83  C   UNL A   1      44.058  27.820  32.890  1.00  0.00     0.064 A 
ATOM     84  C   UNL A   1      43.940  26.427  32.751  1.00  0.00     0.173 A 
ATOM     85  C   UNL A   1      44.135  28.342  34.190  1.00  0.00     0.173 A 
ATOM     86  F   UNL A   1      43.952  25.847  31.543  1.00  0.00    -0.203 F 
ATOM     87  C   UNL A   1      43.862  25.602  33.873  1.00  0.00     0.198 A 
ATOM     88  C   UNL A   1      44.096  27.512  35.304  1.00  0.00     0.198 A 
ATOM     89  F   UNL A   1      44.296  29.663  34.375  1.00  0.00    -0.203 F 
ATOM     90  F   UNL A   1      43.737  24.277  33.722  1.00  0.00    -0.200 F 
ATOM     91  C   UNL A   1      43.950  26.144  35.146  1.00  0.00     0.200 A 
ATOM     92  F   UNL A   1      44.230  28.036  36.531  1.00  0.00    -0.200 F 
ATOM     93  F   UNL A   1      43.923  25.345  36.221  1.00  0.00    -0.200 F 
ENDBRANCH  60  83
ENDBRANCH  34  35
ENDBRANCH  27  29
ENDBRANCH  26  27
ENDBRANCH  25  26
ENDBRANCH  24  25
ENDBRANCH  23  24
ENDBRANCH  22  23
ENDBRANCH   1  22
TORSDOF 20
ENDMDL
MODEL 3
REMARK VINA RESULT:      -9.9      1.437      2.132
REMARK SMILES Cc1ccc2n[nH]cc2c1C(=O)OCCOCCOCCOCCOC(=O)c1ccc(-c2c3nc(c(-c4c(F)c(F)c(F)c(F)c4F)c4ccc([nH]4)c(-c4c(F)c(F)c(F)c(F)c4F)c4nc(c(-c5c(F)c(F)c(F)c(F)c5F)c5ccc2[nH]5)C=C4)C=C3)cc1
REMARK SMILES IDX 20 1 19 2 18 3 17 4 16 5 15 6 14 7 13 8 11 9 12 10 10 11
REMARK SMILES IDX 1 12 2 13 3 14 4 15 9 16 5 17 8 18 6 19 7 20 21 22 22 23
REMARK SMILES IDX 23 24 24 25 25 26 26 27 27 28 28 29 29 30 90 31 30 32 89 33
REMARK SMILES IDX 31 34 32 35 33 36 83 37 34 38 88 39 82 40 84 41 35 42 87 43
REMARK SMILES IDX 81 44 80 45 36 47 68 48 48 49 67 50 49 51 52 52 66 53 85 54
REMARK SMILES IDX 50 55 51 56 65 58 86 59 53 60 37 61 38 62 46 63 39 64 40 65
REMARK SMILES IDX 44 66 47 67 41 68 42 69 45 70 43 71 69 72 70 73 78 74 71 75
REMARK SMILES IDX 72 76 76 77 79 78 73 79 74 80 77 81 75 82 54 83 55 84 63 85
REMARK SMILES IDX 56 86 57 87 61 88 64 89 58 90 59 91 62 92 60 93
REMARK H PARENT 7 21 84 46 52 57
REMARK Flexibility Score: inf
ROOT
ATOM      1  C   UNL A   1      40.508  21.167  26.592  1.00  0.00     0.188 C 
ENDROOT
BRANCH   1   2
ATOM      2  O   UNL A   1      39.355  21.967  26.841  1.00  0.00    -0.377 OA
BRANCH   2   3
ATOM      3  C   UNL A   1      38.414  22.125  25.798  1.00  0.00     0.188 C 
BRANCH   3   4
ATOM      4  C   UNL A   1      37.653  23.459  25.771  1.00  0.00     0.188 C 
BRANCH   4   5
ATOM      5  O   UNL A   1      36.274  23.337  25.445  1.00  0.00    -0.376 OA
BRANCH   5   6
ATOM      6  C   UNL A   1      35.618  22.131  25.816  1.00  0.00     0.202 C 
BRANCH   6   7
ATOM      7  C   UNL A   1      34.242  21.835  25.196  1.00  0.00     0.261 C 
BRANCH   7   8
ATOM      8  O   UNL A   1      34.018  22.423  23.911  1.00  0.00    -0.460 OA
BRANCH   8   9
ATOM      9  C   UNL A   1      32.727  22.570  23.511  1.00  0.00     0.339 C 
ATOM     10  O   UNL A   1      32.109  21.824  22.816  1.00  0.00    -0.246 OA
BRANCH   9  11
ATOM     11  C   UNL A   1      32.156  23.706  24.287  1.00  0.00     0.074 A 
ATOM     12  C   UNL A   1      33.698  25.502  23.314  1.00  0.00     0.045 C 
ATOM     13  C   UNL A   1      32.563  25.073  24.216  1.00  0.00    -0.036 A 
ATOM     14  C   UNL A   1      31.977  26.089  25.053  1.00  0.00     0.006 A 
ATOM     15  C   UNL A   1      31.006  25.843  26.047  1.00  0.00     0.031 A 
ATOM     16  C   UNL A   1      31.211  23.487  25.303  1.00  0.00     0.034 A 
ATOM     17  C   UNL A   1      30.662  24.490  26.186  1.00  0.00     0.093 A 
ATOM     18  C   UNL A   1      30.718  22.286  25.748  1.00  0.00     0.114 A 
ATOM     19  N   UNL A   1      29.871  23.905  27.100  1.00  0.00    -0.176 NA
ATOM     20  N   UNL A   1      29.956  22.589  26.836  1.00  0.00    -0.284 N 
ATOM     21  H   UNL A   1      29.506  21.904  27.381  1.00  0.00     0.189 HD
ENDBRANCH   9  11
ENDBRANCH   8   9
ENDBRANCH   7   8
ENDBRANCH   6   7
ENDBRANCH   5   6
ENDBRANCH   4   5
ENDBRANCH   3   4
ENDBRANCH   2   3
ENDBRANCH   1   2
BRANCH   1  22
ATOM     22  C   UNL A   1      41.773  21.259  27.474  1.00  0.00     0.188 C 
BRANCH  22  23
ATOM     23  O   UNL A   1      42.669  20.177  27.288  1.00  0.00    -0.376 OA
BRANCH  23  24
ATOM     24  C   UNL A   1      42.440  19.341  26.165  1.00  0.00     0.202 C 
BRANCH  24  25
ATOM     25  C   UNL A   1      43.652  19.008  25.279  1.00  0.00     0.261 C 
BRANCH  25  26
ATOM     26  O   UNL A   1      44.708  19.982  25.330  1.00  0.00    -0.460 OA
BRANCH  26  27
ATOM     27  C   UNL A   1      44.821  20.907  24.348  1.00  0.00     0.338 C 
ATOM     28  O   UNL A   1      44.697  20.729  23.152  1.00  0.00    -0.246 OA
BRANCH  27  29
ATOM     29  C   UNL A   1      44.752  22.223  25.041  1.00  0.00     0.060 A 
ATOM     30  C   UNL A   1      45.409  22.435  26.258  1.00  0.00     0.016 A 
ATOM     31  C   UNL A   1      43.746  23.106  24.618  1.00  0.00     0.016 A 
ATOM     32  C   UNL A   1      44.954  23.441  27.107  1.00  0.00     0.010 A 
ATOM     33  C   UNL A   1      43.291  24.111  25.473  1.00  0.00     0.010 A 
ATOM     34  C   UNL A   1      43.864  24.255  26.739  1.00  0.00    -0.014 A 
BRANCH  34  35
ATOM     35  C   UNL A   1      43.552  25.396  27.617  1.00  0.00     0.031 A 
ATOM     36  C   UNL A   1      44.636  26.417  27.611  1.00  0.00     0.074 A 
ATOM     37  C   UNL A   1      42.387  25.673  28.243  1.00  0.00     0.049 A 
ATOM     38  N   UNL A   1      45.313  26.901  28.602  1.00  0.00    -0.248 NA
ATOM     39  C   UNL A   1      45.089  26.871  26.283  1.00  0.00     0.031 C 
ATOM     40  C   UNL A   1      41.109  24.982  28.085  1.00  0.00     0.029 A 
ATOM     41  N   UNL A   1      42.077  26.708  29.094  1.00  0.00    -0.354 N 
ATOM     42  C   UNL A   1      46.168  27.839  28.033  1.00  0.00     0.074 A 
ATOM     43  C   UNL A   1      46.096  27.677  26.605  1.00  0.00     0.031 C 
ATOM     44  C   UNL A   1      40.131  25.708  28.672  1.00  0.00     0.029 A 
ATOM     45  C   UNL A   1      40.713  26.879  29.311  1.00  0.00     0.049 A 
ATOM     46  H   UNL A   1      42.761  27.279  29.513  1.00  0.00     0.167 HD
ATOM     47  C   UNL A   1      46.693  28.866  28.748  1.00  0.00     0.037 A 
ATOM     48  C   UNL A   1      40.092  27.937  29.896  1.00  0.00     0.037 A 
ATOM     49  C   UNL A   1      46.708  28.609  30.156  1.00  0.00     0.049 A 
ATOM     50  C   UNL A   1      41.100  28.701  30.667  1.00  0.00     0.074 A 
ATOM     51  C   UNL A   1      47.324  27.688  30.978  1.00  0.00     0.029 A 
ATOM     52  N   UNL A   1      45.742  29.215  30.912  1.00  0.00    -0.354 N 
ATOM     53  N   UNL A   1      41.655  28.304  31.776  1.00  0.00    -0.248 NA
ATOM     54  C   UNL A   1      41.724  29.857  30.036  1.00  0.00     0.031 C 
ATOM     55  C   UNL A   1      46.437  27.506  32.079  1.00  0.00     0.029 A 
ATOM     56  C   UNL A   1      45.332  28.332  31.876  1.00  0.00     0.049 A 
ATOM     57  H   UNL A   1      45.400  30.130  30.785  1.00  0.00     0.167 HD
ATOM     58  C   UNL A   1      42.914  28.878  31.760  1.00  0.00     0.074 A 
ATOM     59  C   UNL A   1      42.841  29.933  30.762  1.00  0.00     0.031 C 
ATOM     60  C   UNL A   1      43.970  28.250  32.349  1.00  0.00     0.037 A 
BRANCH  47  61
ATOM     61  C   UNL A   1      46.820  30.250  28.168  1.00  0.00     0.064 A 
ATOM     62  C   UNL A   1      45.677  30.936  27.727  1.00  0.00     0.173 A 
ATOM     63  C   UNL A   1      48.062  30.802  27.775  1.00  0.00     0.173 A 
ATOM     64  F   UNL A   1      44.453  30.456  27.989  1.00  0.00    -0.203 F 
ATOM     65  C   UNL A   1      45.774  32.083  26.933  1.00  0.00     0.198 A 
ATOM     66  C   UNL A   1      48.155  31.978  27.038  1.00  0.00     0.198 A 
ATOM     67  F   UNL A   1      49.220  30.165  27.993  1.00  0.00    -0.203 F 
ATOM     68  F   UNL A   1      44.662  32.646  26.443  1.00  0.00    -0.200 F 
ATOM     69  C   UNL A   1      47.010  32.607  26.597  1.00  0.00     0.200 A 
ATOM     70  F   UNL A   1      49.363  32.448  26.696  1.00  0.00    -0.200 F 
ATOM     71  F   UNL A   1      47.102  33.680  25.802  1.00  0.00    -0.200 F 
ENDBRANCH  47  61
BRANCH  48  72
ATOM     72  C   UNL A   1      38.729  28.489  29.659  1.00  0.00     0.064 A 
ATOM     73  C   UNL A   1      37.869  28.805  30.729  1.00  0.00     0.173 A 
ATOM     74  C   UNL A   1      38.338  28.972  28.395  1.00  0.00     0.173 A 
ATOM     75  F   UNL A   1      38.175  28.428  31.979  1.00  0.00    -0.203 F 
ATOM     76  C   UNL A   1      36.718  29.583  30.549  1.00  0.00     0.198 A 
ATOM     77  C   UNL A   1      37.180  29.731  28.213  1.00  0.00     0.198 A 
ATOM     78  F   UNL A   1      39.121  28.807  27.321  1.00  0.00    -0.203 F 
ATOM     79  F   UNL A   1      35.969  29.927  31.606  1.00  0.00    -0.200 F 
ATOM     80  C   UNL A   1      36.380  30.051  29.292  1.00  0.00     0.200 A 
ATOM     81  F   UNL A   1      36.884  30.203  26.994  1.00  0.00    -0.200 F 
ATOM     82  F   UNL A   1      35.312  30.846  29.125  1.00  0.00    -0.200 F 
ENDBRANCH  48  72
BRANCH  60  83
ATOM     83  C   UNL A   1      43.668  27.211  33.384  1.00  0.00     0.064 A 
ATOM     84  C   UNL A   1      43.725  25.826  33.157  1.00  0.00     0.173 A 
ATOM     85  C   UNL A   1      43.426  27.647  34.696  1.00  0.00     0.173 A 
ATOM     86  F   UNL A   1      44.040  25.334  31.950  1.00  0.00    -0.203 F 
ATOM     87  C   UNL A   1      43.509  24.922  34.196  1.00  0.00     0.198 A 
ATOM     88  C   UNL A   1      43.250  26.742  35.737  1.00  0.00     0.198 A 
ATOM     89  F   UNL A   1      43.409  28.960  34.975  1.00  0.00    -0.203 F 
ATOM     90  F   UNL A   1      43.555  23.604  33.958  1.00  0.00    -0.200 F 
ATOM     91  C   UNL A   1      43.282  25.380  35.485  1.00  0.00     0.200 A 
ATOM     92  F   UNL A   1      43.080  27.190  36.988  1.00  0.00    -0.200 F 
ATOM     93  F   UNL A   1      43.122  24.509  36.490  1.00  0.00    -0.200 F 
ENDBRANCH  60  83
ENDBRANCH  34  35
ENDBRANCH  27  29
ENDBRANCH  26  27
ENDBRANCH  25  26
ENDBRANCH  24  25
ENDBRANCH  23  24
ENDBRANCH  22  23
ENDBRANCH   1  22
TORSDOF 20
ENDMDL
