MODEL 1
REMARK VINA RESULT:      -7.8      0.000      0.000
REMARK SMILES Cc1nc(CCc2ccc(S(=O)(=O)N3CCCC3)cc2)ncc1C(=O)OCCOCCOCCOCCOC(=O)c1ccc(-c2c3nc(c(-c4c(F)c(F)c(F)c(F)c4F)c4ccc([nH]4)c(-c4c(F)c(F)c(F)c(F)c4F)c4nc(c(-c5c(F)c(F)c(F)c(F)c5F)c5ccc2[nH]5)C=C4)C=C3)cc1
REMARK SMILES IDX 30 1 29 2 28 3 27 4 26 5 24 6 25 7 23 8 1 9 2 10 3 11 4 12
REMARK SMILES IDX 22 13 21 14 5 15 6 16 7 17 8 18 20 19 9 20 19 21 10 22 11 23
REMARK SMILES IDX 12 24 13 25 14 26 15 27 18 28 16 29 17 30 31 31 32 32 33 33
REMARK SMILES IDX 34 34 35 35 36 36 37 37 38 38 39 39 40 40 41 41 42 42 103 43
REMARK SMILES IDX 43 44 102 45 44 46 45 47 46 48 96 49 47 50 101 51 95 52
REMARK SMILES IDX 97 53 48 54 100 55 94 56 93 57 49 59 81 60 61 61 80 62 62 63
REMARK SMILES IDX 65 64 79 65 98 66 63 67 64 68 78 70 99 71 66 72 50 73 51 74
REMARK SMILES IDX 59 75 52 76 53 77 57 78 60 79 54 80 55 81 58 82 56 83 82 84
REMARK SMILES IDX 83 85 91 86 84 87 85 88 89 89 92 90 86 91 87 92 90 93 88 94
REMARK SMILES IDX 67 95 68 96 76 97 69 98 70 99 74 100 77 101 71 102 72 103
REMARK SMILES IDX 75 104 73 105
REMARK H PARENT 97 58 65 69
REMARK Flexibility Score: inf
ROOT
ATOM      1  C   UNL A   1      37.471  34.387  34.405  1.00  0.00     0.188 C 
ENDROOT
BRANCH   1   2
ATOM      2  O   UNL A   1      36.959  34.669  33.113  1.00  0.00    -0.376 OA
BRANCH   2   3
ATOM      3  C   UNL A   1      37.778  34.549  31.967  1.00  0.00     0.202 C 
BRANCH   3   4
ATOM      4  C   UNL A   1      39.306  34.564  32.076  1.00  0.00     0.261 C 
BRANCH   4   5
ATOM      5  O   UNL A   1      39.992  33.470  31.463  1.00  0.00    -0.460 OA
BRANCH   5   6
ATOM      6  C   UNL A   1      39.926  32.239  32.009  1.00  0.00     0.341 C 
ATOM      7  O   UNL A   1      39.875  31.973  33.198  1.00  0.00    -0.246 OA
BRANCH   6   8
ATOM      8  C   UNL A   1      39.756  31.270  30.911  1.00  0.00     0.099 A 
ATOM      9  C   UNL A   1      37.297  30.850  31.351  1.00  0.00     0.068 C 
ATOM     10  C   UNL A   1      38.556  30.677  30.578  1.00  0.00     0.056 A 
ATOM     11  N   UNL A   1      38.453  29.752  29.599  1.00  0.00    -0.237 NA
ATOM     12  C   UNL A   1      39.565  29.342  28.981  1.00  0.00     0.128 A 
ATOM     13  C   UNL A   1      40.847  30.816  30.199  1.00  0.00     0.130 A 
ATOM     14  N   UNL A   1      40.787  29.844  29.249  1.00  0.00    -0.240 NA
BRANCH  12  15
ATOM     15  C   UNL A   1      39.386  28.308  27.901  1.00  0.00     0.082 C 
BRANCH  15  16
ATOM     16  C   UNL A   1      39.030  26.889  28.392  1.00  0.00     0.043 C 
BRANCH  16  17
ATOM     17  C   UNL A   1      39.956  25.759  27.977  1.00  0.00    -0.047 A 
ATOM     18  C   UNL A   1      41.348  25.918  27.978  1.00  0.00     0.005 A 
ATOM     19  C   UNL A   1      39.428  24.520  27.575  1.00  0.00     0.005 A 
ATOM     20  C   UNL A   1      42.185  24.875  27.556  1.00  0.00     0.022 A 
ATOM     21  C   UNL A   1      40.261  23.476  27.148  1.00  0.00     0.022 A 
ATOM     22  C   UNL A   1      41.642  23.656  27.125  1.00  0.00     0.082 A 
BRANCH  22  23
ATOM     23  S   UNL A   1      42.761  22.375  26.566  1.00  0.00     0.243 S 
ATOM     24  O   UNL A   1      42.355  21.158  27.241  1.00  0.00    -0.207 OA
ATOM     25  O   UNL A   1      42.803  22.457  25.122  1.00  0.00    -0.207 OA
BRANCH  23  26
ATOM     26  N   UNL A   1      44.291  22.743  27.152  1.00  0.00    -0.198 NA
ATOM     27  C   UNL A   1      44.473  23.251  28.517  1.00  0.00     0.102 C 
ATOM     28  C   UNL A   1      45.358  23.243  26.265  1.00  0.00     0.102 C 
ATOM     29  C   UNL A   1      45.372  24.455  28.307  1.00  0.00     0.018 C 
ATOM     30  C   UNL A   1      46.290  24.033  27.182  1.00  0.00     0.018 C 
ENDBRANCH  23  26
ENDBRANCH  22  23
ENDBRANCH  16  17
ENDBRANCH  15  16
ENDBRANCH  12  15
ENDBRANCH   6   8
ENDBRANCH   5   6
ENDBRANCH   4   5
ENDBRANCH   3   4
ENDBRANCH   2   3
ENDBRANCH   1   2
BRANCH   1  31
ATOM     31  C   UNL A   1      36.864  33.112  35.032  1.00  0.00     0.188 C 
BRANCH  31  32
ATOM     32  O   UNL A   1      37.521  32.645  36.202  1.00  0.00    -0.377 OA
BRANCH  32  33
ATOM     33  C   UNL A   1      37.433  33.418  37.403  1.00  0.00     0.188 C 
BRANCH  33  34
ATOM     34  C   UNL A   1      38.468  33.323  38.556  1.00  0.00     0.188 C 
BRANCH  34  35
ATOM     35  O   UNL A   1      38.402  34.384  39.494  1.00  0.00    -0.376 OA
BRANCH  35  36
ATOM     36  C   UNL A   1      39.406  34.494  40.482  1.00  0.00     0.202 C 
BRANCH  36  37
ATOM     37  C   UNL A   1      40.849  34.425  39.973  1.00  0.00     0.261 C 
BRANCH  37  38
ATOM     38  O   UNL A   1      41.504  35.690  39.802  1.00  0.00    -0.460 OA
BRANCH  38  39
ATOM     39  C   UNL A   1      41.074  36.462  38.779  1.00  0.00     0.338 C 
ATOM     40  O   UNL A   1      40.535  37.550  38.848  1.00  0.00    -0.246 OA
BRANCH  39  41
ATOM     41  C   UNL A   1      41.539  35.831  37.530  1.00  0.00     0.060 A 
ATOM     42  C   UNL A   1      40.596  35.452  36.565  1.00  0.00     0.016 A 
ATOM     43  C   UNL A   1      42.902  35.620  37.316  1.00  0.00     0.016 A 
ATOM     44  C   UNL A   1      41.017  34.826  35.391  1.00  0.00     0.010 A 
ATOM     45  C   UNL A   1      43.321  34.976  36.150  1.00  0.00     0.010 A 
ATOM     46  C   UNL A   1      42.377  34.546  35.200  1.00  0.00    -0.014 A 
BRANCH  46  47
ATOM     47  C   UNL A   1      42.797  33.633  34.111  1.00  0.00     0.031 A 
ATOM     48  C   UNL A   1      43.075  34.225  32.757  1.00  0.00     0.074 A 
ATOM     49  C   UNL A   1      42.937  32.313  34.319  1.00  0.00     0.049 A 
ATOM     50  N   UNL A   1      43.389  33.630  31.635  1.00  0.00    -0.248 NA
ATOM     51  C   UNL A   1      42.981  35.691  32.654  1.00  0.00     0.031 C 
ATOM     52  C   UNL A   1      42.742  31.632  35.596  1.00  0.00     0.029 A 
ATOM     53  N   UNL A   1      43.271  31.308  33.446  1.00  0.00    -0.354 N 
ATOM     54  C   UNL A   1      43.519  34.644  30.696  1.00  0.00     0.074 A 
ATOM     55  C   UNL A   1      43.221  35.890  31.368  1.00  0.00     0.031 C 
ATOM     56  C   UNL A   1      42.948  30.314  35.421  1.00  0.00     0.029 A 
ATOM     57  C   UNL A   1      43.250  30.057  34.013  1.00  0.00     0.049 A 
ATOM     58  H   UNL A   1      43.502  31.467  32.502  1.00  0.00     0.167 HD
ATOM     59  C   UNL A   1      43.861  34.544  29.389  1.00  0.00     0.037 A 
ATOM     60  C   UNL A   1      43.430  28.846  33.449  1.00  0.00     0.037 A 
ATOM     61  C   UNL A   1      44.156  33.303  28.726  1.00  0.00     0.049 A 
ATOM     62  C   UNL A   1      43.730  28.758  31.971  1.00  0.00     0.074 A 
ATOM     63  C   UNL A   1      44.536  33.097  27.411  1.00  0.00     0.029 A 
ATOM     64  N   UNL A   1      44.093  32.054  29.325  1.00  0.00    -0.354 N 
ATOM     65  N   UNL A   1      43.884  29.723  31.095  1.00  0.00    -0.248 NA
ATOM     66  C   UNL A   1      43.883  27.410  31.406  1.00  0.00     0.031 C 
ATOM     67  C   UNL A   1      44.639  31.720  27.198  1.00  0.00     0.029 A 
ATOM     68  C   UNL A   1      44.396  31.070  28.397  1.00  0.00     0.049 A 
ATOM     69  H   UNL A   1      43.867  31.891  30.269  1.00  0.00     0.167 HD
ATOM     70  C   UNL A   1      44.190  29.101  29.889  1.00  0.00     0.074 A 
ATOM     71  C   UNL A   1      44.212  27.677  30.150  1.00  0.00     0.031 C 
ATOM     72  C   UNL A   1      44.431  29.657  28.676  1.00  0.00     0.037 A 
BRANCH  59  73
ATOM     73  C   UNL A   1      43.902  35.809  28.581  1.00  0.00     0.064 A 
ATOM     74  C   UNL A   1      45.094  36.524  28.384  1.00  0.00     0.173 A 
ATOM     75  C   UNL A   1      42.740  36.289  27.960  1.00  0.00     0.173 A 
ATOM     76  F   UNL A   1      46.231  36.118  28.968  1.00  0.00    -0.203 F 
ATOM     77  C   UNL A   1      45.113  37.683  27.612  1.00  0.00     0.198 A 
ATOM     78  C   UNL A   1      42.769  37.430  27.163  1.00  0.00     0.198 A 
ATOM     79  F   UNL A   1      41.575  35.643  28.115  1.00  0.00    -0.203 F 
ATOM     80  F   UNL A   1      46.252  38.376  27.475  1.00  0.00    -0.200 F 
ATOM     81  C   UNL A   1      43.954  38.130  26.996  1.00  0.00     0.200 A 
ATOM     82  F   UNL A   1      41.651  37.850  26.556  1.00  0.00    -0.200 F 
ATOM     83  F   UNL A   1      43.977  39.238  26.243  1.00  0.00    -0.200 F 
ENDBRANCH  59  73
BRANCH  60  84
ATOM     84  C   UNL A   1      43.316  27.610  34.269  1.00  0.00     0.064 A 
ATOM     85  C   UNL A   1      44.455  26.984  34.797  1.00  0.00     0.173 A 
ATOM     86  C   UNL A   1      42.073  27.006  34.510  1.00  0.00     0.173 A 
ATOM     87  F   UNL A   1      45.669  27.509  34.578  1.00  0.00    -0.203 F 
ATOM     88  C   UNL A   1      44.358  25.788  35.505  1.00  0.00     0.198 A 
ATOM     89  C   UNL A   1      41.974  25.828  35.248  1.00  0.00     0.198 A 
ATOM     90  F   UNL A   1      40.951  27.564  34.034  1.00  0.00    -0.203 F 
ATOM     91  F   UNL A   1      45.469  25.182  35.947  1.00  0.00    -0.200 F 
ATOM     92  C   UNL A   1      43.118  25.214  35.734  1.00  0.00     0.200 A 
ATOM     93  F   UNL A   1      40.771  25.288  35.483  1.00  0.00    -0.200 F 
ATOM     94  F   UNL A   1      43.025  24.064  36.416  1.00  0.00    -0.200 F 
ENDBRANCH  60  84
BRANCH  72  95
ATOM     95  C   UNL A   1      44.795  28.734  27.546  1.00  0.00     0.064 A 
ATOM     96  C   UNL A   1      43.841  28.269  26.629  1.00  0.00     0.173 A 
ATOM     97  C   UNL A   1      46.130  28.345  27.355  1.00  0.00     0.173 A 
ATOM     98  F   UNL A   1      42.549  28.601  26.773  1.00  0.00    -0.203 F 
ATOM     99  C   UNL A   1      44.205  27.427  25.581  1.00  0.00     0.198 A 
ATOM    100  C   UNL A   1      46.497  27.534  26.285  1.00  0.00     0.198 A 
ATOM    101  F   UNL A   1      47.087  28.768  28.197  1.00  0.00    -0.203 F 
ATOM    102  F   UNL A   1      43.268  26.952  24.749  1.00  0.00    -0.200 F 
ATOM    103  C   UNL A   1      45.533  27.068  25.405  1.00  0.00     0.200 A 
ATOM    104  F   UNL A   1      47.784  27.204  26.106  1.00  0.00    -0.200 F 
ATOM    105  F   UNL A   1      45.883  26.266  24.390  1.00  0.00    -0.200 F 
ENDBRANCH  72  95
ENDBRANCH  46  47
ENDBRANCH  39  41
ENDBRANCH  38  39
ENDBRANCH  37  38
ENDBRANCH  36  37
ENDBRANCH  35  36
ENDBRANCH  34  35
ENDBRANCH  33  34
ENDBRANCH  32  33
ENDBRANCH  31  32
ENDBRANCH   1  31
TORSDOF 25
ENDMDL
MODEL 2
REMARK VINA RESULT:      -7.4      5.541     11.097
REMARK SMILES Cc1nc(CCc2ccc(S(=O)(=O)N3CCCC3)cc2)ncc1C(=O)OCCOCCOCCOCCOC(=O)c1ccc(-c2c3nc(c(-c4c(F)c(F)c(F)c(F)c4F)c4ccc([nH]4)c(-c4c(F)c(F)c(F)c(F)c4F)c4nc(c(-c5c(F)c(F)c(F)c(F)c5F)c5ccc2[nH]5)C=C4)C=C3)cc1
REMARK SMILES IDX 30 1 29 2 28 3 27 4 26 5 24 6 25 7 23 8 1 9 2 10 3 11 4 12
REMARK SMILES IDX 22 13 21 14 5 15 6 16 7 17 8 18 20 19 9 20 19 21 10 22 11 23
REMARK SMILES IDX 12 24 13 25 14 26 15 27 18 28 16 29 17 30 31 31 32 32 33 33
REMARK SMILES IDX 34 34 35 35 36 36 37 37 38 38 39 39 40 40 41 41 42 42 103 43
REMARK SMILES IDX 43 44 102 45 44 46 45 47 46 48 96 49 47 50 101 51 95 52
REMARK SMILES IDX 97 53 48 54 100 55 94 56 93 57 49 59 81 60 61 61 80 62 62 63
REMARK SMILES IDX 65 64 79 65 98 66 63 67 64 68 78 70 99 71 66 72 50 73 51 74
REMARK SMILES IDX 59 75 52 76 53 77 57 78 60 79 54 80 55 81 58 82 56 83 82 84
REMARK SMILES IDX 83 85 91 86 84 87 85 88 89 89 92 90 86 91 87 92 90 93 88 94
REMARK SMILES IDX 67 95 68 96 76 97 69 98 70 99 74 100 77 101 71 102 72 103
REMARK SMILES IDX 75 104 73 105
REMARK H PARENT 97 58 65 69
REMARK Flexibility Score: inf
ROOT
ATOM      1  C   UNL A   1      34.175  36.003  33.584  1.00  0.00     0.188 C 
ENDROOT
BRANCH   1   2
ATOM      2  O   UNL A   1      33.575  36.486  32.394  1.00  0.00    -0.376 OA
BRANCH   2   3
ATOM      3  C   UNL A   1      33.699  35.772  31.180  1.00  0.00     0.202 C 
BRANCH   3   4
ATOM      4  C   UNL A   1      32.861  36.138  29.951  1.00  0.00     0.261 C 
BRANCH   4   5
ATOM      5  O   UNL A   1      32.568  35.070  29.048  1.00  0.00    -0.460 OA
BRANCH   5   6
ATOM      6  C   UNL A   1      33.530  34.585  28.239  1.00  0.00     0.341 C 
ATOM      7  O   UNL A   1      34.601  35.110  27.987  1.00  0.00    -0.246 OA
BRANCH   6   8
ATOM      8  C   UNL A   1      33.136  33.221  27.840  1.00  0.00     0.099 A 
ATOM      9  C   UNL A   1      35.324  32.139  28.515  1.00  0.00     0.068 C 
ATOM     10  C   UNL A   1      33.925  32.103  28.010  1.00  0.00     0.056 A 
ATOM     11  N   UNL A   1      33.549  30.879  27.581  1.00  0.00    -0.237 NA
ATOM     12  C   UNL A   1      32.404  30.759  26.901  1.00  0.00     0.128 A 
ATOM     13  C   UNL A   1      31.954  33.002  27.162  1.00  0.00     0.130 A 
ATOM     14  N   UNL A   1      31.573  31.793  26.665  1.00  0.00    -0.240 NA
BRANCH  12  15
ATOM     15  C   UNL A   1      32.039  29.370  26.448  1.00  0.00     0.082 C 
BRANCH  15  16
ATOM     16  C   UNL A   1      33.093  28.280  26.734  1.00  0.00     0.043 C 
BRANCH  16  17
ATOM     17  C   UNL A   1      33.042  27.024  25.880  1.00  0.00    -0.047 A 
ATOM     18  C   UNL A   1      32.209  25.949  26.213  1.00  0.00     0.005 A 
ATOM     19  C   UNL A   1      33.843  26.915  24.731  1.00  0.00     0.005 A 
ATOM     20  C   UNL A   1      32.203  24.783  25.433  1.00  0.00     0.022 A 
ATOM     21  C   UNL A   1      33.845  25.750  23.950  1.00  0.00     0.022 A 
ATOM     22  C   UNL A   1      33.034  24.676  24.308  1.00  0.00     0.082 A 
BRANCH  22  23
ATOM     23  S   UNL A   1      33.007  23.150  23.372  1.00  0.00     0.243 S 
ATOM     24  O   UNL A   1      31.620  22.908  23.027  1.00  0.00    -0.207 OA
ATOM     25  O   UNL A   1      34.027  23.266  22.352  1.00  0.00    -0.207 OA
BRANCH  23  26
ATOM     26  N   UNL A   1      33.450  21.907  24.411  1.00  0.00    -0.198 NA
ATOM     27  C   UNL A   1      34.692  21.982  25.189  1.00  0.00     0.102 C 
ATOM     28  C   UNL A   1      33.098  20.502  24.130  1.00  0.00     0.102 C 
ATOM     29  C   UNL A   1      35.330  20.629  24.932  1.00  0.00     0.018 C 
ATOM     30  C   UNL A   1      34.155  19.680  24.864  1.00  0.00     0.018 C 
ENDBRANCH  23  26
ENDBRANCH  22  23
ENDBRANCH  16  17
ENDBRANCH  15  16
ENDBRANCH  12  15
ENDBRANCH   6   8
ENDBRANCH   5   6
ENDBRANCH   4   5
ENDBRANCH   3   4
ENDBRANCH   2   3
ENDBRANCH   1   2
BRANCH   1  31
ATOM     31  C   UNL A   1      35.429  35.139  33.323  1.00  0.00     0.188 C 
BRANCH  31  32
ATOM     32  O   UNL A   1      35.725  34.186  34.335  1.00  0.00    -0.377 OA
BRANCH  32  33
ATOM     33  C   UNL A   1      36.169  32.881  33.951  1.00  0.00     0.188 C 
BRANCH  33  34
ATOM     34  C   UNL A   1      36.675  32.537  32.524  1.00  0.00     0.188 C 
BRANCH  34  35
ATOM     35  O   UNL A   1      36.014  31.443  31.914  1.00  0.00    -0.376 OA
BRANCH  35  36
ATOM     36  C   UNL A   1      36.554  30.145  32.056  1.00  0.00     0.202 C 
BRANCH  36  37
ATOM     37  C   UNL A   1      38.073  30.036  31.893  1.00  0.00     0.261 C 
BRANCH  37  38
ATOM     38  O   UNL A   1      38.519  29.335  30.722  1.00  0.00    -0.460 OA
BRANCH  38  39
ATOM     39  C   UNL A   1      38.577  30.047  29.575  1.00  0.00     0.338 C 
ATOM     40  O   UNL A   1      37.923  29.877  28.563  1.00  0.00    -0.246 OA
BRANCH  39  41
ATOM     41  C   UNL A   1      39.457  31.205  29.821  1.00  0.00     0.060 A 
ATOM     42  C   UNL A   1      40.821  30.988  30.055  1.00  0.00     0.016 A 
ATOM     43  C   UNL A   1      38.932  32.498  29.817  1.00  0.00     0.016 A 
ATOM     44  C   UNL A   1      41.661  32.069  30.320  1.00  0.00     0.010 A 
ATOM     45  C   UNL A   1      39.770  33.579  30.102  1.00  0.00     0.010 A 
ATOM     46  C   UNL A   1      41.130  33.364  30.389  1.00  0.00    -0.014 A 
BRANCH  46  47
ATOM     47  C   UNL A   1      41.944  34.467  30.951  1.00  0.00     0.031 A 
ATOM     48  C   UNL A   1      41.915  34.683  32.439  1.00  0.00     0.074 A 
ATOM     49  C   UNL A   1      42.698  35.252  30.163  1.00  0.00     0.049 A 
ATOM     50  N   UNL A   1      42.485  35.616  33.157  1.00  0.00    -0.248 NA
ATOM     51  C   UNL A   1      41.131  33.715  33.223  1.00  0.00     0.031 C 
ATOM     52  C   UNL A   1      42.844  35.110  28.717  1.00  0.00     0.029 A 
ATOM     53  N   UNL A   1      43.479  36.336  30.478  1.00  0.00    -0.354 N 
ATOM     54  C   UNL A   1      42.120  35.354  34.471  1.00  0.00     0.074 A 
ATOM     55  C   UNL A   1      41.256  34.194  34.451  1.00  0.00     0.031 C 
ATOM     56  C   UNL A   1      43.657  36.082  28.265  1.00  0.00     0.029 A 
ATOM     57  C   UNL A   1      44.056  36.934  29.385  1.00  0.00     0.049 A 
ATOM     58  H   UNL A   1      43.613  36.655  31.400  1.00  0.00     0.167 HD
ATOM     59  C   UNL A   1      42.477  36.020  35.594  1.00  0.00     0.037 A 
ATOM     60  C   UNL A   1      44.798  38.056  29.301  1.00  0.00     0.037 A 
ATOM     61  C   UNL A   1      43.336  37.173  35.609  1.00  0.00     0.049 A 
ATOM     62  C   UNL A   1      45.115  38.826  30.562  1.00  0.00     0.074 A 
ATOM     63  C   UNL A   1      43.779  37.905  36.697  1.00  0.00     0.029 A 
ATOM     64  N   UNL A   1      43.875  37.770  34.478  1.00  0.00    -0.354 N 
ATOM     65  N   UNL A   1      44.795  38.555  31.805  1.00  0.00    -0.248 NA
ATOM     66  C   UNL A   1      45.899  40.059  30.405  1.00  0.00     0.031 C 
ATOM     67  C   UNL A   1      44.530  38.983  36.220  1.00  0.00     0.029 A 
ATOM     68  C   UNL A   1      44.619  38.881  34.841  1.00  0.00     0.049 A 
ATOM     69  H   UNL A   1      43.748  37.451  33.556  1.00  0.00     0.167 HD
ATOM     70  C   UNL A   1      45.370  39.558  32.577  1.00  0.00     0.074 A 
ATOM     71  C   UNL A   1      46.070  40.437  31.664  1.00  0.00     0.031 C 
ATOM     72  C   UNL A   1      45.325  39.736  33.921  1.00  0.00     0.037 A 
BRANCH  59  73
ATOM     73  C   UNL A   1      41.914  35.538  36.900  1.00  0.00     0.064 A 
ATOM     74  C   UNL A   1      42.634  34.681  37.748  1.00  0.00     0.173 A 
ATOM     75  C   UNL A   1      40.651  35.974  37.329  1.00  0.00     0.173 A 
ATOM     76  F   UNL A   1      43.839  34.221  37.378  1.00  0.00    -0.203 F 
ATOM     77  C   UNL A   1      42.101  34.264  38.964  1.00  0.00     0.198 A 
ATOM     78  C   UNL A   1      40.135  35.581  38.561  1.00  0.00     0.198 A 
ATOM     79  F   UNL A   1      39.922  36.794  36.558  1.00  0.00    -0.203 F 
ATOM     80  F   UNL A   1      42.786  33.409  39.736  1.00  0.00    -0.200 F 
ATOM     81  C   UNL A   1      40.857  34.720  39.373  1.00  0.00     0.200 A 
ATOM     82  F   UNL A   1      38.940  36.035  38.959  1.00  0.00    -0.200 F 
ATOM     83  F   UNL A   1      40.351  34.328  40.551  1.00  0.00    -0.200 F 
ENDBRANCH  59  73
BRANCH  60  84
ATOM     84  C   UNL A   1      45.285  38.540  27.981  1.00  0.00     0.064 A 
ATOM     85  C   UNL A   1      46.484  38.063  27.432  1.00  0.00     0.173 A 
ATOM     86  C   UNL A   1      44.583  39.516  27.258  1.00  0.00     0.173 A 
ATOM     87  F   UNL A   1      47.204  37.145  28.093  1.00  0.00    -0.203 F 
ATOM     88  C   UNL A   1      46.978  38.567  26.230  1.00  0.00     0.198 A 
ATOM     89  C   UNL A   1      45.060  39.994  26.039  1.00  0.00     0.198 A 
ATOM     90  F   UNL A   1      43.427  40.004  27.732  1.00  0.00    -0.203 F 
ATOM     91  F   UNL A   1      48.156  38.135  25.761  1.00  0.00    -0.200 F 
ATOM     92  C   UNL A   1      46.264  39.528  25.533  1.00  0.00     0.200 A 
ATOM     93  F   UNL A   1      44.356  40.908  25.359  1.00  0.00    -0.200 F 
ATOM     94  F   UNL A   1      46.739  40.010  24.376  1.00  0.00    -0.200 F 
ENDBRANCH  60  84
BRANCH  72  95
ATOM     95  C   UNL A   1      46.095  40.892  34.497  1.00  0.00     0.064 A 
ATOM     96  C   UNL A   1      47.418  40.757  34.941  1.00  0.00     0.173 A 
ATOM     97  C   UNL A   1      45.510  42.167  34.562  1.00  0.00     0.173 A 
ATOM     98  F   UNL A   1      48.020  39.559  34.912  1.00  0.00    -0.203 F 
ATOM     99  C   UNL A   1      48.116  41.847  35.456  1.00  0.00     0.198 A 
ATOM    100  C   UNL A   1      46.223  43.262  35.043  1.00  0.00     0.198 A 
ATOM    101  F   UNL A   1      44.249  42.356  34.141  1.00  0.00    -0.203 F 
ATOM    102  F   UNL A   1      49.361  41.682  35.925  1.00  0.00    -0.200 F 
ATOM    103  C   UNL A   1      47.521  43.099  35.498  1.00  0.00     0.200 A 
ATOM    104  F   UNL A   1      45.652  44.474  35.064  1.00  0.00    -0.200 F 
ATOM    105  F   UNL A   1      48.198  44.148  35.985  1.00  0.00    -0.200 F 
ENDBRANCH  72  95
ENDBRANCH  46  47
ENDBRANCH  39  41
ENDBRANCH  38  39
ENDBRANCH  37  38
ENDBRANCH  36  37
ENDBRANCH  35  36
ENDBRANCH  34  35
ENDBRANCH  33  34
ENDBRANCH  32  33
ENDBRANCH  31  32
ENDBRANCH   1  31
TORSDOF 25
ENDMDL
MODEL 3
REMARK VINA RESULT:      -7.4      6.088     12.091
REMARK SMILES Cc1nc(CCc2ccc(S(=O)(=O)N3CCCC3)cc2)ncc1C(=O)OCCOCCOCCOCCOC(=O)c1ccc(-c2c3nc(c(-c4c(F)c(F)c(F)c(F)c4F)c4ccc([nH]4)c(-c4c(F)c(F)c(F)c(F)c4F)c4nc(c(-c5c(F)c(F)c(F)c(F)c5F)c5ccc2[nH]5)C=C4)C=C3)cc1
REMARK SMILES IDX 30 1 29 2 28 3 27 4 26 5 24 6 25 7 23 8 1 9 2 10 3 11 4 12
REMARK SMILES IDX 22 13 21 14 5 15 6 16 7 17 8 18 20 19 9 20 19 21 10 22 11 23
REMARK SMILES IDX 12 24 13 25 14 26 15 27 18 28 16 29 17 30 31 31 32 32 33 33
REMARK SMILES IDX 34 34 35 35 36 36 37 37 38 38 39 39 40 40 41 41 42 42 103 43
REMARK SMILES IDX 43 44 102 45 44 46 45 47 46 48 96 49 47 50 101 51 95 52
REMARK SMILES IDX 97 53 48 54 100 55 94 56 93 57 49 59 81 60 61 61 80 62 62 63
REMARK SMILES IDX 65 64 79 65 98 66 63 67 64 68 78 70 99 71 66 72 50 73 51 74
REMARK SMILES IDX 59 75 52 76 53 77 57 78 60 79 54 80 55 81 58 82 56 83 82 84
REMARK SMILES IDX 83 85 91 86 84 87 85 88 89 89 92 90 86 91 87 92 90 93 88 94
REMARK SMILES IDX 67 95 68 96 76 97 69 98 70 99 74 100 77 101 71 102 72 103
REMARK SMILES IDX 75 104 73 105
REMARK H PARENT 97 58 65 69
REMARK Flexibility Score: inf
ROOT
ATOM      1  C   UNL A   1      41.242  20.796  26.815  1.00  0.00     0.188 C 
ENDROOT
BRANCH   1   2
ATOM      2  O   UNL A   1      39.892  21.070  26.480  1.00  0.00    -0.376 OA
BRANCH   2   3
ATOM      3  C   UNL A   1      39.411  22.399  26.442  1.00  0.00     0.202 C 
BRANCH   3   4
ATOM      4  C   UNL A   1      38.022  22.728  25.887  1.00  0.00     0.261 C 
BRANCH   4   5
ATOM      5  O   UNL A   1      37.601  21.968  24.753  1.00  0.00    -0.460 OA
BRANCH   5   6
ATOM      6  C   UNL A   1      36.439  21.286  24.788  1.00  0.00     0.341 C 
ATOM      7  O   UNL A   1      36.307  20.083  24.938  1.00  0.00    -0.246 OA
BRANCH   6   8
ATOM      8  C   UNL A   1      35.341  22.270  24.784  1.00  0.00     0.099 A 
ATOM      9  C   UNL A   1      34.011  21.141  26.621  1.00  0.00     0.068 C 
ATOM     10  C   UNL A   1      34.265  22.236  25.647  1.00  0.00     0.056 A 
ATOM     11  N   UNL A   1      33.252  23.126  25.574  1.00  0.00    -0.237 NA
ATOM     12  C   UNL A   1      33.254  24.025  24.585  1.00  0.00     0.128 A 
ATOM     13  C   UNL A   1      35.282  23.253  23.818  1.00  0.00     0.130 A 
ATOM     14  N   UNL A   1      34.247  24.126  23.680  1.00  0.00    -0.240 NA
BRANCH  12  15
ATOM     15  C   UNL A   1      32.096  24.989  24.557  1.00  0.00     0.082 C 
BRANCH  15  16
ATOM     16  C   UNL A   1      32.463  26.459  24.267  1.00  0.00     0.043 C 
BRANCH  16  17
ATOM     17  C   UNL A   1      31.316  27.424  24.017  1.00  0.00    -0.047 A 
ATOM     18  C   UNL A   1      30.008  26.965  23.811  1.00  0.00     0.005 A 
ATOM     19  C   UNL A   1      31.548  28.809  23.984  1.00  0.00     0.005 A 
ATOM     20  C   UNL A   1      28.969  27.869  23.545  1.00  0.00     0.022 A 
ATOM     21  C   UNL A   1      30.514  29.717  23.714  1.00  0.00     0.022 A 
ATOM     22  C   UNL A   1      29.223  29.247  23.481  1.00  0.00     0.082 A 
BRANCH  22  23
ATOM     23  S   UNL A   1      27.862  30.347  23.105  1.00  0.00     0.243 S 
ATOM     24  O   UNL A   1      26.772  29.505  22.654  1.00  0.00    -0.207 OA
ATOM     25  O   UNL A   1      27.711  31.230  24.241  1.00  0.00    -0.207 OA
BRANCH  23  26
ATOM     26  N   UNL A   1      28.310  31.277  21.780  1.00  0.00    -0.198 NA
ATOM     27  C   UNL A   1      28.349  32.742  21.866  1.00  0.00     0.102 C 
ATOM     28  C   UNL A   1      28.020  30.845  20.399  1.00  0.00     0.102 C 
ATOM     29  C   UNL A   1      27.584  33.168  20.627  1.00  0.00     0.018 C 
ATOM     30  C   UNL A   1      27.968  32.139  19.589  1.00  0.00     0.018 C 
ENDBRANCH  23  26
ENDBRANCH  22  23
ENDBRANCH  16  17
ENDBRANCH  15  16
ENDBRANCH  12  15
ENDBRANCH   6   8
ENDBRANCH   5   6
ENDBRANCH   4   5
ENDBRANCH   3   4
ENDBRANCH   2   3
ENDBRANCH   1   2
BRANCH   1  31
ATOM     31  C   UNL A   1      41.866  21.866  27.738  1.00  0.00     0.188 C 
BRANCH  31  32
ATOM     32  O   UNL A   1      43.244  22.129  27.512  1.00  0.00    -0.377 OA
BRANCH  32  33
ATOM     33  C   UNL A   1      43.809  21.821  26.233  1.00  0.00     0.188 C 
BRANCH  33  34
ATOM     34  C   UNL A   1      44.985  22.616  25.607  1.00  0.00     0.188 C 
BRANCH  34  35
ATOM     35  O   UNL A   1      45.688  23.443  26.518  1.00  0.00    -0.376 OA
BRANCH  35  36
ATOM     36  C   UNL A   1      46.801  24.183  26.061  1.00  0.00     0.202 C 
BRANCH  36  37
ATOM     37  C   UNL A   1      46.513  25.200  24.953  1.00  0.00     0.261 C 
BRANCH  37  38
ATOM     38  O   UNL A   1      45.292  25.941  25.097  1.00  0.00    -0.460 OA
BRANCH  38  39
ATOM     39  C   UNL A   1      45.401  27.287  25.150  1.00  0.00     0.338 C 
ATOM     40  O   UNL A   1      45.986  28.013  24.370  1.00  0.00    -0.246 OA
BRANCH  39  41
ATOM     41  C   UNL A   1      44.523  27.755  26.239  1.00  0.00     0.060 A 
ATOM     42  C   UNL A   1      44.426  29.129  26.495  1.00  0.00     0.016 A 
ATOM     43  C   UNL A   1      43.797  26.836  26.998  1.00  0.00     0.016 A 
ATOM     44  C   UNL A   1      43.625  29.586  27.541  1.00  0.00     0.010 A 
ATOM     45  C   UNL A   1      43.010  27.292  28.057  1.00  0.00     0.010 A 
ATOM     46  C   UNL A   1      42.948  28.666  28.353  1.00  0.00    -0.014 A 
BRANCH  46  47
ATOM     47  C   UNL A   1      42.339  29.115  29.627  1.00  0.00     0.031 A 
ATOM     48  C   UNL A   1      40.955  29.701  29.584  1.00  0.00     0.074 A 
ATOM     49  C   UNL A   1      42.992  28.996  30.796  1.00  0.00     0.049 A 
ATOM     50  N   UNL A   1      40.240  30.222  30.547  1.00  0.00    -0.248 NA
ATOM     51  C   UNL A   1      40.289  29.704  28.271  1.00  0.00     0.031 C 
ATOM     52  C   UNL A   1      44.315  28.401  30.970  1.00  0.00     0.029 A 
ATOM     53  N   UNL A   1      42.625  29.383  32.061  1.00  0.00    -0.354 N 
ATOM     54  C   UNL A   1      39.049  30.623  29.956  1.00  0.00     0.074 A 
ATOM     55  C   UNL A   1      39.146  30.314  28.546  1.00  0.00     0.031 C 
ATOM     56  C   UNL A   1      44.656  28.475  32.269  1.00  0.00     0.029 A 
ATOM     57  C   UNL A   1      43.593  29.155  33.008  1.00  0.00     0.049 A 
ATOM     58  H   UNL A   1      41.752  29.786  32.270  1.00  0.00     0.167 HD
ATOM     59  C   UNL A   1      37.968  31.194  30.539  1.00  0.00     0.037 A 
ATOM     60  C   UNL A   1      43.621  29.484  34.315  1.00  0.00     0.037 A 
ATOM     61  C   UNL A   1      37.876  31.499  31.941  1.00  0.00     0.049 A 
ATOM     62  C   UNL A   1      42.435  30.194  34.923  1.00  0.00     0.074 A 
ATOM     63  C   UNL A   1      36.816  32.056  32.635  1.00  0.00     0.029 A 
ATOM     64  N   UNL A   1      38.889  31.284  32.864  1.00  0.00    -0.354 N 
ATOM     65  N   UNL A   1      41.298  30.540  34.366  1.00  0.00    -0.248 NA
ATOM     66  C   UNL A   1      42.537  30.557  36.343  1.00  0.00     0.031 C 
ATOM     67  C   UNL A   1      37.211  32.238  33.963  1.00  0.00     0.029 A 
ATOM     68  C   UNL A   1      38.490  31.727  34.115  1.00  0.00     0.049 A 
ATOM     69  H   UNL A   1      39.762  30.877  32.660  1.00  0.00     0.167 HD
ATOM     70  C   UNL A   1      40.539  31.124  35.374  1.00  0.00     0.074 A 
ATOM     71  C   UNL A   1      41.339  31.073  36.579  1.00  0.00     0.031 C 
ATOM     72  C   UNL A   1      39.292  31.653  35.309  1.00  0.00     0.037 A 
BRANCH  59  73
ATOM     73  C   UNL A   1      36.809  31.557  29.656  1.00  0.00     0.064 A 
ATOM     74  C   UNL A   1      35.883  30.598  29.216  1.00  0.00     0.173 A 
ATOM     75  C   UNL A   1      36.600  32.892  29.278  1.00  0.00     0.173 A 
ATOM     76  F   UNL A   1      36.046  29.305  29.535  1.00  0.00    -0.203 F 
ATOM     77  C   UNL A   1      34.804  30.961  28.415  1.00  0.00     0.198 A 
ATOM     78  C   UNL A   1      35.501  33.256  28.505  1.00  0.00     0.198 A 
ATOM     79  F   UNL A   1      37.454  33.847  29.672  1.00  0.00    -0.203 F 
ATOM     80  F   UNL A   1      33.957  30.023  27.969  1.00  0.00    -0.200 F 
ATOM     81  C   UNL A   1      34.609  32.289  28.068  1.00  0.00     0.200 A 
ATOM     82  F   UNL A   1      35.308  34.542  28.183  1.00  0.00    -0.200 F 
ATOM     83  F   UNL A   1      33.562  32.638  27.307  1.00  0.00    -0.200 F 
ENDBRANCH  59  73
BRANCH  60  84
ATOM     84  C   UNL A   1      44.815  29.166  35.144  1.00  0.00     0.064 A 
ATOM     85  C   UNL A   1      44.857  28.012  35.940  1.00  0.00     0.173 A 
ATOM     86  C   UNL A   1      45.921  30.028  35.191  1.00  0.00     0.173 A 
ATOM     87  F   UNL A   1      43.817  27.167  35.949  1.00  0.00    -0.203 F 
ATOM     88  C   UNL A   1      45.943  27.749  36.773  1.00  0.00     0.198 A 
ATOM     89  C   UNL A   1      47.023  29.746  35.997  1.00  0.00     0.198 A 
ATOM     90  F   UNL A   1      45.937  31.143  34.446  1.00  0.00    -0.203 F 
ATOM     91  F   UNL A   1      45.930  26.669  37.566  1.00  0.00    -0.200 F 
ATOM     92  C   UNL A   1      47.027  28.613  36.797  1.00  0.00     0.200 A 
ATOM     93  F   UNL A   1      48.075  30.574  36.002  1.00  0.00    -0.200 F 
ATOM     94  F   UNL A   1      48.072  28.359  37.596  1.00  0.00    -0.200 F 
ENDBRANCH  60  84
BRANCH  72  95
ATOM     95  C   UNL A   1      38.688  32.172  36.585  1.00  0.00     0.064 A 
ATOM     96  C   UNL A   1      37.891  31.367  37.412  1.00  0.00     0.173 A 
ATOM     97  C   UNL A   1      38.951  33.485  37.008  1.00  0.00     0.173 A 
ATOM     98  F   UNL A   1      37.599  30.109  37.049  1.00  0.00    -0.203 F 
ATOM     99  C   UNL A   1      37.356  31.865  38.597  1.00  0.00     0.198 A 
ATOM    100  C   UNL A   1      38.445  33.968  38.211  1.00  0.00     0.198 A 
ATOM    101  F   UNL A   1      39.716  34.297  36.261  1.00  0.00    -0.203 F 
ATOM    102  F   UNL A   1      36.553  31.095  39.343  1.00  0.00    -0.200 F 
ATOM    103  C   UNL A   1      37.641  33.161  39.000  1.00  0.00     0.200 A 
ATOM    104  F   UNL A   1      38.739  35.215  38.607  1.00  0.00    -0.200 F 
ATOM    105  F   UNL A   1      37.133  33.636  40.146  1.00  0.00    -0.200 F 
ENDBRANCH  72  95
ENDBRANCH  46  47
ENDBRANCH  39  41
ENDBRANCH  38  39
ENDBRANCH  37  38
ENDBRANCH  36  37
ENDBRANCH  35  36
ENDBRANCH  34  35
ENDBRANCH  33  34
ENDBRANCH  32  33
ENDBRANCH  31  32
ENDBRANCH   1  31
TORSDOF 25
ENDMDL
