MODEL 1
REMARK VINA RESULT:      -9.7      0.000      0.000
REMARK SMILES C[C@@H](C(=O)OCCOCCOCCOCCOC(=O)c1ccc(-c2c3nc(c(-c4c(F)c(F)c(F)c(F)c4F)c4ccc([nH]4)c(-c4c(F)c(F)c(F)c(F)c4F)c4nc(c(-c5c(F)c(F)c(F)c(F)c5F)c5ccc2[nH]5)C=C4)C=C3)cc1)c1ccc(Cc2cccs2)cc1F
REMARK SMILES IDX 10 1 9 2 8 3 7 4 6 5 5 6 3 7 4 8 2 9 1 10 83 11 84 12 94 13
REMARK SMILES IDX 85 14 93 15 95 16 86 17 87 18 88 19 89 20 92 21 90 22 91 23
REMARK SMILES IDX 11 24 12 25 13 26 14 27 15 28 16 29 17 30 18 31 19 32 20 33
REMARK SMILES IDX 21 34 82 35 22 36 81 37 23 38 24 39 25 40 75 41 26 42 80 43
REMARK SMILES IDX 74 44 76 45 27 46 79 47 73 48 72 49 28 51 60 52 40 53 59 54
REMARK SMILES IDX 41 55 44 56 58 57 77 58 42 59 43 60 57 62 78 63 45 64 29 65
REMARK SMILES IDX 30 66 38 67 31 68 32 69 36 70 39 71 33 72 34 73 37 74 35 75
REMARK SMILES IDX 61 76 62 77 70 78 63 79 64 80 68 81 71 82 65 83 66 84 69 85
REMARK SMILES IDX 67 86 46 87 47 88 55 89 48 90 49 91 53 92 56 93 50 94 51 95
REMARK SMILES IDX 54 96 52 97
REMARK H PARENT 76 50 44 61
REMARK Flexibility Score: inf
ROOT
ATOM      1  C   UNL A   1      33.647  30.943  27.329  1.00  0.00     0.188 C 
ENDROOT
BRANCH   1   2
ATOM      2  C   UNL A   1      33.448  29.493  26.837  1.00  0.00     0.188 C 
BRANCH   2   3
ATOM      3  O   UNL A   1      33.320  29.239  25.445  1.00  0.00    -0.376 OA
BRANCH   3   4
ATOM      4  C   UNL A   1      32.080  29.491  24.803  1.00  0.00     0.202 C 
BRANCH   4   5
ATOM      5  C   UNL A   1      31.798  28.993  23.368  1.00  0.00     0.261 C 
BRANCH   5   6
ATOM      6  O   UNL A   1      30.633  28.166  23.151  1.00  0.00    -0.463 OA
BRANCH   6   7
ATOM      7  C   UNL A   1      30.856  26.878  22.769  1.00  0.00     0.313 C 
ATOM      8  O   UNL A   1      31.606  26.569  21.847  1.00  0.00    -0.252 OA
BRANCH   7   9
ATOM      9  C   UNL A   1      30.038  25.826  23.552  1.00  0.00     0.129 C 
ATOM     10  C   UNL A   1      28.764  26.256  24.289  1.00  0.00     0.025 C 
BRANCH   9  11
ATOM     11  C   UNL A   1      30.937  24.959  24.431  1.00  0.00     0.002 A 
ATOM     12  C   UNL A   1      31.224  23.646  24.043  1.00  0.00     0.008 A 
ATOM     13  C   UNL A   1      31.556  25.430  25.598  1.00  0.00     0.127 A 
ATOM     14  C   UNL A   1      32.149  22.874  24.755  1.00  0.00     0.004 A 
ATOM     15  C   UNL A   1      32.499  24.681  26.299  1.00  0.00     0.043 A 
ATOM     16  F   UNL A   1      31.242  26.622  26.106  1.00  0.00    -0.207 F 
ATOM     17  C   UNL A   1      32.821  23.394  25.870  1.00  0.00    -0.040 A 
BRANCH  17  18
ATOM     18  C   UNL A   1      33.844  22.574  26.621  1.00  0.00     0.082 C 
BRANCH  18  19
ATOM     19  C   UNL A   1      35.228  22.700  26.051  1.00  0.00     0.009 A 
ATOM     20  C   UNL A   1      35.999  23.837  25.909  1.00  0.00     0.016 A 
ATOM     21  S   UNL A   1      36.065  21.308  25.499  1.00  0.00    -0.149 S 
ATOM     22  C   UNL A   1      37.278  23.565  25.346  1.00  0.00     0.012 A 
ATOM     23  C   UNL A   1      37.446  22.225  25.082  1.00  0.00     0.065 A 
ENDBRANCH  18  19
ENDBRANCH  17  18
ENDBRANCH   9  11
ENDBRANCH   7   9
ENDBRANCH   6   7
ENDBRANCH   5   6
ENDBRANCH   4   5
ENDBRANCH   3   4
ENDBRANCH   2   3
ENDBRANCH   1   2
BRANCH   1  24
ATOM     24  O   UNL A   1      34.690  31.112  28.266  1.00  0.00    -0.377 OA
BRANCH  24  25
ATOM     25  C   UNL A   1      34.606  32.265  29.085  1.00  0.00     0.188 C 
BRANCH  25  26
ATOM     26  C   UNL A   1      35.510  33.466  28.745  1.00  0.00     0.188 C 
BRANCH  26  27
ATOM     27  O   UNL A   1      34.877  34.730  28.895  1.00  0.00    -0.376 OA
BRANCH  27  28
ATOM     28  C   UNL A   1      33.461  34.818  28.840  1.00  0.00     0.202 C 
BRANCH  28  29
ATOM     29  C   UNL A   1      32.784  35.981  29.582  1.00  0.00     0.261 C 
BRANCH  29  30
ATOM     30  O   UNL A   1      33.307  36.314  30.876  1.00  0.00    -0.460 OA
BRANCH  30  31
ATOM     31  C   UNL A   1      32.899  35.591  31.939  1.00  0.00     0.338 C 
ATOM     32  O   UNL A   1      31.752  35.387  32.298  1.00  0.00    -0.246 OA
BRANCH  31  33
ATOM     33  C   UNL A   1      34.086  34.897  32.483  1.00  0.00     0.060 A 
ATOM     34  C   UNL A   1      35.345  35.497  32.341  1.00  0.00     0.016 A 
ATOM     35  C   UNL A   1      33.954  33.684  33.165  1.00  0.00     0.016 A 
ATOM     36  C   UNL A   1      36.480  34.874  32.857  1.00  0.00     0.010 A 
ATOM     37  C   UNL A   1      35.096  33.044  33.653  1.00  0.00     0.010 A 
ATOM     38  C   UNL A   1      36.367  33.620  33.471  1.00  0.00    -0.014 A 
BRANCH  38  39
ATOM     39  C   UNL A   1      37.587  32.811  33.705  1.00  0.00     0.031 A 
ATOM     40  C   UNL A   1      38.357  33.057  34.973  1.00  0.00     0.074 A 
ATOM     41  C   UNL A   1      37.989  31.867  32.837  1.00  0.00     0.049 A 
ATOM     42  N   UNL A   1      39.477  32.524  35.387  1.00  0.00    -0.248 NA
ATOM     43  C   UNL A   1      37.783  34.046  35.900  1.00  0.00     0.031 C 
ATOM     44  C   UNL A   1      37.296  31.501  31.605  1.00  0.00     0.029 A 
ATOM     45  N   UNL A   1      39.090  31.049  32.864  1.00  0.00    -0.354 N 
ATOM     46  C   UNL A   1      39.746  33.120  36.612  1.00  0.00     0.074 A 
ATOM     47  C   UNL A   1      38.690  34.075  36.863  1.00  0.00     0.031 C 
ATOM     48  C   UNL A   1      37.997  30.535  30.985  1.00  0.00     0.029 A 
ATOM     49  C   UNL A   1      39.203  30.244  31.757  1.00  0.00     0.049 A 
ATOM     50  H   UNL A   1      39.738  31.040  33.606  1.00  0.00     0.167 HD
ATOM     51  C   UNL A   1      40.777  32.886  37.456  1.00  0.00     0.037 A 
ATOM     52  C   UNL A   1      40.186  29.390  31.406  1.00  0.00     0.037 A 
ATOM     53  C   UNL A   1      41.826  31.934  37.199  1.00  0.00     0.049 A 
ATOM     54  C   UNL A   1      41.372  29.211  32.322  1.00  0.00     0.074 A 
ATOM     55  C   UNL A   1      42.907  31.606  37.998  1.00  0.00     0.029 A 
ATOM     56  N   UNL A   1      41.930  31.167  36.048  1.00  0.00    -0.354 N 
ATOM     57  N   UNL A   1      41.608  29.756  33.491  1.00  0.00    -0.248 NA
ATOM     58  C   UNL A   1      42.427  28.294  31.868  1.00  0.00     0.031 C 
ATOM     59  C   UNL A   1      43.701  30.691  37.300  1.00  0.00     0.029 A 
ATOM     60  C   UNL A   1      43.076  30.392  36.100  1.00  0.00     0.049 A 
ATOM     61  H   UNL A   1      41.284  31.172  35.305  1.00  0.00     0.167 HD
ATOM     62  C   UNL A   1      42.816  29.222  33.927  1.00  0.00     0.074 A 
ATOM     63  C   UNL A   1      43.257  28.300  32.902  1.00  0.00     0.031 C 
ATOM     64  C   UNL A   1      43.496  29.469  35.075  1.00  0.00     0.037 A 
BRANCH  51  65
ATOM     65  C   UNL A   1      40.845  33.702  38.713  1.00  0.00     0.064 A 
ATOM     66  C   UNL A   1      40.121  33.355  39.864  1.00  0.00     0.173 A 
ATOM     67  C   UNL A   1      41.667  34.837  38.773  1.00  0.00     0.173 A 
ATOM     68  F   UNL A   1      39.306  32.290  39.856  1.00  0.00    -0.203 F 
ATOM     69  C   UNL A   1      40.196  34.132  41.019  1.00  0.00     0.198 A 
ATOM     70  C   UNL A   1      41.766  35.591  39.939  1.00  0.00     0.198 A 
ATOM     71  F   UNL A   1      42.381  35.214  37.702  1.00  0.00    -0.203 F 
ATOM     72  F   UNL A   1      39.454  33.813  42.088  1.00  0.00    -0.200 F 
ATOM     73  C   UNL A   1      41.025  35.243  41.058  1.00  0.00     0.200 A 
ATOM     74  F   UNL A   1      42.578  36.657  39.979  1.00  0.00    -0.200 F 
ATOM     75  F   UNL A   1      41.102  35.984  42.172  1.00  0.00    -0.200 F 
ENDBRANCH  51  65
BRANCH  52  76
ATOM     76  C   UNL A   1      40.105  28.646  30.119  1.00  0.00     0.064 A 
ATOM     77  C   UNL A   1      39.468  27.399  30.043  1.00  0.00     0.173 A 
ATOM     78  C   UNL A   1      40.693  29.148  28.948  1.00  0.00     0.173 A 
ATOM     79  F   UNL A   1      38.916  26.861  31.141  1.00  0.00    -0.203 F 
ATOM     80  C   UNL A   1      39.441  26.674  28.853  1.00  0.00     0.198 A 
ATOM     81  C   UNL A   1      40.636  28.438  27.751  1.00  0.00     0.198 A 
ATOM     82  F   UNL A   1      41.321  30.332  28.965  1.00  0.00    -0.203 F 
ATOM     83  F   UNL A   1      38.874  25.461  28.823  1.00  0.00    -0.200 F 
ATOM     84  C   UNL A   1      40.019  27.196  27.706  1.00  0.00     0.200 A 
ATOM     85  F   UNL A   1      41.187  28.952  26.643  1.00  0.00    -0.200 F 
ATOM     86  F   UNL A   1      39.992  26.500  26.561  1.00  0.00    -0.200 F 
ENDBRANCH  52  76
BRANCH  64  87
ATOM     87  C   UNL A   1      44.765  28.697  35.311  1.00  0.00     0.064 A 
ATOM     88  C   UNL A   1      46.019  29.195  34.929  1.00  0.00     0.173 A 
ATOM     89  C   UNL A   1      44.725  27.460  35.974  1.00  0.00     0.173 A 
ATOM     90  F   UNL A   1      46.112  30.367  34.283  1.00  0.00    -0.203 F 
ATOM     91  C   UNL A   1      47.183  28.470  35.175  1.00  0.00     0.198 A 
ATOM     92  C   UNL A   1      45.894  26.756  36.251  1.00  0.00     0.198 A 
ATOM     93  F   UNL A   1      43.554  26.941  36.371  1.00  0.00    -0.203 F 
ATOM     94  F   UNL A   1      48.365  28.940  34.752  1.00  0.00    -0.200 F 
ATOM     95  C   UNL A   1      47.120  27.255  35.842  1.00  0.00     0.200 A 
ATOM     96  F   UNL A   1      45.832  25.592  36.914  1.00  0.00    -0.200 F 
ATOM     97  F   UNL A   1      48.242  26.565  36.087  1.00  0.00    -0.200 F 
ENDBRANCH  64  87
ENDBRANCH  38  39
ENDBRANCH  31  33
ENDBRANCH  30  31
ENDBRANCH  29  30
ENDBRANCH  28  29
ENDBRANCH  27  28
ENDBRANCH  26  27
ENDBRANCH  25  26
ENDBRANCH  24  25
ENDBRANCH   1  24
TORSDOF 23
ENDMDL
MODEL 2
REMARK VINA RESULT:      -9.3      1.472      2.455
REMARK SMILES C[C@@H](C(=O)OCCOCCOCCOCCOC(=O)c1ccc(-c2c3nc(c(-c4c(F)c(F)c(F)c(F)c4F)c4ccc([nH]4)c(-c4c(F)c(F)c(F)c(F)c4F)c4nc(c(-c5c(F)c(F)c(F)c(F)c5F)c5ccc2[nH]5)C=C4)C=C3)cc1)c1ccc(Cc2cccs2)cc1F
REMARK SMILES IDX 10 1 9 2 8 3 7 4 6 5 5 6 3 7 4 8 2 9 1 10 83 11 84 12 94 13
REMARK SMILES IDX 85 14 93 15 95 16 86 17 87 18 88 19 89 20 92 21 90 22 91 23
REMARK SMILES IDX 11 24 12 25 13 26 14 27 15 28 16 29 17 30 18 31 19 32 20 33
REMARK SMILES IDX 21 34 82 35 22 36 81 37 23 38 24 39 25 40 75 41 26 42 80 43
REMARK SMILES IDX 74 44 76 45 27 46 79 47 73 48 72 49 28 51 60 52 40 53 59 54
REMARK SMILES IDX 41 55 44 56 58 57 77 58 42 59 43 60 57 62 78 63 45 64 29 65
REMARK SMILES IDX 30 66 38 67 31 68 32 69 36 70 39 71 33 72 34 73 37 74 35 75
REMARK SMILES IDX 61 76 62 77 70 78 63 79 64 80 68 81 71 82 65 83 66 84 69 85
REMARK SMILES IDX 67 86 46 87 47 88 55 89 48 90 49 91 53 92 56 93 50 94 51 95
REMARK SMILES IDX 54 96 52 97
REMARK H PARENT 76 50 44 61
REMARK Flexibility Score: inf
ROOT
ATOM      1  C   UNL A   1      33.662  30.942  27.369  1.00  0.00     0.188 C 
ENDROOT
BRANCH   1   2
ATOM      2  C   UNL A   1      33.376  29.486  26.943  1.00  0.00     0.188 C 
BRANCH   2   3
ATOM      3  O   UNL A   1      33.628  29.087  25.603  1.00  0.00    -0.376 OA
BRANCH   3   4
ATOM      4  C   UNL A   1      32.628  29.289  24.618  1.00  0.00     0.202 C 
BRANCH   4   5
ATOM      5  C   UNL A   1      32.512  28.366  23.384  1.00  0.00     0.261 C 
BRANCH   5   6
ATOM      6  O   UNL A   1      31.929  27.057  23.566  1.00  0.00    -0.463 OA
BRANCH   6   7
ATOM      7  C   UNL A   1      32.763  26.064  23.981  1.00  0.00     0.313 C 
ATOM      8  O   UNL A   1      32.979  25.816  25.164  1.00  0.00    -0.252 OA
BRANCH   7   9
ATOM      9  C   UNL A   1      33.475  25.304  22.838  1.00  0.00     0.129 C 
ATOM     10  C   UNL A   1      32.845  25.280  21.441  1.00  0.00     0.025 C 
BRANCH   9  11
ATOM     11  C   UNL A   1      33.920  23.913  23.285  1.00  0.00     0.002 A 
ATOM     12  C   UNL A   1      35.282  23.650  23.469  1.00  0.00     0.008 A 
ATOM     13  C   UNL A   1      33.023  22.878  23.587  1.00  0.00     0.127 A 
ATOM     14  C   UNL A   1      35.710  22.430  24.005  1.00  0.00     0.004 A 
ATOM     15  C   UNL A   1      33.435  21.671  24.146  1.00  0.00     0.043 A 
ATOM     16  F   UNL A   1      31.722  23.002  23.322  1.00  0.00    -0.207 F 
ATOM     17  C   UNL A   1      34.790  21.441  24.380  1.00  0.00    -0.040 A 
BRANCH  17  18
ATOM     18  C   UNL A   1      35.248  20.136  24.989  1.00  0.00     0.082 C 
BRANCH  18  19
ATOM     19  C   UNL A   1      34.222  19.044  24.873  1.00  0.00     0.009 A 
ATOM     20  C   UNL A   1      32.915  19.041  25.320  1.00  0.00     0.016 A 
ATOM     21  S   UNL A   1      34.611  17.575  24.077  1.00  0.00    -0.149 S 
ATOM     22  C   UNL A   1      32.233  17.832  25.008  1.00  0.00     0.012 A 
ATOM     23  C   UNL A   1      33.039  16.950  24.326  1.00  0.00     0.065 A 
ENDBRANCH  18  19
ENDBRANCH  17  18
ENDBRANCH   9  11
ENDBRANCH   7   9
ENDBRANCH   6   7
ENDBRANCH   5   6
ENDBRANCH   4   5
ENDBRANCH   3   4
ENDBRANCH   2   3
ENDBRANCH   1   2
BRANCH   1  24
ATOM     24  O   UNL A   1      34.774  31.101  28.226  1.00  0.00    -0.377 OA
BRANCH  24  25
ATOM     25  C   UNL A   1      34.779  32.273  29.021  1.00  0.00     0.188 C 
BRANCH  25  26
ATOM     26  C   UNL A   1      35.271  33.585  28.379  1.00  0.00     0.188 C 
BRANCH  26  27
ATOM     27  O   UNL A   1      34.726  34.759  28.968  1.00  0.00    -0.376 OA
BRANCH  27  28
ATOM     28  C   UNL A   1      33.334  35.017  28.860  1.00  0.00     0.202 C 
BRANCH  28  29
ATOM     29  C   UNL A   1      32.759  36.200  29.658  1.00  0.00     0.261 C 
BRANCH  29  30
ATOM     30  O   UNL A   1      33.296  36.415  30.971  1.00  0.00    -0.460 OA
BRANCH  30  31
ATOM     31  C   UNL A   1      32.863  35.630  31.978  1.00  0.00     0.338 C 
ATOM     32  O   UNL A   1      31.709  35.390  32.285  1.00  0.00    -0.246 OA
BRANCH  31  33
ATOM     33  C   UNL A   1      34.043  34.924  32.525  1.00  0.00     0.060 A 
ATOM     34  C   UNL A   1      35.292  35.556  32.476  1.00  0.00     0.016 A 
ATOM     35  C   UNL A   1      33.910  33.667  33.121  1.00  0.00     0.016 A 
ATOM     36  C   UNL A   1      36.419  34.923  32.997  1.00  0.00     0.010 A 
ATOM     37  C   UNL A   1      35.045  33.018  33.613  1.00  0.00     0.010 A 
ATOM     38  C   UNL A   1      36.309  33.629  33.522  1.00  0.00    -0.014 A 
BRANCH  38  39
ATOM     39  C   UNL A   1      37.536  32.830  33.755  1.00  0.00     0.031 A 
ATOM     40  C   UNL A   1      38.303  33.079  35.024  1.00  0.00     0.074 A 
ATOM     41  C   UNL A   1      37.946  31.892  32.884  1.00  0.00     0.049 A 
ATOM     42  N   UNL A   1      39.429  32.555  35.436  1.00  0.00    -0.248 NA
ATOM     43  C   UNL A   1      37.721  34.061  35.953  1.00  0.00     0.031 C 
ATOM     44  C   UNL A   1      37.256  31.523  31.651  1.00  0.00     0.029 A 
ATOM     45  N   UNL A   1      39.054  31.083  32.909  1.00  0.00    -0.354 N 
ATOM     46  C   UNL A   1      39.692  33.149  36.663  1.00  0.00     0.074 A 
ATOM     47  C   UNL A   1      38.628  34.095  36.916  1.00  0.00     0.031 C 
ATOM     48  C   UNL A   1      37.966  30.565  31.028  1.00  0.00     0.029 A 
ATOM     49  C   UNL A   1      39.175  30.282  31.800  1.00  0.00     0.049 A 
ATOM     50  H   UNL A   1      39.702  31.078  33.650  1.00  0.00     0.167 HD
ATOM     51  C   UNL A   1      40.725  32.922  37.505  1.00  0.00     0.037 A 
ATOM     52  C   UNL A   1      40.165  29.438  31.446  1.00  0.00     0.037 A 
ATOM     53  C   UNL A   1      41.782  31.980  37.246  1.00  0.00     0.049 A 
ATOM     54  C   UNL A   1      41.352  29.267  32.362  1.00  0.00     0.074 A 
ATOM     55  C   UNL A   1      42.866  31.659  38.045  1.00  0.00     0.029 A 
ATOM     56  N   UNL A   1      41.893  31.217  36.093  1.00  0.00    -0.354 N 
ATOM     57  N   UNL A   1      41.584  29.810  33.532  1.00  0.00    -0.248 NA
ATOM     58  C   UNL A   1      42.415  28.361  31.905  1.00  0.00     0.031 C 
ATOM     59  C   UNL A   1      43.668  30.753  37.344  1.00  0.00     0.029 A 
ATOM     60  C   UNL A   1      43.046  30.452  36.143  1.00  0.00     0.049 A 
ATOM     61  H   UNL A   1      41.247  31.218  35.350  1.00  0.00     0.167 HD
ATOM     62  C   UNL A   1      42.796  29.286  33.967  1.00  0.00     0.074 A 
ATOM     63  C   UNL A   1      43.245  28.371  32.939  1.00  0.00     0.031 C 
ATOM     64  C   UNL A   1      43.474  29.536  35.115  1.00  0.00     0.037 A 
BRANCH  51  65
ATOM     65  C   UNL A   1      40.786  33.735  38.766  1.00  0.00     0.064 A 
ATOM     66  C   UNL A   1      41.561  34.900  38.863  1.00  0.00     0.173 A 
ATOM     67  C   UNL A   1      40.034  33.352  39.888  1.00  0.00     0.173 A 
ATOM     68  F   UNL A   1      42.312  35.301  37.827  1.00  0.00    -0.203 F 
ATOM     69  C   UNL A   1      41.604  35.635  40.046  1.00  0.00     0.198 A 
ATOM     70  C   UNL A   1      40.054  34.107  41.056  1.00  0.00     0.198 A 
ATOM     71  F   UNL A   1      39.275  32.246  39.849  1.00  0.00    -0.203 F 
ATOM     72  F   UNL A   1      42.395  36.714  40.134  1.00  0.00    -0.200 F 
ATOM     73  C   UNL A   1      40.844  35.243  41.138  1.00  0.00     0.200 A 
ATOM     74  F   UNL A   1      39.307  33.734  42.105  1.00  0.00    -0.200 F 
ATOM     75  F   UNL A   1      40.881  35.957  42.272  1.00  0.00    -0.200 F 
ENDBRANCH  51  65
BRANCH  52  76
ATOM     76  C   UNL A   1      40.090  28.697  30.157  1.00  0.00     0.064 A 
ATOM     77  C   UNL A   1      39.475  27.439  30.080  1.00  0.00     0.173 A 
ATOM     78  C   UNL A   1      40.663  29.214  28.984  1.00  0.00     0.173 A 
ATOM     79  F   UNL A   1      38.939  26.888  31.178  1.00  0.00    -0.203 F 
ATOM     80  C   UNL A   1      39.455  26.718  28.887  1.00  0.00     0.198 A 
ATOM     81  C   UNL A   1      40.612  28.506  27.785  1.00  0.00     0.198 A 
ATOM     82  F   UNL A   1      41.270  30.409  29.003  1.00  0.00    -0.203 F 
ATOM     83  F   UNL A   1      38.910  25.495  28.857  1.00  0.00    -0.200 F 
ATOM     84  C   UNL A   1      40.017  27.254  27.739  1.00  0.00     0.200 A 
ATOM     85  F   UNL A   1      41.148  29.034  26.676  1.00  0.00    -0.200 F 
ATOM     86  F   UNL A   1      39.997  26.561  26.593  1.00  0.00    -0.200 F 
ENDBRANCH  52  76
BRANCH  64  87
ATOM     87  C   UNL A   1      44.749  28.774  35.349  1.00  0.00     0.064 A 
ATOM     88  C   UNL A   1      44.761  27.520  35.975  1.00  0.00     0.173 A 
ATOM     89  C   UNL A   1      45.974  29.292  34.895  1.00  0.00     0.173 A 
ATOM     90  F   UNL A   1      43.622  26.984  36.438  1.00  0.00    -0.203 F 
ATOM     91  C   UNL A   1      45.954  26.824  36.164  1.00  0.00     0.198 A 
ATOM     92  C   UNL A   1      47.158  28.578  35.052  1.00  0.00     0.198 A 
ATOM     93  F   UNL A   1      46.019  30.483  34.280  1.00  0.00    -0.203 F 
ATOM     94  F   UNL A   1      45.948  25.652  36.814  1.00  0.00    -0.200 F 
ATOM     95  C   UNL A   1      47.149  27.350  35.696  1.00  0.00     0.200 A 
ATOM     96  F   UNL A   1      48.309  29.078  34.581  1.00  0.00    -0.200 F 
ATOM     97  F   UNL A   1      48.294  26.675  35.870  1.00  0.00    -0.200 F 
ENDBRANCH  64  87
ENDBRANCH  38  39
ENDBRANCH  31  33
ENDBRANCH  30  31
ENDBRANCH  29  30
ENDBRANCH  28  29
ENDBRANCH  27  28
ENDBRANCH  26  27
ENDBRANCH  25  26
ENDBRANCH  24  25
ENDBRANCH   1  24
TORSDOF 23
ENDMDL
MODEL 3
REMARK VINA RESULT:      -8.9      1.556      7.418
REMARK SMILES C[C@@H](C(=O)OCCOCCOCCOCCOC(=O)c1ccc(-c2c3nc(c(-c4c(F)c(F)c(F)c(F)c4F)c4ccc([nH]4)c(-c4c(F)c(F)c(F)c(F)c4F)c4nc(c(-c5c(F)c(F)c(F)c(F)c5F)c5ccc2[nH]5)C=C4)C=C3)cc1)c1ccc(Cc2cccs2)cc1F
REMARK SMILES IDX 10 1 9 2 8 3 7 4 6 5 5 6 3 7 4 8 2 9 1 10 83 11 84 12 94 13
REMARK SMILES IDX 85 14 93 15 95 16 86 17 87 18 88 19 89 20 92 21 90 22 91 23
REMARK SMILES IDX 11 24 12 25 13 26 14 27 15 28 16 29 17 30 18 31 19 32 20 33
REMARK SMILES IDX 21 34 82 35 22 36 81 37 23 38 24 39 25 40 75 41 26 42 80 43
REMARK SMILES IDX 74 44 76 45 27 46 79 47 73 48 72 49 28 51 60 52 40 53 59 54
REMARK SMILES IDX 41 55 44 56 58 57 77 58 42 59 43 60 57 62 78 63 45 64 29 65
REMARK SMILES IDX 30 66 38 67 31 68 32 69 36 70 39 71 33 72 34 73 37 74 35 75
REMARK SMILES IDX 61 76 62 77 70 78 63 79 64 80 68 81 71 82 65 83 66 84 69 85
REMARK SMILES IDX 67 86 46 87 47 88 55 89 48 90 49 91 53 92 56 93 50 94 51 95
REMARK SMILES IDX 54 96 52 97
REMARK H PARENT 76 50 44 61
REMARK Flexibility Score: inf
ROOT
ATOM      1  C   UNL A   1      34.010  30.984  27.634  1.00  0.00     0.188 C 
ENDROOT
BRANCH   1   2
ATOM      2  C   UNL A   1      34.255  29.473  27.439  1.00  0.00     0.188 C 
BRANCH   2   3
ATOM      3  O   UNL A   1      34.365  28.947  26.124  1.00  0.00    -0.376 OA
BRANCH   3   4
ATOM      4  C   UNL A   1      33.263  29.055  25.237  1.00  0.00     0.202 C 
BRANCH   4   5
ATOM      5  C   UNL A   1      33.010  28.005  24.132  1.00  0.00     0.261 C 
BRANCH   5   6
ATOM      6  O   UNL A   1      32.977  26.612  24.512  1.00  0.00    -0.463 OA
BRANCH   6   7
ATOM      7  C   UNL A   1      32.576  25.724  23.559  1.00  0.00     0.313 C 
ATOM      8  O   UNL A   1      32.903  25.810  22.379  1.00  0.00    -0.252 OA
BRANCH   7   9
ATOM      9  C   UNL A   1      31.618  24.624  24.070  1.00  0.00     0.129 C 
ATOM     10  C   UNL A   1      30.622  24.951  25.188  1.00  0.00     0.025 C 
BRANCH   9  11
ATOM     11  C   UNL A   1      32.360  23.315  24.336  1.00  0.00     0.002 A 
ATOM     12  C   UNL A   1      32.127  22.210  23.511  1.00  0.00     0.008 A 
ATOM     13  C   UNL A   1      33.328  23.170  25.340  1.00  0.00     0.127 A 
ATOM     14  C   UNL A   1      32.888  21.044  23.644  1.00  0.00     0.004 A 
ATOM     15  C   UNL A   1      34.109  22.025  25.465  1.00  0.00     0.043 A 
ATOM     16  F   UNL A   1      33.522  24.129  26.247  1.00  0.00    -0.207 F 
ATOM     17  C   UNL A   1      33.909  20.950  24.601  1.00  0.00    -0.040 A 
BRANCH  17  18
ATOM     18  C   UNL A   1      34.753  19.703  24.725  1.00  0.00     0.082 C 
BRANCH  18  19
ATOM     19  C   UNL A   1      33.933  18.450  24.846  1.00  0.00     0.009 A 
ATOM     20  C   UNL A   1      32.872  18.195  25.693  1.00  0.00     0.016 A 
ATOM     21  S   UNL A   1      34.253  17.107  23.829  1.00  0.00    -0.149 S 
ATOM     22  C   UNL A   1      32.322  16.896  25.506  1.00  0.00     0.012 A 
ATOM     23  C   UNL A   1      32.977  16.201  24.515  1.00  0.00     0.065 A 
ENDBRANCH  18  19
ENDBRANCH  17  18
ENDBRANCH   9  11
ENDBRANCH   7   9
ENDBRANCH   6   7
ENDBRANCH   5   6
ENDBRANCH   4   5
ENDBRANCH   3   4
ENDBRANCH   2   3
ENDBRANCH   1   2
BRANCH   1  24
ATOM     24  O   UNL A   1      35.054  31.675  28.287  1.00  0.00    -0.377 OA
BRANCH  24  25
ATOM     25  C   UNL A   1      34.679  32.849  28.985  1.00  0.00     0.188 C 
BRANCH  25  26
ATOM     26  C   UNL A   1      35.087  34.211  28.391  1.00  0.00     0.188 C 
BRANCH  26  27
ATOM     27  O   UNL A   1      34.536  35.330  29.074  1.00  0.00    -0.376 OA
BRANCH  27  28
ATOM     28  C   UNL A   1      33.173  35.671  28.877  1.00  0.00     0.202 C 
BRANCH  28  29
ATOM     29  C   UNL A   1      32.395  36.240  30.076  1.00  0.00     0.261 C 
BRANCH  29  30
ATOM     30  O   UNL A   1      33.104  36.334  31.320  1.00  0.00    -0.460 OA
BRANCH  30  31
ATOM     31  C   UNL A   1      32.921  35.364  32.239  1.00  0.00     0.338 C 
ATOM     32  O   UNL A   1      31.866  35.001  32.731  1.00  0.00    -0.246 OA
BRANCH  31  33
ATOM     33  C   UNL A   1      34.210  34.655  32.395  1.00  0.00     0.060 A 
ATOM     34  C   UNL A   1      34.202  33.331  32.853  1.00  0.00     0.016 A 
ATOM     35  C   UNL A   1      35.413  35.277  32.052  1.00  0.00     0.016 A 
ATOM     36  C   UNL A   1      35.399  32.631  32.996  1.00  0.00     0.010 A 
ATOM     37  C   UNL A   1      36.616  34.587  32.227  1.00  0.00     0.010 A 
ATOM     38  C   UNL A   1      36.615  33.274  32.732  1.00  0.00    -0.014 A 
BRANCH  38  39
ATOM     39  C   UNL A   1      37.880  32.663  33.204  1.00  0.00     0.031 A 
ATOM     40  C   UNL A   1      38.529  31.629  32.325  1.00  0.00     0.074 A 
ATOM     41  C   UNL A   1      38.454  33.028  34.363  1.00  0.00     0.049 A 
ATOM     42  N   UNL A   1      39.603  30.912  32.533  1.00  0.00    -0.248 NA
ATOM     43  C   UNL A   1      37.870  31.367  31.036  1.00  0.00     0.031 C 
ATOM     44  C   UNL A   1      37.949  34.055  35.271  1.00  0.00     0.029 A 
ATOM     45  N   UNL A   1      39.591  32.563  34.975  1.00  0.00    -0.354 N 
ATOM     46  C   UNL A   1      39.741  30.110  31.408  1.00  0.00     0.074 A 
ATOM     47  C   UNL A   1      38.627  30.404  30.535  1.00  0.00     0.031 C 
ATOM     48  C   UNL A   1      38.770  34.135  36.333  1.00  0.00     0.029 A 
ATOM     49  C   UNL A   1      39.833  33.141  36.197  1.00  0.00     0.049 A 
ATOM     50  H   UNL A   1      40.177  31.880  34.577  1.00  0.00     0.167 HD
ATOM     51  C   UNL A   1      40.713  29.212  31.126  1.00  0.00     0.037 A 
ATOM     52  C   UNL A   1      40.792  32.873  37.106  1.00  0.00     0.037 A 
ATOM     53  C   UNL A   1      41.819  28.923  32.001  1.00  0.00     0.049 A 
ATOM     54  C   UNL A   1      41.815  31.804  36.807  1.00  0.00     0.074 A 
ATOM     55  C   UNL A   1      42.869  28.045  31.801  1.00  0.00     0.029 A 
ATOM     56  N   UNL A   1      42.008  29.498  33.249  1.00  0.00    -0.354 N 
ATOM     57  N   UNL A   1      41.957  31.068  35.732  1.00  0.00    -0.248 NA
ATOM     58  C   UNL A   1      42.814  31.533  37.851  1.00  0.00     0.031 C 
ATOM     59  C   UNL A   1      43.656  28.038  32.957  1.00  0.00     0.029 A 
ATOM     60  C   UNL A   1      43.139  28.967  33.846  1.00  0.00     0.049 A 
ATOM     61  H   UNL A   1      41.425  30.182  33.650  1.00  0.00     0.167 HD
ATOM     62  C   UNL A   1      43.078  30.275  35.953  1.00  0.00     0.074 A 
ATOM     63  C   UNL A   1      43.585  30.631  37.262  1.00  0.00     0.031 C 
ATOM     64  C   UNL A   1      43.638  29.341  35.146  1.00  0.00     0.037 A 
BRANCH  51  65
ATOM     65  C   UNL A   1      40.601  28.449  29.839  1.00  0.00     0.064 A 
ATOM     66  C   UNL A   1      39.821  27.288  29.728  1.00  0.00     0.173 A 
ATOM     67  C   UNL A   1      41.269  28.902  28.690  1.00  0.00     0.173 A 
ATOM     68  F   UNL A   1      39.177  26.801  30.799  1.00  0.00    -0.203 F 
ATOM     69  C   UNL A   1      39.737  26.594  28.522  1.00  0.00     0.198 A 
ATOM     70  C   UNL A   1      41.155  28.225  27.480  1.00  0.00     0.198 A 
ATOM     71  F   UNL A   1      42.028  30.007  28.740  1.00  0.00    -0.203 F 
ATOM     72  F   UNL A   1      39.031  25.456  28.454  1.00  0.00    -0.200 F 
ATOM     73  C   UNL A   1      40.396  27.067  27.398  1.00  0.00     0.200 A 
ATOM     74  F   UNL A   1      41.782  28.693  26.391  1.00  0.00    -0.200 F 
ATOM     75  F   UNL A   1      40.308  26.403  26.238  1.00  0.00    -0.200 F 
ENDBRANCH  51  65
BRANCH  52  76
ATOM     76  C   UNL A   1      40.828  33.615  38.396  1.00  0.00     0.064 A 
ATOM     77  C   UNL A   1      41.694  34.704  38.580  1.00  0.00     0.173 A 
ATOM     78  C   UNL A   1      40.026  33.231  39.481  1.00  0.00     0.173 A 
ATOM     79  F   UNL A   1      42.502  35.092  37.584  1.00  0.00    -0.203 F 
ATOM     80  C   UNL A   1      41.771  35.364  39.806  1.00  0.00     0.198 A 
ATOM     81  C   UNL A   1      40.080  33.914  40.695  1.00  0.00     0.198 A 
ATOM     82  F   UNL A   1      39.186  32.193  39.362  1.00  0.00    -0.203 F 
ATOM     83  F   UNL A   1      42.646  36.364  39.970  1.00  0.00    -0.200 F 
ATOM     84  C   UNL A   1      40.960  34.973  40.860  1.00  0.00     0.200 A 
ATOM     85  F   UNL A   1      39.287  33.538  41.707  1.00  0.00    -0.200 F 
ATOM     86  F   UNL A   1      41.033  35.608  42.038  1.00  0.00    -0.200 F 
ENDBRANCH  52  76
BRANCH  64  87
ATOM     87  C   UNL A   1      44.895  28.669  35.627  1.00  0.00     0.064 A 
ATOM     88  C   UNL A   1      44.864  27.470  36.355  1.00  0.00     0.173 A 
ATOM     89  C   UNL A   1      46.151  29.212  35.312  1.00  0.00     0.173 A 
ATOM     90  F   UNL A   1      43.691  26.915  36.692  1.00  0.00    -0.203 F 
ATOM     91  C   UNL A   1      46.043  26.856  36.774  1.00  0.00     0.198 A 
ATOM     92  C   UNL A   1      47.326  28.576  35.701  1.00  0.00     0.198 A 
ATOM     93  F   UNL A   1      46.239  30.351  34.609  1.00  0.00    -0.203 F 
ATOM     94  F   UNL A   1      45.987  25.741  37.515  1.00  0.00    -0.200 F 
ATOM     95  C   UNL A   1      47.272  27.405  36.440  1.00  0.00     0.200 A 
ATOM     96  F   UNL A   1      48.514  29.098  35.359  1.00  0.00    -0.200 F 
ATOM     97  F   UNL A   1      48.404  26.807  36.836  1.00  0.00    -0.200 F 
ENDBRANCH  64  87
ENDBRANCH  38  39
ENDBRANCH  31  33
ENDBRANCH  30  31
ENDBRANCH  29  30
ENDBRANCH  28  29
ENDBRANCH  27  28
ENDBRANCH  26  27
ENDBRANCH  25  26
ENDBRANCH  24  25
ENDBRANCH   1  24
TORSDOF 23
ENDMDL
