MODEL 1
REMARK VINA RESULT:     -10.9      0.000      0.000
REMARK SMILES O=C(OCCOCCOCCOCCOC(=O)c1ccccc1Nc1cccc(S(F)(F)(F)(F)F)c1)c1ccc(-c2c3nc(c(-c4c(F)c(F)c(F)c(F)c4F)c4ccc([nH]4)c(-c4c(F)c(F)c(F)c(F)c4F)c4nc(c(-c5c(F)c(F)c(F)c(F)c5F)c5ccc2[nH]5)C=C4)C=C3)cc1
REMARK SMILES IDX 10 1 9 2 8 3 7 4 6 5 5 6 4 7 3 8 2 9 1 10 37 11 38 12 99 13
REMARK SMILES IDX 39 14 98 15 40 16 41 17 42 18 92 19 43 20 97 21 91 22 93 23
REMARK SMILES IDX 44 24 96 25 90 26 89 27 45 29 77 30 57 31 76 32 58 33 61 34
REMARK SMILES IDX 75 35 94 36 59 37 60 38 74 40 95 41 62 42 46 43 47 44 55 45
REMARK SMILES IDX 48 46 49 47 53 48 56 49 50 50 51 51 54 52 52 53 78 54 79 55
REMARK SMILES IDX 87 56 80 57 81 58 85 59 88 60 82 61 83 62 86 63 84 64 63 65
REMARK SMILES IDX 64 66 72 67 65 68 66 69 70 70 73 71 67 72 68 73 71 74 69 75
REMARK SMILES IDX 11 76 12 77 13 78 14 79 15 80 16 81 17 82 18 83 19 84 23 85
REMARK SMILES IDX 20 86 22 87 21 88 24 89 25 91 26 92 36 93 27 94 29 95 28 96
REMARK SMILES IDX 30 97 31 98 32 99 33 100 34 101 35 102
REMARK H PARENT 93 28 61 39 24 90
REMARK Flexibility Score: inf
ROOT
ATOM      1  C   UNL A   1      40.166  22.238  26.518  1.00  0.00     0.188 C 
ENDROOT
BRANCH   1   2
ATOM      2  O   UNL A   1      40.401  21.453  27.678  1.00  0.00    -0.377 OA
BRANCH   2   3
ATOM      3  C   UNL A   1      41.732  20.957  27.651  1.00  0.00     0.188 C 
BRANCH   3   4
ATOM      4  C   UNL A   1      42.182  20.790  26.210  1.00  0.00     0.188 C 
BRANCH   4   5
ATOM      5  O   UNL A   1      43.470  21.366  26.047  1.00  0.00    -0.376 OA
BRANCH   5   6
ATOM      6  C   UNL A   1      43.578  21.923  24.745  1.00  0.00     0.202 C 
BRANCH   6   7
ATOM      7  C   UNL A   1      44.730  22.914  24.713  1.00  0.00     0.261 C 
BRANCH   7   8
ATOM      8  O   UNL A   1      44.217  24.235  24.633  1.00  0.00    -0.460 OA
BRANCH   8   9
ATOM      9  C   UNL A   1      44.944  25.315  25.199  1.00  0.00     0.338 C 
ATOM     10  O   UNL A   1      46.002  25.735  24.634  1.00  0.00    -0.246 OA
BRANCH   9  11
ATOM     11  C   UNL A   1      44.457  25.969  26.482  1.00  0.00     0.060 A 
ATOM     12  C   UNL A   1      43.633  25.209  27.296  1.00  0.00     0.016 A 
ATOM     13  C   UNL A   1      44.698  27.248  26.748  1.00  0.00     0.016 A 
ATOM     14  C   UNL A   1      42.875  25.972  28.215  1.00  0.00     0.010 A 
ATOM     15  C   UNL A   1      44.018  27.894  27.751  1.00  0.00     0.010 A 
ATOM     16  C   UNL A   1      43.144  27.218  28.556  1.00  0.00    -0.014 A 
BRANCH  16  17
ATOM     17  C   UNL A   1      42.516  27.867  29.780  1.00  0.00     0.031 A 
ATOM     18  C   UNL A   1      43.135  27.806  31.029  1.00  0.00     0.074 A 
ATOM     19  C   UNL A   1      41.360  28.585  29.522  1.00  0.00     0.049 A 
ATOM     20  N   UNL A   1      42.765  28.426  32.151  1.00  0.00    -0.248 NA
ATOM     21  C   UNL A   1      44.343  27.018  31.312  1.00  0.00     0.031 C 
ATOM     22  C   UNL A   1      40.735  28.658  28.262  1.00  0.00     0.029 A 
ATOM     23  N   UNL A   1      40.618  29.337  30.405  1.00  0.00    -0.354 N 
ATOM     24  C   UNL A   1      43.617  28.139  33.138  1.00  0.00     0.074 A 
ATOM     25  C   UNL A   1      44.640  27.224  32.615  1.00  0.00     0.031 C 
ATOM     26  C   UNL A   1      39.626  29.435  28.386  1.00  0.00     0.029 A 
ATOM     27  C   UNL A   1      39.540  29.859  29.726  1.00  0.00     0.049 A 
ATOM     28  H   UNL A   1      40.824  29.477  31.358  1.00  0.00     0.167 HD
ATOM     29  C   UNL A   1      43.580  28.605  34.453  1.00  0.00     0.037 A 
ATOM     30  C   UNL A   1      38.528  30.661  30.229  1.00  0.00     0.037 A 
ATOM     31  C   UNL A   1      42.591  29.442  34.944  1.00  0.00     0.049 A 
ATOM     32  C   UNL A   1      38.459  31.081  31.559  1.00  0.00     0.074 A 
ATOM     33  C   UNL A   1      42.545  29.927  36.266  1.00  0.00     0.029 A 
ATOM     34  N   UNL A   1      41.500  29.944  34.271  1.00  0.00    -0.354 N 
ATOM     35  N   UNL A   1      39.331  30.826  32.535  1.00  0.00    -0.248 NA
ATOM     36  C   UNL A   1      37.375  31.903  32.111  1.00  0.00     0.031 C 
ATOM     37  C   UNL A   1      41.435  30.704  36.390  1.00  0.00     0.029 A 
ATOM     38  C   UNL A   1      40.771  30.715  35.149  1.00  0.00     0.049 A 
ATOM     39  H   UNL A   1      41.279  29.780  33.326  1.00  0.00     0.167 HD
ATOM     40  C   UNL A   1      38.939  31.412  33.668  1.00  0.00     0.074 A 
ATOM     41  C   UNL A   1      37.670  32.107  33.413  1.00  0.00     0.031 C 
ATOM     42  C   UNL A   1      39.589  31.398  34.903  1.00  0.00     0.037 A 
BRANCH  29  43
ATOM     43  C   UNL A   1      44.688  28.170  35.399  1.00  0.00     0.064 A 
ATOM     44  C   UNL A   1      45.797  28.999  35.456  1.00  0.00     0.173 A 
ATOM     45  C   UNL A   1      44.575  27.114  36.196  1.00  0.00     0.173 A 
ATOM     46  F   UNL A   1      45.842  30.191  34.870  1.00  0.00    -0.203 F 
ATOM     47  C   UNL A   1      46.878  28.459  36.193  1.00  0.00     0.198 A 
ATOM     48  C   UNL A   1      45.625  26.724  36.992  1.00  0.00     0.198 A 
ATOM     49  F   UNL A   1      43.437  26.428  36.223  1.00  0.00    -0.203 F 
ATOM     50  F   UNL A   1      48.081  28.995  36.009  1.00  0.00    -0.200 F 
ATOM     51  C   UNL A   1      46.774  27.463  37.052  1.00  0.00     0.200 A 
ATOM     52  F   UNL A   1      45.522  25.612  37.714  1.00  0.00    -0.200 F 
ATOM     53  F   UNL A   1      47.736  27.191  37.929  1.00  0.00    -0.200 F 
ENDBRANCH  29  43
BRANCH  30  54
ATOM     54  C   UNL A   1      37.429  31.109  29.278  1.00  0.00     0.064 A 
ATOM     55  C   UNL A   1      37.356  32.418  28.830  1.00  0.00     0.173 A 
ATOM     56  C   UNL A   1      36.486  30.224  28.978  1.00  0.00     0.173 A 
ATOM     57  F   UNL A   1      38.382  33.262  28.885  1.00  0.00    -0.203 F 
ATOM     58  C   UNL A   1      36.091  32.774  28.305  1.00  0.00     0.198 A 
ATOM     59  C   UNL A   1      35.334  30.619  28.343  1.00  0.00     0.198 A 
ATOM     60  F   UNL A   1      36.658  28.944  29.295  1.00  0.00    -0.203 F 
ATOM     61  F   UNL A   1      35.813  34.069  28.188  1.00  0.00    -0.200 F 
ATOM     62  C   UNL A   1      35.169  31.909  27.923  1.00  0.00     0.200 A 
ATOM     63  F   UNL A   1      34.364  29.732  28.132  1.00  0.00    -0.200 F 
ATOM     64  F   UNL A   1      34.133  32.276  27.172  1.00  0.00    -0.200 F 
ENDBRANCH  30  54
BRANCH  42  65
ATOM     65  C   UNL A   1      38.964  32.179  36.047  1.00  0.00     0.064 A 
ATOM     66  C   UNL A   1      39.318  33.512  36.174  1.00  0.00     0.173 A 
ATOM     67  C   UNL A   1      38.176  31.589  36.938  1.00  0.00     0.173 A 
ATOM     68  F   UNL A   1      39.887  34.209  35.193  1.00  0.00    -0.203 F 
ATOM     69  C   UNL A   1      39.021  34.067  37.442  1.00  0.00     0.198 A 
ATOM     70  C   UNL A   1      37.814  32.240  38.092  1.00  0.00     0.198 A 
ATOM     71  F   UNL A   1      37.732  30.355  36.710  1.00  0.00    -0.203 F 
ATOM     72  F   UNL A   1      39.634  35.197  37.781  1.00  0.00    -0.200 F 
ATOM     73  C   UNL A   1      38.179  33.539  38.311  1.00  0.00     0.200 A 
ATOM     74  F   UNL A   1      37.099  31.597  39.011  1.00  0.00    -0.200 F 
ATOM     75  F   UNL A   1      37.711  34.235  39.344  1.00  0.00    -0.200 F 
ENDBRANCH  42  65
ENDBRANCH  16  17
ENDBRANCH   9  11
ENDBRANCH   8   9
ENDBRANCH   7   8
ENDBRANCH   6   7
ENDBRANCH   5   6
ENDBRANCH   4   5
ENDBRANCH   3   4
ENDBRANCH   2   3
ENDBRANCH   1   2
BRANCH   1  76
ATOM     76  C   UNL A   1      40.049  23.701  26.912  1.00  0.00     0.188 C 
BRANCH  76  77
ATOM     77  O   UNL A   1      38.678  24.049  27.038  1.00  0.00    -0.376 OA
BRANCH  77  78
ATOM     78  C   UNL A   1      37.972  23.615  25.885  1.00  0.00     0.202 C 
BRANCH  78  79
ATOM     79  C   UNL A   1      36.511  24.016  26.005  1.00  0.00     0.261 C 
BRANCH  79  80
ATOM     80  O   UNL A   1      35.736  23.259  25.088  1.00  0.00    -0.460 OA
BRANCH  80  81
ATOM     81  C   UNL A   1      34.642  23.863  24.414  1.00  0.00     0.340 C 
ATOM     82  O   UNL A   1      34.792  24.307  23.232  1.00  0.00    -0.246 OA
BRANCH  81  83
ATOM     83  C   UNL A   1      33.293  23.979  25.103  1.00  0.00     0.083 A 
ATOM     84  C   UNL A   1      32.468  25.086  24.995  1.00  0.00     0.018 A 
ATOM     85  C   UNL A   1      32.883  22.872  25.710  1.00  0.00     0.053 A 
ATOM     86  C   UNL A   1      31.320  25.030  25.819  1.00  0.00     0.001 A 
ATOM     87  C   UNL A   1      31.685  22.846  26.383  1.00  0.00     0.027 A 
ATOM     88  C   UNL A   1      30.846  23.926  26.368  1.00  0.00     0.002 A 
BRANCH  85  89
ATOM     89  N   UNL A   1      33.717  21.662  25.662  1.00  0.00    -0.355 N 
ATOM     90  H   UNL A   1      34.519  21.595  26.229  1.00  0.00     0.167 HD
BRANCH  89  91
ATOM     91  C   UNL A   1      33.351  20.552  24.770  1.00  0.00     0.040 A 
ATOM     92  C   UNL A   1      32.680  20.811  23.586  1.00  0.00     0.026 A 
ATOM     93  C   UNL A   1      33.677  19.314  25.121  1.00  0.00     0.050 A 
ATOM     94  C   UNL A   1      32.137  19.659  22.971  1.00  0.00     0.004 A 
ATOM     95  C   UNL A   1      33.224  18.240  24.395  1.00  0.00     0.109 A 
ATOM     96  C   UNL A   1      32.505  18.420  23.246  1.00  0.00     0.024 A 
BRANCH  95  97
ATOM     97  S   UNL A   1      33.583  16.560  24.967  1.00  0.00     0.310 S 
ATOM     98  F   UNL A   1      33.230  15.864  23.587  1.00  0.00    -0.094 F 
ATOM     99  F   UNL A   1      32.070  16.376  25.367  1.00  0.00    -0.094 F 
ATOM    100  F   UNL A   1      33.930  15.149  25.520  1.00  0.00    -0.094 F 
ATOM    101  F   UNL A   1      35.063  16.706  24.433  1.00  0.00    -0.094 F 
ATOM    102  F   UNL A   1      33.221  17.947  24.301  1.00  0.00    -0.094 F 
ENDBRANCH  95  97
ENDBRANCH  89  91
ENDBRANCH  85  89
ENDBRANCH  81  83
ENDBRANCH  80  81
ENDBRANCH  79  80
ENDBRANCH  78  79
ENDBRANCH  77  78
ENDBRANCH  76  77
ENDBRANCH   1  76
TORSDOF 23
ENDMDL
MODEL 2
REMARK VINA RESULT:     -10.9      2.936      3.930
REMARK SMILES O=C(OCCOCCOCCOCCOC(=O)c1ccccc1Nc1cccc(S(F)(F)(F)(F)F)c1)c1ccc(-c2c3nc(c(-c4c(F)c(F)c(F)c(F)c4F)c4ccc([nH]4)c(-c4c(F)c(F)c(F)c(F)c4F)c4nc(c(-c5c(F)c(F)c(F)c(F)c5F)c5ccc2[nH]5)C=C4)C=C3)cc1
REMARK SMILES IDX 10 1 9 2 8 3 7 4 6 5 5 6 4 7 3 8 2 9 1 10 37 11 38 12 99 13
REMARK SMILES IDX 39 14 98 15 40 16 41 17 42 18 92 19 43 20 97 21 91 22 93 23
REMARK SMILES IDX 44 24 96 25 90 26 89 27 45 29 77 30 57 31 76 32 58 33 61 34
REMARK SMILES IDX 75 35 94 36 59 37 60 38 74 40 95 41 62 42 46 43 47 44 55 45
REMARK SMILES IDX 48 46 49 47 53 48 56 49 50 50 51 51 54 52 52 53 78 54 79 55
REMARK SMILES IDX 87 56 80 57 81 58 85 59 88 60 82 61 83 62 86 63 84 64 63 65
REMARK SMILES IDX 64 66 72 67 65 68 66 69 70 70 73 71 67 72 68 73 71 74 69 75
REMARK SMILES IDX 11 76 12 77 13 78 14 79 15 80 16 81 17 82 18 83 19 84 23 85
REMARK SMILES IDX 20 86 22 87 21 88 24 89 25 91 26 92 36 93 27 94 29 95 28 96
REMARK SMILES IDX 30 97 31 98 32 99 33 100 34 101 35 102
REMARK H PARENT 93 28 61 39 24 90
REMARK Flexibility Score: inf
ROOT
ATOM      1  C   UNL A   1      40.399  21.913  26.427  1.00  0.00     0.188 C 
ENDROOT
BRANCH   1   2
ATOM      2  O   UNL A   1      40.573  21.113  27.588  1.00  0.00    -0.377 OA
BRANCH   2   3
ATOM      3  C   UNL A   1      41.896  20.597  27.613  1.00  0.00     0.188 C 
BRANCH   3   4
ATOM      4  C   UNL A   1      42.406  20.442  26.191  1.00  0.00     0.188 C 
BRANCH   4   5
ATOM      5  O   UNL A   1      43.723  20.966  26.101  1.00  0.00    -0.376 OA
BRANCH   5   6
ATOM      6  C   UNL A   1      43.959  21.432  24.781  1.00  0.00     0.202 C 
BRANCH   6   7
ATOM      7  C   UNL A   1      44.904  22.621  24.825  1.00  0.00     0.261 C 
BRANCH   7   8
ATOM      8  O   UNL A   1      44.150  23.825  24.827  1.00  0.00    -0.460 OA
BRANCH   8   9
ATOM      9  C   UNL A   1      44.752  25.039  25.249  1.00  0.00     0.338 C 
ATOM     10  O   UNL A   1      45.681  25.562  24.558  1.00  0.00    -0.246 OA
BRANCH   9  11
ATOM     11  C   UNL A   1      44.285  25.714  26.529  1.00  0.00     0.060 A 
ATOM     12  C   UNL A   1      43.414  24.995  27.331  1.00  0.00     0.016 A 
ATOM     13  C   UNL A   1      44.590  26.977  26.803  1.00  0.00     0.016 A 
ATOM     14  C   UNL A   1      42.686  25.793  28.245  1.00  0.00     0.010 A 
ATOM     15  C   UNL A   1      43.933  27.655  27.800  1.00  0.00     0.010 A 
ATOM     16  C   UNL A   1      43.016  27.023  28.594  1.00  0.00    -0.014 A 
BRANCH  16  17
ATOM     17  C   UNL A   1      42.409  27.700  29.812  1.00  0.00     0.031 A 
ATOM     18  C   UNL A   1      43.027  27.630  31.062  1.00  0.00     0.074 A 
ATOM     19  C   UNL A   1      41.275  28.451  29.550  1.00  0.00     0.049 A 
ATOM     20  N   UNL A   1      42.677  28.269  32.180  1.00  0.00    -0.248 NA
ATOM     21  C   UNL A   1      44.210  26.807  31.350  1.00  0.00     0.031 C 
ATOM     22  C   UNL A   1      40.651  28.534  28.290  1.00  0.00     0.029 A 
ATOM     23  N   UNL A   1      40.557  29.232  30.428  1.00  0.00    -0.354 N 
ATOM     24  C   UNL A   1      43.520  27.963  33.168  1.00  0.00     0.074 A 
ATOM     25  C   UNL A   1      44.514  27.013  32.651  1.00  0.00     0.031 C 
ATOM     26  C   UNL A   1      39.567  29.344  28.409  1.00  0.00     0.029 A 
ATOM     27  C   UNL A   1      39.495  29.781  29.745  1.00  0.00     0.049 A 
ATOM     28  H   UNL A   1      40.768  29.373  31.380  1.00  0.00     0.167 HD
ATOM     29  C   UNL A   1      43.499  28.440  34.480  1.00  0.00     0.037 A 
ATOM     30  C   UNL A   1      38.508  30.617  30.242  1.00  0.00     0.037 A 
ATOM     31  C   UNL A   1      42.536  29.310  34.965  1.00  0.00     0.049 A 
ATOM     32  C   UNL A   1      38.453  31.048  31.570  1.00  0.00     0.074 A 
ATOM     33  C   UNL A   1      42.505  29.807  36.282  1.00  0.00     0.029 A 
ATOM     34  N   UNL A   1      41.460  29.840  34.289  1.00  0.00    -0.354 N 
ATOM     35  N   UNL A   1      39.318  30.774  32.547  1.00  0.00    -0.248 NA
ATOM     36  C   UNL A   1      37.395  31.908  32.116  1.00  0.00     0.031 C 
ATOM     37  C   UNL A   1      41.419  30.618  36.402  1.00  0.00     0.029 A 
ATOM     38  C   UNL A   1      40.755  30.640  35.161  1.00  0.00     0.049 A 
ATOM     39  H   UNL A   1      41.234  29.676  33.345  1.00  0.00     0.167 HD
ATOM     40  C   UNL A   1      38.944  31.381  33.675  1.00  0.00     0.074 A 
ATOM     41  C   UNL A   1      37.697  32.113  33.416  1.00  0.00     0.031 C 
ATOM     42  C   UNL A   1      39.595  31.356  34.911  1.00  0.00     0.037 A 
BRANCH  29  43
ATOM     43  C   UNL A   1      44.593  27.978  35.428  1.00  0.00     0.064 A 
ATOM     44  C   UNL A   1      44.334  26.814  36.132  1.00  0.00     0.173 A 
ATOM     45  C   UNL A   1      45.767  28.591  35.519  1.00  0.00     0.173 A 
ATOM     46  F   UNL A   1      43.285  26.034  35.885  1.00  0.00    -0.203 F 
ATOM     47  C   UNL A   1      45.286  26.530  37.140  1.00  0.00     0.198 A 
ATOM     48  C   UNL A   1      46.705  28.175  36.433  1.00  0.00     0.198 A 
ATOM     49  F   UNL A   1      46.038  29.619  34.719  1.00  0.00    -0.203 F 
ATOM     50  F   UNL A   1      44.944  25.661  38.087  1.00  0.00    -0.200 F 
ATOM     51  C   UNL A   1      46.490  27.066  37.205  1.00  0.00     0.200 A 
ATOM     52  F   UNL A   1      47.837  28.859  36.569  1.00  0.00    -0.200 F 
ATOM     53  F   UNL A   1      47.444  26.557  37.979  1.00  0.00    -0.200 F 
ENDBRANCH  29  43
BRANCH  30  54
ATOM     54  C   UNL A   1      37.423  31.091  29.289  1.00  0.00     0.064 A 
ATOM     55  C   UNL A   1      37.380  32.402  28.844  1.00  0.00     0.173 A 
ATOM     56  C   UNL A   1      36.462  30.228  28.983  1.00  0.00     0.173 A 
ATOM     57  F   UNL A   1      38.424  33.224  28.905  1.00  0.00    -0.203 F 
ATOM     58  C   UNL A   1      36.125  32.787  28.315  1.00  0.00     0.198 A 
ATOM     59  C   UNL A   1      35.320  30.650  28.345  1.00  0.00     0.198 A 
ATOM     60  F   UNL A   1      36.604  28.943  29.298  1.00  0.00    -0.203 F 
ATOM     61  F   UNL A   1      35.876  34.089  28.200  1.00  0.00    -0.200 F 
ATOM     62  C   UNL A   1      35.185  31.944  27.928  1.00  0.00     0.200 A 
ATOM     63  F   UNL A   1      34.333  29.784  28.129  1.00  0.00    -0.200 F 
ATOM     64  F   UNL A   1      34.161  32.334  27.174  1.00  0.00    -0.200 F 
ENDBRANCH  30  54
BRANCH  42  65
ATOM     65  C   UNL A   1      38.995  32.164  36.049  1.00  0.00     0.064 A 
ATOM     66  C   UNL A   1      39.385  33.488  36.162  1.00  0.00     0.173 A 
ATOM     67  C   UNL A   1      38.194  31.604  36.948  1.00  0.00     0.173 A 
ATOM     68  F   UNL A   1      39.968  34.160  35.173  1.00  0.00    -0.203 F 
ATOM     69  C   UNL A   1      39.107  34.063  37.426  1.00  0.00     0.198 A 
ATOM     70  C   UNL A   1      37.853  32.275  38.097  1.00  0.00     0.198 A 
ATOM     71  F   UNL A   1      37.716  30.380  36.733  1.00  0.00    -0.203 F 
ATOM     72  F   UNL A   1      39.751  35.179  37.752  1.00  0.00    -0.200 F 
ATOM     73  C   UNL A   1      38.254  33.566  38.302  1.00  0.00     0.200 A 
ATOM     74  F   UNL A   1      37.124  31.660  39.024  1.00  0.00    -0.200 F 
ATOM     75  F   UNL A   1      37.808  34.284  39.330  1.00  0.00    -0.200 F 
ENDBRANCH  42  65
ENDBRANCH  16  17
ENDBRANCH   9  11
ENDBRANCH   8   9
ENDBRANCH   7   8
ENDBRANCH   6   7
ENDBRANCH   5   6
ENDBRANCH   4   5
ENDBRANCH   3   4
ENDBRANCH   2   3
ENDBRANCH   1   2
BRANCH   1  76
ATOM     76  C   UNL A   1      40.053  23.334  26.838  1.00  0.00     0.188 C 
BRANCH  76  77
ATOM     77  O   UNL A   1      38.648  23.446  27.017  1.00  0.00    -0.376 OA
BRANCH  77  78
ATOM     78  C   UNL A   1      38.015  23.532  25.749  1.00  0.00     0.202 C 
BRANCH  78  79
ATOM     79  C   UNL A   1      36.850  22.558  25.699  1.00  0.00     0.261 C 
BRANCH  79  80
ATOM     80  O   UNL A   1      35.696  23.171  26.256  1.00  0.00    -0.460 OA
BRANCH  80  81
ATOM     81  C   UNL A   1      34.503  22.420  26.422  1.00  0.00     0.340 C 
ATOM     82  O   UNL A   1      34.089  22.135  27.589  1.00  0.00    -0.246 OA
BRANCH  81  83
ATOM     83  C   UNL A   1      33.719  21.957  25.205  1.00  0.00     0.083 A 
ATOM     84  C   UNL A   1      33.238  20.668  25.046  1.00  0.00     0.018 A 
ATOM     85  C   UNL A   1      33.396  22.922  24.352  1.00  0.00     0.053 A 
ATOM     86  C   UNL A   1      32.648  20.426  23.783  1.00  0.00     0.001 A 
ATOM     87  C   UNL A   1      32.699  22.636  23.203  1.00  0.00     0.027 A 
ATOM     88  C   UNL A   1      32.243  21.371  22.954  1.00  0.00     0.002 A 
BRANCH  85  89
ATOM     89  N   UNL A   1      33.786  24.310  24.641  1.00  0.00    -0.355 N 
ATOM     90  H   UNL A   1      34.736  24.567  24.629  1.00  0.00     0.167 HD
BRANCH  89  91
ATOM     91  C   UNL A   1      32.756  25.314  24.945  1.00  0.00     0.040 A 
ATOM     92  C   UNL A   1      32.000  25.201  26.100  1.00  0.00     0.026 A 
ATOM     93  C   UNL A   1      32.571  26.319  24.097  1.00  0.00     0.050 A 
ATOM     94  C   UNL A   1      30.867  26.047  26.131  1.00  0.00     0.004 A 
ATOM     95  C   UNL A   1      31.523  27.192  24.264  1.00  0.00     0.109 A 
ATOM     96  C   UNL A   1      30.700  27.102  25.352  1.00  0.00     0.024 A 
BRANCH  95  97
ATOM     97  S   UNL A   1      31.226  28.478  23.026  1.00  0.00     0.310 S 
ATOM     98  F   UNL A   1      30.034  29.161  23.817  1.00  0.00    -0.094 F 
ATOM     99  F   UNL A   1      30.149  27.559  22.334  1.00  0.00    -0.094 F 
ATOM    100  F   UNL A   1      31.041  29.566  21.931  1.00  0.00    -0.094 F 
ATOM    101  F   UNL A   1      32.202  29.442  23.809  1.00  0.00    -0.094 F 
ATOM    102  F   UNL A   1      31.340  27.430  24.204  1.00  0.00    -0.094 F 
ENDBRANCH  95  97
ENDBRANCH  89  91
ENDBRANCH  85  89
ENDBRANCH  81  83
ENDBRANCH  80  81
ENDBRANCH  79  80
ENDBRANCH  78  79
ENDBRANCH  77  78
ENDBRANCH  76  77
ENDBRANCH   1  76
TORSDOF 23
ENDMDL
MODEL 3
REMARK VINA RESULT:     -10.6      5.687     10.740
REMARK SMILES O=C(OCCOCCOCCOCCOC(=O)c1ccccc1Nc1cccc(S(F)(F)(F)(F)F)c1)c1ccc(-c2c3nc(c(-c4c(F)c(F)c(F)c(F)c4F)c4ccc([nH]4)c(-c4c(F)c(F)c(F)c(F)c4F)c4nc(c(-c5c(F)c(F)c(F)c(F)c5F)c5ccc2[nH]5)C=C4)C=C3)cc1
REMARK SMILES IDX 10 1 9 2 8 3 7 4 6 5 5 6 4 7 3 8 2 9 1 10 37 11 38 12 99 13
REMARK SMILES IDX 39 14 98 15 40 16 41 17 42 18 92 19 43 20 97 21 91 22 93 23
REMARK SMILES IDX 44 24 96 25 90 26 89 27 45 29 77 30 57 31 76 32 58 33 61 34
REMARK SMILES IDX 75 35 94 36 59 37 60 38 74 40 95 41 62 42 46 43 47 44 55 45
REMARK SMILES IDX 48 46 49 47 53 48 56 49 50 50 51 51 54 52 52 53 78 54 79 55
REMARK SMILES IDX 87 56 80 57 81 58 85 59 88 60 82 61 83 62 86 63 84 64 63 65
REMARK SMILES IDX 64 66 72 67 65 68 66 69 70 70 73 71 67 72 68 73 71 74 69 75
REMARK SMILES IDX 11 76 12 77 13 78 14 79 15 80 16 81 17 82 18 83 19 84 23 85
REMARK SMILES IDX 20 86 22 87 21 88 24 89 25 91 26 92 36 93 27 94 29 95 28 96
REMARK SMILES IDX 30 97 31 98 32 99 33 100 34 101 35 102
REMARK H PARENT 93 28 61 39 24 90
REMARK Flexibility Score: inf
ROOT
ATOM      1  C   UNL A   1      34.295  34.012  29.533  1.00  0.00     0.188 C 
ENDROOT
BRANCH   1   2
ATOM      2  O   UNL A   1      33.278  34.269  30.490  1.00  0.00    -0.377 OA
BRANCH   2   3
ATOM      3  C   UNL A   1      33.297  35.645  30.842  1.00  0.00     0.188 C 
BRANCH   3   4
ATOM      4  C   UNL A   1      34.414  35.897  31.841  1.00  0.00     0.188 C 
BRANCH   4   5
ATOM      5  O   UNL A   1      33.980  35.521  33.140  1.00  0.00    -0.376 OA
BRANCH   5   6
ATOM      6  C   UNL A   1      34.315  34.162  33.378  1.00  0.00     0.202 C 
BRANCH   6   7
ATOM      7  C   UNL A   1      35.474  34.091  34.358  1.00  0.00     0.261 C 
BRANCH   7   8
ATOM      8  O   UNL A   1      36.664  33.749  33.661  1.00  0.00    -0.460 OA
BRANCH   8   9
ATOM      9  C   UNL A   1      36.805  32.458  33.088  1.00  0.00     0.338 C 
ATOM     10  O   UNL A   1      35.897  31.585  33.256  1.00  0.00    -0.246 OA
BRANCH   9  11
ATOM     11  C   UNL A   1      38.042  32.120  32.273  1.00  0.00     0.060 A 
ATOM     12  C   UNL A   1      37.965  32.327  30.905  1.00  0.00     0.016 A 
ATOM     13  C   UNL A   1      39.100  31.532  32.821  1.00  0.00     0.016 A 
ATOM     14  C   UNL A   1      38.935  31.614  30.162  1.00  0.00     0.010 A 
ATOM     15  C   UNL A   1      40.077  30.975  32.034  1.00  0.00     0.010 A 
ATOM     16  C   UNL A   1      40.034  31.091  30.672  1.00  0.00    -0.014 A 
BRANCH  16  17
ATOM     17  C   UNL A   1      41.190  30.641  29.793  1.00  0.00     0.031 A 
ATOM     18  C   UNL A   1      42.252  31.497  29.499  1.00  0.00     0.074 A 
ATOM     19  C   UNL A   1      41.137  29.312  29.405  1.00  0.00     0.049 A 
ATOM     20  N   UNL A   1      43.380  31.202  28.849  1.00  0.00    -0.248 NA
ATOM     21  C   UNL A   1      42.295  32.917  29.879  1.00  0.00     0.031 C 
ATOM     22  C   UNL A   1      40.072  28.439  29.705  1.00  0.00     0.029 A 
ATOM     23  N   UNL A   1      42.070  28.606  28.680  1.00  0.00    -0.354 N 
ATOM     24  C   UNL A   1      44.165  32.279  28.780  1.00  0.00     0.074 A 
ATOM     25  C   UNL A   1      43.477  33.399  29.435  1.00  0.00     0.031 C 
ATOM     26  C   UNL A   1      40.355  27.227  29.159  1.00  0.00     0.029 A 
ATOM     27  C   UNL A   1      41.600  27.322  28.509  1.00  0.00     0.049 A 
ATOM     28  H   UNL A   1      42.925  28.958  28.342  1.00  0.00     0.167 HD
ATOM     29  C   UNL A   1      45.430  32.370  28.195  1.00  0.00     0.037 A 
ATOM     30  C   UNL A   1      42.208  26.280  27.827  1.00  0.00     0.037 A 
ATOM     31  C   UNL A   1      46.056  31.315  27.551  1.00  0.00     0.049 A 
ATOM     32  C   UNL A   1      43.447  26.387  27.192  1.00  0.00     0.074 A 
ATOM     33  C   UNL A   1      47.334  31.388  26.964  1.00  0.00     0.029 A 
ATOM     34  N   UNL A   1      45.576  30.039  27.359  1.00  0.00    -0.354 N 
ATOM     35  N   UNL A   1      44.250  27.451  27.156  1.00  0.00    -0.248 NA
ATOM     36  C   UNL A   1      44.086  25.300  26.439  1.00  0.00     0.031 C 
ATOM     37  C   UNL A   1      47.617  30.175  26.417  1.00  0.00     0.029 A 
ATOM     38  C   UNL A   1      46.519  29.326  26.653  1.00  0.00     0.049 A 
ATOM     39  H   UNL A   1      44.708  29.696  27.672  1.00  0.00     0.167 HD
ATOM     40  C   UNL A   1      45.359  27.168  26.471  1.00  0.00     0.074 A 
ATOM     41  C   UNL A   1      45.266  25.782  25.993  1.00  0.00     0.031 C 
ATOM     42  C   UNL A   1      46.447  28.008  26.228  1.00  0.00     0.037 A 
BRANCH  29  43
ATOM     43  C   UNL A   1      46.161  33.700  28.271  1.00  0.00     0.064 A 
ATOM     44  C   UNL A   1      45.891  34.600  27.253  1.00  0.00     0.173 A 
ATOM     45  C   UNL A   1      46.943  34.030  29.292  1.00  0.00     0.173 A 
ATOM     46  F   UNL A   1      44.929  34.411  26.354  1.00  0.00    -0.203 F 
ATOM     47  C   UNL A   1      46.733  35.737  27.254  1.00  0.00     0.198 A 
ATOM     48  C   UNL A   1      47.630  35.220  29.291  1.00  0.00     0.198 A 
ATOM     49  F   UNL A   1      47.062  33.202  30.326  1.00  0.00    -0.203 F 
ATOM     50  F   UNL A   1      46.798  36.460  26.140  1.00  0.00    -0.200 F 
ATOM     51  C   UNL A   1      47.457  36.131  28.285  1.00  0.00     0.200 A 
ATOM     52  F   UNL A   1      48.476  35.490  30.280  1.00  0.00    -0.200 F 
ATOM     53  F   UNL A   1      47.989  37.348  28.343  1.00  0.00    -0.200 F 
ENDBRANCH  29  43
BRANCH  30  54
ATOM     54  C   UNL A   1      41.483  24.945  27.765  1.00  0.00     0.064 A 
ATOM     55  C   UNL A   1      41.952  23.841  28.458  1.00  0.00     0.173 A 
ATOM     56  C   UNL A   1      40.445  24.853  26.942  1.00  0.00     0.173 A 
ATOM     57  F   UNL A   1      42.810  23.929  29.470  1.00  0.00    -0.203 F 
ATOM     58  C   UNL A   1      41.433  22.609  27.991  1.00  0.00     0.198 A 
ATOM     59  C   UNL A   1      39.903  23.628  26.636  1.00  0.00     0.198 A 
ATOM     60  F   UNL A   1      39.927  25.956  26.409  1.00  0.00    -0.203 F 
ATOM     61  F   UNL A   1      42.077  21.497  28.335  1.00  0.00    -0.200 F 
ATOM     62  C   UNL A   1      40.355  22.488  27.238  1.00  0.00     0.200 A 
ATOM     63  F   UNL A   1      38.921  23.552  25.740  1.00  0.00    -0.200 F 
ATOM     64  F   UNL A   1      39.743  21.318  27.074  1.00  0.00    -0.200 F 
ENDBRANCH  30  54
BRANCH  42  65
ATOM     65  C   UNL A   1      47.624  27.444  25.449  1.00  0.00     0.064 A 
ATOM     66  C   UNL A   1      48.670  26.906  26.180  1.00  0.00     0.173 A 
ATOM     67  C   UNL A   1      47.686  27.537  24.126  1.00  0.00     0.173 A 
ATOM     68  F   UNL A   1      48.558  26.561  27.461  1.00  0.00    -0.203 F 
ATOM     69  C   UNL A   1      49.869  26.756  25.443  1.00  0.00     0.198 A 
ATOM     70  C   UNL A   1      48.850  27.244  23.457  1.00  0.00     0.198 A 
ATOM     71  F   UNL A   1      46.610  27.916  23.440  1.00  0.00    -0.203 F 
ATOM     72  F   UNL A   1      50.998  26.597  26.126  1.00  0.00    -0.200 F 
ATOM     73  C   UNL A   1      49.943  26.765  24.125  1.00  0.00     0.200 A 
ATOM     74  F   UNL A   1      48.916  27.431  22.142  1.00  0.00    -0.200 F 
ATOM     75  F   UNL A   1      51.023  26.330  23.481  1.00  0.00    -0.200 F 
ENDBRANCH  42  65
ENDBRANCH  16  17
ENDBRANCH   9  11
ENDBRANCH   8   9
ENDBRANCH   7   8
ENDBRANCH   6   7
ENDBRANCH   5   6
ENDBRANCH   4   5
ENDBRANCH   3   4
ENDBRANCH   2   3
ENDBRANCH   1   2
BRANCH   1  76
ATOM     76  C   UNL A   1      34.529  32.514  29.432  1.00  0.00     0.188 C 
BRANCH  76  77
ATOM     77  O   UNL A   1      34.028  32.039  28.191  1.00  0.00    -0.376 OA
BRANCH  77  78
ATOM     78  C   UNL A   1      34.938  31.099  27.641  1.00  0.00     0.202 C 
BRANCH  78  79
ATOM     79  C   UNL A   1      34.165  30.012  26.914  1.00  0.00     0.261 C 
BRANCH  79  80
ATOM     80  O   UNL A   1      32.868  29.894  27.481  1.00  0.00    -0.460 OA
BRANCH  80  81
ATOM     81  C   UNL A   1      32.015  28.829  27.087  1.00  0.00     0.340 C 
ATOM     82  O   UNL A   1      31.456  28.104  27.968  1.00  0.00    -0.246 OA
BRANCH  81  83
ATOM     83  C   UNL A   1      31.768  28.558  25.612  1.00  0.00     0.083 A 
ATOM     84  C   UNL A   1      31.133  29.449  24.764  1.00  0.00     0.018 A 
ATOM     85  C   UNL A   1      32.338  27.452  25.148  1.00  0.00     0.053 A 
ATOM     86  C   UNL A   1      30.899  28.939  23.465  1.00  0.00     0.001 A 
ATOM     87  C   UNL A   1      32.181  27.084  23.833  1.00  0.00     0.027 A 
ATOM     88  C   UNL A   1      31.514  27.889  22.952  1.00  0.00     0.002 A 
BRANCH  85  89
ATOM     89  N   UNL A   1      33.145  26.615  26.047  1.00  0.00    -0.355 N 
ATOM     90  H   UNL A   1      33.821  27.029  26.631  1.00  0.00     0.167 HD
BRANCH  89  91
ATOM     91  C   UNL A   1      32.941  25.159  26.076  1.00  0.00     0.040 A 
ATOM     92  C   UNL A   1      31.741  24.640  26.531  1.00  0.00     0.026 A 
ATOM     93  C   UNL A   1      33.922  24.367  25.661  1.00  0.00     0.050 A 
ATOM     94  C   UNL A   1      31.776  23.248  26.781  1.00  0.00     0.004 A 
ATOM     95  C   UNL A   1      33.831  23.005  25.812  1.00  0.00     0.109 A 
ATOM     96  C   UNL A   1      32.696  22.426  26.309  1.00  0.00     0.024 A 
BRANCH  95  97
ATOM     97  S   UNL A   1      35.235  21.960  25.348  1.00  0.00     0.310 S 
ATOM     98  F   UNL A   1      35.746  22.918  24.193  1.00  0.00    -0.094 F 
ATOM     99  F   UNL A   1      34.340  21.246  24.264  1.00  0.00    -0.094 F 
ATOM    100  F   UNL A   1      36.431  21.024  25.016  1.00  0.00    -0.094 F 
ATOM    101  F   UNL A   1      36.157  22.777  26.336  1.00  0.00    -0.094 F 
ATOM    102  F   UNL A   1      34.064  22.988  25.612  1.00  0.00    -0.094 F 
ENDBRANCH  95  97
ENDBRANCH  89  91
ENDBRANCH  85  89
ENDBRANCH  81  83
ENDBRANCH  80  81
ENDBRANCH  79  80
ENDBRANCH  78  79
ENDBRANCH  77  78
ENDBRANCH  76  77
ENDBRANCH   1  76
TORSDOF 23
ENDMDL
