MODEL 1
REMARK VINA RESULT:     -10.0      0.000      0.000
REMARK SMILES C[C@@]1(CN2C(=O)c3ccc(C(=O)OCCOCCOCCOCCOC(=O)c4ccc(-c5c6nc(c(-c7c(F)c(F)c(F)c(F)c7F)c7ccc([nH]7)c(-c7c(F)c(F)c(F)c(F)c7F)c7nc(c(-c8c(F)c(F)c(F)c(F)c8F)c8ccc5[nH]8)C=C7)C=C6)cc4)cc3C2=O)CCCO1
REMARK SMILES IDX 19 1 18 2 17 3 16 4 15 5 14 6 13 7 11 8 12 9 10 10 4 11 5 12
REMARK SMILES IDX 93 13 6 14 7 15 92 16 94 17 8 18 91 19 9 20 3 21 2 22 1 23
REMARK SMILES IDX 95 24 98 25 96 26 97 27 20 28 21 29 22 30 23 31 24 32 25 33
REMARK SMILES IDX 26 34 27 35 28 36 29 37 90 38 30 39 89 40 31 41 32 42 33 43
REMARK SMILES IDX 83 44 34 45 88 46 82 47 84 48 35 49 87 50 81 51 80 52 36 54
REMARK SMILES IDX 68 55 48 56 67 57 49 58 52 59 66 60 85 61 50 62 51 63 65 65
REMARK SMILES IDX 86 66 53 67 37 68 38 69 46 70 39 71 40 72 44 73 47 74 41 75
REMARK SMILES IDX 42 76 45 77 43 78 69 79 70 80 78 81 71 82 72 83 76 84 79 85
REMARK SMILES IDX 73 86 74 87 77 88 75 89 54 90 55 91 63 92 56 93 57 94 61 95
REMARK SMILES IDX 64 96 58 97 59 98 62 99 60 100
REMARK H PARENT 84 53 52 64
REMARK Flexibility Score: inf
ROOT
ATOM      1  O   UNL A   1      42.311  20.703  27.272  1.00  0.00    -0.377 OA
ENDROOT
BRANCH   1   2
ATOM      2  C   UNL A   1      40.971  21.108  27.510  1.00  0.00     0.188 C 
BRANCH   2   3
ATOM      3  C   UNL A   1      40.149  21.587  26.296  1.00  0.00     0.188 C 
BRANCH   3   4
ATOM      4  O   UNL A   1      38.811  21.122  26.313  1.00  0.00    -0.376 OA
BRANCH   4   5
ATOM      5  C   UNL A   1      38.051  21.132  25.119  1.00  0.00     0.202 C 
BRANCH   5   6
ATOM      6  C   UNL A   1      36.516  21.185  25.175  1.00  0.00     0.261 C 
BRANCH   6   7
ATOM      7  O   UNL A   1      35.938  22.167  26.041  1.00  0.00    -0.460 OA
BRANCH   7   8
ATOM      8  C   UNL A   1      36.068  23.462  25.683  1.00  0.00     0.338 C 
ATOM      9  O   UNL A   1      37.108  24.081  25.550  1.00  0.00    -0.246 OA
BRANCH   8  10
ATOM     10  C   UNL A   1      34.732  23.956  25.264  1.00  0.00     0.060 A 
ATOM     11  N   UNL A   1      31.667  26.315  22.804  1.00  0.00    -0.271 N 
ATOM     12  C   UNL A   1      31.132  25.484  23.751  1.00  0.00     0.261 C 
ATOM     13  C   UNL A   1      33.018  26.147  22.689  1.00  0.00     0.261 C 
ATOM     14  O   UNL A   1      29.971  25.303  24.052  1.00  0.00    -0.269 OA
ATOM     15  C   UNL A   1      32.261  24.815  24.395  1.00  0.00     0.053 A 
ATOM     16  C   UNL A   1      33.415  25.232  23.756  1.00  0.00     0.054 A 
ATOM     17  O   UNL A   1      33.792  26.600  21.862  1.00  0.00    -0.269 OA
ATOM     18  C   UNL A   1      32.291  23.951  25.474  1.00  0.00     0.015 A 
ATOM     19  C   UNL A   1      34.668  24.820  24.160  1.00  0.00     0.030 A 
ATOM     20  C   UNL A   1      33.549  23.516  25.909  1.00  0.00     0.016 A 
BRANCH  11  21
ATOM     21  C   UNL A   1      30.900  27.289  22.043  1.00  0.00     0.164 C 
BRANCH  21  22
ATOM     22  C   UNL A   1      30.692  28.630  22.808  1.00  0.00     0.084 C 
ATOM     23  C   UNL A   1      31.782  28.887  23.850  1.00  0.00     0.044 C 
ATOM     24  C   UNL A   1      29.305  28.682  23.457  1.00  0.00     0.039 C 
ATOM     25  O   UNL A   1      30.720  29.724  21.861  1.00  0.00    -0.373 OA
ATOM     26  C   UNL A   1      28.447  29.302  22.382  1.00  0.00     0.031 C 
ATOM     27  C   UNL A   1      29.403  30.273  21.728  1.00  0.00     0.161 C 
ENDBRANCH  21  22
ENDBRANCH  11  21
ENDBRANCH   8  10
ENDBRANCH   7   8
ENDBRANCH   6   7
ENDBRANCH   5   6
ENDBRANCH   4   5
ENDBRANCH   3   4
ENDBRANCH   2   3
ENDBRANCH   1   2
BRANCH   1  28
ATOM     28  C   UNL A   1      42.574  19.593  26.412  1.00  0.00     0.188 C 
BRANCH  28  29
ATOM     29  C   UNL A   1      43.431  19.709  25.126  1.00  0.00     0.188 C 
BRANCH  29  30
ATOM     30  O   UNL A   1      44.829  19.781  25.345  1.00  0.00    -0.376 OA
BRANCH  30  31
ATOM     31  C   UNL A   1      45.449  21.052  25.304  1.00  0.00     0.202 C 
BRANCH  31  32
ATOM     32  C   UNL A   1      44.556  22.241  24.927  1.00  0.00     0.261 C 
BRANCH  32  33
ATOM     33  O   UNL A   1      44.172  23.107  26.006  1.00  0.00    -0.460 OA
BRANCH  33  34
ATOM     34  C   UNL A   1      43.621  24.295  25.675  1.00  0.00     0.338 C 
ATOM     35  O   UNL A   1      43.190  24.631  24.588  1.00  0.00    -0.246 OA
BRANCH  34  36
ATOM     36  C   UNL A   1      43.454  25.074  26.919  1.00  0.00     0.060 A 
ATOM     37  C   UNL A   1      42.633  24.567  27.936  1.00  0.00     0.016 A 
ATOM     38  C   UNL A   1      44.109  26.297  27.082  1.00  0.00     0.016 A 
ATOM     39  C   UNL A   1      42.437  25.304  29.105  1.00  0.00     0.010 A 
ATOM     40  C   UNL A   1      43.895  27.042  28.244  1.00  0.00     0.010 A 
ATOM     41  C   UNL A   1      43.030  26.565  29.246  1.00  0.00    -0.014 A 
BRANCH  41  42
ATOM     42  C   UNL A   1      42.594  27.464  30.343  1.00  0.00     0.031 A 
ATOM     43  C   UNL A   1      41.358  28.298  30.133  1.00  0.00     0.074 A 
ATOM     44  C   UNL A   1      43.254  27.515  31.514  1.00  0.00     0.049 A 
ATOM     45  N   UNL A   1      40.811  29.191  30.918  1.00  0.00    -0.248 NA
ATOM     46  C   UNL A   1      40.644  28.095  28.862  1.00  0.00     0.031 C 
ATOM     47  C   UNL A   1      44.435  26.728  31.855  1.00  0.00     0.029 A 
ATOM     48  N   UNL A   1      43.023  28.279  32.634  1.00  0.00    -0.354 N 
ATOM     49  C   UNL A   1      39.688  29.648  30.240  1.00  0.00     0.074 A 
ATOM     50  C   UNL A   1      39.657  28.972  28.962  1.00  0.00     0.031 C 
ATOM     51  C   UNL A   1      44.838  27.061  33.094  1.00  0.00     0.029 A 
ATOM     52  C   UNL A   1      43.964  28.110  33.619  1.00  0.00     0.049 A 
ATOM     53  H   UNL A   1      42.255  28.889  32.720  1.00  0.00     0.167 HD
ATOM     54  C   UNL A   1      38.755  30.537  30.655  1.00  0.00     0.037 A 
ATOM     55  C   UNL A   1      44.116  28.752  34.793  1.00  0.00     0.037 A 
ATOM     56  C   UNL A   1      38.795  31.220  31.920  1.00  0.00     0.049 A 
ATOM     57  C   UNL A   1      43.115  29.813  35.189  1.00  0.00     0.074 A 
ATOM     58  C   UNL A   1      37.908  32.154  32.426  1.00  0.00     0.029 A 
ATOM     59  N   UNL A   1      39.779  31.043  32.881  1.00  0.00    -0.354 N 
ATOM     60  N   UNL A   1      42.048  30.229  34.550  1.00  0.00    -0.248 NA
ATOM     61  C   UNL A   1      43.337  30.488  36.476  1.00  0.00     0.031 C 
ATOM     62  C   UNL A   1      38.383  32.580  33.670  1.00  0.00     0.029 A 
ATOM     63  C   UNL A   1      39.529  31.864  33.969  1.00  0.00     0.049 A 
ATOM     64  H   UNL A   1      40.542  30.426  32.802  1.00  0.00     0.167 HD
ATOM     65  C   UNL A   1      41.456  31.183  35.372  1.00  0.00     0.074 A 
ATOM     66  C   UNL A   1      42.271  31.268  36.564  1.00  0.00     0.031 C 
ATOM     67  C   UNL A   1      40.341  31.923  35.159  1.00  0.00     0.037 A 
BRANCH  54  68
ATOM     68  C   UNL A   1      37.614  30.832  29.724  1.00  0.00     0.064 A 
ATOM     69  C   UNL A   1      37.533  32.047  29.027  1.00  0.00     0.173 A 
ATOM     70  C   UNL A   1      36.620  29.872  29.486  1.00  0.00     0.173 A 
ATOM     71  F   UNL A   1      38.451  33.005  29.230  1.00  0.00    -0.203 F 
ATOM     72  C   UNL A   1      36.488  32.297  28.141  1.00  0.00     0.198 A 
ATOM     73  C   UNL A   1      35.595  30.112  28.575  1.00  0.00     0.198 A 
ATOM     74  F   UNL A   1      36.651  28.692  30.124  1.00  0.00    -0.203 F 
ATOM     75  F   UNL A   1      36.409  33.481  27.519  1.00  0.00    -0.200 F 
ATOM     76  C   UNL A   1      35.526  31.326  27.907  1.00  0.00     0.200 A 
ATOM     77  F   UNL A   1      34.674  29.167  28.341  1.00  0.00    -0.200 F 
ATOM     78  F   UNL A   1      34.531  31.561  27.044  1.00  0.00    -0.200 F 
ENDBRANCH  54  68
BRANCH  55  79
ATOM     79  C   UNL A   1      45.276  28.449  35.677  1.00  0.00     0.064 A 
ATOM     80  C   UNL A   1      46.515  29.081  35.499  1.00  0.00     0.173 A 
ATOM     81  C   UNL A   1      45.186  27.470  36.679  1.00  0.00     0.173 A 
ATOM     82  F   UNL A   1      46.664  30.006  34.539  1.00  0.00    -0.203 F 
ATOM     83  C   UNL A   1      47.628  28.715  36.256  1.00  0.00     0.198 A 
ATOM     84  C   UNL A   1      46.289  27.133  37.462  1.00  0.00     0.198 A 
ATOM     85  F   UNL A   1      44.026  26.833  36.894  1.00  0.00    -0.203 F 
ATOM     86  F   UNL A   1      48.817  29.280  36.010  1.00  0.00    -0.200 F 
ATOM     87  C   UNL A   1      47.512  27.744  37.240  1.00  0.00     0.200 A 
ATOM     88  F   UNL A   1      46.167  26.204  38.421  1.00  0.00    -0.200 F 
ATOM     89  F   UNL A   1      48.582  27.387  37.961  1.00  0.00    -0.200 F 
ENDBRANCH  55  79
BRANCH  67  90
ATOM     90  C   UNL A   1      39.901  32.849  36.259  1.00  0.00     0.064 A 
ATOM     91  C   UNL A   1      40.458  34.127  36.421  1.00  0.00     0.173 A 
ATOM     92  C   UNL A   1      38.883  32.463  37.145  1.00  0.00     0.173 A 
ATOM     93  F   UNL A   1      41.442  34.543  35.608  1.00  0.00    -0.203 F 
ATOM     94  C   UNL A   1      40.039  34.967  37.449  1.00  0.00     0.198 A 
ATOM     95  C   UNL A   1      38.440  33.319  38.149  1.00  0.00     0.198 A 
ATOM     96  F   UNL A   1      38.306  31.257  37.030  1.00  0.00    -0.203 F 
ATOM     97  F   UNL A   1      40.628  36.158  37.622  1.00  0.00    -0.200 F 
ATOM     98  C   UNL A   1      39.026  34.566  38.307  1.00  0.00     0.200 A 
ATOM     99  F   UNL A   1      37.447  32.938  38.964  1.00  0.00    -0.200 F 
ATOM    100  F   UNL A   1      38.619  35.378  39.293  1.00  0.00    -0.200 F 
ENDBRANCH  67  90
ENDBRANCH  41  42
ENDBRANCH  34  36
ENDBRANCH  33  34
ENDBRANCH  32  33
ENDBRANCH  31  32
ENDBRANCH  30  31
ENDBRANCH  29  30
ENDBRANCH  28  29
ENDBRANCH   1  28
TORSDOF 22
ENDMDL
MODEL 2
REMARK VINA RESULT:     -10.0      4.910      8.505
REMARK SMILES C[C@@]1(CN2C(=O)c3ccc(C(=O)OCCOCCOCCOCCOC(=O)c4ccc(-c5c6nc(c(-c7c(F)c(F)c(F)c(F)c7F)c7ccc([nH]7)c(-c7c(F)c(F)c(F)c(F)c7F)c7nc(c(-c8c(F)c(F)c(F)c(F)c8F)c8ccc5[nH]8)C=C7)C=C6)cc4)cc3C2=O)CCCO1
REMARK SMILES IDX 19 1 18 2 17 3 16 4 15 5 14 6 13 7 11 8 12 9 10 10 4 11 5 12
REMARK SMILES IDX 93 13 6 14 7 15 92 16 94 17 8 18 91 19 9 20 3 21 2 22 1 23
REMARK SMILES IDX 95 24 98 25 96 26 97 27 20 28 21 29 22 30 23 31 24 32 25 33
REMARK SMILES IDX 26 34 27 35 28 36 29 37 90 38 30 39 89 40 31 41 32 42 33 43
REMARK SMILES IDX 83 44 34 45 88 46 82 47 84 48 35 49 87 50 81 51 80 52 36 54
REMARK SMILES IDX 68 55 48 56 67 57 49 58 52 59 66 60 85 61 50 62 51 63 65 65
REMARK SMILES IDX 86 66 53 67 37 68 38 69 46 70 39 71 40 72 44 73 47 74 41 75
REMARK SMILES IDX 42 76 45 77 43 78 69 79 70 80 78 81 71 82 72 83 76 84 79 85
REMARK SMILES IDX 73 86 74 87 77 88 75 89 54 90 55 91 63 92 56 93 57 94 61 95
REMARK SMILES IDX 64 96 58 97 59 98 62 99 60 100
REMARK H PARENT 84 53 52 64
REMARK Flexibility Score: inf
ROOT
ATOM      1  O   UNL A   1      42.896  20.115  25.888  1.00  0.00    -0.377 OA
ENDROOT
BRANCH   1   2
ATOM      2  C   UNL A   1      42.153  20.592  27.000  1.00  0.00     0.188 C 
BRANCH   2   3
ATOM      3  C   UNL A   1      40.722  21.100  26.731  1.00  0.00     0.188 C 
BRANCH   3   4
ATOM      4  O   UNL A   1      40.650  22.506  26.583  1.00  0.00    -0.376 OA
BRANCH   4   5
ATOM      5  C   UNL A   1      41.602  23.328  27.232  1.00  0.00     0.202 C 
BRANCH   5   6
ATOM      6  C   UNL A   1      41.471  24.859  27.182  1.00  0.00     0.261 C 
BRANCH   6   7
ATOM      7  O   UNL A   1      41.010  25.504  28.374  1.00  0.00    -0.460 OA
BRANCH   7   8
ATOM      8  C   UNL A   1      39.675  25.578  28.560  1.00  0.00     0.338 C 
ATOM      9  O   UNL A   1      38.879  24.657  28.509  1.00  0.00    -0.246 OA
BRANCH   8  10
ATOM     10  C   UNL A   1      39.357  26.941  29.054  1.00  0.00     0.060 A 
ATOM     11  N   UNL A   1      37.780  30.149  31.924  1.00  0.00    -0.271 N 
ATOM     12  C   UNL A   1      38.399  30.631  30.801  1.00  0.00     0.261 C 
ATOM     13  C   UNL A   1      37.902  28.792  32.025  1.00  0.00     0.261 C 
ATOM     14  O   UNL A   1      38.565  31.778  30.445  1.00  0.00    -0.269 OA
ATOM     15  C   UNL A   1      38.845  29.463  30.045  1.00  0.00     0.053 A 
ATOM     16  C   UNL A   1      38.528  28.338  30.786  1.00  0.00     0.054 A 
ATOM     17  O   UNL A   1      37.612  28.050  32.949  1.00  0.00    -0.269 OA
ATOM     18  C   UNL A   1      39.438  29.377  28.798  1.00  0.00     0.015 A 
ATOM     19  C   UNL A   1      38.773  27.061  30.324  1.00  0.00     0.030 A 
ATOM     20  C   UNL A   1      39.698  28.094  28.301  1.00  0.00     0.016 A 
BRANCH  11  21
ATOM     21  C   UNL A   1      37.046  30.974  32.871  1.00  0.00     0.164 C 
BRANCH  21  22
ATOM     22  C   UNL A   1      37.977  31.850  33.762  1.00  0.00     0.084 C 
ATOM     23  C   UNL A   1      38.152  33.267  33.214  1.00  0.00     0.044 C 
ATOM     24  C   UNL A   1      39.341  31.178  33.957  1.00  0.00     0.039 C 
ATOM     25  O   UNL A   1      37.403  31.956  35.085  1.00  0.00    -0.373 OA
ATOM     26  C   UNL A   1      39.138  30.345  35.198  1.00  0.00     0.031 C 
ATOM     27  C   UNL A   1      38.199  31.205  36.012  1.00  0.00     0.161 C 
ENDBRANCH  21  22
ENDBRANCH  11  21
ENDBRANCH   8  10
ENDBRANCH   7   8
ENDBRANCH   6   7
ENDBRANCH   5   6
ENDBRANCH   4   5
ENDBRANCH   3   4
ENDBRANCH   2   3
ENDBRANCH   1   2
BRANCH   1  28
ATOM     28  C   UNL A   1      43.681  21.025  25.115  1.00  0.00     0.188 C 
BRANCH  28  29
ATOM     29  C   UNL A   1      45.215  21.167  25.284  1.00  0.00     0.188 C 
BRANCH  29  30
ATOM     30  O   UNL A   1      45.892  21.702  24.161  1.00  0.00    -0.376 OA
BRANCH  30  31
ATOM     31  C   UNL A   1      46.529  22.958  24.299  1.00  0.00     0.202 C 
BRANCH  31  32
ATOM     32  C   UNL A   1      46.119  23.809  25.508  1.00  0.00     0.261 C 
BRANCH  32  33
ATOM     33  O   UNL A   1      45.877  25.199  25.247  1.00  0.00    -0.460 OA
BRANCH  33  34
ATOM     34  C   UNL A   1      44.589  25.601  25.196  1.00  0.00     0.338 C 
ATOM     35  O   UNL A   1      43.661  25.034  24.650  1.00  0.00    -0.246 OA
BRANCH  34  36
ATOM     36  C   UNL A   1      44.449  26.773  26.085  1.00  0.00     0.060 A 
ATOM     37  C   UNL A   1      45.551  27.186  26.845  1.00  0.00     0.016 A 
ATOM     38  C   UNL A   1      43.236  27.462  26.163  1.00  0.00     0.016 A 
ATOM     39  C   UNL A   1      45.430  28.271  27.715  1.00  0.00     0.010 A 
ATOM     40  C   UNL A   1      43.111  28.534  27.049  1.00  0.00     0.010 A 
ATOM     41  C   UNL A   1      44.197  28.922  27.856  1.00  0.00    -0.014 A 
BRANCH  41  42
ATOM     42  C   UNL A   1      43.991  29.871  28.977  1.00  0.00     0.031 A 
ATOM     43  C   UNL A   1      43.729  29.307  30.349  1.00  0.00     0.074 A 
ATOM     44  C   UNL A   1      44.069  31.201  28.797  1.00  0.00     0.049 A 
ATOM     45  N   UNL A   1      43.468  29.930  31.470  1.00  0.00    -0.248 NA
ATOM     46  C   UNL A   1      43.767  27.840  30.468  1.00  0.00     0.031 C 
ATOM     47  C   UNL A   1      44.359  31.866  27.529  1.00  0.00     0.029 A 
ATOM     48  N   UNL A   1      43.900  32.233  29.689  1.00  0.00    -0.354 N 
ATOM     49  C   UNL A   1      43.319  28.932  32.426  1.00  0.00     0.074 A 
ATOM     50  C   UNL A   1      43.471  27.664  31.747  1.00  0.00     0.031 C 
ATOM     51  C   UNL A   1      44.329  33.198  27.720  1.00  0.00     0.029 A 
ATOM     52  C   UNL A   1      43.984  33.477  29.114  1.00  0.00     0.049 A 
ATOM     53  H   UNL A   1      43.733  32.092  30.649  1.00  0.00     0.167 HD
ATOM     54  C   UNL A   1      43.096  29.063  33.755  1.00  0.00     0.037 A 
ATOM     55  C   UNL A   1      43.776  34.696  29.649  1.00  0.00     0.037 A 
ATOM     56  C   UNL A   1      42.931  30.324  34.428  1.00  0.00     0.049 A 
ATOM     57  C   UNL A   1      43.430  34.809  31.116  1.00  0.00     0.074 A 
ATOM     58  C   UNL A   1      42.682  30.562  35.767  1.00  0.00     0.029 A 
ATOM     59  N   UNL A   1      42.997  31.563  33.807  1.00  0.00    -0.354 N 
ATOM     60  N   UNL A   1      43.306  33.864  32.016  1.00  0.00    -0.248 NA
ATOM     61  C   UNL A   1      43.204  36.163  31.642  1.00  0.00     0.031 C 
ATOM     62  C   UNL A   1      42.546  31.942  35.949  1.00  0.00     0.029 A 
ATOM     63  C   UNL A   1      42.776  32.568  34.735  1.00  0.00     0.049 A 
ATOM     64  H   UNL A   1      43.174  31.706  32.849  1.00  0.00     0.167 HD
ATOM     65  C   UNL A   1      43.025  34.509  33.215  1.00  0.00     0.074 A 
ATOM     66  C   UNL A   1      43.017  35.928  32.931  1.00  0.00     0.031 C 
ATOM     67  C   UNL A   1      42.791  33.978  34.440  1.00  0.00     0.037 A 
BRANCH  54  68
ATOM     68  C   UNL A   1      43.007  27.806  34.572  1.00  0.00     0.064 A 
ATOM     69  C   UNL A   1      41.816  27.067  34.650  1.00  0.00     0.173 A 
ATOM     70  C   UNL A   1      44.134  27.305  35.239  1.00  0.00     0.173 A 
ATOM     71  F   UNL A   1      40.705  27.510  34.042  1.00  0.00    -0.203 F 
ATOM     72  C   UNL A   1      41.753  25.885  35.383  1.00  0.00     0.198 A 
ATOM     73  C   UNL A   1      44.076  26.106  35.944  1.00  0.00     0.198 A 
ATOM     74  F   UNL A   1      45.298  27.971  35.194  1.00  0.00    -0.203 F 
ATOM     75  F   UNL A   1      40.594  25.219  35.478  1.00  0.00    -0.200 F 
ATOM     76  C   UNL A   1      42.885  25.400  36.021  1.00  0.00     0.200 A 
ATOM     77  F   UNL A   1      45.175  25.632  36.548  1.00  0.00    -0.200 F 
ATOM     78  F   UNL A   1      42.827  24.255  36.712  1.00  0.00    -0.200 F 
ENDBRANCH  54  68
BRANCH  55  79
ATOM     79  C   UNL A   1      43.849  35.917  28.800  1.00  0.00     0.064 A 
ATOM     80  C   UNL A   1      42.714  36.427  28.153  1.00  0.00     0.173 A 
ATOM     81  C   UNL A   1      45.073  36.563  28.565  1.00  0.00     0.173 A 
ATOM     82  F   UNL A   1      41.523  35.832  28.323  1.00  0.00    -0.203 F 
ATOM     83  C   UNL A   1      42.807  37.503  27.272  1.00  0.00     0.198 A 
ATOM     84  C   UNL A   1      45.158  37.664  27.715  1.00  0.00     0.198 A 
ATOM     85  F   UNL A   1      46.192  36.120  29.156  1.00  0.00    -0.203 F 
ATOM     86  F   UNL A   1      41.720  37.919  26.609  1.00  0.00    -0.200 F 
ATOM     87  C   UNL A   1      44.028  38.124  27.057  1.00  0.00     0.200 A 
ATOM     88  F   UNL A   1      46.339  38.269  27.522  1.00  0.00    -0.200 F 
ATOM     89  F   UNL A   1      44.119  39.153  26.205  1.00  0.00    -0.200 F 
ENDBRANCH  55  79
BRANCH  67  90
ATOM     90  C   UNL A   1      42.564  34.933  35.580  1.00  0.00     0.064 A 
ATOM     91  C   UNL A   1      43.629  35.516  36.282  1.00  0.00     0.173 A 
ATOM     92  C   UNL A   1      41.260  35.294  35.952  1.00  0.00     0.173 A 
ATOM     93  F   UNL A   1      44.897  35.198  35.974  1.00  0.00    -0.203 F 
ATOM     94  C   UNL A   1      43.397  36.395  37.337  1.00  0.00     0.198 A 
ATOM     95  C   UNL A   1      41.031  36.201  36.982  1.00  0.00     0.198 A 
ATOM     96  F   UNL A   1      40.203  34.776  35.307  1.00  0.00    -0.203 F 
ATOM     97  F   UNL A   1      44.429  36.892  38.033  1.00  0.00    -0.200 F 
ATOM     98  C   UNL A   1      42.099  36.743  37.682  1.00  0.00     0.200 A 
ATOM     99  F   UNL A   1      39.777  36.550  37.301  1.00  0.00    -0.200 F 
ATOM    100  F   UNL A   1      41.877  37.593  38.693  1.00  0.00    -0.200 F 
ENDBRANCH  67  90
ENDBRANCH  41  42
ENDBRANCH  34  36
ENDBRANCH  33  34
ENDBRANCH  32  33
ENDBRANCH  31  32
ENDBRANCH  30  31
ENDBRANCH  29  30
ENDBRANCH  28  29
ENDBRANCH   1  28
TORSDOF 22
ENDMDL
MODEL 3
REMARK VINA RESULT:      -9.8      4.419      7.961
REMARK SMILES C[C@@]1(CN2C(=O)c3ccc(C(=O)OCCOCCOCCOCCOC(=O)c4ccc(-c5c6nc(c(-c7c(F)c(F)c(F)c(F)c7F)c7ccc([nH]7)c(-c7c(F)c(F)c(F)c(F)c7F)c7nc(c(-c8c(F)c(F)c(F)c(F)c8F)c8ccc5[nH]8)C=C7)C=C6)cc4)cc3C2=O)CCCO1
REMARK SMILES IDX 19 1 18 2 17 3 16 4 15 5 14 6 13 7 11 8 12 9 10 10 4 11 5 12
REMARK SMILES IDX 93 13 6 14 7 15 92 16 94 17 8 18 91 19 9 20 3 21 2 22 1 23
REMARK SMILES IDX 95 24 98 25 96 26 97 27 20 28 21 29 22 30 23 31 24 32 25 33
REMARK SMILES IDX 26 34 27 35 28 36 29 37 90 38 30 39 89 40 31 41 32 42 33 43
REMARK SMILES IDX 83 44 34 45 88 46 82 47 84 48 35 49 87 50 81 51 80 52 36 54
REMARK SMILES IDX 68 55 48 56 67 57 49 58 52 59 66 60 85 61 50 62 51 63 65 65
REMARK SMILES IDX 86 66 53 67 37 68 38 69 46 70 39 71 40 72 44 73 47 74 41 75
REMARK SMILES IDX 42 76 45 77 43 78 69 79 70 80 78 81 71 82 72 83 76 84 79 85
REMARK SMILES IDX 73 86 74 87 77 88 75 89 54 90 55 91 63 92 56 93 57 94 61 95
REMARK SMILES IDX 64 96 58 97 59 98 62 99 60 100
REMARK H PARENT 84 53 52 64
REMARK Flexibility Score: inf
ROOT
ATOM      1  O   UNL A   1      43.454  19.989  24.874  1.00  0.00    -0.377 OA
ENDROOT
BRANCH   1   2
ATOM      2  C   UNL A   1      42.575  19.547  25.897  1.00  0.00     0.188 C 
BRANCH   2   3
ATOM      3  C   UNL A   1      42.291  20.522  27.058  1.00  0.00     0.188 C 
BRANCH   3   4
ATOM      4  O   UNL A   1      41.264  21.452  26.764  1.00  0.00    -0.376 OA
BRANCH   4   5
ATOM      5  C   UNL A   1      41.603  22.762  26.352  1.00  0.00     0.202 C 
BRANCH   5   6
ATOM      6  C   UNL A   1      42.128  23.787  27.371  1.00  0.00     0.261 C 
BRANCH   6   7
ATOM      7  O   UNL A   1      41.151  24.614  28.011  1.00  0.00    -0.460 OA
BRANCH   7   8
ATOM      8  C   UNL A   1      40.491  25.502  27.238  1.00  0.00     0.338 C 
ATOM      9  O   UNL A   1      40.027  25.302  26.131  1.00  0.00    -0.246 OA
BRANCH   8  10
ATOM     10  C   UNL A   1      40.232  26.715  28.056  1.00  0.00     0.060 A 
ATOM     11  N   UNL A   1      38.287  30.696  29.234  1.00  0.00    -0.271 N 
ATOM     12  C   UNL A   1      39.175  30.193  30.146  1.00  0.00     0.261 C 
ATOM     13  C   UNL A   1      38.052  29.812  28.218  1.00  0.00     0.261 C 
ATOM     14  O   UNL A   1      39.541  30.660  31.204  1.00  0.00    -0.269 OA
ATOM     15  C   UNL A   1      39.654  28.925  29.599  1.00  0.00     0.053 A 
ATOM     16  C   UNL A   1      38.978  28.700  28.413  1.00  0.00     0.054 A 
ATOM     17  O   UNL A   1      37.223  29.855  27.324  1.00  0.00    -0.269 OA
ATOM     18  C   UNL A   1      40.625  28.059  30.066  1.00  0.00     0.015 A 
ATOM     19  C   UNL A   1      39.238  27.603  27.616  1.00  0.00     0.030 A 
ATOM     20  C   UNL A   1      40.913  26.937  29.279  1.00  0.00     0.016 A 
BRANCH  11  21
ATOM     21  C   UNL A   1      37.698  32.023  29.310  1.00  0.00     0.164 C 
BRANCH  21  22
ATOM     22  C   UNL A   1      36.310  32.032  30.017  1.00  0.00     0.084 C 
ATOM     23  C   UNL A   1      35.146  32.077  29.026  1.00  0.00     0.044 C 
ATOM     24  C   UNL A   1      36.210  33.191  31.016  1.00  0.00     0.039 C 
ATOM     25  O   UNL A   1      36.174  30.826  30.805  1.00  0.00    -0.373 OA
ATOM     26  C   UNL A   1      36.725  32.583  32.297  1.00  0.00     0.031 C 
ATOM     27  C   UNL A   1      36.231  31.158  32.198  1.00  0.00     0.161 C 
ENDBRANCH  21  22
ENDBRANCH  11  21
ENDBRANCH   8  10
ENDBRANCH   7   8
ENDBRANCH   6   7
ENDBRANCH   5   6
ENDBRANCH   4   5
ENDBRANCH   3   4
ENDBRANCH   2   3
ENDBRANCH   1   2
BRANCH   1  28
ATOM     28  C   UNL A   1      44.767  19.434  24.778  1.00  0.00     0.188 C 
BRANCH  28  29
ATOM     29  C   UNL A   1      46.027  20.154  25.322  1.00  0.00     0.188 C 
BRANCH  29  30
ATOM     30  O   UNL A   1      45.834  21.513  25.670  1.00  0.00    -0.376 OA
BRANCH  30  31
ATOM     31  C   UNL A   1      46.030  22.495  24.671  1.00  0.00     0.202 C 
BRANCH  31  32
ATOM     32  C   UNL A   1      44.811  23.349  24.297  1.00  0.00     0.261 C 
BRANCH  32  33
ATOM     33  O   UNL A   1      44.656  24.576  25.025  1.00  0.00    -0.460 OA
BRANCH  33  34
ATOM     34  C   UNL A   1      45.694  25.439  25.003  1.00  0.00     0.338 C 
ATOM     35  O   UNL A   1      46.674  25.397  24.282  1.00  0.00    -0.246 OA
BRANCH  34  36
ATOM     36  C   UNL A   1      45.355  26.571  25.890  1.00  0.00     0.060 A 
ATOM     37  C   UNL A   1      46.386  27.244  26.561  1.00  0.00     0.016 A 
ATOM     38  C   UNL A   1      44.026  26.967  26.055  1.00  0.00     0.016 A 
ATOM     39  C   UNL A   1      46.083  28.294  27.428  1.00  0.00     0.010 A 
ATOM     40  C   UNL A   1      43.723  28.006  26.940  1.00  0.00     0.010 A 
ATOM     41  C   UNL A   1      44.747  28.651  27.657  1.00  0.00    -0.014 A 
BRANCH  41  42
ATOM     42  C   UNL A   1      44.411  29.556  28.784  1.00  0.00     0.031 A 
ATOM     43  C   UNL A   1      44.131  28.944  30.131  1.00  0.00     0.074 A 
ATOM     44  C   UNL A   1      44.389  30.891  28.630  1.00  0.00     0.049 A 
ATOM     45  N   UNL A   1      43.767  29.520  31.249  1.00  0.00    -0.248 NA
ATOM     46  C   UNL A   1      44.282  27.483  30.227  1.00  0.00     0.031 C 
ATOM     47  C   UNL A   1      44.683  31.605  27.390  1.00  0.00     0.029 A 
ATOM     48  N   UNL A   1      44.094  31.887  29.530  1.00  0.00    -0.354 N 
ATOM     49  C   UNL A   1      43.655  28.494  32.179  1.00  0.00     0.074 A 
ATOM     50  C   UNL A   1      43.941  27.257  31.486  1.00  0.00     0.031 C 
ATOM     51  C   UNL A   1      44.536  32.925  27.602  1.00  0.00     0.029 A 
ATOM     52  C   UNL A   1      44.104  33.146  28.982  1.00  0.00     0.049 A 
ATOM     53  H   UNL A   1      43.893  31.713  30.478  1.00  0.00     0.167 HD
ATOM     54  C   UNL A   1      43.359  28.578  33.497  1.00  0.00     0.037 A 
ATOM     55  C   UNL A   1      43.772  34.333  29.527  1.00  0.00     0.037 A 
ATOM     56  C   UNL A   1      43.060  29.807  34.182  1.00  0.00     0.049 A 
ATOM     57  C   UNL A   1      43.348  34.387  30.977  1.00  0.00     0.074 A 
ATOM     58  C   UNL A   1      42.729  29.996  35.512  1.00  0.00     0.029 A 
ATOM     59  N   UNL A   1      43.054  31.060  33.587  1.00  0.00    -0.354 N 
ATOM     60  N   UNL A   1      43.259  33.415  31.853  1.00  0.00    -0.248 NA
ATOM     61  C   UNL A   1      42.987  35.706  31.514  1.00  0.00     0.031 C 
ATOM     62  C   UNL A   1      42.472  31.356  35.710  1.00  0.00     0.029 A 
ATOM     63  C   UNL A   1      42.707  32.024  34.520  1.00  0.00     0.049 A 
ATOM     64  H   UNL A   1      43.264  31.238  32.642  1.00  0.00     0.167 HD
ATOM     65  C   UNL A   1      42.869  34.011  33.048  1.00  0.00     0.074 A 
ATOM     66  C   UNL A   1      42.760  35.430  32.789  1.00  0.00     0.031 C 
ATOM     67  C   UNL A   1      42.621  33.437  34.251  1.00  0.00     0.037 A 
BRANCH  54  68
ATOM     68  C   UNL A   1      43.333  27.300  34.287  1.00  0.00     0.064 A 
ATOM     69  C   UNL A   1      44.507  26.744  34.817  1.00  0.00     0.173 A 
ATOM     70  C   UNL A   1      42.119  26.654  34.560  1.00  0.00     0.173 A 
ATOM     71  F   UNL A   1      45.696  27.315  34.572  1.00  0.00    -0.203 F 
ATOM     72  C   UNL A   1      44.468  25.577  35.576  1.00  0.00     0.198 A 
ATOM     73  C   UNL A   1      42.079  25.506  35.346  1.00  0.00     0.198 A 
ATOM     74  F   UNL A   1      40.967  27.145  34.079  1.00  0.00    -0.203 F 
ATOM     75  F   UNL A   1      45.607  25.041  36.037  1.00  0.00    -0.200 F 
ATOM     76  C   UNL A   1      43.254  24.965  35.849  1.00  0.00     0.200 A 
ATOM     77  F   UNL A   1      40.904  24.923  35.620  1.00  0.00    -0.200 F 
ATOM     78  F   UNL A   1      43.216  23.851  36.591  1.00  0.00    -0.200 F 
ENDBRANCH  54  68
BRANCH  55  79
ATOM     79  C   UNL A   1      43.785  35.574  28.704  1.00  0.00     0.064 A 
ATOM     80  C   UNL A   1      42.634  36.023  28.039  1.00  0.00     0.173 A 
ATOM     81  C   UNL A   1      44.970  36.301  28.511  1.00  0.00     0.173 A 
ATOM     82  F   UNL A   1      41.481  35.350  28.169  1.00  0.00    -0.203 F 
ATOM     83  C   UNL A   1      42.678  37.121  27.182  1.00  0.00     0.198 A 
ATOM     84  C   UNL A   1      45.003  37.423  27.684  1.00  0.00     0.198 A 
ATOM     85  F   UNL A   1      46.101  35.918  29.120  1.00  0.00    -0.203 F 
ATOM     86  F   UNL A   1      41.581  37.480  26.501  1.00  0.00    -0.200 F 
ATOM     87  C   UNL A   1      43.861  37.823  27.009  1.00  0.00     0.200 A 
ATOM     88  F   UNL A   1      46.146  38.106  27.532  1.00  0.00    -0.200 F 
ATOM     89  F   UNL A   1      43.905  38.874  26.179  1.00  0.00    -0.200 F 
ENDBRANCH  55  79
BRANCH  67  90
ATOM     90  C   UNL A   1      42.264  34.346  35.394  1.00  0.00     0.064 A 
ATOM     91  C   UNL A   1      43.241  34.905  36.231  1.00  0.00     0.173 A 
ATOM     92  C   UNL A   1      40.924  34.687  35.635  1.00  0.00     0.173 A 
ATOM     93  F   UNL A   1      44.537  34.604  36.053  1.00  0.00    -0.203 F 
ATOM     94  C   UNL A   1      42.887  35.742  37.287  1.00  0.00     0.198 A 
ATOM     95  C   UNL A   1      40.576  35.553  36.667  1.00  0.00     0.198 A 
ATOM     96  F   UNL A   1      39.948  34.191  34.859  1.00  0.00    -0.203 F 
ATOM     97  F   UNL A   1      43.833  36.215  38.111  1.00  0.00    -0.200 F 
ATOM     98  C   UNL A   1      41.557  36.071  37.500  1.00  0.00     0.200 A 
ATOM     99  F   UNL A   1      39.293  35.885  36.859  1.00  0.00    -0.200 F 
ATOM    100  F   UNL A   1      41.218  36.880  38.513  1.00  0.00    -0.200 F 
ENDBRANCH  67  90
ENDBRANCH  41  42
ENDBRANCH  34  36
ENDBRANCH  33  34
ENDBRANCH  32  33
ENDBRANCH  31  32
ENDBRANCH  30  31
ENDBRANCH  29  30
ENDBRANCH  28  29
ENDBRANCH   1  28
TORSDOF 22
ENDMDL
