MODEL 1
REMARK VINA RESULT:     -11.4      0.000      0.000
REMARK SMILES O=C(C[NH+]1CCN(c2nccc(N3CCCCC3)n2)CC1)OCCOCCOCCOCCOC(=O)c1ccc(-c2c3nc(c(-c4c(F)c(F)c(F)c(F)c4F)c4ccc([nH]4)c(-c4c(F)c(F)c(F)c(F)c4F)c4nc(c(-c5c(F)c(F)c(F)c(F)c5F)c5ccc2[nH]5)C=C4)C=C3)cc1
REMARK SMILES IDX 27 1 26 2 25 3 24 4 23 5 22 6 2 7 1 8 3 9 4 10 5 11 21 12
REMARK SMILES IDX 6 14 20 15 7 16 8 17 9 18 19 19 10 20 12 21 11 22 13 23
REMARK SMILES IDX 14 24 18 25 15 26 17 27 16 28 28 29 29 30 30 31 31 32 32 33
REMARK SMILES IDX 33 34 34 35 35 36 36 37 37 38 38 39 99 40 39 41 98 42 40 43
REMARK SMILES IDX 41 44 42 45 92 46 43 47 97 48 91 49 93 50 44 51 96 52 90 53
REMARK SMILES IDX 89 54 45 56 77 57 57 58 76 59 58 60 61 61 75 62 94 63 59 64
REMARK SMILES IDX 60 65 74 67 95 68 62 69 46 70 47 71 55 72 48 73 49 74 53 75
REMARK SMILES IDX 56 76 50 77 51 78 54 79 52 80 78 81 79 82 87 83 80 84 81 85
REMARK SMILES IDX 85 86 88 87 82 88 83 89 86 90 84 91 63 92 64 93 72 94 65 95
REMARK SMILES IDX 66 96 70 97 73 98 67 99 68 100 71 101 69 102
REMARK H PARENT 4 13 93 55 61 66
REMARK Flexibility Score: inf
ROOT
ATOM      1  C   UNL A   1      41.561  20.770  26.150  1.00  0.00     0.188 C 
ENDROOT
BRANCH   1   2
ATOM      2  C   UNL A   1      40.156  20.928  26.746  1.00  0.00     0.188 C 
BRANCH   2   3
ATOM      3  O   UNL A   1      39.175  21.588  25.951  1.00  0.00    -0.376 OA
BRANCH   3   4
ATOM      4  C   UNL A   1      38.259  20.797  25.190  1.00  0.00     0.202 C 
BRANCH   4   5
ATOM      5  C   UNL A   1      36.960  21.473  24.762  1.00  0.00     0.261 C 
BRANCH   5   6
ATOM      6  O   UNL A   1      36.363  22.211  25.841  1.00  0.00    -0.459 OA
BRANCH   6   7
ATOM      7  C   UNL A   1      35.024  22.060  25.995  1.00  0.00     0.361 C 
ATOM      8  O   UNL A   1      34.490  20.955  25.975  1.00  0.00    -0.245 OA
BRANCH   7   9
ATOM      9  C   UNL A   1      34.262  23.378  26.099  1.00  0.00     0.386 C 
BRANCH   9  10
ATOM     10  N   UNL A   1      32.831  23.411  25.734  1.00  0.00    -0.323 N 
ATOM     11  C   UNL A   1      31.887  24.150  26.588  1.00  0.00     0.284 C 
ATOM     12  C   UNL A   1      32.666  23.858  24.328  1.00  0.00     0.284 C 
ATOM     13  H   UNL A   1      32.562  22.438  25.885  1.00  0.00     0.348 HD
ATOM     14  C   UNL A   1      31.810  25.684  26.435  1.00  0.00     0.181 C 
ATOM     15  C   UNL A   1      32.721  25.389  24.090  1.00  0.00     0.181 C 
ATOM     16  N   UNL A   1      31.890  26.093  25.047  1.00  0.00    -0.329 N 
BRANCH  16  17
ATOM     17  C   UNL A   1      31.613  27.413  24.812  1.00  0.00     0.227 A 
ATOM     18  N   UNL A   1      31.974  28.365  25.684  1.00  0.00    -0.221 NA
ATOM     19  N   UNL A   1      30.829  27.637  23.761  1.00  0.00    -0.196 NA
ATOM     20  C   UNL A   1      31.511  29.605  25.428  1.00  0.00     0.119 A 
ATOM     21  C   UNL A   1      30.351  28.865  23.545  1.00  0.00     0.134 A 
ATOM     22  C   UNL A   1      30.697  29.915  24.364  1.00  0.00     0.067 A 
BRANCH  21  23
ATOM     23  N   UNL A   1      29.417  29.029  22.526  1.00  0.00    -0.356 N 
ATOM     24  C   UNL A   1      29.692  30.150  21.618  1.00  0.00     0.118 C 
ATOM     25  C   UNL A   1      28.016  28.827  22.887  1.00  0.00     0.118 C 
ATOM     26  C   UNL A   1      29.098  31.463  22.134  1.00  0.00     0.022 C 
ATOM     27  C   UNL A   1      27.406  30.123  23.433  1.00  0.00     0.022 C 
ATOM     28  C   UNL A   1      27.620  31.295  22.473  1.00  0.00     0.004 C 
ENDBRANCH  21  23
ENDBRANCH  16  17
ENDBRANCH   9  10
ENDBRANCH   7   9
ENDBRANCH   6   7
ENDBRANCH   5   6
ENDBRANCH   4   5
ENDBRANCH   3   4
ENDBRANCH   2   3
ENDBRANCH   1   2
BRANCH   1  29
ATOM     29  O   UNL A   1      41.725  19.558  25.427  1.00  0.00    -0.377 OA
BRANCH  29  30
ATOM     30  C   UNL A   1      42.879  18.799  25.803  1.00  0.00     0.188 C 
BRANCH  30  31
ATOM     31  C   UNL A   1      44.273  19.343  25.408  1.00  0.00     0.188 C 
BRANCH  31  32
ATOM     32  O   UNL A   1      44.207  20.144  24.231  1.00  0.00    -0.376 OA
BRANCH  32  33
ATOM     33  C   UNL A   1      45.134  21.215  24.126  1.00  0.00     0.202 C 
BRANCH  33  34
ATOM     34  C   UNL A   1      45.284  22.082  25.387  1.00  0.00     0.261 C 
BRANCH  34  35
ATOM     35  O   UNL A   1      44.277  23.090  25.568  1.00  0.00    -0.460 OA
BRANCH  35  36
ATOM     36  C   UNL A   1      44.638  24.379  25.351  1.00  0.00     0.338 C 
ATOM     37  O   UNL A   1      45.447  24.774  24.547  1.00  0.00    -0.246 OA
BRANCH  36  38
ATOM     38  C   UNL A   1      43.695  25.256  26.106  1.00  0.00     0.060 A 
ATOM     39  C   UNL A   1      44.052  26.600  26.284  1.00  0.00     0.016 A 
ATOM     40  C   UNL A   1      42.466  24.794  26.595  1.00  0.00     0.016 A 
ATOM     41  C   UNL A   1      43.232  27.455  27.024  1.00  0.00     0.010 A 
ATOM     42  C   UNL A   1      41.643  25.648  27.340  1.00  0.00     0.010 A 
ATOM     43  C   UNL A   1      42.061  26.962  27.617  1.00  0.00    -0.014 A 
BRANCH  43  44
ATOM     44  C   UNL A   1      41.506  27.686  28.791  1.00  0.00     0.031 A 
ATOM     45  C   UNL A   1      42.253  27.538  30.095  1.00  0.00     0.074 A 
ATOM     46  C   UNL A   1      40.435  28.495  28.717  1.00  0.00     0.049 A 
ATOM     47  N   UNL A   1      42.031  28.093  31.258  1.00  0.00    -0.248 NA
ATOM     48  C   UNL A   1      43.417  26.635  30.077  1.00  0.00     0.031 C 
ATOM     49  C   UNL A   1      39.645  28.755  27.518  1.00  0.00     0.029 A 
ATOM     50  N   UNL A   1      39.835  29.258  29.690  1.00  0.00    -0.354 N 
ATOM     51  C   UNL A   1      43.022  27.604  32.101  1.00  0.00     0.074 A 
ATOM     52  C   UNL A   1      43.821  26.678  31.333  1.00  0.00     0.031 C 
ATOM     53  C   UNL A   1      38.663  29.623  27.824  1.00  0.00     0.029 A 
ATOM     54  C   UNL A   1      38.746  29.968  29.244  1.00  0.00     0.049 A 
ATOM     55  H   UNL A   1      40.156  29.294  30.620  1.00  0.00     0.167 HD
ATOM     56  C   UNL A   1      43.263  27.908  33.398  1.00  0.00     0.037 A 
ATOM     57  C   UNL A   1      37.919  30.795  29.913  1.00  0.00     0.037 A 
ATOM     58  C   UNL A   1      42.473  28.827  34.168  1.00  0.00     0.049 A 
ATOM     59  C   UNL A   1      38.169  31.073  31.378  1.00  0.00     0.074 A 
ATOM     60  C   UNL A   1      42.637  29.211  35.485  1.00  0.00     0.029 A 
ATOM     61  N   UNL A   1      41.360  29.498  33.685  1.00  0.00    -0.354 N 
ATOM     62  N   UNL A   1      39.133  30.640  32.155  1.00  0.00    -0.248 NA
ATOM     63  C   UNL A   1      37.217  31.968  32.053  1.00  0.00     0.031 C 
ATOM     64  C   UNL A   1      41.591  30.080  35.817  1.00  0.00     0.029 A 
ATOM     65  C   UNL A   1      40.813  30.282  34.688  1.00  0.00     0.049 A 
ATOM     66  H   UNL A   1      41.011  29.429  32.768  1.00  0.00     0.167 HD
ATOM     67  C   UNL A   1      38.931  31.244  33.391  1.00  0.00     0.074 A 
ATOM     68  C   UNL A   1      37.754  32.078  33.260  1.00  0.00     0.031 C 
ATOM     69  C   UNL A   1      39.658  31.127  34.530  1.00  0.00     0.037 A 
BRANCH  56  70
ATOM     70  C   UNL A   1      44.410  27.206  34.063  1.00  0.00     0.064 A 
ATOM     71  C   UNL A   1      44.249  25.965  34.696  1.00  0.00     0.173 A 
ATOM     72  C   UNL A   1      45.683  27.791  34.076  1.00  0.00     0.173 A 
ATOM     73  F   UNL A   1      43.044  25.375  34.734  1.00  0.00    -0.203 F 
ATOM     74  C   UNL A   1      45.315  25.350  35.349  1.00  0.00     0.198 A 
ATOM     75  C   UNL A   1      46.755  27.160  34.701  1.00  0.00     0.198 A 
ATOM     76  F   UNL A   1      45.888  28.980  33.489  1.00  0.00    -0.203 F 
ATOM     77  F   UNL A   1      45.125  24.196  36.001  1.00  0.00    -0.200 F 
ATOM     78  C   UNL A   1      46.568  25.946  35.345  1.00  0.00     0.200 A 
ATOM     79  F   UNL A   1      47.966  27.733  34.692  1.00  0.00    -0.200 F 
ATOM     80  F   UNL A   1      47.594  25.355  35.974  1.00  0.00    -0.200 F 
ENDBRANCH  56  70
BRANCH  57  81
ATOM     81  C   UNL A   1      36.778  31.447  29.213  1.00  0.00     0.064 A 
ATOM     82  C   UNL A   1      36.788  32.823  28.941  1.00  0.00     0.173 A 
ATOM     83  C   UNL A   1      35.638  30.720  28.844  1.00  0.00     0.173 A 
ATOM     84  F   UNL A   1      37.843  33.569  29.302  1.00  0.00    -0.203 F 
ATOM     85  C   UNL A   1      35.693  33.449  28.347  1.00  0.00     0.198 A 
ATOM     86  C   UNL A   1      34.554  31.342  28.226  1.00  0.00     0.198 A 
ATOM     87  F   UNL A   1      35.573  29.402  29.090  1.00  0.00    -0.203 F 
ATOM     88  F   UNL A   1      35.708  34.774  28.148  1.00  0.00    -0.200 F 
ATOM     89  C   UNL A   1      34.579  32.707  27.986  1.00  0.00     0.200 A 
ATOM     90  F   UNL A   1      33.481  30.620  27.874  1.00  0.00    -0.200 F 
ATOM     91  F   UNL A   1      33.525  33.310  27.419  1.00  0.00    -0.200 F 
ENDBRANCH  57  81
BRANCH  69  92
ATOM     92  C   UNL A   1      39.251  31.967  35.707  1.00  0.00     0.064 A 
ATOM     93  C   UNL A   1      39.707  33.282  35.876  1.00  0.00     0.173 A 
ATOM     94  C   UNL A   1      38.351  31.457  36.657  1.00  0.00     0.173 A 
ATOM     95  F   UNL A   1      40.573  33.814  35.002  1.00  0.00    -0.203 F 
ATOM     96  C   UNL A   1      39.302  34.044  36.970  1.00  0.00     0.198 A 
ATOM     97  C   UNL A   1      37.925  32.232  37.730  1.00  0.00     0.198 A 
ATOM     98  F   UNL A   1      37.876  30.209  36.535  1.00  0.00    -0.203 F 
ATOM     99  F   UNL A   1      39.790  35.281  37.140  1.00  0.00    -0.200 F 
ATOM    100  C   UNL A   1      38.407  33.521  37.891  1.00  0.00     0.200 A 
ATOM    101  F   UNL A   1      37.046  31.731  38.610  1.00  0.00    -0.200 F 
ATOM    102  F   UNL A   1      38.014  34.258  38.940  1.00  0.00    -0.200 F 
ENDBRANCH  69  92
ENDBRANCH  43  44
ENDBRANCH  36  38
ENDBRANCH  35  36
ENDBRANCH  34  35
ENDBRANCH  33  34
ENDBRANCH  32  33
ENDBRANCH  31  32
ENDBRANCH  30  31
ENDBRANCH  29  30
ENDBRANCH   1  29
TORSDOF 23
ENDMDL
MODEL 2
REMARK VINA RESULT:     -10.5      4.013      9.676
REMARK SMILES O=C(C[NH+]1CCN(c2nccc(N3CCCCC3)n2)CC1)OCCOCCOCCOCCOC(=O)c1ccc(-c2c3nc(c(-c4c(F)c(F)c(F)c(F)c4F)c4ccc([nH]4)c(-c4c(F)c(F)c(F)c(F)c4F)c4nc(c(-c5c(F)c(F)c(F)c(F)c5F)c5ccc2[nH]5)C=C4)C=C3)cc1
REMARK SMILES IDX 27 1 26 2 25 3 24 4 23 5 22 6 2 7 1 8 3 9 4 10 5 11 21 12
REMARK SMILES IDX 6 14 20 15 7 16 8 17 9 18 19 19 10 20 12 21 11 22 13 23
REMARK SMILES IDX 14 24 18 25 15 26 17 27 16 28 28 29 29 30 30 31 31 32 32 33
REMARK SMILES IDX 33 34 34 35 35 36 36 37 37 38 38 39 99 40 39 41 98 42 40 43
REMARK SMILES IDX 41 44 42 45 92 46 43 47 97 48 91 49 93 50 44 51 96 52 90 53
REMARK SMILES IDX 89 54 45 56 77 57 57 58 76 59 58 60 61 61 75 62 94 63 59 64
REMARK SMILES IDX 60 65 74 67 95 68 62 69 46 70 47 71 55 72 48 73 49 74 53 75
REMARK SMILES IDX 56 76 50 77 51 78 54 79 52 80 78 81 79 82 87 83 80 84 81 85
REMARK SMILES IDX 85 86 88 87 82 88 83 89 86 90 84 91 63 92 64 93 72 94 65 95
REMARK SMILES IDX 66 96 70 97 73 98 67 99 68 100 71 101 69 102
REMARK H PARENT 4 13 93 55 61 66
REMARK Flexibility Score: inf
ROOT
ATOM      1  C   UNL A   1      32.201  28.115  27.585  1.00  0.00     0.188 C 
ENDROOT
BRANCH   1   2
ATOM      2  C   UNL A   1      31.170  27.840  26.483  1.00  0.00     0.188 C 
BRANCH   2   3
ATOM      3  O   UNL A   1      31.655  27.349  25.236  1.00  0.00    -0.376 OA
BRANCH   3   4
ATOM      4  C   UNL A   1      31.499  28.159  24.069  1.00  0.00     0.202 C 
BRANCH   4   5
ATOM      5  C   UNL A   1      32.779  28.622  23.380  1.00  0.00     0.261 C 
BRANCH   5   6
ATOM      6  O   UNL A   1      32.986  27.943  22.130  1.00  0.00    -0.459 OA
BRANCH   6   7
ATOM      7  C   UNL A   1      32.626  26.635  22.097  1.00  0.00     0.361 C 
ATOM      8  O   UNL A   1      31.554  26.271  21.625  1.00  0.00    -0.245 OA
BRANCH   7   9
ATOM      9  C   UNL A   1      33.625  25.703  22.776  1.00  0.00     0.386 C 
BRANCH   9  10
ATOM     10  N   UNL A   1      33.363  25.253  24.158  1.00  0.00    -0.323 N 
ATOM     11  C   UNL A   1      32.610  24.008  24.380  1.00  0.00     0.284 C 
ATOM     12  C   UNL A   1      34.629  25.199  24.934  1.00  0.00     0.284 C 
ATOM     13  H   UNL A   1      32.717  25.972  24.485  1.00  0.00     0.348 HD
ATOM     14  C   UNL A   1      33.360  22.666  24.242  1.00  0.00     0.181 C 
ATOM     15  C   UNL A   1      35.498  23.932  24.729  1.00  0.00     0.181 C 
ATOM     16  N   UNL A   1      34.691  22.731  24.809  1.00  0.00    -0.329 N 
BRANCH  16  17
ATOM     17  C   UNL A   1      35.336  21.528  24.921  1.00  0.00     0.227 A 
ATOM     18  N   UNL A   1      36.659  21.429  24.729  1.00  0.00    -0.221 NA
ATOM     19  N   UNL A   1      34.532  20.477  25.062  1.00  0.00    -0.196 NA
ATOM     20  C   UNL A   1      37.160  20.177  24.706  1.00  0.00     0.119 A 
ATOM     21  C   UNL A   1      35.041  19.244  25.000  1.00  0.00     0.134 A 
ATOM     22  C   UNL A   1      36.393  19.043  24.843  1.00  0.00     0.067 A 
BRANCH  21  23
ATOM     23  N   UNL A   1      34.153  18.174  25.001  1.00  0.00    -0.356 N 
ATOM     24  C   UNL A   1      34.637  16.975  24.304  1.00  0.00     0.118 C 
ATOM     25  C   UNL A   1      32.741  18.499  24.809  1.00  0.00     0.118 C 
ATOM     26  C   UNL A   1      34.314  17.014  22.808  1.00  0.00     0.022 C 
ATOM     27  C   UNL A   1      32.399  18.570  23.317  1.00  0.00     0.022 C 
ATOM     28  C   UNL A   1      32.834  17.303  22.579  1.00  0.00     0.004 C 
ENDBRANCH  21  23
ENDBRANCH  16  17
ENDBRANCH   9  10
ENDBRANCH   7   9
ENDBRANCH   6   7
ENDBRANCH   5   6
ENDBRANCH   4   5
ENDBRANCH   3   4
ENDBRANCH   2   3
ENDBRANCH   1   2
BRANCH   1  29
ATOM     29  O   UNL A   1      33.488  28.435  27.074  1.00  0.00    -0.377 OA
BRANCH  29  30
ATOM     30  C   UNL A   1      33.658  29.814  26.729  1.00  0.00     0.188 C 
BRANCH  30  31
ATOM     31  C   UNL A   1      32.752  30.860  27.423  1.00  0.00     0.188 C 
BRANCH  31  32
ATOM     32  O   UNL A   1      32.041  31.648  26.471  1.00  0.00    -0.376 OA
BRANCH  32  33
ATOM     33  C   UNL A   1      31.788  33.002  26.814  1.00  0.00     0.202 C 
BRANCH  33  34
ATOM     34  C   UNL A   1      32.923  33.713  27.570  1.00  0.00     0.261 C 
BRANCH  34  35
ATOM     35  O   UNL A   1      32.580  34.217  28.870  1.00  0.00    -0.460 OA
BRANCH  35  36
ATOM     36  C   UNL A   1      33.566  34.801  29.594  1.00  0.00     0.338 C 
ATOM     37  O   UNL A   1      33.473  35.806  30.258  1.00  0.00    -0.246 OA
BRANCH  36  38
ATOM     38  C   UNL A   1      34.731  33.868  29.628  1.00  0.00     0.060 A 
ATOM     39  C   UNL A   1      34.531  32.591  30.171  1.00  0.00     0.016 A 
ATOM     40  C   UNL A   1      35.984  34.211  29.102  1.00  0.00     0.016 A 
ATOM     41  C   UNL A   1      35.597  31.695  30.273  1.00  0.00     0.010 A 
ATOM     42  C   UNL A   1      37.055  33.314  29.205  1.00  0.00     0.010 A 
ATOM     43  C   UNL A   1      36.879  32.081  29.857  1.00  0.00    -0.014 A 
BRANCH  43  44
ATOM     44  C   UNL A   1      38.052  31.374  30.437  1.00  0.00     0.031 A 
ATOM     45  C   UNL A   1      38.393  31.691  31.873  1.00  0.00     0.074 A 
ATOM     46  C   UNL A   1      38.752  30.441  29.769  1.00  0.00     0.049 A 
ATOM     47  N   UNL A   1      39.321  31.189  32.647  1.00  0.00    -0.248 NA
ATOM     48  C   UNL A   1      37.566  32.720  32.525  1.00  0.00     0.031 C 
ATOM     49  C   UNL A   1      38.508  30.015  28.395  1.00  0.00     0.029 A 
ATOM     50  N   UNL A   1      39.819  29.677  30.175  1.00  0.00    -0.354 N 
ATOM     51  C   UNL A   1      39.186  31.844  33.866  1.00  0.00     0.074 A 
ATOM     52  C   UNL A   1      38.119  32.806  33.721  1.00  0.00     0.031 C 
ATOM     53  C   UNL A   1      39.399  29.059  28.071  1.00  0.00     0.029 A 
ATOM     54  C   UNL A   1      40.286  28.818  29.210  1.00  0.00     0.049 A 
ATOM     55  H   UNL A   1      40.213  29.738  31.076  1.00  0.00     0.167 HD
ATOM     56  C   UNL A   1      39.876  31.653  35.014  1.00  0.00     0.037 A 
ATOM     57  C   UNL A   1      41.311  27.945  29.251  1.00  0.00     0.037 A 
ATOM     58  C   UNL A   1      40.938  30.700  35.166  1.00  0.00     0.049 A 
ATOM     59  C   UNL A   1      42.109  27.792  30.525  1.00  0.00     0.074 A 
ATOM     60  C   UNL A   1      41.695  30.422  36.289  1.00  0.00     0.029 A 
ATOM     61  N   UNL A   1      41.399  29.873  34.152  1.00  0.00    -0.354 N 
ATOM     62  N   UNL A   1      41.947  28.384  31.685  1.00  0.00    -0.248 NA
ATOM     63  C   UNL A   1      43.227  26.837  30.496  1.00  0.00     0.031 C 
ATOM     64  C   UNL A   1      42.650  29.460  35.941  1.00  0.00     0.029 A 
ATOM     65  C   UNL A   1      42.446  29.097  34.619  1.00  0.00     0.049 A 
ATOM     66  H   UNL A   1      41.036  29.843  33.238  1.00  0.00     0.167 HD
ATOM     67  C   UNL A   1      42.907  27.840  32.532  1.00  0.00     0.074 A 
ATOM     68  C   UNL A   1      43.646  26.868  31.753  1.00  0.00     0.031 C 
ATOM     69  C   UNL A   1      43.151  28.114  33.837  1.00  0.00     0.037 A 
BRANCH  56  70
ATOM     70  C   UNL A   1      39.515  32.526  36.180  1.00  0.00     0.064 A 
ATOM     71  C   UNL A   1      38.524  32.155  37.101  1.00  0.00     0.173 A 
ATOM     72  C   UNL A   1      40.162  33.755  36.370  1.00  0.00     0.173 A 
ATOM     73  F   UNL A   1      37.857  31.001  36.950  1.00  0.00    -0.203 F 
ATOM     74  C   UNL A   1      38.171  33.000  38.151  1.00  0.00     0.198 A 
ATOM     75  C   UNL A   1      39.830  34.583  37.437  1.00  0.00     0.198 A 
ATOM     76  F   UNL A   1      41.114  34.157  35.513  1.00  0.00    -0.203 F 
ATOM     77  F   UNL A   1      37.179  32.654  38.982  1.00  0.00    -0.200 F 
ATOM     78  C   UNL A   1      38.828  34.209  38.322  1.00  0.00     0.200 A 
ATOM     79  F   UNL A   1      40.469  35.748  37.605  1.00  0.00    -0.200 F 
ATOM     80  F   UNL A   1      38.487  35.022  39.331  1.00  0.00    -0.200 F 
ENDBRANCH  56  70
BRANCH  57  81
ATOM     81  C   UNL A   1      41.646  27.121  28.057  1.00  0.00     0.064 A 
ATOM     82  C   UNL A   1      42.532  27.592  27.078  1.00  0.00     0.173 A 
ATOM     83  C   UNL A   1      41.052  25.868  27.847  1.00  0.00     0.173 A 
ATOM     84  F   UNL A   1      43.102  28.798  27.217  1.00  0.00    -0.203 F 
ATOM     85  C   UNL A   1      42.794  26.853  25.925  1.00  0.00     0.198 A 
ATOM     86  C   UNL A   1      41.335  25.117  26.707  1.00  0.00     0.198 A 
ATOM     87  F   UNL A   1      40.189  25.374  28.748  1.00  0.00    -0.203 F 
ATOM     88  F   UNL A   1      43.603  27.353  24.981  1.00  0.00    -0.200 F 
ATOM     89  C   UNL A   1      42.199  25.614  25.743  1.00  0.00     0.200 A 
ATOM     90  F   UNL A   1      40.762  23.918  26.537  1.00  0.00    -0.200 F 
ATOM     91  F   UNL A   1      42.448  24.906  24.633  1.00  0.00    -0.200 F 
ENDBRANCH  57  81
BRANCH  69  92
ATOM     92  C   UNL A   1      44.212  27.309  34.532  1.00  0.00     0.064 A 
ATOM     93  C   UNL A   1      43.925  26.096  35.176  1.00  0.00     0.173 A 
ATOM     94  C   UNL A   1      45.548  27.742  34.514  1.00  0.00     0.173 A 
ATOM     95  F   UNL A   1      42.664  25.643  35.229  1.00  0.00    -0.203 F 
ATOM     96  C   UNL A   1      44.931  25.363  35.801  1.00  0.00     0.198 A 
ATOM     97  C   UNL A   1      46.554  26.991  35.111  1.00  0.00     0.198 A 
ATOM     98  F   UNL A   1      45.878  28.889  33.902  1.00  0.00    -0.203 F 
ATOM     99  F   UNL A   1      44.626  24.233  36.453  1.00  0.00    -0.200 F 
ATOM    100  C   UNL A   1      46.244  25.807  35.762  1.00  0.00     0.200 A 
ATOM    101  F   UNL A   1      47.825  27.412  35.058  1.00  0.00    -0.200 F 
ATOM    102  F   UNL A   1      47.211  25.097  36.359  1.00  0.00    -0.200 F 
ENDBRANCH  69  92
ENDBRANCH  43  44
ENDBRANCH  36  38
ENDBRANCH  35  36
ENDBRANCH  34  35
ENDBRANCH  33  34
ENDBRANCH  32  33
ENDBRANCH  31  32
ENDBRANCH  30  31
ENDBRANCH  29  30
ENDBRANCH   1  29
TORSDOF 23
ENDMDL
MODEL 3
REMARK VINA RESULT:     -10.2      5.799     11.747
REMARK SMILES O=C(C[NH+]1CCN(c2nccc(N3CCCCC3)n2)CC1)OCCOCCOCCOCCOC(=O)c1ccc(-c2c3nc(c(-c4c(F)c(F)c(F)c(F)c4F)c4ccc([nH]4)c(-c4c(F)c(F)c(F)c(F)c4F)c4nc(c(-c5c(F)c(F)c(F)c(F)c5F)c5ccc2[nH]5)C=C4)C=C3)cc1
REMARK SMILES IDX 27 1 26 2 25 3 24 4 23 5 22 6 2 7 1 8 3 9 4 10 5 11 21 12
REMARK SMILES IDX 6 14 20 15 7 16 8 17 9 18 19 19 10 20 12 21 11 22 13 23
REMARK SMILES IDX 14 24 18 25 15 26 17 27 16 28 28 29 29 30 30 31 31 32 32 33
REMARK SMILES IDX 33 34 34 35 35 36 36 37 37 38 38 39 99 40 39 41 98 42 40 43
REMARK SMILES IDX 41 44 42 45 92 46 43 47 97 48 91 49 93 50 44 51 96 52 90 53
REMARK SMILES IDX 89 54 45 56 77 57 57 58 76 59 58 60 61 61 75 62 94 63 59 64
REMARK SMILES IDX 60 65 74 67 95 68 62 69 46 70 47 71 55 72 48 73 49 74 53 75
REMARK SMILES IDX 56 76 50 77 51 78 54 79 52 80 78 81 79 82 87 83 80 84 81 85
REMARK SMILES IDX 85 86 88 87 82 88 83 89 86 90 84 91 63 92 64 93 72 94 65 95
REMARK SMILES IDX 66 96 70 97 73 98 67 99 68 100 71 101 69 102
REMARK H PARENT 4 13 93 55 61 66
REMARK Flexibility Score: inf
ROOT
ATOM      1  C   UNL A   1      33.919  36.054  29.180  1.00  0.00     0.188 C 
ENDROOT
BRANCH   1   2
ATOM      2  C   UNL A   1      34.010  34.616  28.653  1.00  0.00     0.188 C 
BRANCH   2   3
ATOM      3  O   UNL A   1      33.852  33.559  29.596  1.00  0.00    -0.376 OA
BRANCH   3   4
ATOM      4  C   UNL A   1      34.682  32.402  29.478  1.00  0.00     0.202 C 
BRANCH   4   5
ATOM      5  C   UNL A   1      35.486  32.262  28.189  1.00  0.00     0.261 C 
BRANCH   5   6
ATOM      6  O   UNL A   1      34.816  31.426  27.232  1.00  0.00    -0.459 OA
BRANCH   6   7
ATOM      7  C   UNL A   1      34.847  30.093  27.481  1.00  0.00     0.361 C 
ATOM      8  O   UNL A   1      35.897  29.503  27.719  1.00  0.00    -0.245 OA
BRANCH   7   9
ATOM      9  C   UNL A   1      33.490  29.408  27.347  1.00  0.00     0.386 C 
BRANCH   9  10
ATOM     10  N   UNL A   1      32.999  29.046  26.002  1.00  0.00    -0.323 N 
ATOM     11  C   UNL A   1      33.778  28.108  25.178  1.00  0.00     0.284 C 
ATOM     12  C   UNL A   1      31.592  28.575  26.074  1.00  0.00     0.284 C 
ATOM     13  H   UNL A   1      33.106  29.930  25.503  1.00  0.00     0.348 HD
ATOM     14  C   UNL A   1      33.649  26.597  25.470  1.00  0.00     0.181 C 
ATOM     15  C   UNL A   1      31.390  27.099  26.501  1.00  0.00     0.181 C 
ATOM     16  N   UNL A   1      32.282  26.221  25.769  1.00  0.00    -0.329 N 
BRANCH  16  17
ATOM     17  C   UNL A   1      32.049  24.872  25.826  1.00  0.00     0.227 A 
ATOM     18  N   UNL A   1      31.363  24.328  26.841  1.00  0.00    -0.221 NA
ATOM     19  N   UNL A   1      32.690  24.158  24.905  1.00  0.00    -0.196 NA
ATOM     20  C   UNL A   1      31.332  22.981  26.877  1.00  0.00     0.119 A 
ATOM     21  C   UNL A   1      32.677  22.825  24.977  1.00  0.00     0.134 A 
ATOM     22  C   UNL A   1      31.969  22.176  25.962  1.00  0.00     0.067 A 
BRANCH  21  23
ATOM     23  N   UNL A   1      33.480  22.119  24.087  1.00  0.00    -0.356 N 
ATOM     24  C   UNL A   1      34.155  20.949  24.666  1.00  0.00     0.118 C 
ATOM     25  C   UNL A   1      34.270  22.914  23.150  1.00  0.00     0.118 C 
ATOM     26  C   UNL A   1      35.495  21.321  25.306  1.00  0.00     0.022 C 
ATOM     27  C   UNL A   1      35.607  23.321  23.779  1.00  0.00     0.022 C 
ATOM     28  C   UNL A   1      36.362  22.111  24.331  1.00  0.00     0.004 C 
ENDBRANCH  21  23
ENDBRANCH  16  17
ENDBRANCH   9  10
ENDBRANCH   7   9
ENDBRANCH   6   7
ENDBRANCH   5   6
ENDBRANCH   4   5
ENDBRANCH   3   4
ENDBRANCH   2   3
ENDBRANCH   1   2
BRANCH   1  29
ATOM     29  O   UNL A   1      32.908  36.221  30.165  1.00  0.00    -0.377 OA
BRANCH  29  30
ATOM     30  C   UNL A   1      33.255  37.129  31.217  1.00  0.00     0.188 C 
BRANCH  30  31
ATOM     31  C   UNL A   1      33.957  36.559  32.473  1.00  0.00     0.188 C 
BRANCH  31  32
ATOM     32  O   UNL A   1      33.911  35.134  32.495  1.00  0.00    -0.376 OA
BRANCH  32  33
ATOM     33  C   UNL A   1      35.004  34.463  33.106  1.00  0.00     0.202 C 
BRANCH  33  34
ATOM     34  C   UNL A   1      35.172  32.986  32.715  1.00  0.00     0.261 C 
BRANCH  34  35
ATOM     35  O   UNL A   1      36.487  32.442  32.904  1.00  0.00    -0.460 OA
BRANCH  35  36
ATOM     36  C   UNL A   1      36.730  31.205  32.405  1.00  0.00     0.338 C 
ATOM     37  O   UNL A   1      35.911  30.346  32.180  1.00  0.00    -0.246 OA
BRANCH  36  38
ATOM     38  C   UNL A   1      38.152  31.158  31.952  1.00  0.00     0.060 A 
ATOM     39  C   UNL A   1      38.496  31.877  30.799  1.00  0.00     0.016 A 
ATOM     40  C   UNL A   1      39.143  30.465  32.660  1.00  0.00     0.016 A 
ATOM     41  C   UNL A   1      39.801  31.830  30.303  1.00  0.00     0.010 A 
ATOM     42  C   UNL A   1      40.451  30.414  32.163  1.00  0.00     0.010 A 
ATOM     43  C   UNL A   1      40.765  31.038  30.943  1.00  0.00    -0.014 A 
BRANCH  43  44
ATOM     44  C   UNL A   1      41.936  30.577  30.152  1.00  0.00     0.031 A 
ATOM     45  C   UNL A   1      41.803  29.244  29.455  1.00  0.00     0.074 A 
ATOM     46  C   UNL A   1      43.047  31.315  29.985  1.00  0.00     0.049 A 
ATOM     47  N   UNL A   1      42.637  28.624  28.661  1.00  0.00    -0.248 NA
ATOM     48  C   UNL A   1      40.547  28.512  29.692  1.00  0.00     0.031 C 
ATOM     49  C   UNL A   1      43.292  32.630  30.569  1.00  0.00     0.029 A 
ATOM     50  N   UNL A   1      44.183  31.051  29.258  1.00  0.00    -0.354 N 
ATOM     51  C   UNL A   1      42.006  27.436  28.310  1.00  0.00     0.074 A 
ATOM     52  C   UNL A   1      40.741  27.399  29.007  1.00  0.00     0.031 C 
ATOM     53  C   UNL A   1      44.504  33.063  30.174  1.00  0.00     0.029 A 
ATOM     54  C   UNL A   1      45.126  32.049  29.322  1.00  0.00     0.049 A 
ATOM     55  H   UNL A   1      44.310  30.225  28.739  1.00  0.00     0.167 HD
ATOM     56  C   UNL A   1      42.429  26.464  27.469  1.00  0.00     0.037 A 
ATOM     57  C   UNL A   1      46.347  32.123  28.755  1.00  0.00     0.037 A 
ATOM     58  C   UNL A   1      43.684  26.493  26.774  1.00  0.00     0.049 A 
ATOM     59  C   UNL A   1      46.826  30.998  27.868  1.00  0.00     0.074 A 
ATOM     60  C   UNL A   1      44.204  25.564  25.892  1.00  0.00     0.029 A 
ATOM     61  N   UNL A   1      44.622  27.508  26.893  1.00  0.00    -0.354 N 
ATOM     62  N   UNL A   1      46.205  29.899  27.508  1.00  0.00    -0.248 NA
ATOM     63  C   UNL A   1      48.175  31.132  27.298  1.00  0.00     0.031 C 
ATOM     64  C   UNL A   1      45.481  25.992  25.514  1.00  0.00     0.029 A 
ATOM     65  C   UNL A   1      45.730  27.216  26.114  1.00  0.00     0.049 A 
ATOM     66  H   UNL A   1      44.517  28.314  27.447  1.00  0.00     0.167 HD
ATOM     67  C   UNL A   1      47.066  29.239  26.637  1.00  0.00     0.074 A 
ATOM     68  C   UNL A   1      48.251  30.062  26.520  1.00  0.00     0.031 C 
ATOM     69  C   UNL A   1      46.888  28.062  25.987  1.00  0.00     0.037 A 
BRANCH  56  70
ATOM     70  C   UNL A   1      41.531  25.275  27.292  1.00  0.00     0.064 A 
ATOM     71  C   UNL A   1      40.371  25.336  26.504  1.00  0.00     0.173 A 
ATOM     72  C   UNL A   1      41.829  24.063  27.929  1.00  0.00     0.173 A 
ATOM     73  F   UNL A   1      40.027  26.482  25.894  1.00  0.00    -0.203 F 
ATOM     74  C   UNL A   1      39.525  24.236  26.389  1.00  0.00     0.198 A 
ATOM     75  C   UNL A   1      40.999  22.955  27.787  1.00  0.00     0.198 A 
ATOM     76  F   UNL A   1      42.924  23.955  28.698  1.00  0.00    -0.203 F 
ATOM     77  F   UNL A   1      38.391  24.336  25.683  1.00  0.00    -0.200 F 
ATOM     78  C   UNL A   1      39.843  23.046  27.025  1.00  0.00     0.200 A 
ATOM     79  F   UNL A   1      41.311  21.804  28.397  1.00  0.00    -0.200 F 
ATOM     80  F   UNL A   1      39.029  21.987  26.915  1.00  0.00    -0.200 F 
ENDBRANCH  56  70
BRANCH  57  81
ATOM     81  C   UNL A   1      47.211  33.314  28.984  1.00  0.00     0.064 A 
ATOM     82  C   UNL A   1      47.175  34.412  28.112  1.00  0.00     0.173 A 
ATOM     83  C   UNL A   1      48.121  33.359  30.049  1.00  0.00     0.173 A 
ATOM     84  F   UNL A   1      46.343  34.403  27.060  1.00  0.00    -0.203 F 
ATOM     85  C   UNL A   1      48.032  35.498  28.284  1.00  0.00     0.198 A 
ATOM     86  C   UNL A   1      48.959  34.458  30.236  1.00  0.00     0.198 A 
ATOM     87  F   UNL A   1      48.203  32.331  30.908  1.00  0.00    -0.203 F 
ATOM     88  F   UNL A   1      48.013  36.509  27.405  1.00  0.00    -0.200 F 
ATOM     89  C   UNL A   1      48.920  35.522  29.349  1.00  0.00     0.200 A 
ATOM     90  F   UNL A   1      49.812  34.480  31.269  1.00  0.00    -0.200 F 
ATOM     91  F   UNL A   1      49.746  36.565  29.511  1.00  0.00    -0.200 F 
ENDBRANCH  57  81
BRANCH  69  92
ATOM     92  C   UNL A   1      47.964  27.622  25.036  1.00  0.00     0.064 A 
ATOM     93  C   UNL A   1      47.872  27.841  23.654  1.00  0.00     0.173 A 
ATOM     94  C   UNL A   1      49.129  27.009  25.527  1.00  0.00     0.173 A 
ATOM     95  F   UNL A   1      46.777  28.414  23.133  1.00  0.00    -0.203 F 
ATOM     96  C   UNL A   1      48.891  27.435  22.796  1.00  0.00     0.198 A 
ATOM     97  C   UNL A   1      50.158  26.635  24.670  1.00  0.00     0.198 A 
ATOM     98  F   UNL A   1      49.273  26.788  26.842  1.00  0.00    -0.203 F 
ATOM     99  F   UNL A   1      48.759  27.608  21.473  1.00  0.00    -0.200 F 
ATOM    100  C   UNL A   1      50.035  26.839  23.305  1.00  0.00     0.200 A 
ATOM    101  F   UNL A   1      51.271  26.075  25.165  1.00  0.00    -0.200 F 
ATOM    102  F   UNL A   1      51.017  26.454  22.477  1.00  0.00    -0.200 F 
ENDBRANCH  69  92
ENDBRANCH  43  44
ENDBRANCH  36  38
ENDBRANCH  35  36
ENDBRANCH  34  35
ENDBRANCH  33  34
ENDBRANCH  32  33
ENDBRANCH  31  32
ENDBRANCH  30  31
ENDBRANCH  29  30
ENDBRANCH   1  29
TORSDOF 23
ENDMDL
