MODEL 1
REMARK VINA RESULT:      -9.0      0.000      0.000
REMARK SMILES O=C(COc1ccc(Cl)c2ccccc12)N[C@@H](Cc1c[nH]c2ccccc12)C(=O)OCCOCCOCCOCCOC(=O)c1ccc(-c2c3nc(c(-c4c(F)c(F)c(F)c(F)c4F)c4ccc([nH]4)c(-c4c(F)c(F)c(F)c(F)c4F)c4nc(c(-c5c(F)c(F)c(F)c(F)c5F)c5ccc2[nH]5)C=C4)C=C3)cc1
REMARK SMILES IDX 35 1 34 2 33 3 32 4 31 5 30 6 28 7 29 8 17 9 16 10 1 11 2 12
REMARK SMILES IDX 3 14 4 15 5 16 6 17 15 18 7 19 10 20 14 21 8 22 11 23 13 24
REMARK SMILES IDX 9 25 12 26 18 27 19 28 20 29 27 30 21 31 22 32 26 33 23 35
REMARK SMILES IDX 25 36 24 37 36 38 37 39 38 40 39 41 40 42 41 43 42 44 43 45
REMARK SMILES IDX 44 46 45 47 46 48 107 49 47 50 106 51 48 52 49 53 50 54
REMARK SMILES IDX 100 55 51 56 105 57 99 58 101 59 52 60 104 61 98 62 97 63
REMARK SMILES IDX 53 65 85 66 65 67 84 68 66 69 69 70 83 71 102 72 67 73 68 74
REMARK SMILES IDX 82 76 103 77 70 78 54 79 55 80 63 81 56 82 57 83 61 84 64 85
REMARK SMILES IDX 58 86 59 87 62 88 60 89 86 90 87 91 95 92 88 93 89 94 93 95
REMARK SMILES IDX 96 96 90 97 91 98 94 99 92 100 71 101 72 102 80 103 73 104
REMARK SMILES IDX 74 105 78 106 81 107 75 108 76 109 79 110 77 111
REMARK H PARENT 16 13 21 34 101 64 69 75
REMARK Flexibility Score: inf
ROOT
ATOM      1  C   UNL A   1      50.574  21.743  36.891  1.00  0.00     0.188 C 
ENDROOT
BRANCH   1   2
ATOM      2  C   UNL A   1      50.239  20.239  36.846  1.00  0.00     0.188 C 
BRANCH   2   3
ATOM      3  O   UNL A   1      49.962  19.512  38.033  1.00  0.00    -0.376 OA
BRANCH   3   4
ATOM      4  C   UNL A   1      51.003  19.088  38.894  1.00  0.00     0.202 C 
BRANCH   4   5
ATOM      5  C   UNL A   1      50.749  18.192  40.117  1.00  0.00     0.261 C 
BRANCH   5   6
ATOM      6  O   UNL A   1      49.390  18.073  40.554  1.00  0.00    -0.462 OA
BRANCH   6   7
ATOM      7  C   UNL A   1      48.802  19.201  41.016  1.00  0.00     0.329 C 
ATOM      8  O   UNL A   1      49.268  19.905  41.907  1.00  0.00    -0.250 OA
BRANCH   7   9
ATOM      9  C   UNL A   1      47.390  19.399  40.432  1.00  0.00     0.196 C 
BRANCH   9  10
ATOM     10  N   UNL A   1      47.170  20.381  39.331  1.00  0.00    -0.339 N 
ATOM     11  O   UNL A   1      45.662  21.629  40.501  1.00  0.00    -0.271 OA
ATOM     12  C   UNL A   1      46.280  21.432  39.454  1.00  0.00     0.258 C 
ATOM     13  H   UNL A   1      47.673  20.277  38.491  1.00  0.00     0.164 HD
BRANCH  12  14
ATOM     14  C   UNL A   1      46.026  22.339  38.210  1.00  0.00     0.329 C 
BRANCH  14  15
ATOM     15  O   UNL A   1      46.895  22.374  37.082  1.00  0.00    -0.483 OA
BRANCH  15  16
ATOM     16  C   UNL A   1      46.342  22.513  35.823  1.00  0.00     0.128 A 
ATOM     17  C   UNL A   1      45.251  21.740  35.424  1.00  0.00     0.048 A 
ATOM     18  C   UNL A   1      46.767  23.616  35.018  1.00  0.00     0.025 A 
ATOM     19  C   UNL A   1      44.531  22.073  34.279  1.00  0.00     0.025 A 
ATOM     20  C   UNL A   1      46.018  23.968  33.854  1.00  0.00     0.004 A 
ATOM     21  C   UNL A   1      47.877  24.427  35.352  1.00  0.00     0.012 A 
ATOM     22  C   UNL A   1      44.892  23.182  33.514  1.00  0.00     0.049 A 
ATOM     23  C   UNL A   1      46.374  25.139  33.135  1.00  0.00     0.010 A 
ATOM     24  C   UNL A   1      48.216  25.567  34.613  1.00  0.00     0.001 A 
ATOM     25  Cl  UNL A   1      43.827  23.598  32.210  1.00  0.00    -0.084 Cl
ATOM     26  C   UNL A   1      47.451  25.935  33.517  1.00  0.00     0.001 A 
ENDBRANCH  15  16
ENDBRANCH  14  15
ENDBRANCH  12  14
ENDBRANCH   9  10
BRANCH   9  27
ATOM     27  C   UNL A   1      46.913  17.989  40.032  1.00  0.00     0.074 C 
BRANCH  27  28
ATOM     28  C   UNL A   1      45.799  17.472  40.900  1.00  0.00    -0.020 A 
ATOM     29  C   UNL A   1      45.646  17.659  42.261  1.00  0.00     0.087 A 
ATOM     30  C   UNL A   1      44.693  16.676  40.470  1.00  0.00     0.003 A 
ATOM     31  N   UNL A   1      44.556  16.945  42.677  1.00  0.00    -0.361 N 
ATOM     32  C   UNL A   1      43.941  16.355  41.600  1.00  0.00     0.046 A 
ATOM     33  C   UNL A   1      44.268  16.197  39.216  1.00  0.00     0.010 A 
ATOM     34  H   UNL A   1      44.256  16.866  43.611  1.00  0.00     0.166 HD
ATOM     35  C   UNL A   1      42.784  15.571  41.539  1.00  0.00     0.026 A 
ATOM     36  C   UNL A   1      43.101  15.432  39.134  1.00  0.00     0.001 A 
ATOM     37  C   UNL A   1      42.374  15.124  40.281  1.00  0.00     0.002 A 
ENDBRANCH  27  28
ENDBRANCH   9  27
ENDBRANCH   7   9
ENDBRANCH   6   7
ENDBRANCH   5   6
ENDBRANCH   4   5
ENDBRANCH   3   4
ENDBRANCH   2   3
ENDBRANCH   1   2
BRANCH   1  38
ATOM     38  O   UNL A   1      51.813  22.072  37.508  1.00  0.00    -0.377 OA
BRANCH  38  39
ATOM     39  C   UNL A   1      51.692  22.583  38.828  1.00  0.00     0.188 C 
BRANCH  39  40
ATOM     40  C   UNL A   1      51.324  24.079  38.896  1.00  0.00     0.188 C 
BRANCH  40  41
ATOM     41  O   UNL A   1      50.005  24.318  39.354  1.00  0.00    -0.376 OA
BRANCH  41  42
ATOM     42  C   UNL A   1      49.097  25.071  38.567  1.00  0.00     0.202 C 
BRANCH  42  43
ATOM     43  C   UNL A   1      47.695  25.397  39.091  1.00  0.00     0.261 C 
BRANCH  43  44
ATOM     44  O   UNL A   1      46.752  25.916  38.162  1.00  0.00    -0.460 OA
BRANCH  44  45
ATOM     45  C   UNL A   1      46.833  27.207  37.828  1.00  0.00     0.338 C 
ATOM     46  O   UNL A   1      47.646  28.036  38.208  1.00  0.00    -0.246 OA
BRANCH  45  47
ATOM     47  C   UNL A   1      45.870  27.387  36.732  1.00  0.00     0.060 A 
ATOM     48  C   UNL A   1      46.033  28.501  35.903  1.00  0.00     0.016 A 
ATOM     49  C   UNL A   1      44.855  26.453  36.498  1.00  0.00     0.016 A 
ATOM     50  C   UNL A   1      45.140  28.722  34.867  1.00  0.00     0.010 A 
ATOM     51  C   UNL A   1      43.937  26.693  35.474  1.00  0.00     0.010 A 
ATOM     52  C   UNL A   1      44.053  27.855  34.693  1.00  0.00    -0.014 A 
BRANCH  52  53
ATOM     53  C   UNL A   1      42.922  28.337  33.874  1.00  0.00     0.031 A 
ATOM     54  C   UNL A   1      41.950  29.281  34.522  1.00  0.00     0.074 A 
ATOM     55  C   UNL A   1      42.842  28.034  32.569  1.00  0.00     0.049 A 
ATOM     56  N   UNL A   1      40.905  29.880  34.014  1.00  0.00    -0.248 NA
ATOM     57  C   UNL A   1      42.197  29.603  35.939  1.00  0.00     0.031 C 
ATOM     58  C   UNL A   1      43.785  27.187  31.842  1.00  0.00     0.029 A 
ATOM     59  N   UNL A   1      41.931  28.420  31.622  1.00  0.00    -0.354 N 
ATOM     60  C   UNL A   1      40.374  30.643  35.046  1.00  0.00     0.074 A 
ATOM     61  C   UNL A   1      41.185  30.410  36.218  1.00  0.00     0.031 C 
ATOM     62  C   UNL A   1      43.400  27.115  30.556  1.00  0.00     0.029 A 
ATOM     63  C   UNL A   1      42.167  27.880  30.383  1.00  0.00     0.049 A 
ATOM     64  H   UNL A   1      41.179  29.027  31.813  1.00  0.00     0.167 HD
ATOM     65  C   UNL A   1      39.305  31.471  35.011  1.00  0.00     0.037 A 
ATOM     66  C   UNL A   1      41.446  27.981  29.251  1.00  0.00     0.037 A 
ATOM     67  C   UNL A   1      38.508  31.684  33.833  1.00  0.00     0.049 A 
ATOM     68  C   UNL A   1      40.205  28.839  29.262  1.00  0.00     0.074 A 
ATOM     69  C   UNL A   1      37.398  32.493  33.676  1.00  0.00     0.029 A 
ATOM     70  N   UNL A   1      38.739  31.071  32.609  1.00  0.00    -0.354 N 
ATOM     71  N   UNL A   1      39.707  29.563  30.237  1.00  0.00    -0.248 NA
ATOM     72  C   UNL A   1      39.431  28.899  28.017  1.00  0.00     0.031 C 
ATOM     73  C   UNL A   1      36.919  32.318  32.373  1.00  0.00     0.029 A 
ATOM     74  C   UNL A   1      37.771  31.458  31.697  1.00  0.00     0.049 A 
ATOM     75  H   UNL A   1      39.480  30.452  32.418  1.00  0.00     0.167 HD
ATOM     76  C   UNL A   1      38.580  30.185  29.717  1.00  0.00     0.074 A 
ATOM     77  C   UNL A   1      38.480  29.767  28.333  1.00  0.00     0.031 C 
ATOM     78  C   UNL A   1      37.705  31.027  30.323  1.00  0.00     0.037 A 
BRANCH  65  79
ATOM     79  C   UNL A   1      38.915  32.161  36.287  1.00  0.00     0.064 A 
ATOM     80  C   UNL A   1      39.349  33.459  36.596  1.00  0.00     0.173 A 
ATOM     81  C   UNL A   1      38.082  31.513  37.213  1.00  0.00     0.173 A 
ATOM     82  F   UNL A   1      40.165  34.116  35.757  1.00  0.00    -0.203 F 
ATOM     83  C   UNL A   1      38.986  34.071  37.793  1.00  0.00     0.198 A 
ATOM     84  C   UNL A   1      37.694  32.140  38.393  1.00  0.00     0.198 A 
ATOM     85  F   UNL A   1      37.642  30.269  36.970  1.00  0.00    -0.203 F 
ATOM     86  F   UNL A   1      39.457  35.290  38.091  1.00  0.00    -0.200 F 
ATOM     87  C   UNL A   1      38.152  33.415  38.687  1.00  0.00     0.200 A 
ATOM     88  F   UNL A   1      36.881  31.507  39.249  1.00  0.00    -0.200 F 
ATOM     89  F   UNL A   1      37.798  34.007  39.835  1.00  0.00    -0.200 F 
ENDBRANCH  65  79
BRANCH  66  90
ATOM     90  C   UNL A   1      41.861  27.238  28.032  1.00  0.00     0.064 A 
ATOM     91  C   UNL A   1      42.709  27.815  27.076  1.00  0.00     0.173 A 
ATOM     92  C   UNL A   1      41.405  25.933  27.790  1.00  0.00     0.173 A 
ATOM     93  F   UNL A   1      43.160  29.066  27.249  1.00  0.00    -0.203 F 
ATOM     94  C   UNL A   1      43.067  27.125  25.918  1.00  0.00     0.198 A 
ATOM     95  C   UNL A   1      41.789  25.232  26.649  1.00  0.00     0.198 A 
ATOM     96  F   UNL A   1      40.594  25.329  28.671  1.00  0.00    -0.203 F 
ATOM     97  F   UNL A   1      43.839  27.720  24.998  1.00  0.00    -0.200 F 
ATOM     98  C   UNL A   1      42.611  25.832  25.709  1.00  0.00     0.200 A 
ATOM     99  F   UNL A   1      41.364  23.975  26.463  1.00  0.00    -0.200 F 
ATOM    100  F   UNL A   1      42.961  25.167  24.599  1.00  0.00    -0.200 F 
ENDBRANCH  66  90
BRANCH  78 101
ATOM    101  C   UNL A   1      36.592  31.581  29.481  1.00  0.00     0.064 A 
ATOM    102  C   UNL A   1      36.567  32.923  29.079  1.00  0.00     0.173 A 
ATOM    103  C   UNL A   1      35.560  30.740  29.035  1.00  0.00     0.173 A 
ATOM    104  F   UNL A   1      37.523  33.770  29.490  1.00  0.00    -0.203 F 
ATOM    105  C   UNL A   1      35.531  33.413  28.288  1.00  0.00     0.198 A 
ATOM    106  C   UNL A   1      34.547  31.224  28.212  1.00  0.00     0.198 A 
ATOM    107  F   UNL A   1      35.543  29.445  29.382  1.00  0.00    -0.203 F 
ATOM    108  F   UNL A   1      35.496  34.712  27.964  1.00  0.00    -0.200 F 
ATOM    109  C   UNL A   1      34.528  32.561  27.849  1.00  0.00     0.200 A 
ATOM    110  F   UNL A   1      33.590  30.395  27.772  1.00  0.00    -0.200 F 
ATOM    111  F   UNL A   1      33.537  33.033  27.079  1.00  0.00    -0.200 F 
ENDBRANCH  78 101
ENDBRANCH  52  53
ENDBRANCH  45  47
ENDBRANCH  44  45
ENDBRANCH  43  44
ENDBRANCH  42  43
ENDBRANCH  41  42
ENDBRANCH  40  41
ENDBRANCH  39  40
ENDBRANCH  38  39
ENDBRANCH   1  38
TORSDOF 26
ENDMDL
MODEL 2
REMARK VINA RESULT:      -8.5      8.643     14.899
REMARK SMILES O=C(COc1ccc(Cl)c2ccccc12)N[C@@H](Cc1c[nH]c2ccccc12)C(=O)OCCOCCOCCOCCOC(=O)c1ccc(-c2c3nc(c(-c4c(F)c(F)c(F)c(F)c4F)c4ccc([nH]4)c(-c4c(F)c(F)c(F)c(F)c4F)c4nc(c(-c5c(F)c(F)c(F)c(F)c5F)c5ccc2[nH]5)C=C4)C=C3)cc1
REMARK SMILES IDX 35 1 34 2 33 3 32 4 31 5 30 6 28 7 29 8 17 9 16 10 1 11 2 12
REMARK SMILES IDX 3 14 4 15 5 16 6 17 15 18 7 19 10 20 14 21 8 22 11 23 13 24
REMARK SMILES IDX 9 25 12 26 18 27 19 28 20 29 27 30 21 31 22 32 26 33 23 35
REMARK SMILES IDX 25 36 24 37 36 38 37 39 38 40 39 41 40 42 41 43 42 44 43 45
REMARK SMILES IDX 44 46 45 47 46 48 107 49 47 50 106 51 48 52 49 53 50 54
REMARK SMILES IDX 100 55 51 56 105 57 99 58 101 59 52 60 104 61 98 62 97 63
REMARK SMILES IDX 53 65 85 66 65 67 84 68 66 69 69 70 83 71 102 72 67 73 68 74
REMARK SMILES IDX 82 76 103 77 70 78 54 79 55 80 63 81 56 82 57 83 61 84 64 85
REMARK SMILES IDX 58 86 59 87 62 88 60 89 86 90 87 91 95 92 88 93 89 94 93 95
REMARK SMILES IDX 96 96 90 97 91 98 94 99 92 100 71 101 72 102 80 103 73 104
REMARK SMILES IDX 74 105 78 106 81 107 75 108 76 109 79 110 77 111
REMARK H PARENT 16 13 21 34 101 64 69 75
REMARK Flexibility Score: inf
ROOT
ATOM      1  C   UNL A   1      39.280  27.775  28.924  1.00  0.00     0.188 C 
ENDROOT
BRANCH   1   2
ATOM      2  C   UNL A   1      39.487  27.503  30.428  1.00  0.00     0.188 C 
BRANCH   2   3
ATOM      3  O   UNL A   1      38.397  27.534  31.336  1.00  0.00    -0.376 OA
BRANCH   3   4
ATOM      4  C   UNL A   1      38.083  28.707  32.065  1.00  0.00     0.202 C 
BRANCH   4   5
ATOM      5  C   UNL A   1      36.874  29.592  31.720  1.00  0.00     0.261 C 
BRANCH   5   6
ATOM      6  O   UNL A   1      36.635  29.838  30.329  1.00  0.00    -0.462 OA
BRANCH   6   7
ATOM      7  C   UNL A   1      37.337  30.847  29.764  1.00  0.00     0.329 C 
ATOM      8  O   UNL A   1      38.435  31.227  30.158  1.00  0.00    -0.250 OA
BRANCH   7   9
ATOM      9  C   UNL A   1      36.519  31.590  28.690  1.00  0.00     0.196 C 
BRANCH   9  10
ATOM     10  N   UNL A   1      35.075  31.268  28.498  1.00  0.00    -0.339 N 
ATOM     11  O   UNL A   1      35.448  29.731  26.855  1.00  0.00    -0.271 OA
ATOM     12  C   UNL A   1      34.647  30.356  27.552  1.00  0.00     0.258 C 
ATOM     13  H   UNL A   1      34.407  31.720  29.062  1.00  0.00     0.164 HD
BRANCH  12  14
ATOM     14  C   UNL A   1      33.112  30.171  27.340  1.00  0.00     0.329 C 
BRANCH  14  15
ATOM     15  O   UNL A   1      32.533  29.868  26.076  1.00  0.00    -0.483 OA
BRANCH  15  16
ATOM     16  C   UNL A   1      32.212  28.554  25.791  1.00  0.00     0.128 A 
ATOM     17  C   UNL A   1      32.723  27.503  26.554  1.00  0.00     0.048 A 
ATOM     18  C   UNL A   1      31.172  28.304  24.841  1.00  0.00     0.025 A 
ATOM     19  C   UNL A   1      32.185  26.223  26.444  1.00  0.00     0.025 A 
ATOM     20  C   UNL A   1      30.609  26.995  24.741  1.00  0.00     0.004 A 
ATOM     21  C   UNL A   1      30.623  29.317  24.020  1.00  0.00     0.012 A 
ATOM     22  C   UNL A   1      31.130  25.973  25.567  1.00  0.00     0.049 A 
ATOM     23  C   UNL A   1      29.495  26.790  23.886  1.00  0.00     0.010 A 
ATOM     24  C   UNL A   1      29.535  29.080  23.172  1.00  0.00     0.001 A 
ATOM     25  Cl  UNL A   1      30.432  24.387  25.636  1.00  0.00    -0.084 Cl
ATOM     26  C   UNL A   1      28.956  27.822  23.121  1.00  0.00     0.001 A 
ENDBRANCH  15  16
ENDBRANCH  14  15
ENDBRANCH  12  14
ENDBRANCH   9  10
BRANCH   9  27
ATOM     27  C   UNL A   1      36.727  33.088  28.982  1.00  0.00     0.074 C 
BRANCH  27  28
ATOM     28  C   UNL A   1      35.772  33.630  30.010  1.00  0.00    -0.020 A 
ATOM     29  C   UNL A   1      35.693  33.275  31.344  1.00  0.00     0.087 A 
ATOM     30  C   UNL A   1      34.758  34.611  29.788  1.00  0.00     0.003 A 
ATOM     31  N   UNL A   1      34.630  33.929  31.903  1.00  0.00    -0.361 N 
ATOM     32  C   UNL A   1      34.056  34.770  30.982  1.00  0.00     0.046 A 
ATOM     33  C   UNL A   1      34.374  35.377  28.670  1.00  0.00     0.010 A 
ATOM     34  H   UNL A   1      34.321  33.814  32.831  1.00  0.00     0.166 HD
ATOM     35  C   UNL A   1      32.981  35.656  31.114  1.00  0.00     0.026 A 
ATOM     36  C   UNL A   1      33.316  36.283  28.791  1.00  0.00     0.001 A 
ATOM     37  C   UNL A   1      32.631  36.416  29.996  1.00  0.00     0.002 A 
ENDBRANCH  27  28
ENDBRANCH   9  27
ENDBRANCH   7   9
ENDBRANCH   6   7
ENDBRANCH   5   6
ENDBRANCH   4   5
ENDBRANCH   3   4
ENDBRANCH   2   3
ENDBRANCH   1   2
BRANCH   1  38
ATOM     38  O   UNL A   1      39.931  26.864  28.046  1.00  0.00    -0.377 OA
BRANCH  38  39
ATOM     39  C   UNL A   1      41.017  26.163  28.631  1.00  0.00     0.188 C 
BRANCH  39  40
ATOM     40  C   UNL A   1      41.175  24.711  28.133  1.00  0.00     0.188 C 
BRANCH  40  41
ATOM     41  O   UNL A   1      42.269  24.027  28.718  1.00  0.00    -0.376 OA
BRANCH  41  42
ATOM     42  C   UNL A   1      43.451  23.793  27.972  1.00  0.00     0.202 C 
BRANCH  42  43
ATOM     43  C   UNL A   1      43.538  24.202  26.498  1.00  0.00     0.261 C 
BRANCH  43  44
ATOM     44  O   UNL A   1      43.960  25.529  26.210  1.00  0.00    -0.460 OA
BRANCH  44  45
ATOM     45  C   UNL A   1      43.092  26.360  25.626  1.00  0.00     0.338 C 
ATOM     46  O   UNL A   1      42.163  26.081  24.884  1.00  0.00    -0.246 OA
BRANCH  45  47
ATOM     47  C   UNL A   1      43.344  27.675  26.231  1.00  0.00     0.060 A 
ATOM     48  C   UNL A   1      44.430  27.789  27.105  1.00  0.00     0.016 A 
ATOM     49  C   UNL A   1      42.554  28.785  25.911  1.00  0.00     0.016 A 
ATOM     50  C   UNL A   1      44.696  29.005  27.714  1.00  0.00     0.010 A 
ATOM     51  C   UNL A   1      42.803  30.001  26.549  1.00  0.00     0.010 A 
ATOM     52  C   UNL A   1      43.844  30.094  27.488  1.00  0.00    -0.014 A 
BRANCH  52  53
ATOM     53  C   UNL A   1      43.906  31.217  28.445  1.00  0.00     0.031 A 
ATOM     54  C   UNL A   1      44.831  32.354  28.119  1.00  0.00     0.074 A 
ATOM     55  C   UNL A   1      43.076  31.267  29.499  1.00  0.00     0.049 A 
ATOM     56  N   UNL A   1      45.038  33.472  28.764  1.00  0.00    -0.248 NA
ATOM     57  C   UNL A   1      45.627  32.217  26.886  1.00  0.00     0.031 C 
ATOM     58  C   UNL A   1      42.094  30.243  29.847  1.00  0.00     0.029 A 
ATOM     59  N   UNL A   1      42.919  32.230  30.460  1.00  0.00    -0.354 N 
ATOM     60  C   UNL A   1      45.984  34.164  28.019  1.00  0.00     0.074 A 
ATOM     61  C   UNL A   1      46.339  33.333  26.892  1.00  0.00     0.031 C 
ATOM     62  C   UNL A   1      41.435  30.633  30.951  1.00  0.00     0.029 A 
ATOM     63  C   UNL A   1      41.976  31.912  31.404  1.00  0.00     0.049 A 
ATOM     64  H   UNL A   1      43.435  33.069  30.473  1.00  0.00     0.167 HD
ATOM     65  C   UNL A   1      46.502  35.391  28.256  1.00  0.00     0.037 A 
ATOM     66  C   UNL A   1      41.616  32.580  32.516  1.00  0.00     0.037 A 
ATOM     67  C   UNL A   1      46.137  36.199  29.387  1.00  0.00     0.049 A 
ATOM     68  C   UNL A   1      42.276  33.905  32.806  1.00  0.00     0.074 A 
ATOM     69  C   UNL A   1      46.599  37.454  29.738  1.00  0.00     0.029 A 
ATOM     70  N   UNL A   1      45.222  35.819  30.359  1.00  0.00    -0.354 N 
ATOM     71  N   UNL A   1      43.167  34.559  32.099  1.00  0.00    -0.248 NA
ATOM     72  C   UNL A   1      41.876  34.586  34.044  1.00  0.00     0.031 C 
ATOM     73  C   UNL A   1      46.010  37.805  30.957  1.00  0.00     0.029 A 
ATOM     74  C   UNL A   1      45.128  36.802  31.330  1.00  0.00     0.049 A 
ATOM     75  H   UNL A   1      44.716  34.975  30.360  1.00  0.00     0.167 HD
ATOM     76  C   UNL A   1      43.414  35.738  32.788  1.00  0.00     0.074 A 
ATOM     77  C   UNL A   1      42.563  35.717  33.961  1.00  0.00     0.031 C 
ATOM     78  C   UNL A   1      44.265  36.751  32.483  1.00  0.00     0.037 A 
BRANCH  65  79
ATOM     79  C   UNL A   1      47.546  35.902  27.303  1.00  0.00     0.064 A 
ATOM     80  C   UNL A   1      47.271  36.909  26.366  1.00  0.00     0.173 A 
ATOM     81  C   UNL A   1      48.848  35.380  27.338  1.00  0.00     0.173 A 
ATOM     82  F   UNL A   1      46.037  37.428  26.274  1.00  0.00    -0.203 F 
ATOM     83  C   UNL A   1      48.252  37.355  25.484  1.00  0.00     0.198 A 
ATOM     84  C   UNL A   1      49.835  35.851  26.477  1.00  0.00     0.198 A 
ATOM     85  F   UNL A   1      49.165  34.412  28.211  1.00  0.00    -0.203 F 
ATOM     86  F   UNL A   1      47.951  38.279  24.561  1.00  0.00    -0.200 F 
ATOM     87  C   UNL A   1      49.535  36.832  25.546  1.00  0.00     0.200 A 
ATOM     88  F   UNL A   1      51.076  35.351  26.547  1.00  0.00    -0.200 F 
ATOM     89  F   UNL A   1      50.480  37.267  24.701  1.00  0.00    -0.200 F 
ENDBRANCH  65  79
BRANCH  66  90
ATOM     90  C   UNL A   1      40.607  31.999  33.442  1.00  0.00     0.064 A 
ATOM     91  C   UNL A   1      39.260  32.384  33.392  1.00  0.00     0.173 A 
ATOM     92  C   UNL A   1      40.975  31.052  34.411  1.00  0.00     0.173 A 
ATOM     93  F   UNL A   1      38.858  33.299  32.498  1.00  0.00    -0.203 F 
ATOM     94  C   UNL A   1      38.326  31.861  34.286  1.00  0.00     0.198 A 
ATOM     95  C   UNL A   1      40.035  30.505  35.281  1.00  0.00     0.198 A 
ATOM     96  F   UNL A   1      42.249  30.644  34.502  1.00  0.00    -0.203 F 
ATOM     97  F   UNL A   1      37.055  32.284  34.247  1.00  0.00    -0.200 F 
ATOM     98  C   UNL A   1      38.714  30.918  35.226  1.00  0.00     0.200 A 
ATOM     99  F   UNL A   1      40.411  29.577  36.172  1.00  0.00    -0.200 F 
ATOM    100  F   UNL A   1      37.814  30.410  36.080  1.00  0.00    -0.200 F 
ENDBRANCH  66  90
BRANCH  78 101
ATOM    101  C   UNL A   1      44.284  37.932  33.410  1.00  0.00     0.064 A 
ATOM    102  C   UNL A   1      43.640  39.135  33.089  1.00  0.00     0.173 A 
ATOM    103  C   UNL A   1      44.921  37.839  34.658  1.00  0.00     0.173 A 
ATOM    104  F   UNL A   1      43.028  39.279  31.903  1.00  0.00    -0.203 F 
ATOM    105  C   UNL A   1      43.661  40.214  33.968  1.00  0.00     0.198 A 
ATOM    106  C   UNL A   1      44.905  38.906  35.551  1.00  0.00     0.198 A 
ATOM    107  F   UNL A   1      45.541  36.706  35.019  1.00  0.00    -0.203 F 
ATOM    108  F   UNL A   1      43.088  41.373  33.616  1.00  0.00    -0.200 F 
ATOM    109  C   UNL A   1      44.285  40.095  35.202  1.00  0.00     0.200 A 
ATOM    110  F   UNL A   1      45.492  38.782  36.750  1.00  0.00    -0.200 F 
ATOM    111  F   UNL A   1      44.295  41.132  36.051  1.00  0.00    -0.200 F 
ENDBRANCH  78 101
ENDBRANCH  52  53
ENDBRANCH  45  47
ENDBRANCH  44  45
ENDBRANCH  43  44
ENDBRANCH  42  43
ENDBRANCH  41  42
ENDBRANCH  40  41
ENDBRANCH  39  40
ENDBRANCH  38  39
ENDBRANCH   1  38
TORSDOF 26
ENDMDL
MODEL 3
REMARK VINA RESULT:      -8.3      9.450     16.602
REMARK SMILES O=C(COc1ccc(Cl)c2ccccc12)N[C@@H](Cc1c[nH]c2ccccc12)C(=O)OCCOCCOCCOCCOC(=O)c1ccc(-c2c3nc(c(-c4c(F)c(F)c(F)c(F)c4F)c4ccc([nH]4)c(-c4c(F)c(F)c(F)c(F)c4F)c4nc(c(-c5c(F)c(F)c(F)c(F)c5F)c5ccc2[nH]5)C=C4)C=C3)cc1
REMARK SMILES IDX 35 1 34 2 33 3 32 4 31 5 30 6 28 7 29 8 17 9 16 10 1 11 2 12
REMARK SMILES IDX 3 14 4 15 5 16 6 17 15 18 7 19 10 20 14 21 8 22 11 23 13 24
REMARK SMILES IDX 9 25 12 26 18 27 19 28 20 29 27 30 21 31 22 32 26 33 23 35
REMARK SMILES IDX 25 36 24 37 36 38 37 39 38 40 39 41 40 42 41 43 42 44 43 45
REMARK SMILES IDX 44 46 45 47 46 48 107 49 47 50 106 51 48 52 49 53 50 54
REMARK SMILES IDX 100 55 51 56 105 57 99 58 101 59 52 60 104 61 98 62 97 63
REMARK SMILES IDX 53 65 85 66 65 67 84 68 66 69 69 70 83 71 102 72 67 73 68 74
REMARK SMILES IDX 82 76 103 77 70 78 54 79 55 80 63 81 56 82 57 83 61 84 64 85
REMARK SMILES IDX 58 86 59 87 62 88 60 89 86 90 87 91 95 92 88 93 89 94 93 95
REMARK SMILES IDX 96 96 90 97 91 98 94 99 92 100 71 101 72 102 80 103 73 104
REMARK SMILES IDX 74 105 78 106 81 107 75 108 76 109 79 110 77 111
REMARK H PARENT 16 13 21 34 101 64 69 75
REMARK Flexibility Score: inf
ROOT
ATOM      1  C   UNL A   1      39.696  28.732  27.910  1.00  0.00     0.188 C 
ENDROOT
BRANCH   1   2
ATOM      2  C   UNL A   1      39.340  27.979  29.208  1.00  0.00     0.188 C 
BRANCH   2   3
ATOM      3  O   UNL A   1      39.303  28.649  30.459  1.00  0.00    -0.376 OA
BRANCH   3   4
ATOM      4  C   UNL A   1      39.819  29.959  30.605  1.00  0.00     0.202 C 
BRANCH   4   5
ATOM      5  C   UNL A   1      39.077  31.055  31.387  1.00  0.00     0.261 C 
BRANCH   5   6
ATOM      6  O   UNL A   1      37.672  31.180  31.141  1.00  0.00    -0.462 OA
BRANCH   6   7
ATOM      7  C   UNL A   1      37.267  32.301  30.501  1.00  0.00     0.329 C 
ATOM      8  O   UNL A   1      37.840  33.383  30.579  1.00  0.00    -0.250 OA
BRANCH   7   9
ATOM      9  C   UNL A   1      35.899  32.115  29.818  1.00  0.00     0.196 C 
BRANCH   9  10
ATOM     10  N   UNL A   1      35.537  30.798  29.219  1.00  0.00    -0.339 N 
ATOM     11  O   UNL A   1      34.800  31.688  27.253  1.00  0.00    -0.271 OA
ATOM     12  C   UNL A   1      34.980  30.693  27.959  1.00  0.00     0.258 C 
ATOM     13  H   UNL A   1      35.701  29.977  29.738  1.00  0.00     0.164 HD
BRANCH  12  14
ATOM     14  C   UNL A   1      34.525  29.285  27.462  1.00  0.00     0.329 C 
BRANCH  14  15
ATOM     15  O   UNL A   1      34.361  28.963  26.085  1.00  0.00    -0.483 OA
BRANCH  15  16
ATOM     16  C   UNL A   1      33.094  28.666  25.620  1.00  0.00     0.128 A 
ATOM     17  C   UNL A   1      32.220  29.673  25.211  1.00  0.00     0.048 A 
ATOM     18  C   UNL A   1      32.776  27.296  25.355  1.00  0.00     0.025 A 
ATOM     19  C   UNL A   1      31.070  29.362  24.490  1.00  0.00     0.025 A 
ATOM     20  C   UNL A   1      31.605  26.978  24.601  1.00  0.00     0.004 A 
ATOM     21  C   UNL A   1      33.606  26.224  25.760  1.00  0.00     0.012 A 
ATOM     22  C   UNL A   1      30.773  28.037  24.170  1.00  0.00     0.049 A 
ATOM     23  C   UNL A   1      31.368  25.627  24.239  1.00  0.00     0.010 A 
ATOM     24  C   UNL A   1      33.336  24.898  25.402  1.00  0.00     0.001 A 
ATOM     25  Cl  UNL A   1      29.409  27.783  23.130  1.00  0.00    -0.084 Cl
ATOM     26  C   UNL A   1      32.229  24.601  24.623  1.00  0.00     0.001 A 
ENDBRANCH  15  16
ENDBRANCH  14  15
ENDBRANCH  12  14
ENDBRANCH   9  10
BRANCH   9  27
ATOM     27  C   UNL A   1      34.857  32.563  30.861  1.00  0.00     0.074 C 
BRANCH  27  28
ATOM     28  C   UNL A   1      34.211  33.879  30.526  1.00  0.00    -0.020 A 
ATOM     29  C   UNL A   1      33.599  34.230  29.337  1.00  0.00     0.087 A 
ATOM     30  C   UNL A   1      34.122  35.020  31.382  1.00  0.00     0.003 A 
ATOM     31  N   UNL A   1      33.230  35.545  29.411  1.00  0.00    -0.361 N 
ATOM     32  C   UNL A   1      33.515  36.045  30.658  1.00  0.00     0.046 A 
ATOM     33  C   UNL A   1      34.511  35.269  32.713  1.00  0.00     0.010 A 
ATOM     34  H   UNL A   1      32.819  36.058  28.678  1.00  0.00     0.166 HD
ATOM     35  C   UNL A   1      33.280  37.314  31.197  1.00  0.00     0.026 A 
ATOM     36  C   UNL A   1      34.263  36.525  33.274  1.00  0.00     0.001 A 
ATOM     37  C   UNL A   1      33.659  37.531  32.524  1.00  0.00     0.002 A 
ENDBRANCH  27  28
ENDBRANCH   9  27
ENDBRANCH   7   9
ENDBRANCH   6   7
ENDBRANCH   5   6
ENDBRANCH   4   5
ENDBRANCH   3   4
ENDBRANCH   2   3
ENDBRANCH   1   2
BRANCH   1  38
ATOM     38  O   UNL A   1      40.343  27.952  26.912  1.00  0.00    -0.377 OA
BRANCH  38  39
ATOM     39  C   UNL A   1      40.892  26.733  27.387  1.00  0.00     0.188 C 
BRANCH  39  40
ATOM     40  C   UNL A   1      41.393  25.788  26.274  1.00  0.00     0.188 C 
BRANCH  40  41
ATOM     41  O   UNL A   1      40.971  24.446  26.438  1.00  0.00    -0.376 OA
BRANCH  41  42
ATOM     42  C   UNL A   1      41.922  23.411  26.621  1.00  0.00     0.202 C 
BRANCH  42  43
ATOM     43  C   UNL A   1      42.638  22.788  25.418  1.00  0.00     0.261 C 
BRANCH  43  44
ATOM     44  O   UNL A   1      43.931  23.284  25.096  1.00  0.00    -0.460 OA
BRANCH  44  45
ATOM     45  C   UNL A   1      44.898  23.184  26.012  1.00  0.00     0.338 C 
ATOM     46  O   UNL A   1      45.443  22.173  26.427  1.00  0.00    -0.246 OA
BRANCH  45  47
ATOM     47  C   UNL A   1      45.336  24.563  26.269  1.00  0.00     0.060 A 
ATOM     48  C   UNL A   1      45.172  25.498  25.242  1.00  0.00     0.016 A 
ATOM     49  C   UNL A   1      45.855  24.940  27.513  1.00  0.00     0.016 A 
ATOM     50  C   UNL A   1      45.586  26.806  25.431  1.00  0.00     0.010 A 
ATOM     51  C   UNL A   1      46.300  26.251  27.693  1.00  0.00     0.010 A 
ATOM     52  C   UNL A   1      46.211  27.168  26.632  1.00  0.00    -0.014 A 
BRANCH  52  53
ATOM     53  C   UNL A   1      46.993  28.420  26.642  1.00  0.00     0.031 A 
ATOM     54  C   UNL A   1      48.461  28.323  26.340  1.00  0.00     0.074 A 
ATOM     55  C   UNL A   1      46.386  29.607  26.795  1.00  0.00     0.049 A 
ATOM     56  N   UNL A   1      49.358  29.269  26.242  1.00  0.00    -0.248 NA
ATOM     57  C   UNL A   1      48.992  26.968  26.104  1.00  0.00     0.031 C 
ATOM     58  C   UNL A   1      44.955  29.799  27.017  1.00  0.00     0.029 A 
ATOM     59  N   UNL A   1      46.900  30.877  26.772  1.00  0.00    -0.354 N 
ATOM     60  C   UNL A   1      50.550  28.625  25.938  1.00  0.00     0.074 A 
ATOM     61  C   UNL A   1      50.277  27.207  25.898  1.00  0.00     0.031 C 
ATOM     62  C   UNL A   1      44.703  31.116  27.112  1.00  0.00     0.029 A 
ATOM     63  C   UNL A   1      45.960  31.852  26.995  1.00  0.00     0.049 A 
ATOM     64  H   UNL A   1      47.852  31.071  26.611  1.00  0.00     0.167 HD
ATOM     65  C   UNL A   1      51.763  29.175  25.704  1.00  0.00     0.037 A 
ATOM     66  C   UNL A   1      46.116  33.183  27.112  1.00  0.00     0.037 A 
ATOM     67  C   UNL A   1      52.012  30.591  25.753  1.00  0.00     0.049 A 
ATOM     68  C   UNL A   1      47.497  33.764  26.938  1.00  0.00     0.074 A 
ATOM     69  C   UNL A   1      53.200  31.267  25.542  1.00  0.00     0.029 A 
ATOM     70  N   UNL A   1      51.049  31.546  26.044  1.00  0.00    -0.354 N 
ATOM     71  N   UNL A   1      48.622  33.155  26.646  1.00  0.00    -0.248 NA
ATOM     72  C   UNL A   1      47.629  35.217  27.103  1.00  0.00     0.031 C 
ATOM     73  C   UNL A   1      52.967  32.627  25.769  1.00  0.00     0.029 A 
ATOM     74  C   UNL A   1      51.621  32.807  26.050  1.00  0.00     0.049 A 
ATOM     75  H   UNL A   1      50.099  31.357  26.220  1.00  0.00     0.167 HD
ATOM     76  C   UNL A   1      49.588  34.148  26.565  1.00  0.00     0.074 A 
ATOM     77  C   UNL A   1      48.911  35.404  26.820  1.00  0.00     0.031 C 
ATOM     78  C   UNL A   1      50.915  34.039  26.302  1.00  0.00     0.037 A 
BRANCH  65  79
ATOM     79  C   UNL A   1      52.908  28.244  25.426  1.00  0.00     0.064 A 
ATOM     80  C   UNL A   1      53.665  27.663  26.455  1.00  0.00     0.173 A 
ATOM     81  C   UNL A   1      53.246  27.919  24.103  1.00  0.00     0.173 A 
ATOM     82  F   UNL A   1      53.399  27.957  27.737  1.00  0.00    -0.203 F 
ATOM     83  C   UNL A   1      54.732  26.814  26.170  1.00  0.00     0.198 A 
ATOM     84  C   UNL A   1      54.293  27.044  23.822  1.00  0.00     0.198 A 
ATOM     85  F   UNL A   1      52.560  28.449  23.080  1.00  0.00    -0.203 F 
ATOM     86  F   UNL A   1      55.474  26.315  27.168  1.00  0.00    -0.200 F 
ATOM     87  C   UNL A   1      55.039  26.499  24.855  1.00  0.00     0.200 A 
ATOM     88  F   UNL A   1      54.580  26.734  22.551  1.00  0.00    -0.200 F 
ATOM     89  F   UNL A   1      56.062  25.677  24.582  1.00  0.00    -0.200 F 
ENDBRANCH  65  79
BRANCH  66  90
ATOM     90  C   UNL A   1      44.948  34.047  27.432  1.00  0.00     0.064 A 
ATOM     91  C   UNL A   1      44.631  34.390  28.754  1.00  0.00     0.173 A 
ATOM     92  C   UNL A   1      44.112  34.537  26.417  1.00  0.00     0.173 A 
ATOM     93  F   UNL A   1      45.386  33.933  29.763  1.00  0.00    -0.203 F 
ATOM     94  C   UNL A   1      43.514  35.171  29.049  1.00  0.00     0.198 A 
ATOM     95  C   UNL A   1      43.016  35.345  26.710  1.00  0.00     0.198 A 
ATOM     96  F   UNL A   1      44.369  34.244  25.134  1.00  0.00    -0.203 F 
ATOM     97  F   UNL A   1      43.208  35.443  30.325  1.00  0.00    -0.200 F 
ATOM     98  C   UNL A   1      42.711  35.652  28.026  1.00  0.00     0.200 A 
ATOM     99  F   UNL A   1      42.257  35.826  25.716  1.00  0.00    -0.200 F 
ATOM    100  F   UNL A   1      41.642  36.409  28.309  1.00  0.00    -0.200 F 
ENDBRANCH  66  90
BRANCH  78 101
ATOM    101  C   UNL A   1      51.708  35.312  26.238  1.00  0.00     0.064 A 
ATOM    102  C   UNL A   1      51.931  35.985  25.028  1.00  0.00     0.173 A 
ATOM    103  C   UNL A   1      52.214  35.889  27.414  1.00  0.00     0.173 A 
ATOM    104  F   UNL A   1      51.479  35.468  23.875  1.00  0.00    -0.203 F 
ATOM    105  C   UNL A   1      52.659  37.170  24.993  1.00  0.00     0.198 A 
ATOM    106  C   UNL A   1      52.907  37.095  27.380  1.00  0.00     0.198 A 
ATOM    107  F   UNL A   1      52.018  35.292  28.599  1.00  0.00    -0.203 F 
ATOM    108  F   UNL A   1      52.909  37.765  23.819  1.00  0.00    -0.200 F 
ATOM    109  C   UNL A   1      53.139  37.728  26.169  1.00  0.00     0.200 A 
ATOM    110  F   UNL A   1      53.352  37.642  28.519  1.00  0.00    -0.200 F 
ATOM    111  F   UNL A   1      53.831  38.875  26.134  1.00  0.00    -0.200 F 
ENDBRANCH  78 101
ENDBRANCH  52  53
ENDBRANCH  45  47
ENDBRANCH  44  45
ENDBRANCH  43  44
ENDBRANCH  42  43
ENDBRANCH  41  42
ENDBRANCH  40  41
ENDBRANCH  39  40
ENDBRANCH  38  39
ENDBRANCH   1  38
TORSDOF 26
ENDMDL
