MODEL 1
REMARK VINA RESULT:      -9.5      0.000      0.000
REMARK SMILES CC(C)C[C@@H](NC(=O)Cn1nc(O)ccc1=O)C(=O)OCCOCCOCCOCCOC(=O)c1ccc(-c2c3nc(c(-c4c(F)c(F)c(F)c(F)c4F)c4ccc([nH]4)c(-c4c(F)c(F)c(F)c(F)c4F)c4nc(c(-c5c(F)c(F)c(F)c(F)c5F)c5ccc2[nH]5)C=C4)C=C3)cc1
REMARK SMILES IDX 25 1 24 2 23 3 22 4 21 5 20 6 18 7 19 8 5 9 4 10 2 11 1 12
REMARK SMILES IDX 3 13 6 14 7 15 8 17 9 18 10 19 11 20 16 21 12 22 15 23 17 24
REMARK SMILES IDX 14 25 13 26 26 28 27 29 28 30 29 31 30 32 31 33 32 34 33 35
REMARK SMILES IDX 34 36 35 37 36 38 97 39 37 40 96 41 38 42 39 43 40 44 90 45
REMARK SMILES IDX 41 46 95 47 89 48 91 49 42 50 94 51 88 52 87 53 43 55 75 56
REMARK SMILES IDX 55 57 74 58 56 59 59 60 73 61 92 62 57 63 58 64 72 66 93 67
REMARK SMILES IDX 60 68 44 69 45 70 53 71 46 72 47 73 51 74 54 75 48 76 49 77
REMARK SMILES IDX 52 78 50 79 76 80 77 81 85 82 78 83 79 84 83 85 86 86 80 87
REMARK SMILES IDX 81 88 84 89 82 90 61 91 62 92 70 93 63 94 64 95 68 96 71 97
REMARK SMILES IDX 65 98 66 99 69 100 67 101
REMARK H PARENT 6 16 13 27 91 54 59 65
REMARK Flexibility Score: inf
ROOT
ATOM      1  C   UNL A   1      34.784  30.294  27.627  1.00  0.00     0.188 C 
ENDROOT
BRANCH   1   2
ATOM      2  C   UNL A   1      33.592  30.055  26.685  1.00  0.00     0.188 C 
BRANCH   2   3
ATOM      3  O   UNL A   1      33.471  28.854  25.933  1.00  0.00    -0.376 OA
BRANCH   3   4
ATOM      4  C   UNL A   1      33.411  28.889  24.517  1.00  0.00     0.202 C 
BRANCH   4   5
ATOM      5  C   UNL A   1      33.970  27.703  23.712  1.00  0.00     0.261 C 
BRANCH   5   6
ATOM      6  O   UNL A   1      33.089  27.193  22.685  1.00  0.00    -0.462 OA
BRANCH   6   7
ATOM      7  C   UNL A   1      32.820  25.873  22.635  1.00  0.00     0.328 C 
ATOM      8  O   UNL A   1      33.499  25.061  22.017  1.00  0.00    -0.250 OA
BRANCH   7   9
ATOM      9  C   UNL A   1      31.630  25.447  23.540  1.00  0.00     0.192 C 
BRANCH   9  10
ATOM     10  C   UNL A   1      30.263  25.930  22.993  1.00  0.00     0.040 C 
BRANCH  10  11
ATOM     11  C   UNL A   1      29.561  27.080  23.748  1.00  0.00    -0.015 C 
ATOM     12  C   UNL A   1      29.725  28.413  23.017  1.00  0.00     0.007 C 
ATOM     13  C   UNL A   1      28.057  26.779  23.877  1.00  0.00     0.007 C 
ENDBRANCH  10  11
ENDBRANCH   9  10
BRANCH   9  14
ATOM     14  N   UNL A   1      31.557  24.088  24.128  1.00  0.00    -0.341 N 
ATOM     15  C   UNL A   1      32.337  23.218  24.815  1.00  0.00     0.242 C 
ATOM     16  H   UNL A   1      30.667  23.697  23.971  1.00  0.00     0.164 HD
ATOM     17  O   UNL A   1      31.937  22.044  24.786  1.00  0.00    -0.273 OA
BRANCH  15  18
ATOM     18  C   UNL A   1      33.583  23.556  25.634  1.00  0.00     0.248 C 
BRANCH  18  19
ATOM     19  N   UNL A   1      34.830  22.961  25.170  1.00  0.00    -0.217 N 
ATOM     20  N   UNL A   1      35.374  23.404  23.983  1.00  0.00    -0.131 NA
ATOM     21  C   UNL A   1      35.345  21.895  25.868  1.00  0.00     0.267 A 
ATOM     22  C   UNL A   1      36.430  22.777  23.604  1.00  0.00     0.229 A 
ATOM     23  C   UNL A   1      36.572  21.251  25.379  1.00  0.00     0.079 A 
ATOM     24  O   UNL A   1      34.827  21.455  26.874  1.00  0.00    -0.268 OA
ATOM     25  C   UNL A   1      37.127  21.674  24.248  1.00  0.00     0.075 A 
BRANCH  22  26
ATOM     26  O   UNL A   1      37.029  23.124  22.467  1.00  0.00    -0.492 OA
ATOM     27  H   UNL A   1      37.254  24.020  22.312  1.00  0.00     0.295 HD
ENDBRANCH  22  26
ENDBRANCH  18  19
ENDBRANCH  15  18
ENDBRANCH   9  14
ENDBRANCH   7   9
ENDBRANCH   6   7
ENDBRANCH   5   6
ENDBRANCH   4   5
ENDBRANCH   3   4
ENDBRANCH   2   3
ENDBRANCH   1   2
BRANCH   1  28
ATOM     28  O   UNL A   1      35.249  31.552  28.092  1.00  0.00    -0.377 OA
BRANCH  28  29
ATOM     29  C   UNL A   1      34.641  32.170  29.202  1.00  0.00     0.188 C 
BRANCH  29  30
ATOM     30  C   UNL A   1      34.646  33.693  29.156  1.00  0.00     0.188 C 
BRANCH  30  31
ATOM     31  O   UNL A   1      33.340  34.243  29.089  1.00  0.00    -0.376 OA
BRANCH  31  32
ATOM     32  C   UNL A   1      33.242  35.651  28.918  1.00  0.00     0.202 C 
BRANCH  32  33
ATOM     33  C   UNL A   1      32.546  36.475  30.016  1.00  0.00     0.261 C 
BRANCH  33  34
ATOM     34  O   UNL A   1      32.088  35.793  31.199  1.00  0.00    -0.460 OA
BRANCH  34  35
ATOM     35  C   UNL A   1      32.638  36.088  32.394  1.00  0.00     0.338 C 
ATOM     36  O   UNL A   1      32.202  36.827  33.251  1.00  0.00    -0.246 OA
BRANCH  35  37
ATOM     37  C   UNL A   1      33.829  35.219  32.556  1.00  0.00     0.060 A 
ATOM     38  C   UNL A   1      35.110  35.705  32.281  1.00  0.00     0.016 A 
ATOM     39  C   UNL A   1      33.658  33.895  32.982  1.00  0.00     0.016 A 
ATOM     40  C   UNL A   1      36.221  34.871  32.456  1.00  0.00     0.010 A 
ATOM     41  C   UNL A   1      34.769  33.058  33.143  1.00  0.00     0.010 A 
ATOM     42  C   UNL A   1      36.063  33.546  32.906  1.00  0.00    -0.014 A 
BRANCH  42  43
ATOM     43  C   UNL A   1      37.254  32.763  33.331  1.00  0.00     0.031 A 
ATOM     44  C   UNL A   1      37.835  31.646  32.517  1.00  0.00     0.074 A 
ATOM     45  C   UNL A   1      37.821  33.082  34.512  1.00  0.00     0.049 A 
ATOM     46  N   UNL A   1      38.979  31.025  32.669  1.00  0.00    -0.248 NA
ATOM     47  C   UNL A   1      37.039  31.165  31.384  1.00  0.00     0.031 C 
ATOM     48  C   UNL A   1      37.321  34.107  35.426  1.00  0.00     0.029 A 
ATOM     49  N   UNL A   1      38.932  32.582  35.141  1.00  0.00    -0.354 N 
ATOM     50  C   UNL A   1      39.077  30.136  31.607  1.00  0.00     0.074 A 
ATOM     51  C   UNL A   1      37.848  30.256  30.850  1.00  0.00     0.031 C 
ATOM     52  C   UNL A   1      38.133  34.177  36.490  1.00  0.00     0.029 A 
ATOM     53  C   UNL A   1      39.197  33.188  36.343  1.00  0.00     0.049 A 
ATOM     54  H   UNL A   1      39.485  31.859  34.767  1.00  0.00     0.167 HD
ATOM     55  C   UNL A   1      40.101  29.302  31.296  1.00  0.00     0.037 A 
ATOM     56  C   UNL A   1      40.188  32.977  37.229  1.00  0.00     0.037 A 
ATOM     57  C   UNL A   1      41.263  29.095  32.123  1.00  0.00     0.049 A 
ATOM     58  C   UNL A   1      41.252  31.961  36.918  1.00  0.00     0.074 A 
ATOM     59  C   UNL A   1      42.345  28.262  31.895  1.00  0.00     0.029 A 
ATOM     60  N   UNL A   1      41.466  29.684  33.362  1.00  0.00    -0.354 N 
ATOM     61  N   UNL A   1      41.404  31.229  35.841  1.00  0.00    -0.248 NA
ATOM     62  C   UNL A   1      42.285  31.749  37.940  1.00  0.00     0.031 C 
ATOM     63  C   UNL A   1      43.157  28.282  33.032  1.00  0.00     0.029 A 
ATOM     64  C   UNL A   1      42.626  29.186  33.937  1.00  0.00     0.049 A 
ATOM     65  H   UNL A   1      40.876  30.355  33.772  1.00  0.00     0.167 HD
ATOM     66  C   UNL A   1      42.559  30.485  36.046  1.00  0.00     0.074 A 
ATOM     67  C   UNL A   1      43.078  30.871  37.342  1.00  0.00     0.031 C 
ATOM     68  C   UNL A   1      43.133  29.565  35.232  1.00  0.00     0.037 A 
BRANCH  55  69
ATOM     69  C   UNL A   1      40.017  28.534  30.009  1.00  0.00     0.064 A 
ATOM     70  C   UNL A   1      40.617  29.023  28.841  1.00  0.00     0.173 A 
ATOM     71  C   UNL A   1      39.428  27.262  29.956  1.00  0.00     0.173 A 
ATOM     72  F   UNL A   1      41.237  30.213  28.848  1.00  0.00    -0.203 F 
ATOM     73  C   UNL A   1      40.589  28.293  27.656  1.00  0.00     0.198 A 
ATOM     74  C   UNL A   1      39.441  26.513  28.780  1.00  0.00     0.198 A 
ATOM     75  F   UNL A   1      38.865  26.731  31.052  1.00  0.00    -0.203 F 
ATOM     76  F   UNL A   1      41.116  28.815  26.539  1.00  0.00    -0.200 F 
ATOM     77  C   UNL A   1      40.011  27.033  27.628  1.00  0.00     0.200 A 
ATOM     78  F   UNL A   1      38.905  25.285  28.765  1.00  0.00    -0.200 F 
ATOM     79  F   UNL A   1      40.007  26.319  26.494  1.00  0.00    -0.200 F 
ENDBRANCH  55  69
BRANCH  56  80
ATOM     80  C   UNL A   1      40.228  33.781  38.478  1.00  0.00     0.064 A 
ATOM     81  C   UNL A   1      39.486  33.399  39.603  1.00  0.00     0.173 A 
ATOM     82  C   UNL A   1      41.042  34.918  38.586  1.00  0.00     0.173 A 
ATOM     83  F   UNL A   1      38.680  32.328  39.542  1.00  0.00    -0.203 F 
ATOM     84  C   UNL A   1      39.554  34.126  40.789  1.00  0.00     0.198 A 
ATOM     85  C   UNL A   1      41.134  35.625  39.782  1.00  0.00     0.198 A 
ATOM     86  F   UNL A   1      41.776  35.321  37.539  1.00  0.00    -0.203 F 
ATOM     87  F   UNL A   1      38.813  33.756  41.842  1.00  0.00    -0.200 F 
ATOM     88  C   UNL A   1      40.386  35.231  40.882  1.00  0.00     0.200 A 
ATOM     89  F   UNL A   1      41.954  36.681  39.873  1.00  0.00    -0.200 F 
ATOM     90  F   UNL A   1      40.468  35.918  42.029  1.00  0.00    -0.200 F 
ENDBRANCH  56  80
BRANCH  68  91
ATOM     91  C   UNL A   1      44.392  28.899  35.709  1.00  0.00     0.064 A 
ATOM     92  C   UNL A   1      44.359  27.701  36.438  1.00  0.00     0.173 A 
ATOM     93  C   UNL A   1      45.650  29.423  35.367  1.00  0.00     0.173 A 
ATOM     94  F   UNL A   1      43.184  27.165  36.801  1.00  0.00    -0.203 F 
ATOM     95  C   UNL A   1      45.535  27.061  36.820  1.00  0.00     0.198 A 
ATOM     96  C   UNL A   1      46.823  28.762  35.720  1.00  0.00     0.198 A 
ATOM     97  F   UNL A   1      45.740  30.561  34.663  1.00  0.00    -0.203 F 
ATOM     98  F   UNL A   1      45.477  25.939  37.550  1.00  0.00    -0.200 F 
ATOM     99  C   UNL A   1      46.765  27.585  36.451  1.00  0.00     0.200 A 
ATOM    100  F   UNL A   1      48.010  29.259  35.346  1.00  0.00    -0.200 F 
ATOM    101  F   UNL A   1      47.895  26.957  36.802  1.00  0.00    -0.200 F 
ENDBRANCH  68  91
ENDBRANCH  42  43
ENDBRANCH  35  37
ENDBRANCH  34  35
ENDBRANCH  33  34
ENDBRANCH  32  33
ENDBRANCH  31  32
ENDBRANCH  30  31
ENDBRANCH  29  30
ENDBRANCH  28  29
ENDBRANCH   1  28
TORSDOF 26
ENDMDL
MODEL 2
REMARK VINA RESULT:      -9.5      1.810      3.906
REMARK SMILES CC(C)C[C@@H](NC(=O)Cn1nc(O)ccc1=O)C(=O)OCCOCCOCCOCCOC(=O)c1ccc(-c2c3nc(c(-c4c(F)c(F)c(F)c(F)c4F)c4ccc([nH]4)c(-c4c(F)c(F)c(F)c(F)c4F)c4nc(c(-c5c(F)c(F)c(F)c(F)c5F)c5ccc2[nH]5)C=C4)C=C3)cc1
REMARK SMILES IDX 25 1 24 2 23 3 22 4 21 5 20 6 18 7 19 8 5 9 4 10 2 11 1 12
REMARK SMILES IDX 3 13 6 14 7 15 8 17 9 18 10 19 11 20 16 21 12 22 15 23 17 24
REMARK SMILES IDX 14 25 13 26 26 28 27 29 28 30 29 31 30 32 31 33 32 34 33 35
REMARK SMILES IDX 34 36 35 37 36 38 97 39 37 40 96 41 38 42 39 43 40 44 90 45
REMARK SMILES IDX 41 46 95 47 89 48 91 49 42 50 94 51 88 52 87 53 43 55 75 56
REMARK SMILES IDX 55 57 74 58 56 59 59 60 73 61 92 62 57 63 58 64 72 66 93 67
REMARK SMILES IDX 60 68 44 69 45 70 53 71 46 72 47 73 51 74 54 75 48 76 49 77
REMARK SMILES IDX 52 78 50 79 76 80 77 81 85 82 78 83 79 84 83 85 86 86 80 87
REMARK SMILES IDX 81 88 84 89 82 90 61 91 62 92 70 93 63 94 64 95 68 96 71 97
REMARK SMILES IDX 65 98 66 99 69 100 67 101
REMARK H PARENT 6 16 13 27 91 54 59 65
REMARK Flexibility Score: inf
ROOT
ATOM      1  C   UNL A   1      34.327  30.650  27.703  1.00  0.00     0.188 C 
ENDROOT
BRANCH   1   2
ATOM      2  C   UNL A   1      33.156  30.700  26.708  1.00  0.00     0.188 C 
BRANCH   2   3
ATOM      3  O   UNL A   1      32.790  29.564  25.936  1.00  0.00    -0.376 OA
BRANCH   3   4
ATOM      4  C   UNL A   1      33.061  28.252  26.402  1.00  0.00     0.202 C 
BRANCH   4   5
ATOM      5  C   UNL A   1      31.887  27.319  26.744  1.00  0.00     0.261 C 
BRANCH   5   6
ATOM      6  O   UNL A   1      32.081  25.934  26.374  1.00  0.00    -0.462 OA
BRANCH   6   7
ATOM      7  C   UNL A   1      31.023  25.195  25.985  1.00  0.00     0.328 C 
ATOM      8  O   UNL A   1      30.343  24.520  26.750  1.00  0.00    -0.250 OA
BRANCH   7   9
ATOM      9  C   UNL A   1      30.660  25.372  24.484  1.00  0.00     0.192 C 
BRANCH   9  10
ATOM     10  C   UNL A   1      30.998  24.117  23.639  1.00  0.00     0.040 C 
BRANCH  10  11
ATOM     11  C   UNL A   1      32.337  23.404  23.926  1.00  0.00    -0.015 C 
ATOM     12  C   UNL A   1      32.117  21.957  24.369  1.00  0.00     0.007 C 
ATOM     13  C   UNL A   1      33.208  23.397  22.657  1.00  0.00     0.007 C 
ENDBRANCH  10  11
ENDBRANCH   9  10
BRANCH   9  14
ATOM     14  N   UNL A   1      29.390  26.010  24.067  1.00  0.00    -0.341 N 
ATOM     15  C   UNL A   1      28.951  27.164  23.507  1.00  0.00     0.242 C 
ATOM     16  H   UNL A   1      28.630  25.412  24.256  1.00  0.00     0.164 HD
ATOM     17  O   UNL A   1      27.741  27.382  23.674  1.00  0.00    -0.273 OA
BRANCH  15  18
ATOM     18  C   UNL A   1      29.772  28.148  22.675  1.00  0.00     0.248 C 
BRANCH  18  19
ATOM     19  N   UNL A   1      29.536  29.561  22.943  1.00  0.00    -0.217 N 
ATOM     20  N   UNL A   1      30.142  30.138  24.039  1.00  0.00    -0.131 NA
ATOM     21  C   UNL A   1      28.619  30.229  22.168  1.00  0.00     0.267 A 
ATOM     22  C   UNL A   1      29.822  31.364  24.253  1.00  0.00     0.229 A 
ATOM     23  C   UNL A   1      28.330  31.640  22.464  1.00  0.00     0.079 A 
ATOM     24  O   UNL A   1      28.028  29.703  21.247  1.00  0.00    -0.268 OA
ATOM     25  C   UNL A   1      28.918  32.223  23.504  1.00  0.00     0.075 A 
BRANCH  22  26
ATOM     26  O   UNL A   1      30.348  32.010  25.290  1.00  0.00    -0.492 OA
ATOM     27  H   UNL A   1      31.111  32.541  25.172  1.00  0.00     0.295 HD
ENDBRANCH  22  26
ENDBRANCH  18  19
ENDBRANCH  15  18
ENDBRANCH   9  14
ENDBRANCH   7   9
ENDBRANCH   6   7
ENDBRANCH   5   6
ENDBRANCH   4   5
ENDBRANCH   3   4
ENDBRANCH   2   3
ENDBRANCH   1   2
BRANCH   1  28
ATOM     28  O   UNL A   1      35.101  31.753  28.148  1.00  0.00    -0.377 OA
BRANCH  28  29
ATOM     29  C   UNL A   1      34.637  32.571  29.197  1.00  0.00     0.188 C 
BRANCH  29  30
ATOM     30  C   UNL A   1      34.743  34.067  28.924  1.00  0.00     0.188 C 
BRANCH  30  31
ATOM     31  O   UNL A   1      33.476  34.683  28.757  1.00  0.00    -0.376 OA
BRANCH  31  32
ATOM     32  C   UNL A   1      33.432  36.101  28.856  1.00  0.00     0.202 C 
BRANCH  32  33
ATOM     33  C   UNL A   1      32.606  36.730  29.992  1.00  0.00     0.261 C 
BRANCH  33  34
ATOM     34  O   UNL A   1      32.186  35.888  31.082  1.00  0.00    -0.460 OA
BRANCH  34  35
ATOM     35  C   UNL A   1      32.671  36.110  32.321  1.00  0.00     0.338 C 
ATOM     36  O   UNL A   1      32.187  36.794  33.197  1.00  0.00    -0.246 OA
BRANCH  35  37
ATOM     37  C   UNL A   1      33.856  35.233  32.492  1.00  0.00     0.060 A 
ATOM     38  C   UNL A   1      35.138  35.702  32.195  1.00  0.00     0.016 A 
ATOM     39  C   UNL A   1      33.677  33.921  32.950  1.00  0.00     0.016 A 
ATOM     40  C   UNL A   1      36.243  34.861  32.379  1.00  0.00     0.010 A 
ATOM     41  C   UNL A   1      34.781  33.078  33.121  1.00  0.00     0.010 A 
ATOM     42  C   UNL A   1      36.078  33.548  32.861  1.00  0.00    -0.014 A 
BRANCH  42  43
ATOM     43  C   UNL A   1      37.266  32.765  33.294  1.00  0.00     0.031 A 
ATOM     44  C   UNL A   1      37.846  31.643  32.486  1.00  0.00     0.074 A 
ATOM     45  C   UNL A   1      37.829  33.087  34.474  1.00  0.00     0.049 A 
ATOM     46  N   UNL A   1      38.988  31.020  32.644  1.00  0.00    -0.248 NA
ATOM     47  C   UNL A   1      37.053  31.158  31.352  1.00  0.00     0.031 C 
ATOM     48  C   UNL A   1      37.328  34.118  35.383  1.00  0.00     0.029 A 
ATOM     49  N   UNL A   1      38.937  32.588  35.110  1.00  0.00    -0.354 N 
ATOM     50  C   UNL A   1      39.088  30.126  31.587  1.00  0.00     0.074 A 
ATOM     51  C   UNL A   1      37.861  30.246  30.825  1.00  0.00     0.031 C 
ATOM     52  C   UNL A   1      38.137  34.190  36.449  1.00  0.00     0.029 A 
ATOM     53  C   UNL A   1      39.199  33.198  36.310  1.00  0.00     0.049 A 
ATOM     54  H   UNL A   1      39.490  31.862  34.740  1.00  0.00     0.167 HD
ATOM     55  C   UNL A   1      40.111  29.289  31.283  1.00  0.00     0.037 A 
ATOM     56  C   UNL A   1      40.187  32.989  37.200  1.00  0.00     0.037 A 
ATOM     57  C   UNL A   1      41.269  29.082  32.114  1.00  0.00     0.049 A 
ATOM     58  C   UNL A   1      41.249  31.969  36.897  1.00  0.00     0.074 A 
ATOM     59  C   UNL A   1      42.350  28.245  31.894  1.00  0.00     0.029 A 
ATOM     60  N   UNL A   1      41.470  29.676  33.351  1.00  0.00    -0.354 N 
ATOM     61  N   UNL A   1      41.403  31.232  35.824  1.00  0.00    -0.248 NA
ATOM     62  C   UNL A   1      42.278  31.759  37.924  1.00  0.00     0.031 C 
ATOM     63  C   UNL A   1      43.159  28.268  33.034  1.00  0.00     0.029 A 
ATOM     64  C   UNL A   1      42.626  29.178  33.933  1.00  0.00     0.049 A 
ATOM     65  H   UNL A   1      40.880  30.350  33.757  1.00  0.00     0.167 HD
ATOM     66  C   UNL A   1      42.556  30.486  36.036  1.00  0.00     0.074 A 
ATOM     67  C   UNL A   1      43.071  30.876  37.332  1.00  0.00     0.031 C 
ATOM     68  C   UNL A   1      43.130  29.561  35.228  1.00  0.00     0.037 A 
BRANCH  55  69
ATOM     69  C   UNL A   1      40.030  28.515  29.999  1.00  0.00     0.064 A 
ATOM     70  C   UNL A   1      40.641  28.993  28.832  1.00  0.00     0.173 A 
ATOM     71  C   UNL A   1      39.430  27.247  29.947  1.00  0.00     0.173 A 
ATOM     72  F   UNL A   1      41.270  30.179  28.838  1.00  0.00    -0.203 F 
ATOM     73  C   UNL A   1      40.615  28.258  27.650  1.00  0.00     0.198 A 
ATOM     74  C   UNL A   1      39.445  26.493  28.775  1.00  0.00     0.198 A 
ATOM     75  F   UNL A   1      38.857  26.726  31.042  1.00  0.00    -0.203 F 
ATOM     76  F   UNL A   1      41.154  28.771  26.535  1.00  0.00    -0.200 F 
ATOM     77  C   UNL A   1      40.028  27.003  27.624  1.00  0.00     0.200 A 
ATOM     78  F   UNL A   1      38.900  25.268  28.762  1.00  0.00    -0.200 F 
ATOM     79  F   UNL A   1      40.025  26.284  26.494  1.00  0.00    -0.200 F 
ENDBRANCH  55  69
BRANCH  56  80
ATOM     80  C   UNL A   1      40.224  33.798  38.446  1.00  0.00     0.064 A 
ATOM     81  C   UNL A   1      39.500  33.407  39.579  1.00  0.00     0.173 A 
ATOM     82  C   UNL A   1      41.019  34.950  38.542  1.00  0.00     0.173 A 
ATOM     83  F   UNL A   1      38.712  32.322  39.530  1.00  0.00    -0.203 F 
ATOM     84  C   UNL A   1      39.566  34.139  40.762  1.00  0.00     0.198 A 
ATOM     85  C   UNL A   1      41.110  35.662  39.735  1.00  0.00     0.198 A 
ATOM     86  F   UNL A   1      41.736  35.362  37.486  1.00  0.00    -0.203 F 
ATOM     87  F   UNL A   1      38.842  33.760  41.823  1.00  0.00    -0.200 F 
ATOM     88  C   UNL A   1      40.380  35.259  40.843  1.00  0.00     0.200 A 
ATOM     89  F   UNL A   1      41.912  36.733  39.813  1.00  0.00    -0.200 F 
ATOM     90  F   UNL A   1      40.460  35.951  41.987  1.00  0.00    -0.200 F 
ENDBRANCH  56  80
BRANCH  68  91
ATOM     91  C   UNL A   1      44.386  28.894  35.711  1.00  0.00     0.064 A 
ATOM     92  C   UNL A   1      45.653  29.437  35.451  1.00  0.00     0.173 A 
ATOM     93  C   UNL A   1      44.319  27.740  36.509  1.00  0.00     0.173 A 
ATOM     94  F   UNL A   1      45.774  30.531  34.685  1.00  0.00    -0.203 F 
ATOM     95  C   UNL A   1      46.806  28.842  35.958  1.00  0.00     0.198 A 
ATOM     96  C   UNL A   1      45.471  27.168  37.043  1.00  0.00     0.198 A 
ATOM     97  F   UNL A   1      43.133  27.183  36.795  1.00  0.00    -0.203 F 
ATOM     98  F   UNL A   1      48.007  29.357  35.663  1.00  0.00    -0.200 F 
ATOM     99  C   UNL A   1      46.713  27.716  36.762  1.00  0.00     0.200 A 
ATOM    100  F   UNL A   1      45.378  26.091  37.835  1.00  0.00    -0.200 F 
ATOM    101  F   UNL A   1      47.822  27.157  37.266  1.00  0.00    -0.200 F 
ENDBRANCH  68  91
ENDBRANCH  42  43
ENDBRANCH  35  37
ENDBRANCH  34  35
ENDBRANCH  33  34
ENDBRANCH  32  33
ENDBRANCH  31  32
ENDBRANCH  30  31
ENDBRANCH  29  30
ENDBRANCH  28  29
ENDBRANCH   1  28
TORSDOF 26
ENDMDL
MODEL 3
REMARK VINA RESULT:      -9.4      4.736     11.676
REMARK SMILES CC(C)C[C@@H](NC(=O)Cn1nc(O)ccc1=O)C(=O)OCCOCCOCCOCCOC(=O)c1ccc(-c2c3nc(c(-c4c(F)c(F)c(F)c(F)c4F)c4ccc([nH]4)c(-c4c(F)c(F)c(F)c(F)c4F)c4nc(c(-c5c(F)c(F)c(F)c(F)c5F)c5ccc2[nH]5)C=C4)C=C3)cc1
REMARK SMILES IDX 25 1 24 2 23 3 22 4 21 5 20 6 18 7 19 8 5 9 4 10 2 11 1 12
REMARK SMILES IDX 3 13 6 14 7 15 8 17 9 18 10 19 11 20 16 21 12 22 15 23 17 24
REMARK SMILES IDX 14 25 13 26 26 28 27 29 28 30 29 31 30 32 31 33 32 34 33 35
REMARK SMILES IDX 34 36 35 37 36 38 97 39 37 40 96 41 38 42 39 43 40 44 90 45
REMARK SMILES IDX 41 46 95 47 89 48 91 49 42 50 94 51 88 52 87 53 43 55 75 56
REMARK SMILES IDX 55 57 74 58 56 59 59 60 73 61 92 62 57 63 58 64 72 66 93 67
REMARK SMILES IDX 60 68 44 69 45 70 53 71 46 72 47 73 51 74 54 75 48 76 49 77
REMARK SMILES IDX 52 78 50 79 76 80 77 81 85 82 78 83 79 84 83 85 86 86 80 87
REMARK SMILES IDX 81 88 84 89 82 90 61 91 62 92 70 93 63 94 64 95 68 96 71 97
REMARK SMILES IDX 65 98 66 99 69 100 67 101
REMARK H PARENT 6 16 13 27 91 54 59 65
REMARK Flexibility Score: inf
ROOT
ATOM      1  C   UNL A   1      32.772  24.615  25.639  1.00  0.00     0.188 C 
ENDROOT
BRANCH   1   2
ATOM      2  C   UNL A   1      33.592  25.916  25.640  1.00  0.00     0.188 C 
BRANCH   2   3
ATOM      3  O   UNL A   1      32.971  27.184  25.808  1.00  0.00    -0.376 OA
BRANCH   3   4
ATOM      4  C   UNL A   1      33.677  28.265  26.394  1.00  0.00     0.202 C 
BRANCH   4   5
ATOM      5  C   UNL A   1      33.040  29.665  26.394  1.00  0.00     0.261 C 
BRANCH   5   6
ATOM      6  O   UNL A   1      33.225  30.419  27.616  1.00  0.00    -0.462 OA
BRANCH   6   7
ATOM      7  C   UNL A   1      33.230  31.766  27.571  1.00  0.00     0.328 C 
ATOM      8  O   UNL A   1      32.268  32.441  27.223  1.00  0.00    -0.250 OA
BRANCH   7   9
ATOM      9  C   UNL A   1      34.537  32.401  28.123  1.00  0.00     0.192 C 
BRANCH   9  10
ATOM     10  C   UNL A   1      35.805  31.622  27.691  1.00  0.00     0.040 C 
BRANCH  10  11
ATOM     11  C   UNL A   1      36.807  31.222  28.796  1.00  0.00    -0.015 C 
ATOM     12  C   UNL A   1      36.093  30.626  30.010  1.00  0.00     0.007 C 
ATOM     13  C   UNL A   1      37.797  30.177  28.252  1.00  0.00     0.007 C 
ENDBRANCH  10  11
ENDBRANCH   9  10
BRANCH   9  14
ATOM     14  N   UNL A   1      34.744  33.868  28.117  1.00  0.00    -0.341 N 
ATOM     15  C   UNL A   1      34.117  35.000  28.524  1.00  0.00     0.242 C 
ATOM     16  H   UNL A   1      35.600  34.089  27.684  1.00  0.00     0.164 HD
ATOM     17  O   UNL A   1      34.531  36.034  27.979  1.00  0.00    -0.273 OA
BRANCH  15  18
ATOM     18  C   UNL A   1      33.030  35.110  29.592  1.00  0.00     0.248 C 
BRANCH  18  19
ATOM     19  N   UNL A   1      33.497  35.354  30.951  1.00  0.00    -0.217 N 
ATOM     20  N   UNL A   1      33.895  34.280  31.719  1.00  0.00    -0.131 NA
ATOM     21  C   UNL A   1      33.401  36.629  31.456  1.00  0.00     0.267 A 
ATOM     22  C   UNL A   1      34.217  34.568  32.929  1.00  0.00     0.229 A 
ATOM     23  C   UNL A   1      33.817  36.877  32.844  1.00  0.00     0.079 A 
ATOM     24  O   UNL A   1      32.982  37.564  30.806  1.00  0.00    -0.268 OA
ATOM     25  C   UNL A   1      34.223  35.860  33.597  1.00  0.00     0.075 A 
BRANCH  22  26
ATOM     26  O   UNL A   1      34.609  33.600  33.754  1.00  0.00    -0.492 OA
ATOM     27  H   UNL A   1      34.053  33.331  34.458  1.00  0.00     0.295 HD
ENDBRANCH  22  26
ENDBRANCH  18  19
ENDBRANCH  15  18
ENDBRANCH   9  14
ENDBRANCH   7   9
ENDBRANCH   6   7
ENDBRANCH   5   6
ENDBRANCH   4   5
ENDBRANCH   3   4
ENDBRANCH   2   3
ENDBRANCH   1   2
BRANCH   1  28
ATOM     28  O   UNL A   1      33.248  23.320  25.971  1.00  0.00    -0.377 OA
BRANCH  28  29
ATOM     29  C   UNL A   1      33.135  22.263  25.046  1.00  0.00     0.188 C 
BRANCH  29  30
ATOM     30  C   UNL A   1      34.468  21.696  24.572  1.00  0.00     0.188 C 
BRANCH  30  31
ATOM     31  O   UNL A   1      35.335  22.696  24.058  1.00  0.00    -0.376 OA
BRANCH  31  32
ATOM     32  C   UNL A   1      36.709  22.352  23.933  1.00  0.00     0.202 C 
BRANCH  32  33
ATOM     33  C   UNL A   1      37.317  21.378  24.959  1.00  0.00     0.261 C 
BRANCH  33  34
ATOM     34  O   UNL A   1      37.995  21.926  26.105  1.00  0.00    -0.460 OA
BRANCH  34  35
ATOM     35  C   UNL A   1      39.303  21.661  26.296  1.00  0.00     0.338 C 
ATOM     36  O   UNL A   1      39.920  20.676  25.953  1.00  0.00    -0.246 OA
BRANCH  35  37
ATOM     37  C   UNL A   1      39.916  22.879  26.882  1.00  0.00     0.060 A 
ATOM     38  C   UNL A   1      40.953  22.777  27.813  1.00  0.00     0.016 A 
ATOM     39  C   UNL A   1      39.438  24.139  26.499  1.00  0.00     0.016 A 
ATOM     40  C   UNL A   1      41.527  23.940  28.341  1.00  0.00     0.010 A 
ATOM     41  C   UNL A   1      40.004  25.301  27.038  1.00  0.00     0.010 A 
ATOM     42  C   UNL A   1      41.071  25.213  27.945  1.00  0.00    -0.014 A 
BRANCH  42  43
ATOM     43  C   UNL A   1      41.852  26.425  28.311  1.00  0.00     0.031 A 
ATOM     44  C   UNL A   1      41.323  27.499  29.213  1.00  0.00     0.074 A 
ATOM     45  C   UNL A   1      43.088  26.550  27.792  1.00  0.00     0.049 A 
ATOM     46  N   UNL A   1      41.966  28.495  29.772  1.00  0.00    -0.248 NA
ATOM     47  C   UNL A   1      39.894  27.454  29.537  1.00  0.00     0.031 C 
ATOM     48  C   UNL A   1      43.699  25.605  26.857  1.00  0.00     0.029 A 
ATOM     49  N   UNL A   1      44.049  27.512  27.974  1.00  0.00    -0.354 N 
ATOM     50  C   UNL A   1      41.041  29.148  30.575  1.00  0.00     0.074 A 
ATOM     51  C   UNL A   1      39.775  28.469  30.385  1.00  0.00     0.031 C 
ATOM     52  C   UNL A   1      44.939  26.022  26.562  1.00  0.00     0.029 A 
ATOM     53  C   UNL A   1      45.201  27.272  27.269  1.00  0.00     0.049 A 
ATOM     54  H   UNL A   1      43.923  28.298  28.553  1.00  0.00     0.167 HD
ATOM     55  C   UNL A   1      41.236  30.210  31.396  1.00  0.00     0.037 A 
ATOM     56  C   UNL A   1      46.347  27.975  27.202  1.00  0.00     0.037 A 
ATOM     57  C   UNL A   1      42.464  30.958  31.482  1.00  0.00     0.049 A 
ATOM     58  C   UNL A   1      46.499  29.219  28.032  1.00  0.00     0.074 A 
ATOM     59  C   UNL A   1      42.750  32.056  32.276  1.00  0.00     0.029 A 
ATOM     60  N   UNL A   1      43.590  30.720  30.710  1.00  0.00    -0.354 N 
ATOM     61  N   UNL A   1      45.663  29.743  28.895  1.00  0.00    -0.248 NA
ATOM     62  C   UNL A   1      47.757  29.964  27.887  1.00  0.00     0.031 C 
ATOM     63  C   UNL A   1      44.015  32.533  31.921  1.00  0.00     0.029 A 
ATOM     64  C   UNL A   1      44.551  31.687  30.964  1.00  0.00     0.049 A 
ATOM     65  H   UNL A   1      43.693  29.975  30.075  1.00  0.00     0.167 HD
ATOM     66  C   UNL A   1      46.299  30.865  29.410  1.00  0.00     0.074 A 
ATOM     67  C   UNL A   1      47.599  30.934  28.777  1.00  0.00     0.031 C 
ATOM     68  C   UNL A   1      45.841  31.757  30.323  1.00  0.00     0.037 A 
BRANCH  55  69
ATOM     69  C   UNL A   1      40.093  30.646  32.267  1.00  0.00     0.064 A 
ATOM     70  C   UNL A   1      39.947  30.141  33.566  1.00  0.00     0.173 A 
ATOM     71  C   UNL A   1      39.197  31.642  31.850  1.00  0.00     0.173 A 
ATOM     72  F   UNL A   1      40.806  29.221  34.032  1.00  0.00    -0.203 F 
ATOM     73  C   UNL A   1      38.921  30.578  34.399  1.00  0.00     0.198 A 
ATOM     74  C   UNL A   1      38.198  32.111  32.703  1.00  0.00     0.198 A 
ATOM     75  F   UNL A   1      39.308  32.183  30.628  1.00  0.00    -0.203 F 
ATOM     76  F   UNL A   1      38.770  30.031  35.613  1.00  0.00    -0.200 F 
ATOM     77  C   UNL A   1      38.054  31.571  33.972  1.00  0.00     0.200 A 
ATOM     78  F   UNL A   1      37.379  33.091  32.295  1.00  0.00    -0.200 F 
ATOM     79  F   UNL A   1      37.082  32.011  34.782  1.00  0.00    -0.200 F 
ENDBRANCH  55  69
BRANCH  56  80
ATOM     80  C   UNL A   1      47.450  27.484  26.335  1.00  0.00     0.064 A 
ATOM     81  C   UNL A   1      47.480  27.790  24.968  1.00  0.00     0.173 A 
ATOM     82  C   UNL A   1      48.516  26.742  26.864  1.00  0.00     0.173 A 
ATOM     83  F   UNL A   1      46.474  28.482  24.414  1.00  0.00    -0.203 F 
ATOM     84  C   UNL A   1      48.534  27.367  24.161  1.00  0.00     0.198 A 
ATOM     85  C   UNL A   1      49.584  26.349  26.063  1.00  0.00     0.198 A 
ATOM     86  F   UNL A   1      48.536  26.430  28.168  1.00  0.00    -0.203 F 
ATOM     87  F   UNL A   1      48.525  27.648  22.851  1.00  0.00    -0.200 F 
ATOM     88  C   UNL A   1      49.591  26.657  24.711  1.00  0.00     0.200 A 
ATOM     89  F   UNL A   1      50.613  25.680  26.602  1.00  0.00    -0.200 F 
ATOM     90  F   UNL A   1      50.615  26.270  23.939  1.00  0.00    -0.200 F 
ENDBRANCH  56  80
BRANCH  68  91
ATOM     91  C   UNL A   1      46.746  32.895  30.703  1.00  0.00     0.064 A 
ATOM     92  C   UNL A   1      47.692  32.770  31.730  1.00  0.00     0.173 A 
ATOM     93  C   UNL A   1      46.717  34.099  29.981  1.00  0.00     0.173 A 
ATOM     94  F   UNL A   1      47.753  31.646  32.458  1.00  0.00    -0.203 F 
ATOM     95  C   UNL A   1      48.567  33.812  32.030  1.00  0.00     0.198 A 
ATOM     96  C   UNL A   1      47.616  35.126  30.261  1.00  0.00     0.198 A 
ATOM     97  F   UNL A   1      45.837  34.270  28.983  1.00  0.00    -0.203 F 
ATOM     98  F   UNL A   1      49.436  33.683  33.041  1.00  0.00    -0.200 F 
ATOM     99  C   UNL A   1      48.536  34.983  31.288  1.00  0.00     0.200 A 
ATOM    100  F   UNL A   1      47.598  36.249  29.530  1.00  0.00    -0.200 F 
ATOM    101  F   UNL A   1      49.391  35.976  31.565  1.00  0.00    -0.200 F 
ENDBRANCH  68  91
ENDBRANCH  42  43
ENDBRANCH  35  37
ENDBRANCH  34  35
ENDBRANCH  33  34
ENDBRANCH  32  33
ENDBRANCH  31  32
ENDBRANCH  30  31
ENDBRANCH  29  30
ENDBRANCH  28  29
ENDBRANCH   1  28
TORSDOF 26
ENDMDL
