MODEL 1
REMARK VINA RESULT:     -11.4      0.000      0.000
REMARK SMILES CC1(C)[C@](C)(C(=O)OCCOCCOCCOCCOC(=O)c2ccc(-c3c4nc(c(-c5c(F)c(F)c(F)c(F)c5F)c5ccc([nH]5)c(-c5c(F)c(F)c(F)c(F)c5F)c5nc(c(-c6c(F)c(F)c(F)c(F)c6F)c6ccc3[nH]6)C=C5)C=C4)cc2)CC[C@@]1(C)C(=O)N1CCc2ccccc2C1
REMARK SMILES IDX 14 1 13 2 12 3 11 4 10 5 9 6 8 7 6 8 7 9 4 10 1 11 2 12 3 13
REMARK SMILES IDX 88 14 86 15 5 16 87 17 89 18 90 19 91 20 92 21 93 22 101 23
REMARK SMILES IDX 94 24 100 25 95 26 99 27 96 28 98 29 97 30 15 31 16 32 17 33
REMARK SMILES IDX 18 34 19 35 20 36 21 37 22 38 23 39 24 40 85 41 25 42 84 43
REMARK SMILES IDX 26 44 27 45 28 46 78 47 29 48 83 49 77 50 79 51 30 52 82 53
REMARK SMILES IDX 76 54 75 55 31 57 63 58 43 59 62 60 44 61 47 62 61 63 80 64
REMARK SMILES IDX 45 65 46 66 60 68 81 69 48 70 32 71 33 72 41 73 34 74 35 75
REMARK SMILES IDX 39 76 42 77 36 78 37 79 40 80 38 81 64 82 65 83 73 84 66 85
REMARK SMILES IDX 67 86 71 87 74 88 68 89 69 90 72 91 70 92 49 93 50 94 58 95
REMARK SMILES IDX 51 96 52 97 56 98 59 99 53 100 54 101 57 102 55 103
REMARK H PARENT 79 56 47 67
REMARK Flexibility Score: inf
ROOT
ATOM      1  O   UNL A   1      41.108  22.244  27.731  1.00  0.00    -0.377 OA
ENDROOT
BRANCH   1   2
ATOM      2  C   UNL A   1      40.000  22.265  26.860  1.00  0.00     0.188 C 
BRANCH   2   3
ATOM      3  C   UNL A   1      39.137  23.532  26.866  1.00  0.00     0.188 C 
BRANCH   3   4
ATOM      4  O   UNL A   1      37.949  23.354  26.126  1.00  0.00    -0.376 OA
BRANCH   4   5
ATOM      5  C   UNL A   1      37.851  22.221  25.288  1.00  0.00     0.202 C 
BRANCH   5   6
ATOM      6  C   UNL A   1      36.717  21.169  25.353  1.00  0.00     0.261 C 
BRANCH   6   7
ATOM      7  O   UNL A   1      35.485  21.449  26.038  1.00  0.00    -0.463 OA
BRANCH   7   8
ATOM      8  C   UNL A   1      34.350  21.070  25.410  1.00  0.00     0.312 C 
ATOM      9  O   UNL A   1      34.311  20.109  24.647  1.00  0.00    -0.252 OA
BRANCH   8  10
ATOM     10  C   UNL A   1      33.159  22.046  25.605  1.00  0.00     0.071 C 
ATOM     11  C   UNL A   1      34.132  23.569  23.662  1.00  0.00     0.013 C 
ATOM     12  C   UNL A   1      32.858  22.921  24.285  1.00  0.00    -0.005 C 
ATOM     13  C   UNL A   1      32.486  22.036  23.027  1.00  0.00     0.013 C 
ATOM     14  C   UNL A   1      31.477  23.731  24.660  1.00  0.00     0.053 C 
ATOM     15  C   UNL A   1      31.744  21.547  25.972  1.00  0.00     0.020 C 
ATOM     16  C   UNL A   1      33.654  22.732  26.904  1.00  0.00     0.024 C 
ATOM     17  C   UNL A   1      30.726  22.589  25.448  1.00  0.00     0.018 C 
ATOM     18  C   UNL A   1      30.648  24.051  23.358  1.00  0.00     0.022 C 
BRANCH  14  19
ATOM     19  C   UNL A   1      31.184  25.055  25.565  1.00  0.00     0.229 C 
ATOM     20  O   UNL A   1      30.355  24.957  26.485  1.00  0.00    -0.274 OA
BRANCH  19  21
ATOM     21  N   UNL A   1      31.814  26.268  25.424  1.00  0.00    -0.338 N 
ATOM     22  C   UNL A   1      31.801  27.327  26.474  1.00  0.00     0.124 C 
ATOM     23  C   UNL A   1      32.089  26.790  24.149  1.00  0.00     0.155 C 
ATOM     24  C   UNL A   1      32.045  28.789  25.894  1.00  0.00     0.057 C 
ATOM     25  C   UNL A   1      31.067  27.827  23.872  1.00  0.00    -0.025 A 
ATOM     26  C   UNL A   1      31.204  28.978  24.639  1.00  0.00    -0.041 A 
ATOM     27  C   UNL A   1      29.934  27.648  23.095  1.00  0.00     0.006 A 
ATOM     28  C   UNL A   1      30.495  30.105  24.257  1.00  0.00     0.004 A 
ATOM     29  C   UNL A   1      29.153  28.737  22.769  1.00  0.00     0.000 A 
ATOM     30  C   UNL A   1      29.497  29.987  23.278  1.00  0.00     0.000 A 
ENDBRANCH  19  21
ENDBRANCH  14  19
ENDBRANCH   8  10
ENDBRANCH   7   8
ENDBRANCH   6   7
ENDBRANCH   5   6
ENDBRANCH   4   5
ENDBRANCH   3   4
ENDBRANCH   2   3
ENDBRANCH   1   2
BRANCH   1  31
ATOM     31  C   UNL A   1      42.010  21.160  27.625  1.00  0.00     0.188 C 
BRANCH  31  32
ATOM     32  C   UNL A   1      41.962  20.204  26.412  1.00  0.00     0.188 C 
BRANCH  32  33
ATOM     33  O   UNL A   1      42.572  18.937  26.609  1.00  0.00    -0.376 OA
BRANCH  33  34
ATOM     34  C   UNL A   1      43.354  18.372  25.573  1.00  0.00     0.202 C 
BRANCH  34  35
ATOM     35  C   UNL A   1      44.834  18.079  25.858  1.00  0.00     0.261 C 
BRANCH  35  36
ATOM     36  O   UNL A   1      45.793  18.757  25.038  1.00  0.00    -0.460 OA
BRANCH  36  37
ATOM     37  C   UNL A   1      45.352  19.457  23.973  1.00  0.00     0.338 C 
ATOM     38  O   UNL A   1      45.036  19.027  22.877  1.00  0.00    -0.246 OA
BRANCH  37  39
ATOM     39  C   UNL A   1      45.124  20.840  24.437  1.00  0.00     0.060 A 
ATOM     40  C   UNL A   1      44.515  21.768  23.578  1.00  0.00     0.016 A 
ATOM     41  C   UNL A   1      45.449  21.189  25.749  1.00  0.00     0.016 A 
ATOM     42  C   UNL A   1      44.254  23.063  24.022  1.00  0.00     0.010 A 
ATOM     43  C   UNL A   1      45.228  22.495  26.178  1.00  0.00     0.010 A 
ATOM     44  C   UNL A   1      44.666  23.444  25.303  1.00  0.00    -0.014 A 
BRANCH  44  45
ATOM     45  C   UNL A   1      44.805  24.876  25.642  1.00  0.00     0.031 A 
ATOM     46  C   UNL A   1      46.171  25.479  25.494  1.00  0.00     0.074 A 
ATOM     47  C   UNL A   1      43.780  25.600  26.113  1.00  0.00     0.049 A 
ATOM     48  N   UNL A   1      46.621  26.640  25.891  1.00  0.00    -0.248 NA
ATOM     49  C   UNL A   1      47.176  24.640  24.819  1.00  0.00     0.031 C 
ATOM     50  C   UNL A   1      42.402  25.135  26.245  1.00  0.00     0.029 A 
ATOM     51  N   UNL A   1      43.757  26.883  26.599  1.00  0.00    -0.354 N 
ATOM     52  C   UNL A   1      47.964  26.656  25.539  1.00  0.00     0.074 A 
ATOM     53  C   UNL A   1      48.263  25.386  24.917  1.00  0.00     0.031 C 
ATOM     54  C   UNL A   1      41.672  26.110  26.813  1.00  0.00     0.029 A 
ATOM     55  C   UNL A   1      42.542  27.243  27.125  1.00  0.00     0.049 A 
ATOM     56  H   UNL A   1      44.535  27.485  26.571  1.00  0.00     0.167 HD
ATOM     57  C   UNL A   1      48.869  27.645  25.723  1.00  0.00     0.037 A 
ATOM     58  C   UNL A   1      42.195  28.345  27.819  1.00  0.00     0.037 A 
ATOM     59  C   UNL A   1      48.559  28.897  26.357  1.00  0.00     0.049 A 
ATOM     60  C   UNL A   1      43.233  29.407  28.083  1.00  0.00     0.074 A 
ATOM     61  C   UNL A   1      49.391  29.977  26.584  1.00  0.00     0.029 A 
ATOM     62  N   UNL A   1      47.317  29.226  26.879  1.00  0.00    -0.354 N 
ATOM     63  N   UNL A   1      44.500  29.433  27.741  1.00  0.00    -0.248 NA
ATOM     64  C   UNL A   1      42.795  30.594  28.831  1.00  0.00     0.031 C 
ATOM     65  C   UNL A   1      48.669  30.935  27.302  1.00  0.00     0.029 A 
ATOM     66  C   UNL A   1      47.366  30.485  27.455  1.00  0.00     0.049 A 
ATOM     67  H   UNL A   1      46.518  28.652  26.845  1.00  0.00     0.167 HD
ATOM     68  C   UNL A   1      44.999  30.647  28.196  1.00  0.00     0.074 A 
ATOM     69  C   UNL A   1      43.898  31.331  28.843  1.00  0.00     0.031 C 
ATOM     70  C   UNL A   1      46.251  31.155  28.079  1.00  0.00     0.037 A 
BRANCH  57  71
ATOM     71  C   UNL A   1      50.279  27.374  25.287  1.00  0.00     0.064 A 
ATOM     72  C   UNL A   1      50.683  27.502  23.948  1.00  0.00     0.173 A 
ATOM     73  C   UNL A   1      51.238  26.956  26.222  1.00  0.00     0.173 A 
ATOM     74  F   UNL A   1      49.800  27.878  23.009  1.00  0.00    -0.203 F 
ATOM     75  C   UNL A   1      51.980  27.181  23.556  1.00  0.00     0.198 A 
ATOM     76  C   UNL A   1      52.544  26.673  25.833  1.00  0.00     0.198 A 
ATOM     77  F   UNL A   1      50.908  26.815  27.514  1.00  0.00    -0.203 F 
ATOM     78  F   UNL A   1      52.321  27.240  22.261  1.00  0.00    -0.200 F 
ATOM     79  C   UNL A   1      52.910  26.772  24.500  1.00  0.00     0.200 A 
ATOM     80  F   UNL A   1      53.446  26.290  26.748  1.00  0.00    -0.200 F 
ATOM     81  F   UNL A   1      54.158  26.461  24.121  1.00  0.00    -0.200 F 
ENDBRANCH  57  71
BRANCH  58  82
ATOM     82  C   UNL A   1      40.805  28.485  28.326  1.00  0.00     0.064 A 
ATOM     83  C   UNL A   1      40.479  28.141  29.643  1.00  0.00     0.173 A 
ATOM     84  C   UNL A   1      39.780  28.985  27.509  1.00  0.00     0.173 A 
ATOM     85  F   UNL A   1      41.418  27.636  30.455  1.00  0.00    -0.203 F 
ATOM     86  C   UNL A   1      39.179  28.286  30.125  1.00  0.00     0.198 A 
ATOM     87  C   UNL A   1      38.486  29.156  27.999  1.00  0.00     0.198 A 
ATOM     88  F   UNL A   1      40.039  29.328  26.238  1.00  0.00    -0.203 F 
ATOM     89  F   UNL A   1      38.886  27.918  31.379  1.00  0.00    -0.200 F 
ATOM     90  C   UNL A   1      38.186  28.802  29.305  1.00  0.00     0.200 A 
ATOM     91  F   UNL A   1      37.534  29.668  27.208  1.00  0.00    -0.200 F 
ATOM     92  F   UNL A   1      36.939  28.955  29.773  1.00  0.00    -0.200 F 
ENDBRANCH  58  82
BRANCH  70  93
ATOM     93  C   UNL A   1      46.497  32.542  28.599  1.00  0.00     0.064 A 
ATOM     94  C   UNL A   1      46.966  32.778  29.899  1.00  0.00     0.173 A 
ATOM     95  C   UNL A   1      46.340  33.647  27.747  1.00  0.00     0.173 A 
ATOM     96  F   UNL A   1      47.121  31.757  30.757  1.00  0.00    -0.203 F 
ATOM     97  C   UNL A   1      47.255  34.070  30.331  1.00  0.00     0.198 A 
ATOM     98  C   UNL A   1      46.663  34.933  28.172  1.00  0.00     0.198 A 
ATOM     99  F   UNL A   1      45.905  33.476  26.490  1.00  0.00    -0.203 F 
ATOM    100  F   UNL A   1      47.669  34.277  31.589  1.00  0.00    -0.200 F 
ATOM    101  C   UNL A   1      47.115  35.144  29.464  1.00  0.00     0.200 A 
ATOM    102  F   UNL A   1      46.545  35.965  27.325  1.00  0.00    -0.200 F 
ATOM    103  F   UNL A   1      47.415  36.383  29.876  1.00  0.00    -0.200 F 
ENDBRANCH  70  93
ENDBRANCH  44  45
ENDBRANCH  37  39
ENDBRANCH  36  37
ENDBRANCH  35  36
ENDBRANCH  34  35
ENDBRANCH  33  34
ENDBRANCH  32  33
ENDBRANCH  31  32
ENDBRANCH   1  31
TORSDOF 22
ENDMDL
MODEL 2
REMARK VINA RESULT:     -10.4      3.638      9.365
REMARK SMILES CC1(C)[C@](C)(C(=O)OCCOCCOCCOCCOC(=O)c2ccc(-c3c4nc(c(-c5c(F)c(F)c(F)c(F)c5F)c5ccc([nH]5)c(-c5c(F)c(F)c(F)c(F)c5F)c5nc(c(-c6c(F)c(F)c(F)c(F)c6F)c6ccc3[nH]6)C=C5)C=C4)cc2)CC[C@@]1(C)C(=O)N1CCc2ccccc2C1
REMARK SMILES IDX 14 1 13 2 12 3 11 4 10 5 9 6 8 7 6 8 7 9 4 10 1 11 2 12 3 13
REMARK SMILES IDX 88 14 86 15 5 16 87 17 89 18 90 19 91 20 92 21 93 22 101 23
REMARK SMILES IDX 94 24 100 25 95 26 99 27 96 28 98 29 97 30 15 31 16 32 17 33
REMARK SMILES IDX 18 34 19 35 20 36 21 37 22 38 23 39 24 40 85 41 25 42 84 43
REMARK SMILES IDX 26 44 27 45 28 46 78 47 29 48 83 49 77 50 79 51 30 52 82 53
REMARK SMILES IDX 76 54 75 55 31 57 63 58 43 59 62 60 44 61 47 62 61 63 80 64
REMARK SMILES IDX 45 65 46 66 60 68 81 69 48 70 32 71 33 72 41 73 34 74 35 75
REMARK SMILES IDX 39 76 42 77 36 78 37 79 40 80 38 81 64 82 65 83 73 84 66 85
REMARK SMILES IDX 67 86 71 87 74 88 68 89 69 90 72 91 70 92 49 93 50 94 58 95
REMARK SMILES IDX 51 96 52 97 56 98 59 99 53 100 54 101 57 102 55 103
REMARK H PARENT 79 56 47 67
REMARK Flexibility Score: inf
ROOT
ATOM      1  O   UNL A   1      32.084  31.955  26.983  1.00  0.00    -0.377 OA
ENDROOT
BRANCH   1   2
ATOM      2  C   UNL A   1      31.048  31.553  26.116  1.00  0.00     0.188 C 
BRANCH   2   3
ATOM      3  C   UNL A   1      31.282  30.277  25.299  1.00  0.00     0.188 C 
BRANCH   3   4
ATOM      4  O   UNL A   1      30.415  30.206  24.188  1.00  0.00    -0.376 OA
BRANCH   4   5
ATOM      5  C   UNL A   1      30.670  29.221  23.208  1.00  0.00     0.202 C 
BRANCH   5   6
ATOM      6  C   UNL A   1      32.034  29.004  22.507  1.00  0.00     0.261 C 
BRANCH   6   7
ATOM      7  O   UNL A   1      33.074  28.234  23.134  1.00  0.00    -0.463 OA
BRANCH   7   8
ATOM      8  C   UNL A   1      33.307  27.008  22.616  1.00  0.00     0.312 C 
ATOM      9  O   UNL A   1      34.014  26.836  21.628  1.00  0.00    -0.252 OA
BRANCH   8  10
ATOM     10  C   UNL A   1      32.476  25.873  23.271  1.00  0.00     0.071 C 
ATOM     11  C   UNL A   1      34.361  25.601  25.118  1.00  0.00     0.013 C 
ATOM     12  C   UNL A   1      32.831  25.669  24.830  1.00  0.00    -0.005 C 
ATOM     13  C   UNL A   1      32.553  26.961  25.701  1.00  0.00     0.013 C 
ATOM     14  C   UNL A   1      31.726  24.564  25.341  1.00  0.00     0.053 C 
ATOM     15  C   UNL A   1      30.932  25.906  23.308  1.00  0.00     0.020 C 
ATOM     16  C   UNL A   1      32.793  24.756  22.243  1.00  0.00     0.024 C 
ATOM     17  C   UNL A   1      30.472  25.073  24.529  1.00  0.00     0.018 C 
ATOM     18  C   UNL A   1      31.420  24.750  26.876  1.00  0.00     0.022 C 
BRANCH  14  19
ATOM     19  C   UNL A   1      31.631  22.944  25.185  1.00  0.00     0.229 C 
ATOM     20  O   UNL A   1      30.646  22.475  24.590  1.00  0.00    -0.274 OA
BRANCH  19  21
ATOM     21  N   UNL A   1      32.577  22.048  25.621  1.00  0.00    -0.338 N 
ATOM     22  C   UNL A   1      33.359  22.227  26.879  1.00  0.00     0.124 C 
ATOM     23  C   UNL A   1      33.219  21.186  24.718  1.00  0.00     0.155 C 
ATOM     24  C   UNL A   1      34.746  21.446  26.872  1.00  0.00     0.057 C 
ATOM     25  C   UNL A   1      34.564  21.749  24.455  1.00  0.00    -0.025 A 
ATOM     26  C   UNL A   1      35.437  21.662  25.533  1.00  0.00    -0.041 A 
ATOM     27  C   UNL A   1      34.917  22.496  23.343  1.00  0.00     0.006 A 
ATOM     28  C   UNL A   1      36.784  21.885  25.303  1.00  0.00     0.004 A 
ATOM     29  C   UNL A   1      36.241  22.814  23.128  1.00  0.00     0.000 A 
ATOM     30  C   UNL A   1      37.188  22.419  24.069  1.00  0.00     0.000 A 
ENDBRANCH  19  21
ENDBRANCH  14  19
ENDBRANCH   8  10
ENDBRANCH   7   8
ENDBRANCH   6   7
ENDBRANCH   5   6
ENDBRANCH   4   5
ENDBRANCH   3   4
ENDBRANCH   2   3
ENDBRANCH   1   2
BRANCH   1  31
ATOM     31  C   UNL A   1      32.210  33.334  27.267  1.00  0.00     0.188 C 
BRANCH  31  32
ATOM     32  C   UNL A   1      33.359  33.860  28.155  1.00  0.00     0.188 C 
BRANCH  32  33
ATOM     33  O   UNL A   1      32.970  34.736  29.202  1.00  0.00    -0.376 OA
BRANCH  33  34
ATOM     34  C   UNL A   1      33.753  34.807  30.379  1.00  0.00     0.202 C 
BRANCH  34  35
ATOM     35  C   UNL A   1      34.405  33.518  30.897  1.00  0.00     0.261 C 
BRANCH  35  36
ATOM     36  O   UNL A   1      35.763  33.617  31.341  1.00  0.00    -0.460 OA
BRANCH  36  37
ATOM     37  C   UNL A   1      36.267  32.623  32.102  1.00  0.00     0.338 C 
ATOM     38  O   UNL A   1      35.698  31.989  32.974  1.00  0.00    -0.246 OA
BRANCH  37  39
ATOM     39  C   UNL A   1      37.594  32.293  31.546  1.00  0.00     0.060 A 
ATOM     40  C   UNL A   1      37.832  32.461  30.173  1.00  0.00     0.016 A 
ATOM     41  C   UNL A   1      38.618  31.886  32.403  1.00  0.00     0.016 A 
ATOM     42  C   UNL A   1      39.095  32.195  29.646  1.00  0.00     0.010 A 
ATOM     43  C   UNL A   1      39.867  31.578  31.870  1.00  0.00     0.010 A 
ATOM     44  C   UNL A   1      40.095  31.695  30.486  1.00  0.00    -0.014 A 
BRANCH  44  45
ATOM     45  C   UNL A   1      41.269  31.005  29.910  1.00  0.00     0.031 A 
ATOM     46  C   UNL A   1      42.486  31.842  29.645  1.00  0.00     0.074 A 
ATOM     47  C   UNL A   1      41.244  29.705  29.584  1.00  0.00     0.049 A 
ATOM     48  N   UNL A   1      43.575  31.551  28.983  1.00  0.00    -0.248 NA
ATOM     49  C   UNL A   1      42.458  33.211  30.190  1.00  0.00     0.031 C 
ATOM     50  C   UNL A   1      40.140  28.786  29.846  1.00  0.00     0.029 A 
ATOM     51  N   UNL A   1      42.176  28.942  28.928  1.00  0.00    -0.354 N 
ATOM     52  C   UNL A   1      44.343  32.707  29.009  1.00  0.00     0.074 A 
ATOM     53  C   UNL A   1      43.593  33.709  29.731  1.00  0.00     0.031 C 
ATOM     54  C   UNL A   1      40.444  27.587  29.320  1.00  0.00     0.029 A 
ATOM     55  C   UNL A   1      41.740  27.672  28.647  1.00  0.00     0.049 A 
ATOM     56  H   UNL A   1      43.070  29.274  28.682  1.00  0.00     0.167 HD
ATOM     57  C   UNL A   1      45.568  32.913  28.473  1.00  0.00     0.037 A 
ATOM     58  C   UNL A   1      42.309  26.711  27.893  1.00  0.00     0.037 A 
ATOM     59  C   UNL A   1      46.296  31.910  27.745  1.00  0.00     0.049 A 
ATOM     60  C   UNL A   1      43.641  26.980  27.238  1.00  0.00     0.074 A 
ATOM     61  C   UNL A   1      47.550  32.001  27.170  1.00  0.00     0.029 A 
ATOM     62  N   UNL A   1      45.821  30.633  27.480  1.00  0.00    -0.354 N 
ATOM     63  N   UNL A   1      44.377  28.066  27.270  1.00  0.00    -0.248 NA
ATOM     64  C   UNL A   1      44.221  25.891  26.440  1.00  0.00     0.031 C 
ATOM     65  C   UNL A   1      47.807  30.800  26.501  1.00  0.00     0.029 A 
ATOM     66  C   UNL A   1      46.747  29.934  26.724  1.00  0.00     0.049 A 
ATOM     67  H   UNL A   1      44.956  30.277  27.784  1.00  0.00     0.167 HD
ATOM     68  C   UNL A   1      45.520  27.780  26.533  1.00  0.00     0.074 A 
ATOM     69  C   UNL A   1      45.379  26.418  26.062  1.00  0.00     0.031 C 
ATOM     70  C   UNL A   1      46.593  28.570  26.279  1.00  0.00     0.037 A 
BRANCH  57  71
ATOM     71  C   UNL A   1      46.154  34.288  28.608  1.00  0.00     0.064 A 
ATOM     72  C   UNL A   1      46.830  34.700  29.767  1.00  0.00     0.173 A 
ATOM     73  C   UNL A   1      46.014  35.219  27.567  1.00  0.00     0.173 A 
ATOM     74  F   UNL A   1      46.973  33.857  30.801  1.00  0.00    -0.203 F 
ATOM     75  C   UNL A   1      47.306  36.002  29.895  1.00  0.00     0.198 A 
ATOM     76  C   UNL A   1      46.525  36.508  27.683  1.00  0.00     0.198 A 
ATOM     77  F   UNL A   1      45.375  34.880  26.437  1.00  0.00    -0.203 F 
ATOM     78  F   UNL A   1      47.883  36.394  31.040  1.00  0.00    -0.200 F 
ATOM     79  C   UNL A   1      47.158  36.903  28.852  1.00  0.00     0.200 A 
ATOM     80  F   UNL A   1      46.391  37.374  26.669  1.00  0.00    -0.200 F 
ATOM     81  F   UNL A   1      47.614  38.158  28.977  1.00  0.00    -0.200 F 
ENDBRANCH  57  71
BRANCH  58  82
ATOM     82  C   UNL A   1      41.608  25.415  27.706  1.00  0.00     0.064 A 
ATOM     83  C   UNL A   1      42.036  24.259  28.370  1.00  0.00     0.173 A 
ATOM     84  C   UNL A   1      40.482  25.310  26.874  1.00  0.00     0.173 A 
ATOM     85  F   UNL A   1      43.120  24.302  29.157  1.00  0.00    -0.203 F 
ATOM     86  C   UNL A   1      41.369  23.045  28.207  1.00  0.00     0.198 A 
ATOM     87  C   UNL A   1      39.800  24.103  26.733  1.00  0.00     0.198 A 
ATOM     88  F   UNL A   1      40.032  26.387  26.213  1.00  0.00    -0.203 F 
ATOM     89  F   UNL A   1      41.820  21.948  28.828  1.00  0.00    -0.200 F 
ATOM     90  C   UNL A   1      40.246  22.971  27.396  1.00  0.00     0.200 A 
ATOM     91  F   UNL A   1      38.708  24.039  25.959  1.00  0.00    -0.200 F 
ATOM     92  F   UNL A   1      39.598  21.807  27.251  1.00  0.00    -0.200 F 
ENDBRANCH  58  82
BRANCH  70  93
ATOM     93  C   UNL A   1      47.737  27.972  25.512  1.00  0.00     0.064 A 
ATOM     94  C   UNL A   1      47.721  27.865  24.114  1.00  0.00     0.173 A 
ATOM     95  C   UNL A   1      48.905  27.580  26.187  1.00  0.00     0.173 A 
ATOM     96  F   UNL A   1      46.626  28.214  23.422  1.00  0.00    -0.203 F 
ATOM     97  C   UNL A   1      48.827  27.375  23.422  1.00  0.00     0.198 A 
ATOM     98  C   UNL A   1      50.019  27.123  25.490  1.00  0.00     0.198 A 
ATOM     99  F   UNL A   1      48.976  27.673  27.523  1.00  0.00    -0.203 F 
ATOM    100  F   UNL A   1      48.777  27.247  22.089  1.00  0.00    -0.200 F 
ATOM    101  C   UNL A   1      49.977  27.016  24.109  1.00  0.00     0.200 A 
ATOM    102  F   UNL A   1      51.136  26.796  26.155  1.00  0.00    -0.200 F 
ATOM    103  F   UNL A   1      51.046  26.565  23.439  1.00  0.00    -0.200 F 
ENDBRANCH  70  93
ENDBRANCH  44  45
ENDBRANCH  37  39
ENDBRANCH  36  37
ENDBRANCH  35  36
ENDBRANCH  34  35
ENDBRANCH  33  34
ENDBRANCH  32  33
ENDBRANCH  31  32
ENDBRANCH   1  31
TORSDOF 22
ENDMDL
MODEL 3
REMARK VINA RESULT:     -10.1      4.495      9.715
REMARK SMILES CC1(C)[C@](C)(C(=O)OCCOCCOCCOCCOC(=O)c2ccc(-c3c4nc(c(-c5c(F)c(F)c(F)c(F)c5F)c5ccc([nH]5)c(-c5c(F)c(F)c(F)c(F)c5F)c5nc(c(-c6c(F)c(F)c(F)c(F)c6F)c6ccc3[nH]6)C=C5)C=C4)cc2)CC[C@@]1(C)C(=O)N1CCc2ccccc2C1
REMARK SMILES IDX 14 1 13 2 12 3 11 4 10 5 9 6 8 7 6 8 7 9 4 10 1 11 2 12 3 13
REMARK SMILES IDX 88 14 86 15 5 16 87 17 89 18 90 19 91 20 92 21 93 22 101 23
REMARK SMILES IDX 94 24 100 25 95 26 99 27 96 28 98 29 97 30 15 31 16 32 17 33
REMARK SMILES IDX 18 34 19 35 20 36 21 37 22 38 23 39 24 40 85 41 25 42 84 43
REMARK SMILES IDX 26 44 27 45 28 46 78 47 29 48 83 49 77 50 79 51 30 52 82 53
REMARK SMILES IDX 76 54 75 55 31 57 63 58 43 59 62 60 44 61 47 62 61 63 80 64
REMARK SMILES IDX 45 65 46 66 60 68 81 69 48 70 32 71 33 72 41 73 34 74 35 75
REMARK SMILES IDX 39 76 42 77 36 78 37 79 40 80 38 81 64 82 65 83 73 84 66 85
REMARK SMILES IDX 67 86 71 87 74 88 68 89 69 90 72 91 70 92 49 93 50 94 58 95
REMARK SMILES IDX 51 96 52 97 56 98 59 99 53 100 54 101 57 102 55 103
REMARK H PARENT 79 56 47 67
REMARK Flexibility Score: inf
ROOT
ATOM      1  O   UNL A   1      42.644  22.543  27.931  1.00  0.00    -0.377 OA
ENDROOT
BRANCH   1   2
ATOM      2  C   UNL A   1      42.034  21.483  27.231  1.00  0.00     0.188 C 
BRANCH   2   3
ATOM      3  C   UNL A   1      40.926  21.853  26.238  1.00  0.00     0.188 C 
BRANCH   3   4
ATOM      4  O   UNL A   1      39.726  21.168  26.521  1.00  0.00    -0.376 OA
BRANCH   4   5
ATOM      5  C   UNL A   1      38.582  21.486  25.756  1.00  0.00     0.202 C 
BRANCH   5   6
ATOM      6  C   UNL A   1      37.746  20.461  24.948  1.00  0.00     0.261 C 
BRANCH   6   7
ATOM      7  O   UNL A   1      36.357  20.702  24.661  1.00  0.00    -0.463 OA
BRANCH   7   8
ATOM      8  C   UNL A   1      36.031  21.961  24.294  1.00  0.00     0.312 C 
ATOM      9  O   UNL A   1      36.637  22.567  23.415  1.00  0.00    -0.252 OA
BRANCH   8  10
ATOM     10  C   UNL A   1      34.949  22.623  25.187  1.00  0.00     0.071 C 
ATOM     11  C   UNL A   1      33.371  22.834  23.064  1.00  0.00     0.013 C 
ATOM     12  C   UNL A   1      33.465  22.467  24.576  1.00  0.00    -0.005 C 
ATOM     13  C   UNL A   1      33.020  20.957  24.411  1.00  0.00     0.013 C 
ATOM     14  C   UNL A   1      32.491  23.073  25.754  1.00  0.00     0.053 C 
ATOM     15  C   UNL A   1      34.723  22.195  26.654  1.00  0.00     0.020 C 
ATOM     16  C   UNL A   1      35.601  24.024  25.311  1.00  0.00     0.024 C 
ATOM     17  C   UNL A   1      33.253  22.512  27.018  1.00  0.00     0.018 C 
ATOM     18  C   UNL A   1      31.068  22.397  25.704  1.00  0.00     0.022 C 
BRANCH  14  19
ATOM     19  C   UNL A   1      32.112  24.594  26.200  1.00  0.00     0.229 C 
ATOM     20  O   UNL A   1      31.318  24.742  27.145  1.00  0.00    -0.274 OA
BRANCH  19  21
ATOM     21  N   UNL A   1      32.634  25.737  25.644  1.00  0.00    -0.338 N 
ATOM     22  C   UNL A   1      32.861  26.995  26.412  1.00  0.00     0.124 C 
ATOM     23  C   UNL A   1      32.538  25.972  24.262  1.00  0.00     0.155 C 
ATOM     24  C   UNL A   1      32.884  28.296  25.495  1.00  0.00     0.057 C 
ATOM     25  C   UNL A   1      31.440  26.946  24.060  1.00  0.00    -0.025 A 
ATOM     26  C   UNL A   1      31.732  28.231  24.503  1.00  0.00    -0.041 A 
ATOM     27  C   UNL A   1      30.149  26.630  23.672  1.00  0.00     0.006 A 
ATOM     28  C   UNL A   1      30.904  29.265  24.099  1.00  0.00     0.004 A 
ATOM     29  C   UNL A   1      29.267  27.639  23.348  1.00  0.00     0.000 A 
ATOM     30  C   UNL A   1      29.686  28.961  23.472  1.00  0.00     0.000 A 
ENDBRANCH  19  21
ENDBRANCH  14  19
ENDBRANCH   8  10
ENDBRANCH   7   8
ENDBRANCH   6   7
ENDBRANCH   5   6
ENDBRANCH   4   5
ENDBRANCH   3   4
ENDBRANCH   2   3
ENDBRANCH   1   2
BRANCH   1  31
ATOM     31  C   UNL A   1      43.877  23.034  27.443  1.00  0.00     0.188 C 
BRANCH  31  32
ATOM     32  C   UNL A   1      44.490  24.337  28.001  1.00  0.00     0.188 C 
BRANCH  32  33
ATOM     33  O   UNL A   1      44.088  25.530  27.348  1.00  0.00    -0.376 OA
BRANCH  33  34
ATOM     34  C   UNL A   1      43.303  25.451  26.172  1.00  0.00     0.202 C 
BRANCH  34  35
ATOM     35  C   UNL A   1      41.786  25.643  26.297  1.00  0.00     0.261 C 
BRANCH  35  36
ATOM     36  O   UNL A   1      41.235  25.570  27.617  1.00  0.00    -0.460 OA
BRANCH  36  37
ATOM     37  C   UNL A   1      40.091  26.237  27.877  1.00  0.00     0.338 C 
ATOM     38  O   UNL A   1      38.948  25.872  27.657  1.00  0.00    -0.246 OA
BRANCH  37  39
ATOM     39  C   UNL A   1      40.461  27.423  28.673  1.00  0.00     0.060 A 
ATOM     40  C   UNL A   1      39.832  28.652  28.420  1.00  0.00     0.016 A 
ATOM     41  C   UNL A   1      41.380  27.294  29.717  1.00  0.00     0.016 A 
ATOM     42  C   UNL A   1      40.142  29.768  29.196  1.00  0.00     0.010 A 
ATOM     43  C   UNL A   1      41.721  28.419  30.463  1.00  0.00     0.010 A 
ATOM     44  C   UNL A   1      41.132  29.665  30.178  1.00  0.00    -0.014 A 
BRANCH  44  45
ATOM     45  C   UNL A   1      41.784  30.883  30.704  1.00  0.00     0.031 A 
ATOM     46  C   UNL A   1      41.182  31.498  31.933  1.00  0.00     0.074 A 
ATOM     47  C   UNL A   1      42.830  31.454  30.090  1.00  0.00     0.049 A 
ATOM     48  N   UNL A   1      41.423  32.653  32.496  1.00  0.00    -0.248 NA
ATOM     49  C   UNL A   1      40.144  30.701  32.610  1.00  0.00     0.031 C 
ATOM     50  C   UNL A   1      43.528  30.915  28.926  1.00  0.00     0.029 A 
ATOM     51  N   UNL A   1      43.467  32.640  30.353  1.00  0.00    -0.354 N 
ATOM     52  C   UNL A   1      40.549  32.730  33.571  1.00  0.00     0.074 A 
ATOM     53  C   UNL A   1      39.759  31.520  33.574  1.00  0.00     0.031 C 
ATOM     54  C   UNL A   1      44.477  31.791  28.551  1.00  0.00     0.029 A 
ATOM     55  C   UNL A   1      44.417  32.966  29.420  1.00  0.00     0.049 A 
ATOM     56  H   UNL A   1      43.261  33.202  31.136  1.00  0.00     0.167 HD
ATOM     57  C   UNL A   1      40.417  33.727  34.476  1.00  0.00     0.037 A 
ATOM     58  C   UNL A   1      45.121  34.105  29.266  1.00  0.00     0.037 A 
ATOM     59  C   UNL A   1      41.201  34.931  34.452  1.00  0.00     0.049 A 
ATOM     60  C   UNL A   1      44.910  35.239  30.238  1.00  0.00     0.074 A 
ATOM     61  C   UNL A   1      41.164  36.002  35.325  1.00  0.00     0.029 A 
ATOM     62  N   UNL A   1      42.156  35.227  33.489  1.00  0.00    -0.354 N 
ATOM     63  N   UNL A   1      44.095  35.311  31.263  1.00  0.00    -0.248 NA
ATOM     64  C   UNL A   1      45.715  36.451  30.031  1.00  0.00     0.031 C 
ATOM     65  C   UNL A   1      42.051  36.975  34.853  1.00  0.00     0.029 A 
ATOM     66  C   UNL A   1      42.697  36.479  33.731  1.00  0.00     0.049 A 
ATOM     67  H   UNL A   1      42.411  34.635  32.746  1.00  0.00     0.167 HD
ATOM     68  C   UNL A   1      44.314  36.555  31.845  1.00  0.00     0.074 A 
ATOM     69  C   UNL A   1      45.338  37.207  31.054  1.00  0.00     0.031 C 
ATOM     70  C   UNL A   1      43.729  37.102  32.939  1.00  0.00     0.037 A 
BRANCH  57  71
ATOM     71  C   UNL A   1      39.347  33.571  35.517  1.00  0.00     0.064 A 
ATOM     72  C   UNL A   1      39.623  33.072  36.801  1.00  0.00     0.173 A 
ATOM     73  C   UNL A   1      38.018  33.905  35.218  1.00  0.00     0.173 A 
ATOM     74  F   UNL A   1      40.874  32.717  37.133  1.00  0.00    -0.203 F 
ATOM     75  C   UNL A   1      38.603  32.874  37.727  1.00  0.00     0.198 A 
ATOM     76  C   UNL A   1      37.006  33.741  36.160  1.00  0.00     0.198 A 
ATOM     77  F   UNL A   1      37.697  34.384  34.007  1.00  0.00    -0.203 F 
ATOM     78  F   UNL A   1      38.880  32.327  38.920  1.00  0.00    -0.200 F 
ATOM     79  C   UNL A   1      37.297  33.213  37.408  1.00  0.00     0.200 A 
ATOM     80  F   UNL A   1      35.747  34.081  35.854  1.00  0.00    -0.200 F 
ATOM     81  F   UNL A   1      36.315  33.019  38.300  1.00  0.00    -0.200 F 
ENDBRANCH  57  71
BRANCH  58  82
ATOM     82  C   UNL A   1      46.075  34.230  28.134  1.00  0.00     0.064 A 
ATOM     83  C   UNL A   1      45.632  34.570  26.850  1.00  0.00     0.173 A 
ATOM     84  C   UNL A   1      47.452  34.033  28.318  1.00  0.00     0.173 A 
ATOM     85  F   UNL A   1      44.323  34.744  26.618  1.00  0.00    -0.203 F 
ATOM     86  C   UNL A   1      46.528  34.702  25.790  1.00  0.00     0.198 A 
ATOM     87  C   UNL A   1      48.350  34.193  27.264  1.00  0.00     0.198 A 
ATOM     88  F   UNL A   1      47.929  33.705  29.528  1.00  0.00    -0.203 F 
ATOM     89  F   UNL A   1      46.074  34.995  24.564  1.00  0.00    -0.200 F 
ATOM     90  C   UNL A   1      47.888  34.523  26.000  1.00  0.00     0.200 A 
ATOM     91  F   UNL A   1      49.664  34.032  27.475  1.00  0.00    -0.200 F 
ATOM     92  F   UNL A   1      48.750  34.665  24.984  1.00  0.00    -0.200 F 
ENDBRANCH  58  82
BRANCH  70  93
ATOM     93  C   UNL A   1      44.219  38.445  33.398  1.00  0.00     0.064 A 
ATOM     94  C   UNL A   1      43.754  39.640  32.832  1.00  0.00     0.173 A 
ATOM     95  C   UNL A   1      45.106  38.534  34.484  1.00  0.00     0.173 A 
ATOM     96  F   UNL A   1      42.915  39.611  31.785  1.00  0.00    -0.203 F 
ATOM     97  C   UNL A   1      44.170  40.875  33.327  1.00  0.00     0.198 A 
ATOM     98  C   UNL A   1      45.492  39.769  34.996  1.00  0.00     0.198 A 
ATOM     99  F   UNL A   1      45.572  37.421  35.068  1.00  0.00    -0.203 F 
ATOM    100  F   UNL A   1      43.741  42.005  32.749  1.00  0.00    -0.200 F 
ATOM    101  C   UNL A   1      45.028  40.937  34.415  1.00  0.00     0.200 A 
ATOM    102  F   UNL A   1      46.306  39.825  36.060  1.00  0.00    -0.200 F 
ATOM    103  F   UNL A   1      45.410  42.126  34.902  1.00  0.00    -0.200 F 
ENDBRANCH  70  93
ENDBRANCH  44  45
ENDBRANCH  37  39
ENDBRANCH  36  37
ENDBRANCH  35  36
ENDBRANCH  34  35
ENDBRANCH  33  34
ENDBRANCH  32  33
ENDBRANCH  31  32
ENDBRANCH   1  31
TORSDOF 22
ENDMDL
