MODEL 1
REMARK VINA RESULT:     -10.6      0.000      0.000
REMARK SMILES COc1cccc(-c2c(C(=O)OCCOCCOCCOCCOC(=O)c3ccc(-c4c5nc(c(-c6c(F)c(F)c(F)c(F)c6F)c6ccc([nH]6)c(-c6c(F)c(F)c(F)c(F)c6F)c6nc(c(-c7c(F)c(F)c(F)c(F)c7F)c7ccc4[nH]7)C=C6)C=C5)cc3)nnn2-c2ccc(OC(F)(F)F)cc2)c1
REMARK SMILES IDX 17 1 16 2 15 3 14 4 13 5 12 6 10 7 11 8 9 9 8 10 92 11 90 12
REMARK SMILES IDX 91 13 7 14 3 15 4 16 104 17 5 18 6 19 2 20 1 21 93 22 94 23
REMARK SMILES IDX 103 24 95 25 102 26 96 27 97 28 98 29 99 30 100 31 101 32
REMARK SMILES IDX 18 33 19 34 20 35 21 36 22 37 23 38 24 39 25 40 26 41 27 42
REMARK SMILES IDX 28 43 89 44 29 45 88 46 30 47 31 48 32 49 82 50 33 51 87 52
REMARK SMILES IDX 81 53 83 54 34 55 86 56 80 57 79 58 35 60 67 61 47 62 66 63
REMARK SMILES IDX 48 64 51 65 65 66 84 67 49 68 50 69 64 71 85 72 52 73 36 74
REMARK SMILES IDX 37 75 45 76 38 77 39 78 43 79 46 80 40 81 41 82 44 83 42 84
REMARK SMILES IDX 68 85 69 86 77 87 70 88 71 89 75 90 78 91 72 92 73 93 76 94
REMARK SMILES IDX 74 95 53 96 54 97 62 98 55 99 56 100 60 101 63 102 57 103
REMARK SMILES IDX 58 104 61 105 59 106
REMARK H PARENT 83 59 51 70
REMARK Flexibility Score: inf
ROOT
ATOM      1  C   UNL A   1      35.623  22.291  23.663  1.00  0.00     0.188 C 
ENDROOT
BRANCH   1   2
ATOM      2  C   UNL A   1      34.082  22.214  23.606  1.00  0.00     0.188 C 
BRANCH   2   3
ATOM      3  O   UNL A   1      33.492  21.099  24.234  1.00  0.00    -0.376 OA
BRANCH   3   4
ATOM      4  C   UNL A   1      32.869  21.150  25.495  1.00  0.00     0.202 C 
BRANCH   4   5
ATOM      5  C   UNL A   1      33.366  21.954  26.707  1.00  0.00     0.261 C 
BRANCH   5   6
ATOM      6  O   UNL A   1      32.665  23.148  27.037  1.00  0.00    -0.458 OA
BRANCH   6   7
ATOM      7  C   UNL A   1      33.087  24.285  26.407  1.00  0.00     0.361 C 
ATOM      8  O   UNL A   1      34.248  24.638  26.325  1.00  0.00    -0.244 OA
BRANCH   7   9
ATOM      9  C   UNL A   1      31.989  24.950  25.723  1.00  0.00     0.198 A 
ATOM     10  C   UNL A   1      31.725  26.305  25.577  1.00  0.00     0.109 A 
ATOM     11  N   UNL A   1      30.599  26.295  24.757  1.00  0.00    -0.212 N 
ATOM     12  N   UNL A   1      30.926  24.225  25.227  1.00  0.00    -0.122 NA
ATOM     13  N   UNL A   1      30.023  25.077  24.767  1.00  0.00    -0.061 NA
BRANCH  10  14
ATOM     14  C   UNL A   1      32.385  27.527  26.055  1.00  0.00     0.007 A 
ATOM     15  C   UNL A   1      32.219  29.778  26.995  1.00  0.00     0.119 A 
ATOM     16  C   UNL A   1      33.581  29.959  26.755  1.00  0.00     0.046 A 
ATOM     17  C   UNL A   1      31.630  28.555  26.665  1.00  0.00     0.056 A 
ATOM     18  C   UNL A   1      34.351  28.932  26.212  1.00  0.00     0.005 A 
ATOM     19  C   UNL A   1      33.755  27.722  25.859  1.00  0.00     0.011 A 
BRANCH  15  20
ATOM     20  O   UNL A   1      31.579  30.879  27.489  1.00  0.00    -0.497 OA
ATOM     21  C   UNL A   1      31.652  32.080  26.731  1.00  0.00     0.278 C 
ENDBRANCH  15  20
ENDBRANCH  10  14
BRANCH  11  22
ATOM     22  C   UNL A   1      30.156  27.301  23.873  1.00  0.00     0.067 A 
ATOM     23  C   UNL A   1      31.071  28.123  23.214  1.00  0.00     0.032 A 
ATOM     24  C   UNL A   1      28.781  27.477  23.688  1.00  0.00     0.032 A 
ATOM     25  C   UNL A   1      30.590  29.073  22.307  1.00  0.00     0.049 A 
ATOM     26  C   UNL A   1      28.312  28.457  22.818  1.00  0.00     0.049 A 
ATOM     27  C   UNL A   1      29.212  29.243  22.101  1.00  0.00     0.129 A 
BRANCH  27  28
ATOM     28  O   UNL A   1      28.880  30.198  21.182  1.00  0.00    -0.406 OA
BRANCH  28  29
ATOM     29  C   UNL A   1      28.445  31.454  21.681  1.00  0.00     0.573 C 
ATOM     30  F   UNL A   1      29.439  32.099  22.328  1.00  0.00    -0.132 F 
ATOM     31  F   UNL A   1      27.979  32.235  20.682  1.00  0.00    -0.132 F 
ATOM     32  F   UNL A   1      27.440  31.250  22.559  1.00  0.00    -0.132 F 
ENDBRANCH  28  29
ENDBRANCH  27  28
ENDBRANCH  11  22
ENDBRANCH   7   9
ENDBRANCH   6   7
ENDBRANCH   5   6
ENDBRANCH   4   5
ENDBRANCH   3   4
ENDBRANCH   2   3
ENDBRANCH   1   2
BRANCH   1  33
ATOM     33  O   UNL A   1      36.311  21.924  24.845  1.00  0.00    -0.377 OA
BRANCH  33  34
ATOM     34  C   UNL A   1      37.371  20.974  24.816  1.00  0.00     0.188 C 
BRANCH  34  35
ATOM     35  C   UNL A   1      38.705  21.129  25.592  1.00  0.00     0.188 C 
BRANCH  35  36
ATOM     36  O   UNL A   1      39.518  19.980  25.677  1.00  0.00    -0.376 OA
BRANCH  36  37
ATOM     37  C   UNL A   1      40.778  19.945  26.307  1.00  0.00     0.202 C 
BRANCH  37  38
ATOM     38  C   UNL A   1      41.370  21.178  26.974  1.00  0.00     0.261 C 
BRANCH  38  39
ATOM     39  O   UNL A   1      42.596  21.623  26.434  1.00  0.00    -0.460 OA
BRANCH  39  40
ATOM     40  C   UNL A   1      42.520  22.829  25.841  1.00  0.00     0.338 C 
ATOM     41  O   UNL A   1      43.005  23.161  24.778  1.00  0.00    -0.246 OA
BRANCH  40  42
ATOM     42  C   UNL A   1      41.897  23.755  26.790  1.00  0.00     0.060 A 
ATOM     43  C   UNL A   1      41.013  24.678  26.241  1.00  0.00     0.016 A 
ATOM     44  C   UNL A   1      42.473  23.921  28.061  1.00  0.00     0.016 A 
ATOM     45  C   UNL A   1      40.919  25.902  26.854  1.00  0.00     0.010 A 
ATOM     46  C   UNL A   1      42.382  25.148  28.669  1.00  0.00     0.010 A 
ATOM     47  C   UNL A   1      41.691  26.149  28.001  1.00  0.00    -0.014 A 
BRANCH  47  48
ATOM     48  C   UNL A   1      41.649  27.485  28.546  1.00  0.00     0.031 A 
ATOM     49  C   UNL A   1      42.843  28.259  28.164  1.00  0.00     0.074 A 
ATOM     50  C   UNL A   1      40.636  27.953  29.298  1.00  0.00     0.049 A 
ATOM     51  N   UNL A   1      43.823  28.582  28.936  1.00  0.00    -0.248 NA
ATOM     52  C   UNL A   1      43.083  28.506  26.734  1.00  0.00     0.031 C 
ATOM     53  C   UNL A   1      39.326  27.354  29.550  1.00  0.00     0.029 A 
ATOM     54  N   UNL A   1      40.561  29.139  29.959  1.00  0.00    -0.354 N 
ATOM     55  C   UNL A   1      44.716  29.268  28.127  1.00  0.00     0.074 A 
ATOM     56  C   UNL A   1      44.312  29.024  26.768  1.00  0.00     0.031 C 
ATOM     57  C   UNL A   1      38.514  28.281  30.113  1.00  0.00     0.029 A 
ATOM     58  C   UNL A   1      39.285  29.482  30.384  1.00  0.00     0.049 A 
ATOM     59  H   UNL A   1      41.348  29.708  30.122  1.00  0.00     0.167 HD
ATOM     60  C   UNL A   1      45.521  30.216  28.673  1.00  0.00     0.037 A 
ATOM     61  C   UNL A   1      38.905  30.697  30.859  1.00  0.00     0.037 A 
ATOM     62  C   UNL A   1      45.660  30.020  30.098  1.00  0.00     0.049 A 
ATOM     63  C   UNL A   1      40.132  31.392  31.331  1.00  0.00     0.074 A 
ATOM     64  C   UNL A   1      46.131  28.994  30.896  1.00  0.00     0.029 A 
ATOM     65  N   UNL A   1      44.916  30.821  30.928  1.00  0.00    -0.354 N 
ATOM     66  N   UNL A   1      40.812  31.019  32.379  1.00  0.00    -0.248 NA
ATOM     67  C   UNL A   1      40.866  32.200  30.368  1.00  0.00     0.031 C 
ATOM     68  C   UNL A   1      45.269  28.977  32.034  1.00  0.00     0.029 A 
ATOM     69  C   UNL A   1      44.365  30.032  31.903  1.00  0.00     0.049 A 
ATOM     70  H   UNL A   1      44.800  31.795  30.840  1.00  0.00     0.167 HD
ATOM     71  C   UNL A   1      42.139  31.134  31.992  1.00  0.00     0.074 A 
ATOM     72  C   UNL A   1      42.111  31.948  30.779  1.00  0.00     0.031 C 
ATOM     73  C   UNL A   1      43.093  30.315  32.523  1.00  0.00     0.037 A 
BRANCH  60  74
ATOM     74  C   UNL A   1      45.772  31.548  28.007  1.00  0.00     0.064 A 
ATOM     75  C   UNL A   1      44.664  32.301  27.575  1.00  0.00     0.173 A 
ATOM     76  C   UNL A   1      47.023  31.952  27.488  1.00  0.00     0.173 A 
ATOM     77  F   UNL A   1      43.426  31.994  27.994  1.00  0.00    -0.203 F 
ATOM     78  C   UNL A   1      44.790  33.311  26.619  1.00  0.00     0.198 A 
ATOM     79  C   UNL A   1      47.150  32.994  26.575  1.00  0.00     0.198 A 
ATOM     80  F   UNL A   1      48.157  31.290  27.738  1.00  0.00    -0.203 F 
ATOM     81  F   UNL A   1      43.691  33.901  26.131  1.00  0.00    -0.200 F 
ATOM     82  C   UNL A   1      46.031  33.649  26.113  1.00  0.00     0.200 A 
ATOM     83  F   UNL A   1      48.362  33.291  26.082  1.00  0.00    -0.200 F 
ATOM     84  F   UNL A   1      46.145  34.566  25.144  1.00  0.00    -0.200 F 
ENDBRANCH  60  74
BRANCH  61  85
ATOM     85  C   UNL A   1      37.644  31.435  30.596  1.00  0.00     0.064 A 
ATOM     86  C   UNL A   1      37.063  32.245  31.588  1.00  0.00     0.173 A 
ATOM     87  C   UNL A   1      37.154  31.607  29.287  1.00  0.00     0.173 A 
ATOM     88  F   UNL A   1      37.500  32.179  32.854  1.00  0.00    -0.203 F 
ATOM     89  C   UNL A   1      36.082  33.195  31.282  1.00  0.00     0.198 A 
ATOM     90  C   UNL A   1      36.172  32.551  28.983  1.00  0.00     0.198 A 
ATOM     91  F   UNL A   1      37.690  30.937  28.256  1.00  0.00    -0.203 F 
ATOM     92  F   UNL A   1      35.606  33.999  32.242  1.00  0.00    -0.200 F 
ATOM     93  C   UNL A   1      35.647  33.356  29.977  1.00  0.00     0.200 A 
ATOM     94  F   UNL A   1      35.788  32.723  27.710  1.00  0.00    -0.200 F 
ATOM     95  F   UNL A   1      34.761  34.313  29.670  1.00  0.00    -0.200 F 
ENDBRANCH  61  85
BRANCH  73  96
ATOM     96  C   UNL A   1      42.711  29.505  33.734  1.00  0.00     0.064 A 
ATOM     97  C   UNL A   1      42.073  28.251  33.687  1.00  0.00     0.173 A 
ATOM     98  C   UNL A   1      43.083  29.988  34.996  1.00  0.00     0.173 A 
ATOM     99  F   UNL A   1      41.784  27.666  32.518  1.00  0.00    -0.203 F 
ATOM    100  C   UNL A   1      41.759  27.556  34.854  1.00  0.00     0.198 A 
ATOM    101  C   UNL A   1      42.806  29.271  36.157  1.00  0.00     0.198 A 
ATOM    102  F   UNL A   1      43.747  31.149  35.102  1.00  0.00    -0.203 F 
ATOM    103  F   UNL A   1      41.117  26.380  34.785  1.00  0.00    -0.200 F 
ATOM    104  C   UNL A   1      42.127  28.066  36.087  1.00  0.00     0.200 A 
ATOM    105  F   UNL A   1      43.211  29.746  37.343  1.00  0.00    -0.200 F 
ATOM    106  F   UNL A   1      41.848  27.387  37.209  1.00  0.00    -0.200 F 
ENDBRANCH  73  96
ENDBRANCH  47  48
ENDBRANCH  40  42
ENDBRANCH  39  40
ENDBRANCH  38  39
ENDBRANCH  37  38
ENDBRANCH  36  37
ENDBRANCH  35  36
ENDBRANCH  34  35
ENDBRANCH  33  34
ENDBRANCH   1  33
TORSDOF 25
ENDMDL
MODEL 2
REMARK VINA RESULT:     -10.0      3.975      9.699
REMARK SMILES COc1cccc(-c2c(C(=O)OCCOCCOCCOCCOC(=O)c3ccc(-c4c5nc(c(-c6c(F)c(F)c(F)c(F)c6F)c6ccc([nH]6)c(-c6c(F)c(F)c(F)c(F)c6F)c6nc(c(-c7c(F)c(F)c(F)c(F)c7F)c7ccc4[nH]7)C=C6)C=C5)cc3)nnn2-c2ccc(OC(F)(F)F)cc2)c1
REMARK SMILES IDX 17 1 16 2 15 3 14 4 13 5 12 6 10 7 11 8 9 9 8 10 92 11 90 12
REMARK SMILES IDX 91 13 7 14 3 15 4 16 104 17 5 18 6 19 2 20 1 21 93 22 94 23
REMARK SMILES IDX 103 24 95 25 102 26 96 27 97 28 98 29 99 30 100 31 101 32
REMARK SMILES IDX 18 33 19 34 20 35 21 36 22 37 23 38 24 39 25 40 26 41 27 42
REMARK SMILES IDX 28 43 89 44 29 45 88 46 30 47 31 48 32 49 82 50 33 51 87 52
REMARK SMILES IDX 81 53 83 54 34 55 86 56 80 57 79 58 35 60 67 61 47 62 66 63
REMARK SMILES IDX 48 64 51 65 65 66 84 67 49 68 50 69 64 71 85 72 52 73 36 74
REMARK SMILES IDX 37 75 45 76 38 77 39 78 43 79 46 80 40 81 41 82 44 83 42 84
REMARK SMILES IDX 68 85 69 86 77 87 70 88 71 89 75 90 78 91 72 92 73 93 76 94
REMARK SMILES IDX 74 95 53 96 54 97 62 98 55 99 56 100 60 101 63 102 57 103
REMARK SMILES IDX 58 104 61 105 59 106
REMARK H PARENT 83 59 51 70
REMARK Flexibility Score: inf
ROOT
ATOM      1  C   UNL A   1      33.262  36.493  29.282  1.00  0.00     0.188 C 
ENDROOT
BRANCH   1   2
ATOM      2  C   UNL A   1      33.244  35.030  28.787  1.00  0.00     0.188 C 
BRANCH   2   3
ATOM      3  O   UNL A   1      34.074  34.129  29.483  1.00  0.00    -0.376 OA
BRANCH   3   4
ATOM      4  C   UNL A   1      34.440  32.863  28.990  1.00  0.00     0.202 C 
BRANCH   4   5
ATOM      5  C   UNL A   1      33.931  32.228  27.686  1.00  0.00     0.261 C 
BRANCH   5   6
ATOM      6  O   UNL A   1      33.361  30.926  27.766  1.00  0.00    -0.458 OA
BRANCH   6   7
ATOM      7  C   UNL A   1      32.218  30.726  27.045  1.00  0.00     0.361 C 
ATOM      8  O   UNL A   1      31.644  31.589  26.409  1.00  0.00    -0.244 OA
BRANCH   7   9
ATOM      9  C   UNL A   1      31.847  29.320  27.018  1.00  0.00     0.198 A 
ATOM     10  C   UNL A   1      31.680  28.466  25.936  1.00  0.00     0.109 A 
ATOM     11  N   UNL A   1      31.420  27.250  26.562  1.00  0.00    -0.212 N 
ATOM     12  N   UNL A   1      31.451  28.675  28.171  1.00  0.00    -0.122 NA
ATOM     13  N   UNL A   1      31.061  27.451  27.846  1.00  0.00    -0.061 NA
BRANCH  10  14
ATOM     14  C   UNL A   1      31.767  28.641  24.480  1.00  0.00     0.007 A 
ATOM     15  C   UNL A   1      30.695  29.233  22.365  1.00  0.00     0.119 A 
ATOM     16  C   UNL A   1      31.816  28.761  21.684  1.00  0.00     0.046 A 
ATOM     17  C   UNL A   1      30.682  29.192  23.761  1.00  0.00     0.056 A 
ATOM     18  C   UNL A   1      32.919  28.271  22.383  1.00  0.00     0.005 A 
ATOM     19  C   UNL A   1      32.893  28.207  23.776  1.00  0.00     0.011 A 
BRANCH  15  20
ATOM     20  O   UNL A   1      29.672  29.643  21.556  1.00  0.00    -0.497 OA
ATOM     21  C   UNL A   1      28.355  29.606  22.090  1.00  0.00     0.278 C 
ENDBRANCH  15  20
ENDBRANCH  10  14
BRANCH  11  22
ATOM     22  C   UNL A   1      31.645  25.949  26.067  1.00  0.00     0.067 A 
ATOM     23  C   UNL A   1      32.922  25.387  26.095  1.00  0.00     0.032 A 
ATOM     24  C   UNL A   1      30.569  25.241  25.522  1.00  0.00     0.032 A 
ATOM     25  C   UNL A   1      33.090  24.075  25.641  1.00  0.00     0.049 A 
ATOM     26  C   UNL A   1      30.758  23.952  25.030  1.00  0.00     0.049 A 
ATOM     27  C   UNL A   1      32.012  23.350  25.110  1.00  0.00     0.129 A 
BRANCH  27  28
ATOM     28  O   UNL A   1      32.312  22.078  24.713  1.00  0.00    -0.406 OA
BRANCH  28  29
ATOM     29  C   UNL A   1      32.968  21.928  23.462  1.00  0.00     0.573 C 
ATOM     30  F   UNL A   1      34.308  21.860  23.613  1.00  0.00    -0.132 F 
ATOM     31  F   UNL A   1      32.531  20.824  22.818  1.00  0.00    -0.132 F 
ATOM     32  F   UNL A   1      32.690  23.002  22.692  1.00  0.00    -0.132 F 
ENDBRANCH  28  29
ENDBRANCH  27  28
ENDBRANCH  11  22
ENDBRANCH   7   9
ENDBRANCH   6   7
ENDBRANCH   5   6
ENDBRANCH   4   5
ENDBRANCH   3   4
ENDBRANCH   2   3
ENDBRANCH   1   2
BRANCH   1  33
ATOM     33  O   UNL A   1      32.674  36.831  30.525  1.00  0.00    -0.377 OA
BRANCH  33  34
ATOM     34  C   UNL A   1      33.297  36.478  31.755  1.00  0.00     0.188 C 
BRANCH  34  35
ATOM     35  C   UNL A   1      32.859  35.287  32.647  1.00  0.00     0.188 C 
BRANCH  35  36
ATOM     36  O   UNL A   1      33.783  34.230  32.778  1.00  0.00    -0.376 OA
BRANCH  36  37
ATOM     37  C   UNL A   1      35.182  34.393  32.765  1.00  0.00     0.202 C 
BRANCH  37  38
ATOM     38  C   UNL A   1      36.103  33.322  32.197  1.00  0.00     0.261 C 
BRANCH  38  39
ATOM     39  O   UNL A   1      36.759  32.522  33.157  1.00  0.00    -0.460 OA
BRANCH  39  40
ATOM     40  C   UNL A   1      38.071  32.795  33.284  1.00  0.00     0.338 C 
ATOM     41  O   UNL A   1      38.631  33.850  33.059  1.00  0.00    -0.246 OA
BRANCH  40  42
ATOM     42  C   UNL A   1      38.763  31.537  33.572  1.00  0.00     0.060 A 
ATOM     43  C   UNL A   1      40.069  31.658  34.035  1.00  0.00     0.016 A 
ATOM     44  C   UNL A   1      38.259  30.341  33.033  1.00  0.00     0.016 A 
ATOM     45  C   UNL A   1      40.950  30.659  33.706  1.00  0.00     0.010 A 
ATOM     46  C   UNL A   1      39.142  29.345  32.701  1.00  0.00     0.010 A 
ATOM     47  C   UNL A   1      40.489  29.569  32.951  1.00  0.00    -0.014 A 
BRANCH  47  48
ATOM     48  C   UNL A   1      41.472  28.598  32.530  1.00  0.00     0.031 A 
ATOM     49  C   UNL A   1      41.973  27.812  33.670  1.00  0.00     0.074 A 
ATOM     50  C   UNL A   1      41.863  28.437  31.253  1.00  0.00     0.049 A 
ATOM     51  N   UNL A   1      43.136  27.915  34.217  1.00  0.00    -0.248 NA
ATOM     52  C   UNL A   1      41.014  26.988  34.422  1.00  0.00     0.031 C 
ATOM     53  C   UNL A   1      41.281  29.003  30.036  1.00  0.00     0.029 A 
ATOM     54  N   UNL A   1      42.864  27.649  30.775  1.00  0.00    -0.354 N 
ATOM     55  C   UNL A   1      43.131  27.006  35.264  1.00  0.00     0.074 A 
ATOM     56  C   UNL A   1      41.761  26.615  35.462  1.00  0.00     0.031 C 
ATOM     57  C   UNL A   1      41.793  28.360  28.958  1.00  0.00     0.029 A 
ATOM     58  C   UNL A   1      42.829  27.443  29.402  1.00  0.00     0.049 A 
ATOM     59  H   UNL A   1      43.555  27.258  31.355  1.00  0.00     0.167 HD
ATOM     60  C   UNL A   1      44.299  26.437  35.662  1.00  0.00     0.037 A 
ATOM     61  C   UNL A   1      43.566  26.531  28.717  1.00  0.00     0.037 A 
ATOM     62  C   UNL A   1      45.430  27.237  35.251  1.00  0.00     0.049 A 
ATOM     63  C   UNL A   1      44.741  26.186  29.561  1.00  0.00     0.074 A 
ATOM     64  C   UNL A   1      45.843  28.534  35.493  1.00  0.00     0.029 A 
ATOM     65  N   UNL A   1      46.134  26.827  34.146  1.00  0.00    -0.354 N 
ATOM     66  N   UNL A   1      45.714  27.016  29.813  1.00  0.00    -0.248 NA
ATOM     67  C   UNL A   1      44.597  25.089  30.507  1.00  0.00     0.031 C 
ATOM     68  C   UNL A   1      46.406  28.986  34.262  1.00  0.00     0.029 A 
ATOM     69  C   UNL A   1      46.370  27.923  33.359  1.00  0.00     0.049 A 
ATOM     70  H   UNL A   1      46.420  25.905  33.953  1.00  0.00     0.167 HD
ATOM     71  C   UNL A   1      45.991  26.829  31.159  1.00  0.00     0.074 A 
ATOM     72  C   UNL A   1      45.335  25.572  31.510  1.00  0.00     0.031 C 
ATOM     73  C   UNL A   1      46.471  27.856  31.921  1.00  0.00     0.037 A 
BRANCH  60  74
ATOM     74  C   UNL A   1      44.416  24.968  35.986  1.00  0.00     0.064 A 
ATOM     75  C   UNL A   1      45.143  24.590  37.131  1.00  0.00     0.173 A 
ATOM     76  C   UNL A   1      44.141  23.929  35.068  1.00  0.00     0.173 A 
ATOM     77  F   UNL A   1      45.472  25.500  38.061  1.00  0.00    -0.203 F 
ATOM     78  C   UNL A   1      45.641  23.296  37.290  1.00  0.00     0.198 A 
ATOM     79  C   UNL A   1      44.596  22.627  35.257  1.00  0.00     0.198 A 
ATOM     80  F   UNL A   1      43.533  24.141  33.897  1.00  0.00    -0.203 F 
ATOM     81  F   UNL A   1      46.450  23.020  38.322  1.00  0.00    -0.200 F 
ATOM     82  C   UNL A   1      45.377  22.319  36.348  1.00  0.00     0.200 A 
ATOM     83  F   UNL A   1      44.344  21.701  34.320  1.00  0.00    -0.200 F 
ATOM     84  F   UNL A   1      45.914  21.098  36.462  1.00  0.00    -0.200 F 
ENDBRANCH  60  74
BRANCH  61  85
ATOM     85  C   UNL A   1      43.144  25.674  27.580  1.00  0.00     0.064 A 
ATOM     86  C   UNL A   1      43.979  25.497  26.463  1.00  0.00     0.173 A 
ATOM     87  C   UNL A   1      42.066  24.776  27.700  1.00  0.00     0.173 A 
ATOM     88  F   UNL A   1      45.055  26.280  26.294  1.00  0.00    -0.203 F 
ATOM     89  C   UNL A   1      43.771  24.462  25.545  1.00  0.00     0.198 A 
ATOM     90  C   UNL A   1      41.856  23.746  26.781  1.00  0.00     0.198 A 
ATOM     91  F   UNL A   1      41.253  24.811  28.766  1.00  0.00    -0.203 F 
ATOM     92  F   UNL A   1      44.632  24.280  24.534  1.00  0.00    -0.200 F 
ATOM     93  C   UNL A   1      42.718  23.579  25.712  1.00  0.00     0.200 A 
ATOM     94  F   UNL A   1      40.856  22.876  26.976  1.00  0.00    -0.200 F 
ATOM     95  F   UNL A   1      42.558  22.545  24.875  1.00  0.00    -0.200 F 
ENDBRANCH  61  85
BRANCH  73  96
ATOM     96  C   UNL A   1      46.959  29.082  31.197  1.00  0.00     0.064 A 
ATOM     97  C   UNL A   1      46.130  30.126  30.745  1.00  0.00     0.173 A 
ATOM     98  C   UNL A   1      48.341  29.242  31.026  1.00  0.00     0.173 A 
ATOM     99  F   UNL A   1      44.810  30.106  30.968  1.00  0.00    -0.203 F 
ATOM    100  C   UNL A   1      46.659  31.237  30.089  1.00  0.00     0.198 A 
ATOM    101  C   UNL A   1      48.869  30.372  30.408  1.00  0.00     0.198 A 
ATOM    102  F   UNL A   1      49.187  28.309  31.488  1.00  0.00    -0.203 F 
ATOM    103  F   UNL A   1      45.844  32.201  29.635  1.00  0.00    -0.200 F 
ATOM    104  C   UNL A   1      48.028  31.359  29.922  1.00  0.00     0.200 A 
ATOM    105  F   UNL A   1      50.198  30.509  30.296  1.00  0.00    -0.200 F 
ATOM    106  F   UNL A   1      48.539  32.438  29.314  1.00  0.00    -0.200 F 
ENDBRANCH  73  96
ENDBRANCH  47  48
ENDBRANCH  40  42
ENDBRANCH  39  40
ENDBRANCH  38  39
ENDBRANCH  37  38
ENDBRANCH  36  37
ENDBRANCH  35  36
ENDBRANCH  34  35
ENDBRANCH  33  34
ENDBRANCH   1  33
TORSDOF 25
ENDMDL
MODEL 3
REMARK VINA RESULT:      -9.2      4.365     10.300
REMARK SMILES COc1cccc(-c2c(C(=O)OCCOCCOCCOCCOC(=O)c3ccc(-c4c5nc(c(-c6c(F)c(F)c(F)c(F)c6F)c6ccc([nH]6)c(-c6c(F)c(F)c(F)c(F)c6F)c6nc(c(-c7c(F)c(F)c(F)c(F)c7F)c7ccc4[nH]7)C=C6)C=C5)cc3)nnn2-c2ccc(OC(F)(F)F)cc2)c1
REMARK SMILES IDX 17 1 16 2 15 3 14 4 13 5 12 6 10 7 11 8 9 9 8 10 92 11 90 12
REMARK SMILES IDX 91 13 7 14 3 15 4 16 104 17 5 18 6 19 2 20 1 21 93 22 94 23
REMARK SMILES IDX 103 24 95 25 102 26 96 27 97 28 98 29 99 30 100 31 101 32
REMARK SMILES IDX 18 33 19 34 20 35 21 36 22 37 23 38 24 39 25 40 26 41 27 42
REMARK SMILES IDX 28 43 89 44 29 45 88 46 30 47 31 48 32 49 82 50 33 51 87 52
REMARK SMILES IDX 81 53 83 54 34 55 86 56 80 57 79 58 35 60 67 61 47 62 66 63
REMARK SMILES IDX 48 64 51 65 65 66 84 67 49 68 50 69 64 71 85 72 52 73 36 74
REMARK SMILES IDX 37 75 45 76 38 77 39 78 43 79 46 80 40 81 41 82 44 83 42 84
REMARK SMILES IDX 68 85 69 86 77 87 70 88 71 89 75 90 78 91 72 92 73 93 76 94
REMARK SMILES IDX 74 95 53 96 54 97 62 98 55 99 56 100 60 101 63 102 57 103
REMARK SMILES IDX 58 104 61 105 59 106
REMARK H PARENT 83 59 51 70
REMARK Flexibility Score: inf
ROOT
ATOM      1  C   UNL A   1      32.990  27.191  25.724  1.00  0.00     0.188 C 
ENDROOT
BRANCH   1   2
ATOM      2  C   UNL A   1      33.557  28.453  25.037  1.00  0.00     0.188 C 
BRANCH   2   3
ATOM      3  O   UNL A   1      33.135  29.689  25.566  1.00  0.00    -0.376 OA
BRANCH   3   4
ATOM      4  C   UNL A   1      33.166  30.005  26.937  1.00  0.00     0.202 C 
BRANCH   4   5
ATOM      5  C   UNL A   1      34.144  30.981  27.609  1.00  0.00     0.261 C 
BRANCH   5   6
ATOM      6  O   UNL A   1      33.672  32.293  27.896  1.00  0.00    -0.458 OA
BRANCH   6   7
ATOM      7  C   UNL A   1      34.629  33.222  28.198  1.00  0.00     0.361 C 
ATOM      8  O   UNL A   1      35.178  33.936  27.381  1.00  0.00    -0.244 OA
BRANCH   7   9
ATOM      9  C   UNL A   1      34.809  33.347  29.636  1.00  0.00     0.198 A 
ATOM     10  C   UNL A   1      35.818  32.852  30.450  1.00  0.00     0.109 A 
ATOM     11  N   UNL A   1      35.476  33.382  31.692  1.00  0.00    -0.212 N 
ATOM     12  N   UNL A   1      33.824  33.907  30.422  1.00  0.00    -0.122 NA
ATOM     13  N   UNL A   1      34.191  33.791  31.689  1.00  0.00    -0.061 NA
BRANCH  10  14
ATOM     14  C   UNL A   1      37.007  32.024  30.207  1.00  0.00     0.007 A 
ATOM     15  C   UNL A   1      38.163  29.883  30.441  1.00  0.00     0.119 A 
ATOM     16  C   UNL A   1      39.333  30.484  29.977  1.00  0.00     0.046 A 
ATOM     17  C   UNL A   1      36.998  30.649  30.534  1.00  0.00     0.056 A 
ATOM     18  C   UNL A   1      39.341  31.824  29.592  1.00  0.00     0.005 A 
ATOM     19  C   UNL A   1      38.183  32.593  29.711  1.00  0.00     0.011 A 
BRANCH  15  20
ATOM     20  O   UNL A   1      38.308  28.578  30.823  1.00  0.00    -0.497 OA
ATOM     21  C   UNL A   1      38.659  27.634  29.820  1.00  0.00     0.278 C 
ENDBRANCH  15  20
ENDBRANCH  10  14
BRANCH  11  22
ATOM     22  C   UNL A   1      36.324  33.657  32.785  1.00  0.00     0.067 A 
ATOM     23  C   UNL A   1      37.520  34.350  32.601  1.00  0.00     0.032 A 
ATOM     24  C   UNL A   1      35.955  33.200  34.054  1.00  0.00     0.032 A 
ATOM     25  C   UNL A   1      38.305  34.647  33.720  1.00  0.00     0.049 A 
ATOM     26  C   UNL A   1      36.767  33.460  35.154  1.00  0.00     0.049 A 
ATOM     27  C   UNL A   1      37.933  34.209  35.001  1.00  0.00     0.129 A 
BRANCH  27  28
ATOM     28  O   UNL A   1      38.784  34.575  36.005  1.00  0.00    -0.406 OA
BRANCH  28  29
ATOM     29  C   UNL A   1      39.471  33.534  36.685  1.00  0.00     0.573 C 
ATOM     30  F   UNL A   1      39.629  32.451  35.895  1.00  0.00    -0.132 F 
ATOM     31  F   UNL A   1      40.679  33.956  37.118  1.00  0.00    -0.132 F 
ATOM     32  F   UNL A   1      38.744  33.163  37.761  1.00  0.00    -0.132 F 
ENDBRANCH  28  29
ENDBRANCH  27  28
ENDBRANCH  11  22
ENDBRANCH   7   9
ENDBRANCH   6   7
ENDBRANCH   5   6
ENDBRANCH   4   5
ENDBRANCH   3   4
ENDBRANCH   2   3
ENDBRANCH   1   2
BRANCH   1  33
ATOM     33  O   UNL A   1      33.772  26.013  25.806  1.00  0.00    -0.377 OA
BRANCH  33  34
ATOM     34  C   UNL A   1      33.190  24.766  26.169  1.00  0.00     0.188 C 
BRANCH  34  35
ATOM     35  C   UNL A   1      33.738  23.384  25.727  1.00  0.00     0.188 C 
BRANCH  35  36
ATOM     36  O   UNL A   1      35.029  23.374  25.160  1.00  0.00    -0.376 OA
BRANCH  36  37
ATOM     37  C   UNL A   1      36.210  23.105  25.880  1.00  0.00     0.202 C 
BRANCH  37  38
ATOM     38  C   UNL A   1      37.574  23.546  25.367  1.00  0.00     0.261 C 
BRANCH  38  39
ATOM     39  O   UNL A   1      38.544  23.780  26.364  1.00  0.00    -0.460 OA
BRANCH  39  40
ATOM     40  C   UNL A   1      39.412  22.764  26.525  1.00  0.00     0.338 C 
ATOM     41  O   UNL A   1      39.357  21.660  26.022  1.00  0.00    -0.246 OA
BRANCH  40  42
ATOM     42  C   UNL A   1      40.361  23.149  27.572  1.00  0.00     0.060 A 
ATOM     43  C   UNL A   1      40.341  24.489  27.943  1.00  0.00     0.016 A 
ATOM     44  C   UNL A   1      41.446  22.301  27.855  1.00  0.00     0.016 A 
ATOM     45  C   UNL A   1      41.524  25.046  28.359  1.00  0.00     0.010 A 
ATOM     46  C   UNL A   1      42.629  22.861  28.266  1.00  0.00     0.010 A 
ATOM     47  C   UNL A   1      42.673  24.241  28.410  1.00  0.00    -0.014 A 
BRANCH  47  48
ATOM     48  C   UNL A   1      43.918  24.893  28.741  1.00  0.00     0.031 A 
ATOM     49  C   UNL A   1      44.175  24.855  30.191  1.00  0.00     0.074 A 
ATOM     50  C   UNL A   1      44.735  25.450  27.829  1.00  0.00     0.049 A 
ATOM     51  N   UNL A   1      44.090  25.848  31.008  1.00  0.00    -0.248 NA
ATOM     52  C   UNL A   1      44.321  23.542  30.837  1.00  0.00     0.031 C 
ATOM     53  C   UNL A   1      44.685  25.353  26.370  1.00  0.00     0.029 A 
ATOM     54  N   UNL A   1      45.854  26.192  28.048  1.00  0.00    -0.354 N 
ATOM     55  C   UNL A   1      44.384  25.322  32.257  1.00  0.00     0.074 A 
ATOM     56  C   UNL A   1      44.325  23.890  32.125  1.00  0.00     0.031 C 
ATOM     57  C   UNL A   1      45.850  25.817  25.854  1.00  0.00     0.029 A 
ATOM     58  C   UNL A   1      46.659  26.363  26.930  1.00  0.00     0.049 A 
ATOM     59  H   UNL A   1      46.074  26.576  28.926  1.00  0.00     0.167 HD
ATOM     60  C   UNL A   1      44.945  26.118  33.203  1.00  0.00     0.037 A 
ATOM     61  C   UNL A   1      47.923  26.862  26.930  1.00  0.00     0.037 A 
ATOM     62  C   UNL A   1      44.701  27.513  32.918  1.00  0.00     0.049 A 
ATOM     63  C   UNL A   1      48.088  27.653  28.178  1.00  0.00     0.074 A 
ATOM     64  C   UNL A   1      43.567  28.290  32.769  1.00  0.00     0.029 A 
ATOM     65  N   UNL A   1      45.720  28.238  32.352  1.00  0.00    -0.354 N 
ATOM     66  N   UNL A   1      47.474  28.781  28.400  1.00  0.00    -0.248 NA
ATOM     67  C   UNL A   1      48.558  26.955  29.366  1.00  0.00     0.031 C 
ATOM     68  C   UNL A   1      43.874  29.208  31.719  1.00  0.00     0.029 A 
ATOM     69  C   UNL A   1      45.197  28.989  31.333  1.00  0.00     0.049 A 
ATOM     70  H   UNL A   1      46.664  28.222  32.632  1.00  0.00     0.167 HD
ATOM     71  C   UNL A   1      47.072  28.703  29.725  1.00  0.00     0.074 A 
ATOM     72  C   UNL A   1      47.842  27.598  30.292  1.00  0.00     0.031 C 
ATOM     73  C   UNL A   1      45.944  29.345  30.151  1.00  0.00     0.037 A 
BRANCH  60  74
ATOM     74  C   UNL A   1      46.082  25.656  34.083  1.00  0.00     0.064 A 
ATOM     75  C   UNL A   1      45.958  25.810  35.476  1.00  0.00     0.173 A 
ATOM     76  C   UNL A   1      47.388  25.385  33.613  1.00  0.00     0.173 A 
ATOM     77  F   UNL A   1      44.766  26.085  36.027  1.00  0.00    -0.203 F 
ATOM     78  C   UNL A   1      47.071  25.796  36.318  1.00  0.00     0.198 A 
ATOM     79  C   UNL A   1      48.487  25.320  34.464  1.00  0.00     0.198 A 
ATOM     80  F   UNL A   1      47.685  25.292  32.313  1.00  0.00    -0.203 F 
ATOM     81  F   UNL A   1      46.922  26.093  37.616  1.00  0.00    -0.200 F 
ATOM     82  C   UNL A   1      48.335  25.562  35.810  1.00  0.00     0.200 A 
ATOM     83  F   UNL A   1      49.707  25.111  33.946  1.00  0.00    -0.200 F 
ATOM     84  F   UNL A   1      49.411  25.621  36.605  1.00  0.00    -0.200 F 
ENDBRANCH  60  74
BRANCH  61  85
ATOM     85  C   UNL A   1      49.092  26.406  26.136  1.00  0.00     0.064 A 
ATOM     86  C   UNL A   1      49.377  26.975  24.882  1.00  0.00     0.173 A 
ATOM     87  C   UNL A   1      50.117  25.635  26.717  1.00  0.00     0.173 A 
ATOM     88  F   UNL A   1      48.474  27.761  24.276  1.00  0.00    -0.203 F 
ATOM     89  C   UNL A   1      50.624  26.815  24.267  1.00  0.00     0.198 A 
ATOM     90  C   UNL A   1      51.359  25.471  26.101  1.00  0.00     0.198 A 
ATOM     91  F   UNL A   1      49.975  25.109  27.942  1.00  0.00    -0.203 F 
ATOM     92  F   UNL A   1      50.883  27.434  23.107  1.00  0.00    -0.200 F 
ATOM     93  C   UNL A   1      51.618  26.074  24.883  1.00  0.00     0.200 A 
ATOM     94  F   UNL A   1      52.325  24.784  26.725  1.00  0.00    -0.200 F 
ATOM     95  F   UNL A   1      52.835  25.978  24.331  1.00  0.00    -0.200 F 
ENDBRANCH  61  85
BRANCH  73  96
ATOM     96  C   UNL A   1      45.335  30.359  29.220  1.00  0.00     0.064 A 
ATOM     97  C   UNL A   1      44.462  30.048  28.160  1.00  0.00     0.173 A 
ATOM     98  C   UNL A   1      45.587  31.716  29.464  1.00  0.00     0.173 A 
ATOM     99  F   UNL A   1      44.080  28.786  27.927  1.00  0.00    -0.203 F 
ATOM    100  C   UNL A   1      43.930  31.046  27.344  1.00  0.00     0.198 A 
ATOM    101  C   UNL A   1      45.021  32.713  28.675  1.00  0.00     0.198 A 
ATOM    102  F   UNL A   1      46.365  32.079  30.496  1.00  0.00    -0.203 F 
ATOM    103  F   UNL A   1      43.129  30.721  26.319  1.00  0.00    -0.200 F 
ATOM    104  C   UNL A   1      44.209  32.377  27.604  1.00  0.00     0.200 A 
ATOM    105  F   UNL A   1      45.253  34.001  28.962  1.00  0.00    -0.200 F 
ATOM    106  F   UNL A   1      43.679  33.340  26.836  1.00  0.00    -0.200 F 
ENDBRANCH  73  96
ENDBRANCH  47  48
ENDBRANCH  40  42
ENDBRANCH  39  40
ENDBRANCH  38  39
ENDBRANCH  37  38
ENDBRANCH  36  37
ENDBRANCH  35  36
ENDBRANCH  34  35
ENDBRANCH  33  34
ENDBRANCH   1  33
TORSDOF 25
ENDMDL
