MODEL 1
REMARK VINA RESULT:     -10.3      0.000      0.000
REMARK SMILES CCC(=O)N1CCc2cc(C(=O)NC3(C(=O)OCCOCCOCCOCCOC(=O)c4ccc(-c5c6nc(c(-c7c(F)c(F)c(F)c(F)c7F)c7ccc([nH]7)c(-c7c(F)c(F)c(F)c(F)c7F)c7nc(c(-c8c(F)c(F)c(F)c(F)c8F)c8ccc5[nH]8)C=C7)C=C6)cc4)CCCC3)ccc21
REMARK SMILES IDX 22 1 21 2 20 3 19 4 18 5 17 6 15 7 16 8 14 9 95 10 98 11
REMARK SMILES IDX 96 12 97 13 13 14 11 15 12 16 10 18 5 19 6 20 101 21 7 22
REMARK SMILES IDX 8 23 100 24 9 25 99 26 3 27 4 28 2 29 1 30 23 31 24 32 25 33
REMARK SMILES IDX 26 34 27 35 28 36 29 37 30 38 31 39 32 40 33 41 94 42 34 43
REMARK SMILES IDX 93 44 35 45 36 46 37 47 87 48 38 49 92 50 86 51 88 52 39 53
REMARK SMILES IDX 91 54 85 55 84 56 40 58 72 59 52 60 71 61 53 62 56 63 70 64
REMARK SMILES IDX 89 65 54 66 55 67 69 69 90 70 57 71 41 72 42 73 50 74 43 75
REMARK SMILES IDX 44 76 48 77 51 78 45 79 46 80 49 81 47 82 73 83 74 84 82 85
REMARK SMILES IDX 75 86 76 87 80 88 83 89 77 90 78 91 81 92 79 93 58 94 59 95
REMARK SMILES IDX 67 96 60 97 61 98 65 99 68 100 62 101 63 102 66 103 64 104
REMARK H PARENT 13 17 88 57 56 68
REMARK Flexibility Score: inf
ROOT
ATOM      1  C   UNL A   1      40.779  20.020  27.125  1.00  0.00     0.188 C 
ENDROOT
BRANCH   1   2
ATOM      2  C   UNL A   1      40.114  19.953  25.755  1.00  0.00     0.188 C 
BRANCH   2   3
ATOM      3  O   UNL A   1      39.067  20.860  25.436  1.00  0.00    -0.376 OA
BRANCH   3   4
ATOM      4  C   UNL A   1      37.751  20.478  25.069  1.00  0.00     0.202 C 
BRANCH   4   5
ATOM      5  C   UNL A   1      36.757  21.499  24.560  1.00  0.00     0.261 C 
BRANCH   5   6
ATOM      6  O   UNL A   1      35.785  21.693  25.562  1.00  0.00    -0.461 OA
BRANCH   6   7
ATOM      7  C   UNL A   1      34.538  21.306  25.209  1.00  0.00     0.331 C 
ATOM      8  O   UNL A   1      34.171  20.148  25.060  1.00  0.00    -0.249 OA
BRANCH   7   9
ATOM      9  C   UNL A   1      33.643  22.535  25.070  1.00  0.00     0.138 C 
ATOM     10  C   UNL A   1      34.357  23.631  25.908  1.00  0.00     0.040 C 
ATOM     11  C   UNL A   1      32.340  22.493  25.913  1.00  0.00     0.040 C 
ATOM     12  C   UNL A   1      34.145  23.191  27.366  1.00  0.00     0.003 C 
ATOM     13  C   UNL A   1      32.762  22.559  27.386  1.00  0.00     0.003 C 
BRANCH   9  14
ATOM     14  N   UNL A   1      33.454  22.963  23.635  1.00  0.00    -0.336 N 
ATOM     15  C   UNL A   1      33.216  24.143  22.928  1.00  0.00     0.252 C 
ATOM     16  O   UNL A   1      33.778  24.225  21.830  1.00  0.00    -0.269 OA
ATOM     17  H   UNL A   1      33.513  22.193  23.026  1.00  0.00     0.165 HD
BRANCH  15  18
ATOM     18  C   UNL A   1      32.353  25.320  23.325  1.00  0.00     0.040 A 
ATOM     19  N   UNL A   1      29.475  28.333  23.359  1.00  0.00    -0.312 N 
ATOM     20  C   UNL A   1      28.239  27.534  23.455  1.00  0.00     0.130 C 
ATOM     21  C   UNL A   1      30.569  27.476  23.638  1.00  0.00     0.047 A 
ATOM     22  C   UNL A   1      28.640  26.180  24.072  1.00  0.00     0.059 C 
ATOM     23  C   UNL A   1      30.120  26.172  23.833  1.00  0.00    -0.022 A 
ATOM     24  C   UNL A   1      31.924  27.728  23.520  1.00  0.00     0.027 A 
ATOM     25  C   UNL A   1      31.000  25.089  23.694  1.00  0.00     0.019 A 
ATOM     26  C   UNL A   1      32.817  26.639  23.395  1.00  0.00     0.016 A 
BRANCH  19  27
ATOM     27  C   UNL A   1      29.624  29.577  22.763  1.00  0.00     0.226 C 
ATOM     28  O   UNL A   1      29.949  29.720  21.583  1.00  0.00    -0.275 OA
BRANCH  27  29
ATOM     29  C   UNL A   1      29.252  30.796  23.619  1.00  0.00     0.097 C 
ATOM     30  C   UNL A   1      27.774  31.193  23.486  1.00  0.00     0.014 C 
ENDBRANCH  27  29
ENDBRANCH  19  27
ENDBRANCH  15  18
ENDBRANCH   9  14
ENDBRANCH   7   9
ENDBRANCH   6   7
ENDBRANCH   5   6
ENDBRANCH   4   5
ENDBRANCH   3   4
ENDBRANCH   2   3
ENDBRANCH   1   2
BRANCH   1  31
ATOM     31  O   UNL A   1      41.119  21.331  27.469  1.00  0.00    -0.377 OA
BRANCH  31  32
ATOM     32  C   UNL A   1      42.215  21.888  26.758  1.00  0.00     0.188 C 
BRANCH  32  33
ATOM     33  C   UNL A   1      42.059  22.990  25.682  1.00  0.00     0.188 C 
BRANCH  33  34
ATOM     34  O   UNL A   1      43.133  23.194  24.767  1.00  0.00    -0.376 OA
BRANCH  34  35
ATOM     35  C   UNL A   1      44.398  22.659  25.114  1.00  0.00     0.202 C 
BRANCH  35  36
ATOM     36  C   UNL A   1      45.563  23.604  24.764  1.00  0.00     0.261 C 
BRANCH  36  37
ATOM     37  O   UNL A   1      45.918  24.540  25.801  1.00  0.00    -0.460 OA
BRANCH  37  38
ATOM     38  C   UNL A   1      45.765  25.863  25.512  1.00  0.00     0.338 C 
ATOM     39  O   UNL A   1      46.179  26.444  24.521  1.00  0.00    -0.246 OA
BRANCH  38  40
ATOM     40  C   UNL A   1      44.832  26.486  26.499  1.00  0.00     0.060 A 
ATOM     41  C   UNL A   1      44.794  27.887  26.611  1.00  0.00     0.016 A 
ATOM     42  C   UNL A   1      43.943  25.714  27.253  1.00  0.00     0.016 A 
ATOM     43  C   UNL A   1      43.926  28.509  27.522  1.00  0.00     0.010 A 
ATOM     44  C   UNL A   1      43.096  26.334  28.185  1.00  0.00     0.010 A 
ATOM     45  C   UNL A   1      43.121  27.731  28.365  1.00  0.00    -0.014 A 
BRANCH  45  46
ATOM     46  C   UNL A   1      42.588  28.318  29.630  1.00  0.00     0.031 A 
ATOM     47  C   UNL A   1      41.222  28.959  29.562  1.00  0.00     0.074 A 
ATOM     48  C   UNL A   1      43.240  28.285  30.808  1.00  0.00     0.049 A 
ATOM     49  N   UNL A   1      40.553  29.618  30.472  1.00  0.00    -0.248 NA
ATOM     50  C   UNL A   1      40.520  28.837  28.273  1.00  0.00     0.031 C 
ATOM     51  C   UNL A   1      44.530  27.650  31.050  1.00  0.00     0.029 A 
ATOM     52  N   UNL A   1      42.892  28.817  32.030  1.00  0.00    -0.354 N 
ATOM     53  C   UNL A   1      39.361  29.993  29.864  1.00  0.00     0.074 A 
ATOM     54  C   UNL A   1      39.413  29.521  28.498  1.00  0.00     0.031 C 
ATOM     55  C   UNL A   1      44.877  27.845  32.336  1.00  0.00     0.029 A 
ATOM     56  C   UNL A   1      43.850  28.651  33.001  1.00  0.00     0.049 A 
ATOM     57  H   UNL A   1      42.036  29.276  32.193  1.00  0.00     0.167 HD
ATOM     58  C   UNL A   1      38.309  30.662  30.390  1.00  0.00     0.037 A 
ATOM     59  C   UNL A   1      43.906  29.122  34.267  1.00  0.00     0.037 A 
ATOM     60  C   UNL A   1      38.250  31.148  31.741  1.00  0.00     0.049 A 
ATOM     61  C   UNL A   1      42.764  29.953  34.809  1.00  0.00     0.074 A 
ATOM     62  C   UNL A   1      37.233  31.847  32.364  1.00  0.00     0.029 A 
ATOM     63  N   UNL A   1      39.260  30.990  32.678  1.00  0.00    -0.354 N 
ATOM     64  N   UNL A   1      41.641  30.303  34.228  1.00  0.00    -0.248 NA
ATOM     65  C   UNL A   1      42.899  30.457  36.186  1.00  0.00     0.031 C 
ATOM     66  C   UNL A   1      37.651  32.164  33.660  1.00  0.00     0.029 A 
ATOM     67  C   UNL A   1      38.901  31.604  33.867  1.00  0.00     0.049 A 
ATOM     68  H   UNL A   1      40.107  30.513  32.522  1.00  0.00     0.167 HD
ATOM     69  C   UNL A   1      40.928  31.035  35.173  1.00  0.00     0.074 A 
ATOM     70  C   UNL A   1      41.738  31.070  36.370  1.00  0.00     0.031 C 
ATOM     71  C   UNL A   1      39.711  31.623  35.058  1.00  0.00     0.037 A 
BRANCH  58  72
ATOM     72  C   UNL A   1      37.151  30.944  29.475  1.00  0.00     0.064 A 
ATOM     73  C   UNL A   1      36.192  29.966  29.172  1.00  0.00     0.173 A 
ATOM     74  C   UNL A   1      37.005  32.209  28.887  1.00  0.00     0.173 A 
ATOM     75  F   UNL A   1      36.296  28.732  29.690  1.00  0.00    -0.203 F 
ATOM     76  C   UNL A   1      35.152  30.232  28.283  1.00  0.00     0.198 A 
ATOM     77  C   UNL A   1      35.944  32.484  28.029  1.00  0.00     0.198 A 
ATOM     78  F   UNL A   1      37.893  33.181  29.144  1.00  0.00    -0.203 F 
ATOM     79  F   UNL A   1      34.287  29.262  27.956  1.00  0.00    -0.200 F 
ATOM     80  C   UNL A   1      35.026  31.492  27.718  1.00  0.00     0.200 A 
ATOM     81  F   UNL A   1      35.818  33.705  27.492  1.00  0.00    -0.200 F 
ATOM     82  F   UNL A   1      34.026  31.748  26.864  1.00  0.00    -0.200 F 
ENDBRANCH  58  72
BRANCH  59  83
ATOM     83  C   UNL A   1      45.104  28.856  35.114  1.00  0.00     0.064 A 
ATOM     84  C   UNL A   1      46.187  29.747  35.151  1.00  0.00     0.173 A 
ATOM     85  C   UNL A   1      45.211  27.679  35.869  1.00  0.00     0.173 A 
ATOM     86  F   UNL A   1      46.155  30.870  34.418  1.00  0.00    -0.203 F 
ATOM     87  C   UNL A   1      47.332  29.465  35.897  1.00  0.00     0.198 A 
ATOM     88  C   UNL A   1      46.341  27.412  36.639  1.00  0.00     0.198 A 
ATOM     89  F   UNL A   1      44.213  26.782  35.859  1.00  0.00    -0.203 F 
ATOM     90  F   UNL A   1      48.372  30.308  35.868  1.00  0.00    -0.200 F 
ATOM     91  C   UNL A   1      47.404  28.300  36.646  1.00  0.00     0.200 A 
ATOM     92  F   UNL A   1      46.403  26.288  37.368  1.00  0.00    -0.200 F 
ATOM     93  F   UNL A   1      48.503  28.030  37.363  1.00  0.00    -0.200 F 
ENDBRANCH  59  83
BRANCH  71  94
ATOM     94  C   UNL A   1      39.151  32.321  36.268  1.00  0.00     0.064 A 
ATOM     95  C   UNL A   1      38.267  31.684  37.150  1.00  0.00     0.173 A 
ATOM     96  C   UNL A   1      39.554  33.631  36.578  1.00  0.00     0.173 A 
ATOM     97  F   UNL A   1      37.842  30.437  36.896  1.00  0.00    -0.203 F 
ATOM     98  C   UNL A   1      37.786  32.339  38.282  1.00  0.00     0.198 A 
ATOM     99  C   UNL A   1      39.098  34.270  37.728  1.00  0.00     0.198 A 
ATOM    100  F   UNL A   1      40.408  34.284  35.776  1.00  0.00    -0.203 F 
ATOM    101  F   UNL A   1      36.905  31.727  39.085  1.00  0.00    -0.200 F 
ATOM    102  C   UNL A   1      38.208  33.628  38.575  1.00  0.00     0.200 A 
ATOM    103  F   UNL A   1      39.523  35.508  38.019  1.00  0.00    -0.200 F 
ATOM    104  F   UNL A   1      37.754  34.252  39.670  1.00  0.00    -0.200 F 
ENDBRANCH  71  94
ENDBRANCH  45  46
ENDBRANCH  38  40
ENDBRANCH  37  38
ENDBRANCH  36  37
ENDBRANCH  35  36
ENDBRANCH  34  35
ENDBRANCH  33  34
ENDBRANCH  32  33
ENDBRANCH  31  32
ENDBRANCH   1  31
TORSDOF 24
ENDMDL
MODEL 2
REMARK VINA RESULT:     -10.0      1.056      2.182
REMARK SMILES CCC(=O)N1CCc2cc(C(=O)NC3(C(=O)OCCOCCOCCOCCOC(=O)c4ccc(-c5c6nc(c(-c7c(F)c(F)c(F)c(F)c7F)c7ccc([nH]7)c(-c7c(F)c(F)c(F)c(F)c7F)c7nc(c(-c8c(F)c(F)c(F)c(F)c8F)c8ccc5[nH]8)C=C7)C=C6)cc4)CCCC3)ccc21
REMARK SMILES IDX 22 1 21 2 20 3 19 4 18 5 17 6 15 7 16 8 14 9 95 10 98 11
REMARK SMILES IDX 96 12 97 13 13 14 11 15 12 16 10 18 5 19 6 20 101 21 7 22
REMARK SMILES IDX 8 23 100 24 9 25 99 26 3 27 4 28 2 29 1 30 23 31 24 32 25 33
REMARK SMILES IDX 26 34 27 35 28 36 29 37 30 38 31 39 32 40 33 41 94 42 34 43
REMARK SMILES IDX 93 44 35 45 36 46 37 47 87 48 38 49 92 50 86 51 88 52 39 53
REMARK SMILES IDX 91 54 85 55 84 56 40 58 72 59 52 60 71 61 53 62 56 63 70 64
REMARK SMILES IDX 89 65 54 66 55 67 69 69 90 70 57 71 41 72 42 73 50 74 43 75
REMARK SMILES IDX 44 76 48 77 51 78 45 79 46 80 49 81 47 82 73 83 74 84 82 85
REMARK SMILES IDX 75 86 76 87 80 88 83 89 77 90 78 91 81 92 79 93 58 94 59 95
REMARK SMILES IDX 67 96 60 97 61 98 65 99 68 100 62 101 63 102 66 103 64 104
REMARK H PARENT 13 17 88 57 56 68
REMARK Flexibility Score: inf
ROOT
ATOM      1  C   UNL A   1      40.733  19.980  27.261  1.00  0.00     0.188 C 
ENDROOT
BRANCH   1   2
ATOM      2  C   UNL A   1      40.102  19.880  25.877  1.00  0.00     0.188 C 
BRANCH   2   3
ATOM      3  O   UNL A   1      39.121  20.829  25.482  1.00  0.00    -0.376 OA
BRANCH   3   4
ATOM      4  C   UNL A   1      37.755  20.526  25.243  1.00  0.00     0.202 C 
BRANCH   4   5
ATOM      5  C   UNL A   1      36.806  21.578  24.710  1.00  0.00     0.261 C 
BRANCH   5   6
ATOM      6  O   UNL A   1      35.697  21.639  25.578  1.00  0.00    -0.461 OA
BRANCH   6   7
ATOM      7  C   UNL A   1      34.542  21.191  25.036  1.00  0.00     0.331 C 
ATOM      8  O   UNL A   1      34.332  20.043  24.666  1.00  0.00    -0.249 OA
BRANCH   7   9
ATOM      9  C   UNL A   1      33.521  22.325  25.000  1.00  0.00     0.138 C 
ATOM     10  C   UNL A   1      32.425  21.828  24.018  1.00  0.00     0.040 C 
ATOM     11  C   UNL A   1      33.950  23.565  24.170  1.00  0.00     0.040 C 
ATOM     12  C   UNL A   1      33.095  21.900  22.635  1.00  0.00     0.003 C 
ATOM     13  C   UNL A   1      34.000  23.121  22.703  1.00  0.00     0.003 C 
BRANCH   9  14
ATOM     14  N   UNL A   1      32.950  22.643  26.361  1.00  0.00    -0.336 N 
ATOM     15  C   UNL A   1      31.911  23.406  26.897  1.00  0.00     0.252 C 
ATOM     16  O   UNL A   1      31.345  22.914  27.880  1.00  0.00    -0.269 OA
ATOM     17  H   UNL A   1      33.453  22.184  27.071  1.00  0.00     0.165 HD
BRANCH  15  18
ATOM     18  C   UNL A   1      31.403  24.755  26.440  1.00  0.00     0.040 A 
ATOM     19  N   UNL A   1      30.495  28.116  24.150  1.00  0.00    -0.312 N 
ATOM     20  C   UNL A   1      29.517  27.549  23.202  1.00  0.00     0.130 C 
ATOM     21  C   UNL A   1      30.682  27.175  25.194  1.00  0.00     0.047 A 
ATOM     22  C   UNL A   1      28.923  26.300  23.881  1.00  0.00     0.059 C 
ATOM     23  C   UNL A   1      29.948  26.020  24.937  1.00  0.00    -0.022 A 
ATOM     24  C   UNL A   1      31.608  27.191  26.223  1.00  0.00     0.027 A 
ATOM     25  C   UNL A   1      30.287  24.810  25.561  1.00  0.00     0.019 A 
ATOM     26  C   UNL A   1      31.941  25.975  26.865  1.00  0.00     0.016 A 
BRANCH  19  27
ATOM     27  C   UNL A   1      31.358  29.179  23.929  1.00  0.00     0.226 C 
ATOM     28  O   UNL A   1      31.314  30.225  24.578  1.00  0.00    -0.275 OA
BRANCH  27  29
ATOM     29  C   UNL A   1      32.469  28.954  22.894  1.00  0.00     0.097 C 
ATOM     30  C   UNL A   1      33.863  28.834  23.527  1.00  0.00     0.014 C 
ENDBRANCH  27  29
ENDBRANCH  19  27
ENDBRANCH  15  18
ENDBRANCH   9  14
ENDBRANCH   7   9
ENDBRANCH   6   7
ENDBRANCH   5   6
ENDBRANCH   4   5
ENDBRANCH   3   4
ENDBRANCH   2   3
ENDBRANCH   1   2
BRANCH   1  31
ATOM     31  O   UNL A   1      41.053  21.300  27.588  1.00  0.00    -0.377 OA
BRANCH  31  32
ATOM     32  C   UNL A   1      42.134  21.868  26.863  1.00  0.00     0.188 C 
BRANCH  32  33
ATOM     33  C   UNL A   1      41.950  22.936  25.758  1.00  0.00     0.188 C 
BRANCH  33  34
ATOM     34  O   UNL A   1      43.056  23.218  24.904  1.00  0.00    -0.376 OA
BRANCH  34  35
ATOM     35  C   UNL A   1      44.331  22.748  25.307  1.00  0.00     0.202 C 
BRANCH  35  36
ATOM     36  C   UNL A   1      45.484  23.615  24.768  1.00  0.00     0.261 C 
BRANCH  36  37
ATOM     37  O   UNL A   1      46.002  24.584  25.702  1.00  0.00    -0.460 OA
BRANCH  37  38
ATOM     38  C   UNL A   1      45.782  25.896  25.408  1.00  0.00     0.338 C 
ATOM     39  O   UNL A   1      46.153  26.490  24.407  1.00  0.00    -0.246 OA
BRANCH  38  40
ATOM     40  C   UNL A   1      44.837  26.481  26.406  1.00  0.00     0.060 A 
ATOM     41  C   UNL A   1      44.742  27.880  26.519  1.00  0.00     0.016 A 
ATOM     42  C   UNL A   1      43.989  25.674  27.171  1.00  0.00     0.016 A 
ATOM     43  C   UNL A   1      43.861  28.466  27.441  1.00  0.00     0.010 A 
ATOM     44  C   UNL A   1      43.128  26.259  28.112  1.00  0.00     0.010 A 
ATOM     45  C   UNL A   1      43.099  27.656  28.292  1.00  0.00    -0.014 A 
BRANCH  45  46
ATOM     46  C   UNL A   1      42.557  28.221  29.564  1.00  0.00     0.031 A 
ATOM     47  C   UNL A   1      41.191  28.862  29.498  1.00  0.00     0.074 A 
ATOM     48  C   UNL A   1      43.202  28.168  30.746  1.00  0.00     0.049 A 
ATOM     49  N   UNL A   1      40.515  29.505  30.415  1.00  0.00    -0.248 NA
ATOM     50  C   UNL A   1      40.497  28.761  28.203  1.00  0.00     0.031 C 
ATOM     51  C   UNL A   1      44.491  27.530  30.985  1.00  0.00     0.029 A 
ATOM     52  N   UNL A   1      42.846  28.680  31.974  1.00  0.00    -0.354 N 
ATOM     53  C   UNL A   1      39.327  29.889  29.806  1.00  0.00     0.074 A 
ATOM     54  C   UNL A   1      39.388  29.440  28.433  1.00  0.00     0.031 C 
ATOM     55  C   UNL A   1      44.830  27.703  32.276  1.00  0.00     0.029 A 
ATOM     56  C   UNL A   1      43.798  28.498  32.948  1.00  0.00     0.049 A 
ATOM     57  H   UNL A   1      41.988  29.135  32.139  1.00  0.00     0.167 HD
ATOM     58  C   UNL A   1      38.271  30.548  30.337  1.00  0.00     0.037 A 
ATOM     59  C   UNL A   1      43.845  28.947  34.222  1.00  0.00     0.037 A 
ATOM     60  C   UNL A   1      38.204  31.011  31.696  1.00  0.00     0.049 A 
ATOM     61  C   UNL A   1      42.699  29.768  34.771  1.00  0.00     0.074 A 
ATOM     62  C   UNL A   1      37.182  31.699  32.324  1.00  0.00     0.029 A 
ATOM     63  N   UNL A   1      39.208  30.838  32.637  1.00  0.00    -0.354 N 
ATOM     64  N   UNL A   1      41.579  30.127  34.189  1.00  0.00    -0.248 NA
ATOM     65  C   UNL A   1      42.825  30.248  36.157  1.00  0.00     0.031 C 
ATOM     66  C   UNL A   1      37.591  31.994  33.628  1.00  0.00     0.029 A 
ATOM     67  C   UNL A   1      38.841  31.431  33.833  1.00  0.00     0.049 A 
ATOM     68  H   UNL A   1      40.056  30.364  32.477  1.00  0.00     0.167 HD
ATOM     69  C   UNL A   1      40.860  30.842  35.142  1.00  0.00     0.074 A 
ATOM     70  C   UNL A   1      41.663  30.857  36.345  1.00  0.00     0.031 C 
ATOM     71  C   UNL A   1      39.643  31.431  35.029  1.00  0.00     0.037 A 
BRANCH  58  72
ATOM     72  C   UNL A   1      37.119  30.845  29.420  1.00  0.00     0.064 A 
ATOM     73  C   UNL A   1      36.217  29.847  29.017  1.00  0.00     0.173 A 
ATOM     74  C   UNL A   1      36.920  32.144  28.930  1.00  0.00     0.173 A 
ATOM     75  F   UNL A   1      36.374  28.583  29.439  1.00  0.00    -0.203 F 
ATOM     76  C   UNL A   1      35.183  30.132  28.128  1.00  0.00     0.198 A 
ATOM     77  C   UNL A   1      35.864  32.433  28.071  1.00  0.00     0.198 A 
ATOM     78  F   UNL A   1      37.752  33.135  29.284  1.00  0.00    -0.203 F 
ATOM     79  F   UNL A   1      34.376  29.150  27.705  1.00  0.00    -0.200 F 
ATOM     80  C   UNL A   1      35.004  31.425  27.661  1.00  0.00     0.200 A 
ATOM     81  F   UNL A   1      35.685  33.686  27.629  1.00  0.00    -0.200 F 
ATOM     82  F   UNL A   1      34.009  31.699  26.806  1.00  0.00    -0.200 F 
ENDBRANCH  58  72
BRANCH  59  83
ATOM     83  C   UNL A   1      45.038  28.668  35.072  1.00  0.00     0.064 A 
ATOM     84  C   UNL A   1      45.072  27.576  35.951  1.00  0.00     0.173 A 
ATOM     85  C   UNL A   1      46.154  29.518  35.055  1.00  0.00     0.173 A 
ATOM     86  F   UNL A   1      44.016  26.752  36.037  1.00  0.00    -0.203 F 
ATOM     87  C   UNL A   1      46.165  27.354  36.789  1.00  0.00     0.198 A 
ATOM     88  C   UNL A   1      47.260  29.278  35.869  1.00  0.00     0.198 A 
ATOM     89  F   UNL A   1      46.172  30.587  34.246  1.00  0.00    -0.203 F 
ATOM     90  F   UNL A   1      46.145  26.335  37.659  1.00  0.00    -0.200 F 
ATOM     91  C   UNL A   1      47.262  28.202  36.741  1.00  0.00     0.200 A 
ATOM     92  F   UNL A   1      48.320  30.097  35.813  1.00  0.00    -0.200 F 
ATOM     93  F   UNL A   1      48.312  27.988  37.545  1.00  0.00    -0.200 F 
ENDBRANCH  59  83
BRANCH  71  94
ATOM     94  C   UNL A   1      39.075  32.108  36.247  1.00  0.00     0.064 A 
ATOM     95  C   UNL A   1      39.400  33.431  36.581  1.00  0.00     0.173 A 
ATOM     96  C   UNL A   1      38.146  31.438  37.060  1.00  0.00     0.173 A 
ATOM     97  F   UNL A   1      40.289  34.114  35.845  1.00  0.00    -0.203 F 
ATOM     98  C   UNL A   1      38.837  34.049  37.696  1.00  0.00     0.198 A 
ATOM     99  C   UNL A   1      37.560  32.070  38.154  1.00  0.00     0.198 A 
ATOM    100  F   UNL A   1      37.790  30.175  36.781  1.00  0.00    -0.203 F 
ATOM    101  F   UNL A   1      39.198  35.298  38.022  1.00  0.00    -0.200 F 
ATOM    102  C   UNL A   1      37.911  33.371  38.476  1.00  0.00     0.200 A 
ATOM    103  F   UNL A   1      36.652  31.419  38.894  1.00  0.00    -0.200 F 
ATOM    104  F   UNL A   1      37.362  33.971  39.541  1.00  0.00    -0.200 F 
ENDBRANCH  71  94
ENDBRANCH  45  46
ENDBRANCH  38  40
ENDBRANCH  37  38
ENDBRANCH  36  37
ENDBRANCH  35  36
ENDBRANCH  34  35
ENDBRANCH  33  34
ENDBRANCH  32  33
ENDBRANCH  31  32
ENDBRANCH   1  31
TORSDOF 24
ENDMDL
MODEL 3
REMARK VINA RESULT:      -9.9      1.739      7.283
REMARK SMILES CCC(=O)N1CCc2cc(C(=O)NC3(C(=O)OCCOCCOCCOCCOC(=O)c4ccc(-c5c6nc(c(-c7c(F)c(F)c(F)c(F)c7F)c7ccc([nH]7)c(-c7c(F)c(F)c(F)c(F)c7F)c7nc(c(-c8c(F)c(F)c(F)c(F)c8F)c8ccc5[nH]8)C=C7)C=C6)cc4)CCCC3)ccc21
REMARK SMILES IDX 22 1 21 2 20 3 19 4 18 5 17 6 15 7 16 8 14 9 95 10 98 11
REMARK SMILES IDX 96 12 97 13 13 14 11 15 12 16 10 18 5 19 6 20 101 21 7 22
REMARK SMILES IDX 8 23 100 24 9 25 99 26 3 27 4 28 2 29 1 30 23 31 24 32 25 33
REMARK SMILES IDX 26 34 27 35 28 36 29 37 30 38 31 39 32 40 33 41 94 42 34 43
REMARK SMILES IDX 93 44 35 45 36 46 37 47 87 48 38 49 92 50 86 51 88 52 39 53
REMARK SMILES IDX 91 54 85 55 84 56 40 58 72 59 52 60 71 61 53 62 56 63 70 64
REMARK SMILES IDX 89 65 54 66 55 67 69 69 90 70 57 71 41 72 42 73 50 74 43 75
REMARK SMILES IDX 44 76 48 77 51 78 45 79 46 80 49 81 47 82 73 83 74 84 82 85
REMARK SMILES IDX 75 86 76 87 80 88 83 89 77 90 78 91 81 92 79 93 58 94 59 95
REMARK SMILES IDX 67 96 60 97 61 98 65 99 68 100 62 101 63 102 66 103 64 104
REMARK H PARENT 13 17 88 57 56 68
REMARK Flexibility Score: inf
ROOT
ATOM      1  C   UNL A   1      40.115  20.319  26.429  1.00  0.00     0.188 C 
ENDROOT
BRANCH   1   2
ATOM      2  C   UNL A   1      39.117  20.533  25.297  1.00  0.00     0.188 C 
BRANCH   2   3
ATOM      3  O   UNL A   1      38.231  21.644  25.340  1.00  0.00    -0.376 OA
BRANCH   3   4
ATOM      4  C   UNL A   1      36.880  21.617  24.907  1.00  0.00     0.202 C 
BRANCH   4   5
ATOM      5  C   UNL A   1      35.863  20.726  25.586  1.00  0.00     0.261 C 
BRANCH   5   6
ATOM      6  O   UNL A   1      34.920  20.330  24.616  1.00  0.00    -0.461 OA
BRANCH   6   7
ATOM      7  C   UNL A   1      33.756  19.870  25.129  1.00  0.00     0.331 C 
ATOM      8  O   UNL A   1      33.286  20.185  26.214  1.00  0.00    -0.249 OA
BRANCH   7   9
ATOM      9  C   UNL A   1      33.092  18.932  24.124  1.00  0.00     0.138 C 
ATOM     10  C   UNL A   1      32.245  17.966  24.997  1.00  0.00     0.040 C 
ATOM     11  C   UNL A   1      34.027  17.848  23.523  1.00  0.00     0.040 C 
ATOM     12  C   UNL A   1      33.286  17.073  25.692  1.00  0.00     0.003 C 
ATOM     13  C   UNL A   1      34.396  16.896  24.667  1.00  0.00     0.003 C 
BRANCH   9  14
ATOM     14  N   UNL A   1      32.241  19.662  23.113  1.00  0.00    -0.336 N 
ATOM     15  C   UNL A   1      32.099  20.962  22.623  1.00  0.00     0.252 C 
ATOM     16  O   UNL A   1      31.836  21.048  21.418  1.00  0.00    -0.269 OA
ATOM     17  H   UNL A   1      31.607  19.050  22.678  1.00  0.00     0.165 HD
BRANCH  15  18
ATOM     18  C   UNL A   1      32.211  22.268  23.377  1.00  0.00     0.040 A 
ATOM     19  N   UNL A   1      31.455  26.056  24.942  1.00  0.00    -0.312 N 
ATOM     20  C   UNL A   1      30.318  25.763  25.836  1.00  0.00     0.130 C 
ATOM     21  C   UNL A   1      32.031  24.819  24.556  1.00  0.00     0.047 A 
ATOM     22  C   UNL A   1      30.403  24.263  26.177  1.00  0.00     0.059 C 
ATOM     23  C   UNL A   1      31.296  23.761  25.082  1.00  0.00    -0.022 A 
ATOM     24  C   UNL A   1      33.015  24.575  23.613  1.00  0.00     0.027 A 
ATOM     25  C   UNL A   1      31.385  22.481  24.513  1.00  0.00     0.019 A 
ATOM     26  C   UNL A   1      33.118  23.282  23.049  1.00  0.00     0.016 A 
BRANCH  19  27
ATOM     27  C   UNL A   1      31.723  27.249  24.289  1.00  0.00     0.226 C 
ATOM     28  O   UNL A   1      31.435  27.446  23.108  1.00  0.00    -0.275 OA
BRANCH  27  29
ATOM     29  C   UNL A   1      32.303  28.384  25.145  1.00  0.00     0.097 C 
ATOM     30  C   UNL A   1      33.737  28.764  24.746  1.00  0.00     0.014 C 
ENDBRANCH  27  29
ENDBRANCH  19  27
ENDBRANCH  15  18
ENDBRANCH   9  14
ENDBRANCH   7   9
ENDBRANCH   6   7
ENDBRANCH   5   6
ENDBRANCH   4   5
ENDBRANCH   3   4
ENDBRANCH   2   3
ENDBRANCH   1   2
BRANCH   1  31
ATOM     31  O   UNL A   1      40.838  21.482  26.705  1.00  0.00    -0.377 OA
BRANCH  31  32
ATOM     32  C   UNL A   1      42.059  21.630  25.994  1.00  0.00     0.188 C 
BRANCH  32  33
ATOM     33  C   UNL A   1      43.043  20.462  25.744  1.00  0.00     0.188 C 
BRANCH  33  34
ATOM     34  O   UNL A   1      44.095  20.659  24.802  1.00  0.00    -0.376 OA
BRANCH  34  35
ATOM     35  C   UNL A   1      44.963  21.759  25.011  1.00  0.00     0.202 C 
BRANCH  35  36
ATOM     36  C   UNL A   1      44.656  22.947  24.081  1.00  0.00     0.261 C 
BRANCH  36  37
ATOM     37  O   UNL A   1      45.465  24.119  24.305  1.00  0.00    -0.460 OA
BRANCH  37  38
ATOM     38  C   UNL A   1      45.914  24.320  25.576  1.00  0.00     0.338 C 
ATOM     39  O   UNL A   1      46.965  23.915  26.050  1.00  0.00    -0.246 OA
BRANCH  38  40
ATOM     40  C   UNL A   1      45.018  25.289  26.277  1.00  0.00     0.060 A 
ATOM     41  C   UNL A   1      45.307  26.663  26.200  1.00  0.00     0.016 A 
ATOM     42  C   UNL A   1      43.859  24.869  26.936  1.00  0.00     0.016 A 
ATOM     43  C   UNL A   1      44.485  27.604  26.839  1.00  0.00     0.010 A 
ATOM     44  C   UNL A   1      43.052  25.807  27.599  1.00  0.00     0.010 A 
ATOM     45  C   UNL A   1      43.390  27.174  27.601  1.00  0.00    -0.014 A 
BRANCH  45  46
ATOM     46  C   UNL A   1      42.824  28.069  28.654  1.00  0.00     0.031 A 
ATOM     47  C   UNL A   1      43.674  28.303  29.880  1.00  0.00     0.074 A 
ATOM     48  C   UNL A   1      41.628  28.683  28.557  1.00  0.00     0.049 A 
ATOM     49  N   UNL A   1      43.406  28.956  30.982  1.00  0.00    -0.248 NA
ATOM     50  C   UNL A   1      45.020  27.706  29.850  1.00  0.00     0.031 C 
ATOM     51  C   UNL A   1      40.724  28.609  27.416  1.00  0.00     0.029 A 
ATOM     52  N   UNL A   1      40.970  29.490  29.458  1.00  0.00    -0.354 N 
ATOM     53  C   UNL A   1      44.542  28.840  31.773  1.00  0.00     0.074 A 
ATOM     54  C   UNL A   1      45.488  28.025  31.044  1.00  0.00     0.031 C 
ATOM     55  C   UNL A   1      39.617  29.325  27.690  1.00  0.00     0.029 A 
ATOM     56  C   UNL A   1      39.718  29.878  29.044  1.00  0.00     0.049 A 
ATOM     57  H   UNL A   1      41.359  29.763  30.320  1.00  0.00     0.167 HD
ATOM     58  C   UNL A   1      44.787  29.367  32.995  1.00  0.00     0.037 A 
ATOM     59  C   UNL A   1      38.756  30.572  29.692  1.00  0.00     0.037 A 
ATOM     60  C   UNL A   1      43.851  30.168  33.735  1.00  0.00     0.049 A 
ATOM     61  C   UNL A   1      39.010  31.071  31.098  1.00  0.00     0.074 A 
ATOM     62  C   UNL A   1      44.003  30.738  34.986  1.00  0.00     0.029 A 
ATOM     63  N   UNL A   1      42.581  30.504  33.293  1.00  0.00    -0.354 N 
ATOM     64  N   UNL A   1      40.086  30.958  31.839  1.00  0.00    -0.248 NA
ATOM     65  C   UNL A   1      37.912  31.797  31.757  1.00  0.00     0.031 C 
ATOM     66  C   UNL A   1      42.802  31.370  35.326  1.00  0.00     0.029 A 
ATOM     67  C   UNL A   1      41.927  31.251  34.259  1.00  0.00     0.049 A 
ATOM     68  H   UNL A   1      42.200  30.249  32.422  1.00  0.00     0.167 HD
ATOM     69  C   UNL A   1      39.806  31.619  33.031  1.00  0.00     0.074 A 
ATOM     70  C   UNL A   1      38.464  32.143  32.911  1.00  0.00     0.031 C 
ATOM     71  C   UNL A   1      40.593  31.779  34.125  1.00  0.00     0.037 A 
BRANCH  58  72
ATOM     72  C   UNL A   1      46.115  29.052  33.622  1.00  0.00     0.064 A 
ATOM     73  C   UNL A   1      46.338  27.856  34.322  1.00  0.00     0.173 A 
ATOM     74  C   UNL A   1      47.177  29.964  33.528  1.00  0.00     0.173 A 
ATOM     75  F   UNL A   1      45.350  26.959  34.461  1.00  0.00    -0.203 F 
ATOM     76  C   UNL A   1      47.563  27.603  34.938  1.00  0.00     0.198 A 
ATOM     77  C   UNL A   1      48.410  29.692  34.113  1.00  0.00     0.198 A 
ATOM     78  F   UNL A   1      47.018  31.122  32.870  1.00  0.00    -0.203 F 
ATOM     79  F   UNL A   1      47.731  26.486  35.658  1.00  0.00    -0.200 F 
ATOM     80  C   UNL A   1      48.598  28.518  34.827  1.00  0.00     0.200 A 
ATOM     81  F   UNL A   1      49.414  30.572  33.996  1.00  0.00    -0.200 F 
ATOM     82  F   UNL A   1      49.775  28.275  35.419  1.00  0.00    -0.200 F 
ENDBRANCH  58  72
BRANCH  59  83
ATOM     83  C   UNL A   1      37.436  30.810  29.041  1.00  0.00     0.064 A 
ATOM     84  C   UNL A   1      36.510  29.772  28.861  1.00  0.00     0.173 A 
ATOM     85  C   UNL A   1      37.093  32.076  28.542  1.00  0.00     0.173 A 
ATOM     86  F   UNL A   1      36.803  28.533  29.284  1.00  0.00    -0.203 F 
ATOM     87  C   UNL A   1      35.302  29.987  28.197  1.00  0.00     0.198 A 
ATOM     88  C   UNL A   1      35.872  32.298  27.908  1.00  0.00     0.198 A 
ATOM     89  F   UNL A   1      37.946  33.102  28.672  1.00  0.00    -0.203 F 
ATOM     90  F   UNL A   1      34.462  28.964  27.990  1.00  0.00    -0.200 F 
ATOM     91  C   UNL A   1      34.981  31.252  27.727  1.00  0.00     0.200 A 
ATOM     92  F   UNL A   1      35.564  33.524  27.462  1.00  0.00    -0.200 F 
ATOM     93  F   UNL A   1      33.821  31.458  27.091  1.00  0.00    -0.200 F 
ENDBRANCH  59  83
BRANCH  71  94
ATOM     94  C   UNL A   1      40.048  32.589  35.270  1.00  0.00     0.064 A 
ATOM     95  C   UNL A   1      40.299  33.963  35.393  1.00  0.00     0.173 A 
ATOM     96  C   UNL A   1      39.212  31.988  36.226  1.00  0.00     0.173 A 
ATOM     97  F   UNL A   1      41.098  34.585  34.513  1.00  0.00    -0.203 F 
ATOM     98  C   UNL A   1      39.758  34.700  36.445  1.00  0.00     0.198 A 
ATOM     99  C   UNL A   1      38.645  32.735  37.256  1.00  0.00     0.198 A 
ATOM    100  F   UNL A   1      38.928  30.679  36.150  1.00  0.00    -0.203 F 
ATOM    101  F   UNL A   1      40.049  36.002  36.569  1.00  0.00    -0.200 F 
ATOM    102  C   UNL A   1      38.924  34.087  37.370  1.00  0.00     0.200 A 
ATOM    103  F   UNL A   1      37.825  32.144  38.136  1.00  0.00    -0.200 F 
ATOM    104  F   UNL A   1      38.394  34.800  38.373  1.00  0.00    -0.200 F 
ENDBRANCH  71  94
ENDBRANCH  45  46
ENDBRANCH  38  40
ENDBRANCH  37  38
ENDBRANCH  36  37
ENDBRANCH  35  36
ENDBRANCH  34  35
ENDBRANCH  33  34
ENDBRANCH  32  33
ENDBRANCH  31  32
ENDBRANCH   1  31
TORSDOF 24
ENDMDL
