MODEL 1
REMARK VINA RESULT:     -10.7      0.000      0.000
REMARK SMILES Cc1ccnc(C(=O)c2[nH]c3cc(F)ccc3c2CC(=O)OCCOCCOCCOCCOC(=O)c2ccc(-c3c4nc(c(-c5c(F)c(F)c(F)c(F)c5F)c5ccc([nH]5)c(-c5c(F)c(F)c(F)c(F)c5F)c5nc(c(-c6c(F)c(F)c(F)c(F)c6F)c6ccc3[nH]6)C=C5)C=C4)cc2)c1
REMARK SMILES IDX 27 1 26 2 25 3 24 4 23 5 22 6 20 7 21 8 19 9 18 10 9 11
REMARK SMILES IDX 10 12 11 13 17 15 12 16 16 17 13 18 15 19 14 20 7 21 8 22
REMARK SMILES IDX 6 23 1 24 2 25 3 26 100 27 4 28 5 29 28 30 29 31 30 32 31 33
REMARK SMILES IDX 32 34 33 35 34 36 35 37 36 38 37 39 38 40 99 41 39 42 98 43
REMARK SMILES IDX 40 44 41 45 42 46 92 47 43 48 97 49 91 50 93 51 44 52 96 53
REMARK SMILES IDX 90 54 89 55 45 57 77 58 57 59 76 60 58 61 61 62 75 63 94 64
REMARK SMILES IDX 59 65 60 66 74 68 95 69 62 70 46 71 47 72 55 73 48 74 49 75
REMARK SMILES IDX 53 76 56 77 50 78 51 79 54 80 52 81 78 82 79 83 87 84 80 85
REMARK SMILES IDX 81 86 85 87 88 88 82 89 83 90 86 91 84 92 63 93 64 94 72 95
REMARK SMILES IDX 65 96 66 97 70 98 73 99 67 100 68 101 71 102 69 103
REMARK H PARENT 10 14 93 56 61 67
REMARK Flexibility Score: inf
ROOT
ATOM      1  C   UNL A   1      31.866  22.077  25.100  1.00  0.00     0.188 C 
ENDROOT
BRANCH   1   2
ATOM      2  C   UNL A   1      30.635  22.798  25.645  1.00  0.00     0.188 C 
BRANCH   2   3
ATOM      3  O   UNL A   1      30.831  23.699  26.717  1.00  0.00    -0.376 OA
BRANCH   3   4
ATOM      4  C   UNL A   1      30.236  24.989  26.600  1.00  0.00     0.202 C 
BRANCH   4   5
ATOM      5  C   UNL A   1      31.022  26.153  25.959  1.00  0.00     0.261 C 
BRANCH   5   6
ATOM      6  O   UNL A   1      30.828  27.457  26.578  1.00  0.00    -0.463 OA
BRANCH   6   7
ATOM      7  C   UNL A   1      31.894  28.295  26.543  1.00  0.00     0.310 C 
ATOM      8  O   UNL A   1      32.850  28.182  27.314  1.00  0.00    -0.252 OA
BRANCH   7   9
ATOM      9  C   UNL A   1      31.914  29.397  25.497  1.00  0.00     0.161 C 
BRANCH   9  10
ATOM     10  C   UNL A   1      31.284  29.248  24.127  1.00  0.00     0.000 A 
ATOM     11  C   UNL A   1      31.816  28.600  22.997  1.00  0.00     0.093 A 
ATOM     12  N   UNL A   1      30.853  28.690  22.011  1.00  0.00    -0.351 N 
ATOM     13  C   UNL A   1      29.970  29.701  22.307  1.00  0.00     0.049 A 
ATOM     14  H   UNL A   1      30.806  28.115  21.213  1.00  0.00     0.167 HD
ATOM     15  C   UNL A   1      30.195  30.054  23.636  1.00  0.00     0.004 A 
ATOM     16  C   UNL A   1      29.022  30.342  21.498  1.00  0.00     0.066 A 
ATOM     17  C   UNL A   1      29.445  31.120  24.182  1.00  0.00     0.013 A 
ATOM     18  C   UNL A   1      28.335  31.419  22.057  1.00  0.00     0.125 A 
ATOM     19  C   UNL A   1      28.537  31.813  23.372  1.00  0.00     0.040 A 
ATOM     20  F   UNL A   1      27.475  32.107  21.294  1.00  0.00    -0.207 F 
BRANCH  11  21
ATOM     21  C   UNL A   1      33.124  27.957  22.851  1.00  0.00     0.227 C 
ATOM     22  O   UNL A   1      34.106  28.551  22.401  1.00  0.00    -0.285 OA
BRANCH  21  23
ATOM     23  C   UNL A   1      33.338  26.521  23.192  1.00  0.00     0.113 A 
ATOM     24  C   UNL A   1      33.233  23.129  21.522  1.00  0.00     0.044 C 
ATOM     25  C   UNL A   1      33.461  24.224  22.521  1.00  0.00    -0.047 A 
ATOM     26  C   UNL A   1      34.258  23.987  23.645  1.00  0.00     0.023 A 
ATOM     27  C   UNL A   1      32.991  25.522  22.288  1.00  0.00     0.036 A 
ATOM     28  C   UNL A   1      34.527  25.038  24.506  1.00  0.00     0.112 A 
ATOM     29  N   UNL A   1      34.073  26.292  24.312  1.00  0.00    -0.253 NA
ENDBRANCH  21  23
ENDBRANCH  11  21
ENDBRANCH   9  10
ENDBRANCH   7   9
ENDBRANCH   6   7
ENDBRANCH   5   6
ENDBRANCH   4   5
ENDBRANCH   3   4
ENDBRANCH   2   3
ENDBRANCH   1   2
BRANCH   1  30
ATOM     30  O   UNL A   1      32.677  21.342  26.000  1.00  0.00    -0.377 OA
BRANCH  30  31
ATOM     31  C   UNL A   1      33.496  22.025  26.938  1.00  0.00     0.188 C 
BRANCH  31  32
ATOM     32  C   UNL A   1      34.982  21.671  26.991  1.00  0.00     0.188 C 
BRANCH  32  33
ATOM     33  O   UNL A   1      35.794  21.999  25.864  1.00  0.00    -0.376 OA
BRANCH  33  34
ATOM     34  C   UNL A   1      36.144  20.978  24.934  1.00  0.00     0.202 C 
BRANCH  34  35
ATOM     35  C   UNL A   1      37.532  20.380  25.140  1.00  0.00     0.261 C 
BRANCH  35  36
ATOM     36  O   UNL A   1      38.521  21.408  25.282  1.00  0.00    -0.460 OA
BRANCH  36  37
ATOM     37  C   UNL A   1      39.387  21.237  26.311  1.00  0.00     0.338 C 
ATOM     38  O   UNL A   1      39.849  20.198  26.733  1.00  0.00    -0.246 OA
BRANCH  37  39
ATOM     39  C   UNL A   1      39.842  22.568  26.754  1.00  0.00     0.060 A 
ATOM     40  C   UNL A   1      39.225  23.695  26.198  1.00  0.00     0.016 A 
ATOM     41  C   UNL A   1      40.869  22.703  27.689  1.00  0.00     0.016 A 
ATOM     42  C   UNL A   1      39.641  24.969  26.568  1.00  0.00     0.010 A 
ATOM     43  C   UNL A   1      41.303  23.979  28.043  1.00  0.00     0.010 A 
ATOM     44  C   UNL A   1      40.703  25.114  27.468  1.00  0.00    -0.014 A 
BRANCH  44  45
ATOM     45  C   UNL A   1      41.297  26.444  27.700  1.00  0.00     0.031 A 
ATOM     46  C   UNL A   1      42.704  26.687  27.239  1.00  0.00     0.074 A 
ATOM     47  C   UNL A   1      40.595  27.403  28.326  1.00  0.00     0.049 A 
ATOM     48  N   UNL A   1      43.476  27.724  27.437  1.00  0.00    -0.248 NA
ATOM     49  C   UNL A   1      43.329  25.611  26.453  1.00  0.00     0.031 C 
ATOM     50  C   UNL A   1      39.206  27.281  28.763  1.00  0.00     0.029 A 
ATOM     51  N   UNL A   1      40.965  28.663  28.719  1.00  0.00    -0.354 N 
ATOM     52  C   UNL A   1      44.678  27.420  26.813  1.00  0.00     0.074 A 
ATOM     53  C   UNL A   1      44.544  26.097  26.245  1.00  0.00     0.031 C 
ATOM     54  C   UNL A   1      38.846  28.416  29.387  1.00  0.00     0.029 A 
ATOM     55  C   UNL A   1      39.993  29.320  29.432  1.00  0.00     0.049 A 
ATOM     56  H   UNL A   1      41.843  29.057  28.511  1.00  0.00     0.167 HD
ATOM     57  C   UNL A   1      45.791  28.183  26.729  1.00  0.00     0.037 A 
ATOM     58  C   UNL A   1      40.049  30.500  30.079  1.00  0.00     0.037 A 
ATOM     59  C   UNL A   1      45.905  29.498  27.302  1.00  0.00     0.049 A 
ATOM     60  C   UNL A   1      41.337  31.286  30.047  1.00  0.00     0.074 A 
ATOM     61  C   UNL A   1      46.974  30.373  27.248  1.00  0.00     0.029 A 
ATOM     62  N   UNL A   1      44.914  30.120  28.048  1.00  0.00    -0.354 N 
ATOM     63  N   UNL A   1      42.460  31.014  29.427  1.00  0.00    -0.248 NA
ATOM     64  C   UNL A   1      41.366  32.539  30.814  1.00  0.00     0.031 C 
ATOM     65  C   UNL A   1      46.657  31.495  28.018  1.00  0.00     0.029 A 
ATOM     66  C   UNL A   1      45.364  31.349  28.499  1.00  0.00     0.049 A 
ATOM     67  H   UNL A   1      44.023  29.742  28.230  1.00  0.00     0.167 HD
ATOM     68  C   UNL A   1      43.317  32.072  29.705  1.00  0.00     0.074 A 
ATOM     69  C   UNL A   1      42.575  33.000  30.531  1.00  0.00     0.031 C 
ATOM     70  C   UNL A   1      44.604  32.258  29.317  1.00  0.00     0.037 A 
BRANCH  57  71
ATOM     71  C   UNL A   1      46.987  27.608  26.030  1.00  0.00     0.064 A 
ATOM     72  C   UNL A   1      47.201  27.786  24.656  1.00  0.00     0.173 A 
ATOM     73  C   UNL A   1      47.964  26.914  26.762  1.00  0.00     0.173 A 
ATOM     74  F   UNL A   1      46.290  28.427  23.907  1.00  0.00    -0.203 F 
ATOM     75  C   UNL A   1      48.342  27.280  24.037  1.00  0.00     0.198 A 
ATOM     76  C   UNL A   1      49.116  26.435  26.147  1.00  0.00     0.198 A 
ATOM     77  F   UNL A   1      47.807  26.714  28.079  1.00  0.00    -0.203 F 
ATOM     78  F   UNL A   1      48.509  27.430  22.717  1.00  0.00    -0.200 F 
ATOM     79  C   UNL A   1      49.303  26.615  24.784  1.00  0.00     0.200 A 
ATOM     80  F   UNL A   1      50.049  25.804  26.873  1.00  0.00    -0.200 F 
ATOM     81  F   UNL A   1      50.408  26.144  24.191  1.00  0.00    -0.200 F 
ENDBRANCH  57  71
BRANCH  58  82
ATOM     82  C   UNL A   1      38.873  30.999  30.841  1.00  0.00     0.064 A 
ATOM     83  C   UNL A   1      38.733  30.730  32.211  1.00  0.00     0.173 A 
ATOM     84  C   UNL A   1      37.842  31.713  30.211  1.00  0.00     0.173 A 
ATOM     85  F   UNL A   1      39.678  30.028  32.854  1.00  0.00    -0.203 F 
ATOM     86  C   UNL A   1      37.597  31.129  32.912  1.00  0.00     0.198 A 
ATOM     87  C   UNL A   1      36.723  32.142  30.922  1.00  0.00     0.198 A 
ATOM     88  F   UNL A   1      37.921  31.994  28.902  1.00  0.00    -0.203 F 
ATOM     89  F   UNL A   1      37.462  30.802  34.204  1.00  0.00    -0.200 F 
ATOM     90  C   UNL A   1      36.595  31.839  32.268  1.00  0.00     0.200 A 
ATOM     91  F   UNL A   1      35.763  32.839  30.298  1.00  0.00    -0.200 F 
ATOM     92  F   UNL A   1      35.501  32.218  32.941  1.00  0.00    -0.200 F 
ENDBRANCH  58  82
BRANCH  70  93
ATOM     93  C   UNL A   1      45.280  33.524  29.760  1.00  0.00     0.064 A 
ATOM     94  C   UNL A   1      46.028  33.580  30.946  1.00  0.00     0.173 A 
ATOM     95  C   UNL A   1      45.219  34.679  28.966  1.00  0.00     0.173 A 
ATOM     96  F   UNL A   1      46.105  32.508  31.747  1.00  0.00    -0.203 F 
ATOM     97  C   UNL A   1      46.670  34.755  31.330  1.00  0.00     0.198 A 
ATOM     98  C   UNL A   1      45.893  35.839  29.335  1.00  0.00     0.198 A 
ATOM     99  F   UNL A   1      44.524  34.675  27.818  1.00  0.00    -0.203 F 
ATOM    100  F   UNL A   1      47.337  34.800  32.492  1.00  0.00    -0.200 F 
ATOM    101  C   UNL A   1      46.610  35.879  30.522  1.00  0.00     0.200 A 
ATOM    102  F   UNL A   1      45.849  36.919  28.542  1.00  0.00    -0.200 F 
ATOM    103  F   UNL A   1      47.239  37.004  30.887  1.00  0.00    -0.200 F 
ENDBRANCH  70  93
ENDBRANCH  44  45
ENDBRANCH  37  39
ENDBRANCH  36  37
ENDBRANCH  35  36
ENDBRANCH  34  35
ENDBRANCH  33  34
ENDBRANCH  32  33
ENDBRANCH  31  32
ENDBRANCH  30  31
ENDBRANCH   1  30
TORSDOF 23
ENDMDL
MODEL 2
REMARK VINA RESULT:     -10.4      1.504      3.405
REMARK SMILES Cc1ccnc(C(=O)c2[nH]c3cc(F)ccc3c2CC(=O)OCCOCCOCCOCCOC(=O)c2ccc(-c3c4nc(c(-c5c(F)c(F)c(F)c(F)c5F)c5ccc([nH]5)c(-c5c(F)c(F)c(F)c(F)c5F)c5nc(c(-c6c(F)c(F)c(F)c(F)c6F)c6ccc3[nH]6)C=C5)C=C4)cc2)c1
REMARK SMILES IDX 27 1 26 2 25 3 24 4 23 5 22 6 20 7 21 8 19 9 18 10 9 11
REMARK SMILES IDX 10 12 11 13 17 15 12 16 16 17 13 18 15 19 14 20 7 21 8 22
REMARK SMILES IDX 6 23 1 24 2 25 3 26 100 27 4 28 5 29 28 30 29 31 30 32 31 33
REMARK SMILES IDX 32 34 33 35 34 36 35 37 36 38 37 39 38 40 99 41 39 42 98 43
REMARK SMILES IDX 40 44 41 45 42 46 92 47 43 48 97 49 91 50 93 51 44 52 96 53
REMARK SMILES IDX 90 54 89 55 45 57 77 58 57 59 76 60 58 61 61 62 75 63 94 64
REMARK SMILES IDX 59 65 60 66 74 68 95 69 62 70 46 71 47 72 55 73 48 74 49 75
REMARK SMILES IDX 53 76 56 77 50 78 51 79 54 80 52 81 78 82 79 83 87 84 80 85
REMARK SMILES IDX 81 86 85 87 88 88 82 89 83 90 86 91 84 92 63 93 64 94 72 95
REMARK SMILES IDX 65 96 66 97 70 98 73 99 67 100 68 101 71 102 69 103
REMARK H PARENT 10 14 93 56 61 67
REMARK Flexibility Score: inf
ROOT
ATOM      1  C   UNL A   1      31.199  22.904  25.266  1.00  0.00     0.188 C 
ENDROOT
BRANCH   1   2
ATOM      2  C   UNL A   1      30.991  24.189  26.066  1.00  0.00     0.188 C 
BRANCH   2   3
ATOM      3  O   UNL A   1      31.934  25.226  25.886  1.00  0.00    -0.376 OA
BRANCH   3   4
ATOM      4  C   UNL A   1      31.942  26.273  26.853  1.00  0.00     0.202 C 
BRANCH   4   5
ATOM      5  C   UNL A   1      30.961  27.458  26.726  1.00  0.00     0.261 C 
BRANCH   5   6
ATOM      6  O   UNL A   1      31.538  28.777  26.949  1.00  0.00    -0.463 OA
BRANCH   6   7
ATOM      7  C   UNL A   1      32.277  29.282  25.930  1.00  0.00     0.310 C 
ATOM      8  O   UNL A   1      33.484  29.510  26.039  1.00  0.00    -0.252 OA
BRANCH   7   9
ATOM      9  C   UNL A   1      31.590  29.551  24.602  1.00  0.00     0.161 C 
BRANCH   9  10
ATOM     10  C   UNL A   1      31.458  28.507  23.512  1.00  0.00     0.000 A 
ATOM     11  C   UNL A   1      30.304  28.153  22.790  1.00  0.00     0.093 A 
ATOM     12  N   UNL A   1      30.699  27.192  21.879  1.00  0.00    -0.351 N 
ATOM     13  C   UNL A   1      31.887  26.627  22.276  1.00  0.00     0.049 A 
ATOM     14  H   UNL A   1      30.201  26.947  21.066  1.00  0.00     0.167 HD
ATOM     15  C   UNL A   1      32.403  27.444  23.280  1.00  0.00     0.004 A 
ATOM     16  C   UNL A   1      32.520  25.453  21.848  1.00  0.00     0.066 A 
ATOM     17  C   UNL A   1      33.610  27.055  23.905  1.00  0.00     0.013 A 
ATOM     18  C   UNL A   1      33.683  25.078  22.520  1.00  0.00     0.125 A 
ATOM     19  C   UNL A   1      34.225  25.854  23.534  1.00  0.00     0.040 A 
ATOM     20  F   UNL A   1      34.277  23.922  22.193  1.00  0.00    -0.207 F 
BRANCH  11  21
ATOM     21  C   UNL A   1      28.942  28.668  22.946  1.00  0.00     0.227 C 
ATOM     22  O   UNL A   1      28.040  28.005  23.462  1.00  0.00    -0.285 OA
BRANCH  21  23
ATOM     23  C   UNL A   1      28.546  30.015  22.440  1.00  0.00     0.113 A 
ATOM     24  C   UNL A   1      29.073  33.664  23.280  1.00  0.00     0.044 C 
ATOM     25  C   UNL A   1      28.683  32.403  22.569  1.00  0.00    -0.047 A 
ATOM     26  C   UNL A   1      28.305  32.451  21.224  1.00  0.00     0.023 A 
ATOM     27  C   UNL A   1      28.808  31.155  23.191  1.00  0.00     0.036 A 
ATOM     28  C   UNL A   1      28.035  31.263  20.564  1.00  0.00     0.112 A 
ATOM     29  N   UNL A   1      28.133  30.051  21.146  1.00  0.00    -0.253 NA
ENDBRANCH  21  23
ENDBRANCH  11  21
ENDBRANCH   9  10
ENDBRANCH   7   9
ENDBRANCH   6   7
ENDBRANCH   5   6
ENDBRANCH   4   5
ENDBRANCH   3   4
ENDBRANCH   2   3
ENDBRANCH   1   2
BRANCH   1  30
ATOM     30  O   UNL A   1      32.251  22.032  25.643  1.00  0.00    -0.377 OA
BRANCH  30  31
ATOM     31  C   UNL A   1      32.366  20.754  25.034  1.00  0.00     0.188 C 
BRANCH  31  32
ATOM     32  C   UNL A   1      33.647  19.955  25.268  1.00  0.00     0.188 C 
BRANCH  32  33
ATOM     33  O   UNL A   1      34.817  20.661  25.682  1.00  0.00    -0.376 OA
BRANCH  33  34
ATOM     34  C   UNL A   1      35.765  21.078  24.704  1.00  0.00     0.202 C 
BRANCH  34  35
ATOM     35  C   UNL A   1      37.218  20.786  25.063  1.00  0.00     0.261 C 
BRANCH  35  36
ATOM     36  O   UNL A   1      37.868  21.957  25.576  1.00  0.00    -0.460 OA
BRANCH  36  37
ATOM     37  C   UNL A   1      39.057  21.735  26.188  1.00  0.00     0.338 C 
ATOM     38  O   UNL A   1      39.704  20.710  26.214  1.00  0.00    -0.246 OA
BRANCH  37  39
ATOM     39  C   UNL A   1      39.557  23.026  26.699  1.00  0.00     0.060 A 
ATOM     40  C   UNL A   1      38.986  24.201  26.197  1.00  0.00     0.016 A 
ATOM     41  C   UNL A   1      40.583  23.076  27.644  1.00  0.00     0.016 A 
ATOM     42  C   UNL A   1      39.446  25.439  26.632  1.00  0.00     0.010 A 
ATOM     43  C   UNL A   1      41.061  24.316  28.062  1.00  0.00     0.010 A 
ATOM     44  C   UNL A   1      40.508  25.499  27.542  1.00  0.00    -0.014 A 
BRANCH  44  45
ATOM     45  C   UNL A   1      41.148  26.794  27.843  1.00  0.00     0.031 A 
ATOM     46  C   UNL A   1      42.598  26.969  27.497  1.00  0.00     0.074 A 
ATOM     47  C   UNL A   1      40.449  27.779  28.429  1.00  0.00     0.049 A 
ATOM     48  N   UNL A   1      43.403  27.961  27.772  1.00  0.00    -0.248 NA
ATOM     49  C   UNL A   1      43.227  25.872  26.744  1.00  0.00     0.031 C 
ATOM     50  C   UNL A   1      39.025  27.724  28.754  1.00  0.00     0.029 A 
ATOM     51  N   UNL A   1      40.851  29.013  28.871  1.00  0.00    -0.354 N 
ATOM     52  C   UNL A   1      44.633  27.603  27.238  1.00  0.00     0.074 A 
ATOM     53  C   UNL A   1      44.478  26.297  26.639  1.00  0.00     0.031 C 
ATOM     54  C   UNL A   1      38.676  28.868  29.368  1.00  0.00     0.029 A 
ATOM     55  C   UNL A   1      39.860  29.710  29.518  1.00  0.00     0.049 A 
ATOM     56  H   UNL A   1      41.761  29.363  28.739  1.00  0.00     0.167 HD
ATOM     57  C   UNL A   1      45.788  28.308  27.255  1.00  0.00     0.037 A 
ATOM     58  C   UNL A   1      39.925  30.877  30.187  1.00  0.00     0.037 A 
ATOM     59  C   UNL A   1      45.922  29.608  27.858  1.00  0.00     0.049 A 
ATOM     60  C   UNL A   1      41.250  31.595  30.270  1.00  0.00     0.074 A 
ATOM     61  C   UNL A   1      47.036  30.426  27.902  1.00  0.00     0.029 A 
ATOM     62  N   UNL A   1      44.909  30.270  28.535  1.00  0.00    -0.354 N 
ATOM     63  N   UNL A   1      42.404  31.273  29.734  1.00  0.00    -0.248 NA
ATOM     64  C   UNL A   1      41.283  32.835  31.057  1.00  0.00     0.031 C 
ATOM     65  C   UNL A   1      46.717  31.552  28.665  1.00  0.00     0.029 A 
ATOM     66  C   UNL A   1      45.385  31.469  29.041  1.00  0.00     0.049 A 
ATOM     67  H   UNL A   1      43.988  29.938  28.641  1.00  0.00     0.167 HD
ATOM     68  C   UNL A   1      43.289  32.281  30.096  1.00  0.00     0.074 A 
ATOM     69  C   UNL A   1      42.533  33.236  30.878  1.00  0.00     0.031 C 
ATOM     70  C   UNL A   1      44.610  32.405  29.812  1.00  0.00     0.037 A 
BRANCH  57  71
ATOM     71  C   UNL A   1      47.004  27.680  26.642  1.00  0.00     0.064 A 
ATOM     72  C   UNL A   1      47.855  26.839  27.373  1.00  0.00     0.173 A 
ATOM     73  C   UNL A   1      47.290  27.882  25.282  1.00  0.00     0.173 A 
ATOM     74  F   UNL A   1      47.635  26.627  28.680  1.00  0.00    -0.203 F 
ATOM     75  C   UNL A   1      48.954  26.232  26.769  1.00  0.00     0.198 A 
ATOM     76  C   UNL A   1      48.371  27.251  24.675  1.00  0.00     0.198 A 
ATOM     77  F   UNL A   1      46.509  28.679  24.537  1.00  0.00    -0.203 F 
ATOM     78  F   UNL A   1      49.774  25.461  27.495  1.00  0.00    -0.200 F 
ATOM     79  C   UNL A   1      49.205  26.430  25.420  1.00  0.00     0.200 A 
ATOM     80  F   UNL A   1      48.604  27.433  23.368  1.00  0.00    -0.200 F 
ATOM     81  F   UNL A   1      50.253  25.832  24.837  1.00  0.00    -0.200 F 
ENDBRANCH  57  71
BRANCH  58  82
ATOM     82  C   UNL A   1      38.720  31.426  30.864  1.00  0.00     0.064 A 
ATOM     83  C   UNL A   1      38.500  31.212  32.233  1.00  0.00     0.173 A 
ATOM     84  C   UNL A   1      37.741  32.136  30.152  1.00  0.00     0.173 A 
ATOM     85  F   UNL A   1      39.394  30.517  32.953  1.00  0.00    -0.203 F 
ATOM     86  C   UNL A   1      37.335  31.659  32.854  1.00  0.00     0.198 A 
ATOM     87  C   UNL A   1      36.593  32.612  30.783  1.00  0.00     0.198 A 
ATOM     88  F   UNL A   1      37.896  32.365  28.840  1.00  0.00    -0.203 F 
ATOM     89  F   UNL A   1      37.123  31.384  34.149  1.00  0.00    -0.200 F 
ATOM     90  C   UNL A   1      36.386  32.363  32.131  1.00  0.00     0.200 A 
ATOM     91  F   UNL A   1      35.684  33.303  30.082  1.00  0.00    -0.200 F 
ATOM     92  F   UNL A   1      35.264  32.788  32.728  1.00  0.00    -0.200 F 
ENDBRANCH  58  82
BRANCH  70  93
ATOM     93  C   UNL A   1      45.313  33.627  30.329  1.00  0.00     0.064 A 
ATOM     94  C   UNL A   1      45.963  33.630  31.572  1.00  0.00     0.173 A 
ATOM     95  C   UNL A   1      45.378  34.793  29.550  1.00  0.00     0.173 A 
ATOM     96  F   UNL A   1      45.918  32.547  32.361  1.00  0.00    -0.203 F 
ATOM     97  C   UNL A   1      46.632  34.765  32.026  1.00  0.00     0.198 A 
ATOM     98  C   UNL A   1      46.079  35.912  29.991  1.00  0.00     0.198 A 
ATOM     99  F   UNL A   1      44.780  34.840  28.350  1.00  0.00    -0.203 F 
ATOM    100  F   UNL A   1      47.203  34.762  33.238  1.00  0.00    -0.200 F 
ATOM    101  C   UNL A   1      46.697  35.900  31.233  1.00  0.00     0.200 A 
ATOM    102  F   UNL A   1      46.157  37.000  29.214  1.00  0.00    -0.200 F 
ATOM    103  F   UNL A   1      47.352  36.985  31.665  1.00  0.00    -0.200 F 
ENDBRANCH  70  93
ENDBRANCH  44  45
ENDBRANCH  37  39
ENDBRANCH  36  37
ENDBRANCH  35  36
ENDBRANCH  34  35
ENDBRANCH  33  34
ENDBRANCH  32  33
ENDBRANCH  31  32
ENDBRANCH  30  31
ENDBRANCH   1  30
TORSDOF 23
ENDMDL
MODEL 3
REMARK VINA RESULT:     -10.4      2.864      4.709
REMARK SMILES Cc1ccnc(C(=O)c2[nH]c3cc(F)ccc3c2CC(=O)OCCOCCOCCOCCOC(=O)c2ccc(-c3c4nc(c(-c5c(F)c(F)c(F)c(F)c5F)c5ccc([nH]5)c(-c5c(F)c(F)c(F)c(F)c5F)c5nc(c(-c6c(F)c(F)c(F)c(F)c6F)c6ccc3[nH]6)C=C5)C=C4)cc2)c1
REMARK SMILES IDX 27 1 26 2 25 3 24 4 23 5 22 6 20 7 21 8 19 9 18 10 9 11
REMARK SMILES IDX 10 12 11 13 17 15 12 16 16 17 13 18 15 19 14 20 7 21 8 22
REMARK SMILES IDX 6 23 1 24 2 25 3 26 100 27 4 28 5 29 28 30 29 31 30 32 31 33
REMARK SMILES IDX 32 34 33 35 34 36 35 37 36 38 37 39 38 40 99 41 39 42 98 43
REMARK SMILES IDX 40 44 41 45 42 46 92 47 43 48 97 49 91 50 93 51 44 52 96 53
REMARK SMILES IDX 90 54 89 55 45 57 77 58 57 59 76 60 58 61 61 62 75 63 94 64
REMARK SMILES IDX 59 65 60 66 74 68 95 69 62 70 46 71 47 72 55 73 48 74 49 75
REMARK SMILES IDX 53 76 56 77 50 78 51 79 54 80 52 81 78 82 79 83 87 84 80 85
REMARK SMILES IDX 81 86 85 87 88 88 82 89 83 90 86 91 84 92 63 93 64 94 72 95
REMARK SMILES IDX 65 96 66 97 70 98 73 99 67 100 68 101 71 102 69 103
REMARK H PARENT 10 14 93 56 61 67
REMARK Flexibility Score: inf
ROOT
ATOM      1  C   UNL A   1      31.463  22.972  25.324  1.00  0.00     0.188 C 
ENDROOT
BRANCH   1   2
ATOM      2  C   UNL A   1      31.126  24.251  26.089  1.00  0.00     0.188 C 
BRANCH   2   3
ATOM      3  O   UNL A   1      32.063  25.308  26.032  1.00  0.00    -0.376 OA
BRANCH   3   4
ATOM      4  C   UNL A   1      31.948  26.333  27.016  1.00  0.00     0.202 C 
BRANCH   4   5
ATOM      5  C   UNL A   1      30.974  27.511  26.805  1.00  0.00     0.261 C 
BRANCH   5   6
ATOM      6  O   UNL A   1      31.549  28.838  26.971  1.00  0.00    -0.463 OA
BRANCH   6   7
ATOM      7  C   UNL A   1      32.276  29.306  25.925  1.00  0.00     0.310 C 
ATOM      8  O   UNL A   1      33.489  29.513  26.005  1.00  0.00    -0.252 OA
BRANCH   7   9
ATOM      9  C   UNL A   1      31.567  29.557  24.605  1.00  0.00     0.161 C 
BRANCH   9  10
ATOM     10  C   UNL A   1      31.449  28.510  23.517  1.00  0.00     0.000 A 
ATOM     11  C   UNL A   1      30.304  28.151  22.783  1.00  0.00     0.093 A 
ATOM     12  N   UNL A   1      30.710  27.188  21.880  1.00  0.00    -0.351 N 
ATOM     13  C   UNL A   1      31.896  26.628  22.291  1.00  0.00     0.049 A 
ATOM     14  H   UNL A   1      30.222  26.940  21.061  1.00  0.00     0.167 HD
ATOM     15  C   UNL A   1      32.399  27.448  23.298  1.00  0.00     0.004 A 
ATOM     16  C   UNL A   1      32.535  25.453  21.873  1.00  0.00     0.066 A 
ATOM     17  C   UNL A   1      33.600  27.064  23.938  1.00  0.00     0.013 A 
ATOM     18  C   UNL A   1      33.692  25.083  22.558  1.00  0.00     0.125 A 
ATOM     19  C   UNL A   1      34.221  25.863  23.576  1.00  0.00     0.040 A 
ATOM     20  F   UNL A   1      34.292  23.927  22.241  1.00  0.00    -0.207 F 
BRANCH  11  21
ATOM     21  C   UNL A   1      28.939  28.664  22.923  1.00  0.00     0.227 C 
ATOM     22  O   UNL A   1      28.025  27.987  23.397  1.00  0.00    -0.285 OA
BRANCH  21  23
ATOM     23  C   UNL A   1      28.557  30.027  22.450  1.00  0.00     0.113 A 
ATOM     24  C   UNL A   1      29.176  33.650  23.338  1.00  0.00     0.044 C 
ATOM     25  C   UNL A   1      28.744  32.409  22.615  1.00  0.00    -0.047 A 
ATOM     26  C   UNL A   1      28.333  32.488  21.281  1.00  0.00     0.023 A 
ATOM     27  C   UNL A   1      28.860  31.149  23.213  1.00  0.00     0.036 A 
ATOM     28  C   UNL A   1      28.023  31.317  20.610  1.00  0.00     0.112 A 
ATOM     29  N   UNL A   1      28.112  30.093  21.168  1.00  0.00    -0.253 NA
ENDBRANCH  21  23
ENDBRANCH  11  21
ENDBRANCH   9  10
ENDBRANCH   7   9
ENDBRANCH   6   7
ENDBRANCH   5   6
ENDBRANCH   4   5
ENDBRANCH   3   4
ENDBRANCH   2   3
ENDBRANCH   1   2
BRANCH   1  30
ATOM     30  O   UNL A   1      32.481  22.125  25.830  1.00  0.00    -0.377 OA
BRANCH  30  31
ATOM     31  C   UNL A   1      33.087  21.159  24.984  1.00  0.00     0.188 C 
BRANCH  31  32
ATOM     32  C   UNL A   1      34.343  20.447  25.485  1.00  0.00     0.188 C 
BRANCH  32  33
ATOM     33  O   UNL A   1      35.475  21.242  25.836  1.00  0.00    -0.376 OA
BRANCH  33  34
ATOM     34  C   UNL A   1      36.297  21.783  24.805  1.00  0.00     0.202 C 
BRANCH  34  35
ATOM     35  C   UNL A   1      37.785  21.821  25.135  1.00  0.00     0.261 C 
BRANCH  35  36
ATOM     36  O   UNL A   1      38.136  23.043  25.798  1.00  0.00    -0.460 OA
BRANCH  36  37
ATOM     37  C   UNL A   1      39.343  23.039  26.414  1.00  0.00     0.338 C 
ATOM     38  O   UNL A   1      40.192  22.174  26.388  1.00  0.00    -0.246 OA
BRANCH  37  39
ATOM     39  C   UNL A   1      39.558  24.371  27.010  1.00  0.00     0.060 A 
ATOM     40  C   UNL A   1      40.227  25.336  26.247  1.00  0.00     0.016 A 
ATOM     41  C   UNL A   1      39.123  24.659  28.305  1.00  0.00     0.016 A 
ATOM     42  C   UNL A   1      40.473  26.596  26.780  1.00  0.00     0.010 A 
ATOM     43  C   UNL A   1      39.391  25.913  28.848  1.00  0.00     0.010 A 
ATOM     44  C   UNL A   1      40.084  26.877  28.095  1.00  0.00    -0.014 A 
BRANCH  44  45
ATOM     45  C   UNL A   1      40.531  28.123  28.746  1.00  0.00     0.031 A 
ATOM     46  C   UNL A   1      41.953  28.212  29.217  1.00  0.00     0.074 A 
ATOM     47  C   UNL A   1      39.674  29.142  28.925  1.00  0.00     0.049 A 
ATOM     48  N   UNL A   1      42.539  29.147  29.917  1.00  0.00    -0.248 NA
ATOM     49  C   UNL A   1      42.832  27.089  28.853  1.00  0.00     0.031 C 
ATOM     50  C   UNL A   1      38.290  29.172  28.456  1.00  0.00     0.029 A 
ATOM     51  N   UNL A   1      39.841  30.341  29.569  1.00  0.00    -0.354 N 
ATOM     52  C   UNL A   1      43.849  28.720  30.089  1.00  0.00     0.074 A 
ATOM     53  C   UNL A   1      43.971  27.435  29.436  1.00  0.00     0.031 C 
ATOM     54  C   UNL A   1      37.724  30.327  28.850  1.00  0.00     0.029 A 
ATOM     55  C   UNL A   1      38.691  31.089  29.635  1.00  0.00     0.049 A 
ATOM     56  H   UNL A   1      40.701  30.635  29.948  1.00  0.00     0.167 HD
ATOM     57  C   UNL A   1      44.854  29.350  30.739  1.00  0.00     0.037 A 
ATOM     58  C   UNL A   1      38.449  32.238  30.293  1.00  0.00     0.037 A 
ATOM     59  C   UNL A   1      44.712  30.629  31.383  1.00  0.00     0.049 A 
ATOM     60  C   UNL A   1      39.565  32.870  31.088  1.00  0.00     0.074 A 
ATOM     61  C   UNL A   1      45.673  31.375  32.040  1.00  0.00     0.029 A 
ATOM     62  N   UNL A   1      43.526  31.344  31.461  1.00  0.00    -0.354 N 
ATOM     63  N   UNL A   1      40.813  32.485  31.220  1.00  0.00    -0.248 NA
ATOM     64  C   UNL A   1      39.237  34.093  31.834  1.00  0.00     0.031 C 
ATOM     65  C   UNL A   1      45.054  32.507  32.575  1.00  0.00     0.029 A 
ATOM     66  C   UNL A   1      43.720  32.501  32.196  1.00  0.00     0.049 A 
ATOM     67  H   UNL A   1      42.672  31.068  31.055  1.00  0.00     0.167 HD
ATOM     68  C   UNL A   1      41.422  33.428  32.037  1.00  0.00     0.074 A 
ATOM     69  C   UNL A   1      40.413  34.417  32.352  1.00  0.00     0.031 C 
ATOM     70  C   UNL A   1      42.699  33.473  32.491  1.00  0.00     0.037 A 
BRANCH  57  71
ATOM     71  C   UNL A   1      46.181  28.656  30.823  1.00  0.00     0.064 A 
ATOM     72  C   UNL A   1      47.191  28.868  29.873  1.00  0.00     0.173 A 
ATOM     73  C   UNL A   1      46.465  27.808  31.904  1.00  0.00     0.173 A 
ATOM     74  F   UNL A   1      46.965  29.657  28.810  1.00  0.00    -0.203 F 
ATOM     75  C   UNL A   1      48.431  28.246  29.996  1.00  0.00     0.198 A 
ATOM     76  C   UNL A   1      47.715  27.212  32.040  1.00  0.00     0.198 A 
ATOM     77  F   UNL A   1      45.533  27.570  32.840  1.00  0.00    -0.203 F 
ATOM     78  F   UNL A   1      49.369  28.434  29.059  1.00  0.00    -0.200 F 
ATOM     79  C   UNL A   1      48.696  27.428  31.084  1.00  0.00     0.200 A 
ATOM     80  F   UNL A   1      47.971  26.431  33.099  1.00  0.00    -0.200 F 
ATOM     81  F   UNL A   1      49.895  26.844  31.211  1.00  0.00    -0.200 F 
ENDBRANCH  57  71
BRANCH  58  82
ATOM     82  C   UNL A   1      37.095  32.853  30.265  1.00  0.00     0.064 A 
ATOM     83  C   UNL A   1      36.162  32.591  31.281  1.00  0.00     0.173 A 
ATOM     84  C   UNL A   1      36.685  33.675  29.204  1.00  0.00     0.173 A 
ATOM     85  F   UNL A   1      36.496  31.791  32.304  1.00  0.00    -0.203 F 
ATOM     86  C   UNL A   1      34.867  33.103  31.219  1.00  0.00     0.198 A 
ATOM     87  C   UNL A   1      35.401  34.213  29.162  1.00  0.00     0.198 A 
ATOM     88  F   UNL A   1      37.534  33.954  28.203  1.00  0.00    -0.203 F 
ATOM     89  F   UNL A   1      33.980  32.784  32.171  1.00  0.00    -0.200 F 
ATOM     90  C   UNL A   1      34.490  33.917  30.164  1.00  0.00     0.200 A 
ATOM     91  F   UNL A   1      35.044  35.010  28.146  1.00  0.00    -0.200 F 
ATOM     92  F   UNL A   1      33.243  34.404  30.103  1.00  0.00    -0.200 F 
ENDBRANCH  58  82
BRANCH  70  93
ATOM     93  C   UNL A   1      43.082  34.640  33.356  1.00  0.00     0.064 A 
ATOM     94  C   UNL A   1      43.504  35.858  32.802  1.00  0.00     0.173 A 
ATOM     95  C   UNL A   1      42.979  34.554  34.753  1.00  0.00     0.173 A 
ATOM     96  F   UNL A   1      43.633  35.986  31.473  1.00  0.00    -0.203 F 
ATOM     97  C   UNL A   1      43.832  36.938  33.617  1.00  0.00     0.198 A 
ATOM     98  C   UNL A   1      43.272  35.648  35.562  1.00  0.00     0.198 A 
ATOM     99  F   UNL A   1      42.572  33.415  35.333  1.00  0.00    -0.203 F 
ATOM    100  F   UNL A   1      44.281  38.075  33.068  1.00  0.00    -0.200 F 
ATOM    101  C   UNL A   1      43.707  36.836  34.994  1.00  0.00     0.200 A 
ATOM    102  F   UNL A   1      43.132  35.553  36.891  1.00  0.00    -0.200 F 
ATOM    103  F   UNL A   1      44.010  37.882  35.775  1.00  0.00    -0.200 F 
ENDBRANCH  70  93
ENDBRANCH  44  45
ENDBRANCH  37  39
ENDBRANCH  36  37
ENDBRANCH  35  36
ENDBRANCH  34  35
ENDBRANCH  33  34
ENDBRANCH  32  33
ENDBRANCH  31  32
ENDBRANCH  30  31
ENDBRANCH   1  30
TORSDOF 23
ENDMDL
