MODEL 1
REMARK VINA RESULT:     -11.6      0.000      0.000
REMARK SMILES Cc1ccc(F)c(C(=O)Nc2cccc(C(=O)OCCOCCOCCOCCOC(=O)c3ccc(-c4c5nc(c(-c6c(F)c(F)c(F)c(F)c6F)c6ccc([nH]6)c(-c6c(F)c(F)c(F)c(F)c6F)c6nc(c(-c7c(F)c(F)c(F)c(F)c7F)c7ccc4[nH]7)C=C6)C=C5)cc3)c2)c1
REMARK SMILES IDX 24 1 23 2 22 3 21 4 20 5 19 6 18 7 16 8 17 9 15 10 11 11
REMARK SMILES IDX 12 12 96 13 13 14 14 15 10 16 8 17 9 18 7 20 1 21 2 22 3 23
REMARK SMILES IDX 97 24 4 25 5 26 6 27 25 28 26 29 27 30 28 31 29 32 30 33
REMARK SMILES IDX 31 34 32 35 33 36 34 37 95 38 35 39 94 40 36 41 37 42 38 43
REMARK SMILES IDX 88 44 39 45 93 46 87 47 89 48 40 49 92 50 86 51 85 52 41 54
REMARK SMILES IDX 73 55 53 56 72 57 54 58 57 59 71 60 90 61 55 62 56 63 70 65
REMARK SMILES IDX 91 66 58 67 42 68 43 69 51 70 44 71 45 72 49 73 52 74 46 75
REMARK SMILES IDX 47 76 50 77 48 78 74 79 75 80 83 81 76 82 77 83 81 84 84 85
REMARK SMILES IDX 78 86 79 87 82 88 80 89 59 90 60 91 68 92 61 93 62 94 66 95
REMARK SMILES IDX 69 96 63 97 64 98 67 99 65 100
REMARK H PARENT 10 19 89 53 57 64
REMARK Flexibility Score: inf
ROOT
ATOM      1  O   UNL A   1      32.670  35.311  30.353  1.00  0.00    -0.377 OA
ENDROOT
BRANCH   1   2
ATOM      2  C   UNL A   1      32.961  35.502  28.974  1.00  0.00     0.188 C 
BRANCH   2   3
ATOM      3  C   UNL A   1      34.396  35.239  28.464  1.00  0.00     0.188 C 
BRANCH   3   4
ATOM      4  O   UNL A   1      34.567  34.011  27.769  1.00  0.00    -0.376 OA
BRANCH   4   5
ATOM      5  C   UNL A   1      33.587  32.998  27.947  1.00  0.00     0.202 C 
BRANCH   5   6
ATOM      6  C   UNL A   1      34.033  31.525  27.929  1.00  0.00     0.261 C 
BRANCH   6   7
ATOM      7  O   UNL A   1      33.276  30.649  27.086  1.00  0.00    -0.460 OA
BRANCH   7   8
ATOM      8  C   UNL A   1      33.791  29.446  26.798  1.00  0.00     0.338 C 
ATOM      9  O   UNL A   1      34.903  29.020  27.141  1.00  0.00    -0.246 OA
BRANCH   8  10
ATOM     10  C   UNL A   1      32.765  28.625  26.125  1.00  0.00     0.062 A 
ATOM     11  C   UNL A   1      31.456  26.601  26.037  1.00  0.00     0.042 A 
ATOM     12  C   UNL A   1      30.754  27.108  24.940  1.00  0.00     0.026 A 
ATOM     13  C   UNL A   1      32.560  27.297  26.515  1.00  0.00     0.041 A 
ATOM     14  C   UNL A   1      31.033  28.393  24.463  1.00  0.00     0.003 A 
ATOM     15  C   UNL A   1      31.998  29.175  25.094  1.00  0.00     0.016 A 
BRANCH  11  16
ATOM     16  N   UNL A   1      30.934  25.470  26.685  1.00  0.00    -0.322 N 
ATOM     17  C   UNL A   1      31.255  24.124  26.580  1.00  0.00     0.258 C 
ATOM     18  O   UNL A   1      30.599  23.326  27.250  1.00  0.00    -0.269 OA
ATOM     19  H   UNL A   1      30.211  25.666  27.324  1.00  0.00     0.170 HD
BRANCH  17  20
ATOM     20  C   UNL A   1      32.395  23.617  25.763  1.00  0.00     0.076 A 
ATOM     21  C   UNL A   1      36.205  23.733  25.718  1.00  0.00     0.044 C 
ATOM     22  C   UNL A   1      34.789  23.407  25.331  1.00  0.00    -0.050 A 
ATOM     23  C   UNL A   1      34.510  22.960  24.036  1.00  0.00     0.006 A 
ATOM     24  C   UNL A   1      33.724  23.628  26.219  1.00  0.00     0.020 A 
ATOM     25  C   UNL A   1      33.189  22.786  23.628  1.00  0.00     0.040 A 
ATOM     26  C   UNL A   1      32.142  23.141  24.477  1.00  0.00     0.135 A 
ATOM     27  F   UNL A   1      30.892  23.048  24.000  1.00  0.00    -0.206 F 
ENDBRANCH  17  20
ENDBRANCH  11  16
ENDBRANCH   8  10
ENDBRANCH   7   8
ENDBRANCH   6   7
ENDBRANCH   5   6
ENDBRANCH   4   5
ENDBRANCH   3   4
ENDBRANCH   2   3
ENDBRANCH   1   2
BRANCH   1  28
ATOM     28  C   UNL A   1      33.756  35.350  31.269  1.00  0.00     0.188 C 
BRANCH  28  29
ATOM     29  C   UNL A   1      33.879  34.266  32.371  1.00  0.00     0.188 C 
BRANCH  29  30
ATOM     30  O   UNL A   1      35.100  33.533  32.372  1.00  0.00    -0.376 OA
BRANCH  30  31
ATOM     31  C   UNL A   1      35.362  32.622  31.313  1.00  0.00     0.202 C 
BRANCH  31  32
ATOM     32  C   UNL A   1      36.732  32.699  30.620  1.00  0.00     0.261 C 
BRANCH  32  33
ATOM     33  O   UNL A   1      36.846  31.880  29.464  1.00  0.00    -0.460 OA
BRANCH  33  34
ATOM     34  C   UNL A   1      37.955  31.132  29.471  1.00  0.00     0.338 C 
ATOM     35  O   UNL A   1      39.067  31.476  29.872  1.00  0.00    -0.246 OA
BRANCH  34  36
ATOM     36  C   UNL A   1      37.660  29.816  28.845  1.00  0.00     0.060 A 
ATOM     37  C   UNL A   1      37.599  28.813  29.833  1.00  0.00     0.016 A 
ATOM     38  C   UNL A   1      38.508  29.696  27.749  1.00  0.00     0.016 A 
ATOM     39  C   UNL A   1      38.753  28.118  30.086  1.00  0.00     0.010 A 
ATOM     40  C   UNL A   1      39.683  29.053  28.008  1.00  0.00     0.010 A 
ATOM     41  C   UNL A   1      39.815  28.367  29.226  1.00  0.00    -0.014 A 
BRANCH  41  42
ATOM     42  C   UNL A   1      41.129  27.868  29.489  1.00  0.00     0.031 A 
ATOM     43  C   UNL A   1      41.406  26.540  28.955  1.00  0.00     0.074 A 
ATOM     44  C   UNL A   1      42.017  28.678  30.093  1.00  0.00     0.049 A 
ATOM     45  N   UNL A   1      42.295  25.747  29.423  1.00  0.00    -0.248 NA
ATOM     46  C   UNL A   1      40.604  25.958  27.875  1.00  0.00     0.031 C 
ATOM     47  C   UNL A   1      43.462  28.535  30.133  1.00  0.00     0.029 A 
ATOM     48  N   UNL A   1      41.738  29.748  30.952  1.00  0.00    -0.354 N 
ATOM     49  C   UNL A   1      42.426  24.739  28.502  1.00  0.00     0.074 A 
ATOM     50  C   UNL A   1      41.275  24.832  27.637  1.00  0.00     0.031 C 
ATOM     51  C   UNL A   1      43.943  29.302  31.126  1.00  0.00     0.029 A 
ATOM     52  C   UNL A   1      42.805  29.831  31.862  1.00  0.00     0.049 A 
ATOM     53  H   UNL A   1      40.945  30.331  30.922  1.00  0.00     0.167 HD
ATOM     54  C   UNL A   1      43.607  24.071  28.441  1.00  0.00     0.037 A 
ATOM     55  C   UNL A   1      42.580  29.587  33.187  1.00  0.00     0.037 A 
ATOM     56  C   UNL A   1      44.517  24.552  29.475  1.00  0.00     0.049 A 
ATOM     57  C   UNL A   1      43.244  28.316  33.673  1.00  0.00     0.074 A 
ATOM     58  C   UNL A   1      45.499  25.531  29.463  1.00  0.00     0.029 A 
ATOM     59  N   UNL A   1      44.173  24.365  30.812  1.00  0.00    -0.354 N 
ATOM     60  N   UNL A   1      43.582  27.319  32.897  1.00  0.00    -0.248 NA
ATOM     61  C   UNL A   1      43.617  28.090  35.064  1.00  0.00     0.031 C 
ATOM     62  C   UNL A   1      45.710  25.965  30.798  1.00  0.00     0.029 A 
ATOM     63  C   UNL A   1      44.871  25.240  31.626  1.00  0.00     0.049 A 
ATOM     64  H   UNL A   1      43.523  23.700  31.135  1.00  0.00     0.167 HD
ATOM     65  C   UNL A   1      44.223  26.356  33.635  1.00  0.00     0.074 A 
ATOM     66  C   UNL A   1      44.228  26.895  34.984  1.00  0.00     0.031 C 
ATOM     67  C   UNL A   1      44.710  25.205  33.073  1.00  0.00     0.037 A 
BRANCH  54  68
ATOM     68  C   UNL A   1      43.979  23.305  27.208  1.00  0.00     0.064 A 
ATOM     69  C   UNL A   1      44.858  23.848  26.255  1.00  0.00     0.173 A 
ATOM     70  C   UNL A   1      43.428  22.050  26.886  1.00  0.00     0.173 A 
ATOM     71  F   UNL A   1      45.474  25.019  26.458  1.00  0.00    -0.203 F 
ATOM     72  C   UNL A   1      45.113  23.217  25.037  1.00  0.00     0.198 A 
ATOM     73  C   UNL A   1      43.642  21.444  25.645  1.00  0.00     0.198 A 
ATOM     74  F   UNL A   1      42.668  21.385  27.769  1.00  0.00    -0.203 F 
ATOM     75  F   UNL A   1      45.959  23.781  24.162  1.00  0.00    -0.200 F 
ATOM     76  C   UNL A   1      44.485  22.030  24.720  1.00  0.00     0.200 A 
ATOM     77  F   UNL A   1      43.016  20.296  25.346  1.00  0.00    -0.200 F 
ATOM     78  F   UNL A   1      44.700  21.446  23.533  1.00  0.00    -0.200 F 
ENDBRANCH  54  68
BRANCH  55  79
ATOM     79  C   UNL A   1      41.291  30.152  33.671  1.00  0.00     0.064 A 
ATOM     80  C   UNL A   1      41.252  31.530  33.969  1.00  0.00     0.173 A 
ATOM     81  C   UNL A   1      40.064  29.501  33.489  1.00  0.00     0.173 A 
ATOM     82  F   UNL A   1      42.398  32.206  34.153  1.00  0.00    -0.203 F 
ATOM     83  C   UNL A   1      40.054  32.240  33.994  1.00  0.00     0.198 A 
ATOM     84  C   UNL A   1      38.861  30.215  33.522  1.00  0.00     0.198 A 
ATOM     85  F   UNL A   1      40.028  28.193  33.198  1.00  0.00    -0.203 F 
ATOM     86  F   UNL A   1      40.065  33.569  34.181  1.00  0.00    -0.200 F 
ATOM     87  C   UNL A   1      38.859  31.582  33.761  1.00  0.00     0.200 A 
ATOM     88  F   UNL A   1      37.702  29.590  33.263  1.00  0.00    -0.200 F 
ATOM     89  F   UNL A   1      37.707  32.267  33.739  1.00  0.00    -0.200 F 
ENDBRANCH  55  79
BRANCH  67  90
ATOM     90  C   UNL A   1      45.186  23.963  33.805  1.00  0.00     0.064 A 
ATOM     91  C   UNL A   1      44.428  22.791  33.956  1.00  0.00     0.173 A 
ATOM     92  C   UNL A   1      46.529  23.868  34.263  1.00  0.00     0.173 A 
ATOM     93  F   UNL A   1      43.193  22.681  33.454  1.00  0.00    -0.203 F 
ATOM     94  C   UNL A   1      44.943  21.648  34.578  1.00  0.00     0.198 A 
ATOM     95  C   UNL A   1      47.062  22.700  34.803  1.00  0.00     0.198 A 
ATOM     96  F   UNL A   1      47.385  24.896  34.176  1.00  0.00    -0.203 F 
ATOM     97  F   UNL A   1      44.154  20.579  34.751  1.00  0.00    -0.200 F 
ATOM     98  C   UNL A   1      46.263  21.596  34.984  1.00  0.00     0.200 A 
ATOM     99  F   UNL A   1      48.363  22.652  35.126  1.00  0.00    -0.200 F 
ATOM    100  F   UNL A   1      46.765  20.479  35.524  1.00  0.00    -0.200 F 
ENDBRANCH  67  90
ENDBRANCH  41  42
ENDBRANCH  34  36
ENDBRANCH  33  34
ENDBRANCH  32  33
ENDBRANCH  31  32
ENDBRANCH  30  31
ENDBRANCH  29  30
ENDBRANCH  28  29
ENDBRANCH   1  28
TORSDOF 22
ENDMDL
MODEL 2
REMARK VINA RESULT:     -11.5      4.618     10.630
REMARK SMILES Cc1ccc(F)c(C(=O)Nc2cccc(C(=O)OCCOCCOCCOCCOC(=O)c3ccc(-c4c5nc(c(-c6c(F)c(F)c(F)c(F)c6F)c6ccc([nH]6)c(-c6c(F)c(F)c(F)c(F)c6F)c6nc(c(-c7c(F)c(F)c(F)c(F)c7F)c7ccc4[nH]7)C=C6)C=C5)cc3)c2)c1
REMARK SMILES IDX 24 1 23 2 22 3 21 4 20 5 19 6 18 7 16 8 17 9 15 10 11 11
REMARK SMILES IDX 12 12 96 13 13 14 14 15 10 16 8 17 9 18 7 20 1 21 2 22 3 23
REMARK SMILES IDX 97 24 4 25 5 26 6 27 25 28 26 29 27 30 28 31 29 32 30 33
REMARK SMILES IDX 31 34 32 35 33 36 34 37 95 38 35 39 94 40 36 41 37 42 38 43
REMARK SMILES IDX 88 44 39 45 93 46 87 47 89 48 40 49 92 50 86 51 85 52 41 54
REMARK SMILES IDX 73 55 53 56 72 57 54 58 57 59 71 60 90 61 55 62 56 63 70 65
REMARK SMILES IDX 91 66 58 67 42 68 43 69 51 70 44 71 45 72 49 73 52 74 46 75
REMARK SMILES IDX 47 76 50 77 48 78 74 79 75 80 83 81 76 82 77 83 81 84 84 85
REMARK SMILES IDX 78 86 79 87 82 88 80 89 59 90 60 91 68 92 61 93 62 94 66 95
REMARK SMILES IDX 69 96 63 97 64 98 67 99 65 100
REMARK H PARENT 10 19 89 53 57 64
REMARK Flexibility Score: inf
ROOT
ATOM      1  O   UNL A   1      39.333  22.592  26.761  1.00  0.00    -0.377 OA
ENDROOT
BRANCH   1   2
ATOM      2  C   UNL A   1      38.314  23.241  26.009  1.00  0.00     0.188 C 
BRANCH   2   3
ATOM      3  C   UNL A   1      37.180  22.394  25.390  1.00  0.00     0.188 C 
BRANCH   3   4
ATOM      4  O   UNL A   1      37.282  22.194  23.987  1.00  0.00    -0.376 OA
BRANCH   4   5
ATOM      5  C   UNL A   1      36.251  22.709  23.158  1.00  0.00     0.202 C 
BRANCH   5   6
ATOM      6  C   UNL A   1      35.253  23.716  23.757  1.00  0.00     0.261 C 
BRANCH   6   7
ATOM      7  O   UNL A   1      34.128  24.051  22.937  1.00  0.00    -0.460 OA
BRANCH   7   8
ATOM      8  C   UNL A   1      33.840  25.347  22.755  1.00  0.00     0.338 C 
ATOM      9  O   UNL A   1      33.926  25.978  21.692  1.00  0.00    -0.246 OA
BRANCH   8  10
ATOM     10  C   UNL A   1      33.249  25.894  23.993  1.00  0.00     0.062 A 
ATOM     11  C   UNL A   1      31.711  25.663  25.835  1.00  0.00     0.042 A 
ATOM     12  C   UNL A   1      32.202  26.849  26.388  1.00  0.00     0.026 A 
ATOM     13  C   UNL A   1      32.127  25.285  24.564  1.00  0.00     0.041 A 
ATOM     14  C   UNL A   1      33.247  27.535  25.761  1.00  0.00     0.003 A 
ATOM     15  C   UNL A   1      33.811  27.023  24.593  1.00  0.00     0.016 A 
BRANCH  11  16
ATOM     16  N   UNL A   1      30.911  24.843  26.647  1.00  0.00    -0.322 N 
ATOM     17  C   UNL A   1      30.903  23.467  26.837  1.00  0.00     0.258 C 
ATOM     18  O   UNL A   1      30.053  22.999  27.594  1.00  0.00    -0.269 OA
ATOM     19  H   UNL A   1      30.235  25.328  27.174  1.00  0.00     0.170 HD
BRANCH  17  20
ATOM     20  C   UNL A   1      31.916  22.554  26.232  1.00  0.00     0.076 A 
ATOM     21  C   UNL A   1      32.363  20.354  23.152  1.00  0.00     0.044 C 
ATOM     22  C   UNL A   1      32.648  21.050  24.454  1.00  0.00    -0.050 A 
ATOM     23  C   UNL A   1      33.671  20.579  25.282  1.00  0.00     0.006 A 
ATOM     24  C   UNL A   1      31.846  22.113  24.900  1.00  0.00     0.020 A 
ATOM     25  C   UNL A   1      33.853  21.130  26.549  1.00  0.00     0.040 A 
ATOM     26  C   UNL A   1      32.962  22.089  27.029  1.00  0.00     0.135 A 
ATOM     27  F   UNL A   1      33.123  22.515  28.290  1.00  0.00    -0.206 F 
ENDBRANCH  17  20
ENDBRANCH  11  16
ENDBRANCH   8  10
ENDBRANCH   7   8
ENDBRANCH   6   7
ENDBRANCH   5   6
ENDBRANCH   4   5
ENDBRANCH   3   4
ENDBRANCH   2   3
ENDBRANCH   1   2
BRANCH   1  28
ATOM     28  C   UNL A   1      39.890  21.399  26.226  1.00  0.00     0.188 C 
BRANCH  28  29
ATOM     29  C   UNL A   1      41.386  21.068  26.466  1.00  0.00     0.188 C 
BRANCH  29  30
ATOM     30  O   UNL A   1      42.265  21.405  25.398  1.00  0.00    -0.376 OA
BRANCH  30  31
ATOM     31  C   UNL A   1      42.730  22.743  25.281  1.00  0.00     0.202 C 
BRANCH  31  32
ATOM     32  C   UNL A   1      42.788  23.598  26.558  1.00  0.00     0.261 C 
BRANCH  32  33
ATOM     33  O   UNL A   1      42.033  24.800  26.488  1.00  0.00    -0.460 OA
BRANCH  33  34
ATOM     34  C   UNL A   1      41.580  25.193  27.684  1.00  0.00     0.338 C 
ATOM     35  O   UNL A   1      42.140  25.032  28.768  1.00  0.00    -0.246 OA
BRANCH  34  36
ATOM     36  C   UNL A   1      40.236  25.808  27.518  1.00  0.00     0.060 A 
ATOM     37  C   UNL A   1      40.311  26.903  26.634  1.00  0.00     0.016 A 
ATOM     38  C   UNL A   1      39.701  25.949  28.794  1.00  0.00     0.016 A 
ATOM     39  C   UNL A   1      40.499  28.141  27.192  1.00  0.00     0.010 A 
ATOM     40  C   UNL A   1      39.932  27.160  29.376  1.00  0.00     0.010 A 
ATOM     41  C   UNL A   1      40.432  28.201  28.578  1.00  0.00    -0.014 A 
BRANCH  41  42
ATOM     42  C   UNL A   1      40.804  29.379  29.299  1.00  0.00     0.031 A 
ATOM     43  C   UNL A   1      39.729  30.338  29.515  1.00  0.00     0.074 A 
ATOM     44  C   UNL A   1      42.049  29.460  29.802  1.00  0.00     0.049 A 
ATOM     45  N   UNL A   1      39.911  31.589  29.719  1.00  0.00    -0.248 NA
ATOM     46  C   UNL A   1      38.318  29.955  29.419  1.00  0.00     0.031 C 
ATOM     47  C   UNL A   1      42.528  30.353  30.842  1.00  0.00     0.029 A 
ATOM     48  N   UNL A   1      43.197  28.815  29.327  1.00  0.00    -0.354 N 
ATOM     49  C   UNL A   1      38.701  32.085  30.134  1.00  0.00     0.074 A 
ATOM     50  C   UNL A   1      37.719  31.081  29.804  1.00  0.00     0.031 C 
ATOM     51  C   UNL A   1      43.870  30.394  30.792  1.00  0.00     0.029 A 
ATOM     52  C   UNL A   1      44.286  29.657  29.608  1.00  0.00     0.049 A 
ATOM     53  H   UNL A   1      43.234  27.937  28.881  1.00  0.00     0.167 HD
ATOM     54  C   UNL A   1      38.693  33.200  30.909  1.00  0.00     0.037 A 
ATOM     55  C   UNL A   1      44.990  30.213  28.578  1.00  0.00     0.037 A 
ATOM     56  C   UNL A   1      40.051  33.702  31.091  1.00  0.00     0.049 A 
ATOM     57  C   UNL A   1      44.812  31.714  28.486  1.00  0.00     0.074 A 
ATOM     58  C   UNL A   1      40.998  33.477  32.079  1.00  0.00     0.029 A 
ATOM     59  N   UNL A   1      40.754  34.157  29.978  1.00  0.00    -0.354 N 
ATOM     60  N   UNL A   1      43.789  32.366  28.973  1.00  0.00    -0.248 NA
ATOM     61  C   UNL A   1      45.796  32.600  27.874  1.00  0.00     0.031 C 
ATOM     62  C   UNL A   1      42.280  33.753  31.535  1.00  0.00     0.029 A 
ATOM     63  C   UNL A   1      42.115  34.164  30.225  1.00  0.00     0.049 A 
ATOM     64  H   UNL A   1      40.339  34.435  29.129  1.00  0.00     0.167 HD
ATOM     65  C   UNL A   1      43.966  33.713  28.785  1.00  0.00     0.074 A 
ATOM     66  C   UNL A   1      45.245  33.805  28.102  1.00  0.00     0.031 C 
ATOM     67  C   UNL A   1      43.056  34.640  29.219  1.00  0.00     0.037 A 
BRANCH  54  68
ATOM     68  C   UNL A   1      37.499  33.526  31.754  1.00  0.00     0.064 A 
ATOM     69  C   UNL A   1      36.359  34.130  31.195  1.00  0.00     0.173 A 
ATOM     70  C   UNL A   1      37.464  33.327  33.147  1.00  0.00     0.173 A 
ATOM     71  F   UNL A   1      36.254  34.342  29.878  1.00  0.00    -0.203 F 
ATOM     72  C   UNL A   1      35.291  34.567  31.981  1.00  0.00     0.198 A 
ATOM     73  C   UNL A   1      36.420  33.812  33.938  1.00  0.00     0.198 A 
ATOM     74  F   UNL A   1      38.446  32.657  33.771  1.00  0.00    -0.203 F 
ATOM     75  F   UNL A   1      34.229  35.139  31.396  1.00  0.00    -0.200 F 
ATOM     76  C   UNL A   1      35.333  34.433  33.353  1.00  0.00     0.200 A 
ATOM     77  F   UNL A   1      36.479  33.686  35.272  1.00  0.00    -0.200 F 
ATOM     78  F   UNL A   1      34.325  34.891  34.109  1.00  0.00    -0.200 F 
ENDBRANCH  54  68
BRANCH  55  79
ATOM     79  C   UNL A   1      45.194  29.275  27.440  1.00  0.00     0.064 A 
ATOM     80  C   UNL A   1      46.232  28.327  27.553  1.00  0.00     0.173 A 
ATOM     81  C   UNL A   1      44.211  29.038  26.471  1.00  0.00     0.173 A 
ATOM     82  F   UNL A   1      47.201  28.503  28.467  1.00  0.00    -0.203 F 
ATOM     83  C   UNL A   1      46.239  27.156  26.799  1.00  0.00     0.198 A 
ATOM     84  C   UNL A   1      44.224  27.865  25.709  1.00  0.00     0.198 A 
ATOM     85  F   UNL A   1      43.193  29.896  26.313  1.00  0.00    -0.203 F 
ATOM     86  F   UNL A   1      47.187  26.229  27.006  1.00  0.00    -0.200 F 
ATOM     87  C   UNL A   1      45.228  26.921  25.882  1.00  0.00     0.200 A 
ATOM     88  F   UNL A   1      43.229  27.615  24.843  1.00  0.00    -0.200 F 
ATOM     89  F   UNL A   1      45.203  25.777  25.186  1.00  0.00    -0.200 F 
ENDBRANCH  55  79
BRANCH  67  90
ATOM     90  C   UNL A   1      42.999  36.110  28.843  1.00  0.00     0.064 A 
ATOM     91  C   UNL A   1      42.224  36.632  27.795  1.00  0.00     0.173 A 
ATOM     92  C   UNL A   1      43.637  37.086  29.656  1.00  0.00     0.173 A 
ATOM     93  F   UNL A   1      41.458  35.849  27.027  1.00  0.00    -0.203 F 
ATOM     94  C   UNL A   1      42.153  38.005  27.537  1.00  0.00     0.198 A 
ATOM     95  C   UNL A   1      43.494  38.456  29.447  1.00  0.00     0.198 A 
ATOM     96  F   UNL A   1      44.402  36.750  30.704  1.00  0.00    -0.203 F 
ATOM     97  F   UNL A   1      41.448  38.443  26.485  1.00  0.00    -0.200 F 
ATOM     98  C   UNL A   1      42.771  38.917  28.371  1.00  0.00     0.200 A 
ATOM     99  F   UNL A   1      44.047  39.321  30.308  1.00  0.00    -0.200 F 
ATOM    100  F   UNL A   1      42.649  40.231  28.152  1.00  0.00    -0.200 F 
ENDBRANCH  67  90
ENDBRANCH  41  42
ENDBRANCH  34  36
ENDBRANCH  33  34
ENDBRANCH  32  33
ENDBRANCH  31  32
ENDBRANCH  30  31
ENDBRANCH  29  30
ENDBRANCH  28  29
ENDBRANCH   1  28
TORSDOF 22
ENDMDL
MODEL 3
REMARK VINA RESULT:     -11.5      1.698      2.704
REMARK SMILES Cc1ccc(F)c(C(=O)Nc2cccc(C(=O)OCCOCCOCCOCCOC(=O)c3ccc(-c4c5nc(c(-c6c(F)c(F)c(F)c(F)c6F)c6ccc([nH]6)c(-c6c(F)c(F)c(F)c(F)c6F)c6nc(c(-c7c(F)c(F)c(F)c(F)c7F)c7ccc4[nH]7)C=C6)C=C5)cc3)c2)c1
REMARK SMILES IDX 24 1 23 2 22 3 21 4 20 5 19 6 18 7 16 8 17 9 15 10 11 11
REMARK SMILES IDX 12 12 96 13 13 14 14 15 10 16 8 17 9 18 7 20 1 21 2 22 3 23
REMARK SMILES IDX 97 24 4 25 5 26 6 27 25 28 26 29 27 30 28 31 29 32 30 33
REMARK SMILES IDX 31 34 32 35 33 36 34 37 95 38 35 39 94 40 36 41 37 42 38 43
REMARK SMILES IDX 88 44 39 45 93 46 87 47 89 48 40 49 92 50 86 51 85 52 41 54
REMARK SMILES IDX 73 55 53 56 72 57 54 58 57 59 71 60 90 61 55 62 56 63 70 65
REMARK SMILES IDX 91 66 58 67 42 68 43 69 51 70 44 71 45 72 49 73 52 74 46 75
REMARK SMILES IDX 47 76 50 77 48 78 74 79 75 80 83 81 76 82 77 83 81 84 84 85
REMARK SMILES IDX 78 86 79 87 82 88 80 89 59 90 60 91 68 92 61 93 62 94 66 95
REMARK SMILES IDX 69 96 63 97 64 98 67 99 65 100
REMARK H PARENT 10 19 89 53 57 64
REMARK Flexibility Score: inf
ROOT
ATOM      1  O   UNL A   1      32.779  35.373  30.433  1.00  0.00    -0.377 OA
ENDROOT
BRANCH   1   2
ATOM      2  C   UNL A   1      32.933  35.880  29.112  1.00  0.00     0.188 C 
BRANCH   2   3
ATOM      3  C   UNL A   1      34.303  35.752  28.411  1.00  0.00     0.188 C 
BRANCH   3   4
ATOM      4  O   UNL A   1      34.527  34.508  27.762  1.00  0.00    -0.376 OA
BRANCH   4   5
ATOM      5  C   UNL A   1      33.640  33.435  28.044  1.00  0.00     0.202 C 
BRANCH   5   6
ATOM      6  C   UNL A   1      34.181  31.995  28.000  1.00  0.00     0.261 C 
BRANCH   6   7
ATOM      7  O   UNL A   1      33.406  31.054  27.250  1.00  0.00    -0.460 OA
BRANCH   7   8
ATOM      8  C   UNL A   1      33.945  29.855  26.988  1.00  0.00     0.338 C 
ATOM      9  O   UNL A   1      35.116  29.513  27.197  1.00  0.00    -0.246 OA
BRANCH   8  10
ATOM     10  C   UNL A   1      32.883  28.931  26.541  1.00  0.00     0.062 A 
ATOM     11  C   UNL A   1      31.736  27.802  24.745  1.00  0.00     0.042 A 
ATOM     12  C   UNL A   1      30.965  27.106  25.680  1.00  0.00     0.026 A 
ATOM     13  C   UNL A   1      32.573  28.822  25.181  1.00  0.00     0.041 A 
ATOM     14  C   UNL A   1      31.184  27.296  27.049  1.00  0.00     0.003 A 
ATOM     15  C   UNL A   1      32.186  28.165  27.478  1.00  0.00     0.016 A 
BRANCH  11  16
ATOM     16  N   UNL A   1      31.720  27.349  23.416  1.00  0.00    -0.322 N 
ATOM     17  C   UNL A   1      30.811  27.557  22.387  1.00  0.00     0.258 C 
ATOM     18  O   UNL A   1      31.028  27.000  21.311  1.00  0.00    -0.269 OA
ATOM     19  H   UNL A   1      32.487  26.784  23.170  1.00  0.00     0.170 HD
BRANCH  17  20
ATOM     20  C   UNL A   1      29.642  28.476  22.504  1.00  0.00     0.076 A 
ATOM     21  C   UNL A   1      28.832  32.189  22.202  1.00  0.00     0.044 C 
ATOM     22  C   UNL A   1      28.660  30.710  22.411  1.00  0.00    -0.050 A 
ATOM     23  C   UNL A   1      27.522  30.230  23.066  1.00  0.00     0.006 A 
ATOM     24  C   UNL A   1      29.665  29.802  22.038  1.00  0.00     0.020 A 
ATOM     25  C   UNL A   1      27.418  28.877  23.384  1.00  0.00     0.040 A 
ATOM     26  C   UNL A   1      28.484  28.015  23.131  1.00  0.00     0.135 A 
ATOM     27  F   UNL A   1      28.373  26.745  23.546  1.00  0.00    -0.206 F 
ENDBRANCH  17  20
ENDBRANCH  11  16
ENDBRANCH   8  10
ENDBRANCH   7   8
ENDBRANCH   6   7
ENDBRANCH   5   6
ENDBRANCH   4   5
ENDBRANCH   3   4
ENDBRANCH   2   3
ENDBRANCH   1   2
BRANCH   1  28
ATOM     28  C   UNL A   1      33.932  35.334  31.264  1.00  0.00     0.188 C 
BRANCH  28  29
ATOM     29  C   UNL A   1      33.982  34.365  32.474  1.00  0.00     0.188 C 
BRANCH  29  30
ATOM     30  O   UNL A   1      35.218  33.682  32.657  1.00  0.00    -0.376 OA
BRANCH  30  31
ATOM     31  C   UNL A   1      35.491  32.525  31.879  1.00  0.00     0.202 C 
BRANCH  31  32
ATOM     32  C   UNL A   1      36.853  32.439  31.171  1.00  0.00     0.261 C 
BRANCH  32  33
ATOM     33  O   UNL A   1      36.865  31.588  30.033  1.00  0.00    -0.460 OA
BRANCH  33  34
ATOM     34  C   UNL A   1      38.022  30.930  29.895  1.00  0.00     0.338 C 
ATOM     35  O   UNL A   1      39.130  31.310  30.273  1.00  0.00    -0.246 OA
BRANCH  34  36
ATOM     36  C   UNL A   1      37.780  29.673  29.138  1.00  0.00     0.060 A 
ATOM     37  C   UNL A   1      37.741  28.576  30.022  1.00  0.00     0.016 A 
ATOM     38  C   UNL A   1      38.646  29.689  28.049  1.00  0.00     0.016 A 
ATOM     39  C   UNL A   1      38.914  27.898  30.224  1.00  0.00     0.010 A 
ATOM     40  C   UNL A   1      39.838  29.062  28.264  1.00  0.00     0.010 A 
ATOM     41  C   UNL A   1      39.978  28.265  29.411  1.00  0.00    -0.014 A 
BRANCH  41  42
ATOM     42  C   UNL A   1      41.305  27.786  29.644  1.00  0.00     0.031 A 
ATOM     43  C   UNL A   1      41.598  26.474  29.081  1.00  0.00     0.074 A 
ATOM     44  C   UNL A   1      42.187  28.601  30.251  1.00  0.00     0.049 A 
ATOM     45  N   UNL A   1      42.509  25.689  29.522  1.00  0.00    -0.248 NA
ATOM     46  C   UNL A   1      40.792  25.897  28.003  1.00  0.00     0.031 C 
ATOM     47  C   UNL A   1      43.634  28.485  30.267  1.00  0.00     0.029 A 
ATOM     48  N   UNL A   1      41.901  29.649  31.133  1.00  0.00    -0.354 N 
ATOM     49  C   UNL A   1      42.645  24.701  28.580  1.00  0.00     0.074 A 
ATOM     50  C   UNL A   1      41.480  24.788  27.734  1.00  0.00     0.031 C 
ATOM     51  C   UNL A   1      44.116  29.242  31.267  1.00  0.00     0.029 A 
ATOM     52  C   UNL A   1      42.980  29.736  32.029  1.00  0.00     0.049 A 
ATOM     53  H   UNL A   1      41.097  30.218  31.126  1.00  0.00     0.167 HD
ATOM     54  C   UNL A   1      43.837  24.056  28.489  1.00  0.00     0.037 A 
ATOM     55  C   UNL A   1      42.779  29.463  33.353  1.00  0.00     0.037 A 
ATOM     56  C   UNL A   1      44.753  24.536  29.518  1.00  0.00     0.049 A 
ATOM     57  C   UNL A   1      43.474  28.196  33.805  1.00  0.00     0.074 A 
ATOM     58  C   UNL A   1      45.717  25.533  29.510  1.00  0.00     0.029 A 
ATOM     59  N   UNL A   1      44.433  24.317  30.856  1.00  0.00    -0.354 N 
ATOM     60  N   UNL A   1      43.819  27.220  33.006  1.00  0.00    -0.248 NA
ATOM     61  C   UNL A   1      43.872  27.951  35.186  1.00  0.00     0.031 C 
ATOM     62  C   UNL A   1      45.939  25.945  30.851  1.00  0.00     0.029 A 
ATOM     63  C   UNL A   1      45.127  25.189  31.677  1.00  0.00     0.049 A 
ATOM     64  H   UNL A   1      43.800  23.634  31.176  1.00  0.00     0.167 HD
ATOM     65  C   UNL A   1      44.489  26.256  33.716  1.00  0.00     0.074 A 
ATOM     66  C   UNL A   1      44.503  26.769  35.074  1.00  0.00     0.031 C 
ATOM     67  C   UNL A   1      44.988  25.125  33.125  1.00  0.00     0.037 A 
BRANCH  54  68
ATOM     68  C   UNL A   1      44.204  23.320  27.237  1.00  0.00     0.064 A 
ATOM     69  C   UNL A   1      45.099  23.877  26.305  1.00  0.00     0.173 A 
ATOM     70  C   UNL A   1      43.635  22.085  26.874  1.00  0.00     0.173 A 
ATOM     71  F   UNL A   1      45.733  25.031  26.547  1.00  0.00    -0.203 F 
ATOM     72  C   UNL A   1      45.352  23.277  25.071  1.00  0.00     0.198 A 
ATOM     73  C   UNL A   1      43.847  21.512  25.617  1.00  0.00     0.198 A 
ATOM     74  F   UNL A   1      42.858  21.407  27.733  1.00  0.00    -0.203 F 
ATOM     75  F   UNL A   1      46.212  23.852  24.219  1.00  0.00    -0.200 F 
ATOM     76  C   UNL A   1      44.706  22.110  24.716  1.00  0.00     0.200 A 
ATOM     77  F   UNL A   1      43.205  20.384  25.281  1.00  0.00    -0.200 F 
ATOM     78  F   UNL A   1      44.920  21.558  23.513  1.00  0.00    -0.200 F 
ENDBRANCH  54  68
BRANCH  55  79
ATOM     79  C   UNL A   1      41.487  29.995  33.866  1.00  0.00     0.064 A 
ATOM     80  C   UNL A   1      41.452  31.345  34.275  1.00  0.00     0.173 A 
ATOM     81  C   UNL A   1      40.259  29.368  33.618  1.00  0.00     0.173 A 
ATOM     82  F   UNL A   1      42.599  31.996  34.526  1.00  0.00    -0.203 F 
ATOM     83  C   UNL A   1      40.257  32.057  34.344  1.00  0.00     0.198 A 
ATOM     84  C   UNL A   1      39.060  30.083  33.695  1.00  0.00     0.198 A 
ATOM     85  F   UNL A   1      40.220  28.087  33.221  1.00  0.00    -0.203 F 
ATOM     86  F   UNL A   1      40.272  33.366  34.637  1.00  0.00    -0.200 F 
ATOM     87  C   UNL A   1      39.061  31.427  34.044  1.00  0.00     0.200 A 
ATOM     88  F   UNL A   1      37.901  29.489  33.373  1.00  0.00    -0.200 F 
ATOM     89  F   UNL A   1      37.913  32.118  34.064  1.00  0.00    -0.200 F 
ENDBRANCH  55  79
BRANCH  67  90
ATOM     90  C   UNL A   1      45.498  23.878  33.826  1.00  0.00     0.064 A 
ATOM     91  C   UNL A   1      44.756  22.698  33.989  1.00  0.00     0.173 A 
ATOM     92  C   UNL A   1      46.856  23.790  34.239  1.00  0.00     0.173 A 
ATOM     93  F   UNL A   1      43.506  22.583  33.526  1.00  0.00    -0.203 F 
ATOM     94  C   UNL A   1      45.300  21.553  34.579  1.00  0.00     0.198 A 
ATOM     95  C   UNL A   1      47.417  22.621  34.747  1.00  0.00     0.198 A 
ATOM     96  F   UNL A   1      47.700  24.826  34.137  1.00  0.00    -0.203 F 
ATOM     97  F   UNL A   1      44.526  20.476  34.766  1.00  0.00    -0.200 F 
ATOM     98  C   UNL A   1      46.632  21.508  34.942  1.00  0.00     0.200 A 
ATOM     99  F   UNL A   1      48.727  22.580  35.028  1.00  0.00    -0.200 F 
ATOM    100  F   UNL A   1      47.162  20.389  35.452  1.00  0.00    -0.200 F 
ENDBRANCH  67  90
ENDBRANCH  41  42
ENDBRANCH  34  36
ENDBRANCH  33  34
ENDBRANCH  32  33
ENDBRANCH  31  32
ENDBRANCH  30  31
ENDBRANCH  29  30
ENDBRANCH  28  29
ENDBRANCH   1  28
TORSDOF 22
ENDMDL
