MODEL 1
REMARK VINA RESULT:     -10.1      0.000      0.000
REMARK SMILES Cc1cc(C)c2c(OCCCC(=O)OCCOCCOCCOCCOC(=O)c3ccc(-c4c5nc(c(-c6c(F)c(F)c(F)c(F)c6F)c6ccc([nH]6)c(-c6c(F)c(F)c(F)c(F)c6F)c6nc(c(-c7c(F)c(F)c(F)c(F)c7F)c7ccc4[nH]7)C=C6)C=C5)cc3)nsc2n1
REMARK SMILES IDX 19 1 18 2 17 3 16 4 15 5 14 6 12 7 13 8 11 9 10 10 9 11 8 12
REMARK SMILES IDX 7 13 1 14 2 15 3 16 95 17 4 18 94 19 5 20 6 21 93 22 92 23
REMARK SMILES IDX 20 24 21 25 22 26 23 27 24 28 25 29 26 30 27 31 28 32 29 33
REMARK SMILES IDX 30 34 91 35 31 36 90 37 32 38 33 39 34 40 84 41 35 42 89 43
REMARK SMILES IDX 83 44 85 45 36 46 88 47 82 48 81 49 37 51 69 52 49 53 68 54
REMARK SMILES IDX 50 55 53 56 67 57 86 58 51 59 52 60 66 62 87 63 54 64 38 65
REMARK SMILES IDX 39 66 47 67 40 68 41 69 45 70 48 71 42 72 43 73 46 74 44 75
REMARK SMILES IDX 70 76 71 77 79 78 72 79 73 80 77 81 80 82 74 83 75 84 78 85
REMARK SMILES IDX 76 86 55 87 56 88 64 89 57 90 58 91 62 92 65 93 59 94 60 95
REMARK SMILES IDX 63 96 61 97
REMARK H PARENT 85 50 53 61
REMARK Flexibility Score: inf
ROOT
ATOM      1  C   UNL A   1      36.729  23.662  25.158  1.00  0.00     0.188 C 
ENDROOT
BRANCH   1   2
ATOM      2  C   UNL A   1      35.550  24.103  24.321  1.00  0.00     0.188 C 
BRANCH   2   3
ATOM      3  O   UNL A   1      35.224  23.428  23.117  1.00  0.00    -0.376 OA
BRANCH   3   4
ATOM      4  C   UNL A   1      33.827  23.454  22.790  1.00  0.00     0.202 C 
BRANCH   4   5
ATOM      5  C   UNL A   1      32.897  22.381  23.399  1.00  0.00     0.261 C 
BRANCH   5   6
ATOM      6  O   UNL A   1      33.537  21.365  24.227  1.00  0.00    -0.463 OA
BRANCH   6   7
ATOM      7  C   UNL A   1      32.892  20.960  25.356  1.00  0.00     0.305 C 
ATOM      8  O   UNL A   1      32.032  20.087  25.348  1.00  0.00    -0.252 OA
BRANCH   7   9
ATOM      9  C   UNL A   1      33.297  21.694  26.642  1.00  0.00     0.126 C 
BRANCH   9  10
ATOM     10  C   UNL A   1      32.898  23.138  27.022  1.00  0.00     0.053 C 
BRANCH  10  11
ATOM     11  C   UNL A   1      31.600  23.860  26.581  1.00  0.00     0.232 C 
BRANCH  11  12
ATOM     12  O   UNL A   1      31.353  25.241  26.856  1.00  0.00    -0.477 OA
BRANCH  12  13
ATOM     13  C   UNL A   1      31.021  26.026  25.812  1.00  0.00     0.235 A 
ATOM     14  C   UNL A   1      33.990  28.515  21.986  1.00  0.00     0.067 C 
ATOM     15  C   UNL A   1      33.056  28.331  23.152  1.00  0.00     0.039 A 
ATOM     16  C   UNL A   1      33.555  28.478  24.443  1.00  0.00     0.027 A 
ATOM     17  N   UNL A   1      31.832  27.846  22.880  1.00  0.00    -0.240 NA
ATOM     18  C   UNL A   1      32.939  27.826  25.527  1.00  0.00    -0.034 A 
ATOM     19  C   UNL A   1      31.232  27.273  23.938  1.00  0.00     0.147 A 
ATOM     20  C   UNL A   1      33.653  27.794  26.851  1.00  0.00     0.045 C 
ATOM     21  C   UNL A   1      31.765  27.097  25.214  1.00  0.00     0.078 A 
ATOM     22  S   UNL A   1      29.708  26.514  23.838  1.00  0.00    -0.012 S 
ATOM     23  N   UNL A   1      29.844  25.705  25.281  1.00  0.00    -0.153 NA
ENDBRANCH  12  13
ENDBRANCH  11  12
ENDBRANCH  10  11
ENDBRANCH   9  10
ENDBRANCH   7   9
ENDBRANCH   6   7
ENDBRANCH   5   6
ENDBRANCH   4   5
ENDBRANCH   3   4
ENDBRANCH   2   3
ENDBRANCH   1   2
BRANCH   1  24
ATOM     24  O   UNL A   1      36.651  22.376  25.739  1.00  0.00    -0.377 OA
BRANCH  24  25
ATOM     25  C   UNL A   1      37.600  21.412  25.339  1.00  0.00     0.188 C 
BRANCH  25  26
ATOM     26  C   UNL A   1      39.082  21.496  25.778  1.00  0.00     0.188 C 
BRANCH  26  27
ATOM     27  O   UNL A   1      39.650  21.922  27.005  1.00  0.00    -0.376 OA
BRANCH  27  28
ATOM     28  C   UNL A   1      40.782  21.426  27.693  1.00  0.00     0.202 C 
BRANCH  28  29
ATOM     29  C   UNL A   1      41.915  20.641  27.006  1.00  0.00     0.261 C 
BRANCH  29  30
ATOM     30  O   UNL A   1      43.062  21.423  26.758  1.00  0.00    -0.460 OA
BRANCH  30  31
ATOM     31  C   UNL A   1      43.694  21.014  25.641  1.00  0.00     0.338 C 
ATOM     32  O   UNL A   1      43.590  19.929  25.102  1.00  0.00    -0.246 OA
BRANCH  31  33
ATOM     33  C   UNL A   1      44.573  22.091  25.139  1.00  0.00     0.060 A 
ATOM     34  C   UNL A   1      45.560  22.418  26.063  1.00  0.00     0.016 A 
ATOM     35  C   UNL A   1      44.005  23.029  24.268  1.00  0.00     0.016 A 
ATOM     36  C   UNL A   1      45.508  23.695  26.529  1.00  0.00     0.010 A 
ATOM     37  C   UNL A   1      43.986  24.322  24.702  1.00  0.00     0.010 A 
ATOM     38  C   UNL A   1      44.591  24.565  25.926  1.00  0.00    -0.014 A 
BRANCH  38  39
ATOM     39  C   UNL A   1      44.210  25.713  26.696  1.00  0.00     0.031 A 
ATOM     40  C   UNL A   1      45.191  26.793  26.588  1.00  0.00     0.074 A 
ATOM     41  C   UNL A   1      43.098  25.730  27.448  1.00  0.00     0.049 A 
ATOM     42  N   UNL A   1      46.048  27.160  27.479  1.00  0.00    -0.248 NA
ATOM     43  C   UNL A   1      45.394  27.364  25.252  1.00  0.00     0.031 C 
ATOM     44  C   UNL A   1      41.951  24.820  27.472  1.00  0.00     0.029 A 
ATOM     45  N   UNL A   1      42.762  26.675  28.357  1.00  0.00    -0.354 N 
ATOM     46  C   UNL A   1      46.812  28.135  26.860  1.00  0.00     0.074 A 
ATOM     47  C   UNL A   1      46.496  28.081  25.456  1.00  0.00     0.031 C 
ATOM     48  C   UNL A   1      40.952  25.391  28.189  1.00  0.00     0.029 A 
ATOM     49  C   UNL A   1      41.447  26.620  28.783  1.00  0.00     0.049 A 
ATOM     50  H   UNL A   1      43.401  27.348  28.687  1.00  0.00     0.167 HD
ATOM     51  C   UNL A   1      47.488  29.061  27.585  1.00  0.00     0.037 A 
ATOM     52  C   UNL A   1      40.839  27.607  29.486  1.00  0.00     0.037 A 
ATOM     53  C   UNL A   1      47.666  28.636  28.950  1.00  0.00     0.049 A 
ATOM     54  C   UNL A   1      41.922  28.414  30.127  1.00  0.00     0.074 A 
ATOM     55  C   UNL A   1      48.359  27.596  29.543  1.00  0.00     0.029 A 
ATOM     56  N   UNL A   1      46.763  29.066  29.894  1.00  0.00    -0.354 N 
ATOM     57  N   UNL A   1      42.687  27.953  31.082  1.00  0.00    -0.248 NA
ATOM     58  C   UNL A   1      42.480  29.529  29.370  1.00  0.00     0.031 C 
ATOM     59  C   UNL A   1      47.527  27.153  30.612  1.00  0.00     0.029 A 
ATOM     60  C   UNL A   1      46.399  27.973  30.643  1.00  0.00     0.049 A 
ATOM     61  H   UNL A   1      46.438  29.988  30.011  1.00  0.00     0.167 HD
ATOM     62  C   UNL A   1      43.957  28.443  30.801  1.00  0.00     0.074 A 
ATOM     63  C   UNL A   1      43.754  29.457  29.767  1.00  0.00     0.031 C 
ATOM     64  C   UNL A   1      45.082  27.786  31.209  1.00  0.00     0.037 A 
BRANCH  51  65
ATOM     65  C   UNL A   1      47.701  30.471  27.115  1.00  0.00     0.064 A 
ATOM     66  C   UNL A   1      48.997  31.012  27.126  1.00  0.00     0.173 A 
ATOM     67  C   UNL A   1      46.653  31.394  26.894  1.00  0.00     0.173 A 
ATOM     68  F   UNL A   1      50.062  30.229  27.354  1.00  0.00    -0.203 F 
ATOM     69  C   UNL A   1      49.221  32.382  26.981  1.00  0.00     0.198 A 
ATOM     70  C   UNL A   1      46.885  32.750  26.686  1.00  0.00     0.198 A 
ATOM     71  F   UNL A   1      45.362  31.051  26.978  1.00  0.00    -0.203 F 
ATOM     72  F   UNL A   1      50.462  32.869  27.112  1.00  0.00    -0.200 F 
ATOM     73  C   UNL A   1      48.165  33.249  26.761  1.00  0.00     0.200 A 
ATOM     74  F   UNL A   1      45.844  33.572  26.491  1.00  0.00    -0.200 F 
ATOM     75  F   UNL A   1      48.373  34.569  26.672  1.00  0.00    -0.200 F 
ENDBRANCH  51  65
BRANCH  52  76
ATOM     76  C   UNL A   1      39.456  28.103  29.308  1.00  0.00     0.064 A 
ATOM     77  C   UNL A   1      38.581  28.220  30.399  1.00  0.00     0.173 A 
ATOM     78  C   UNL A   1      39.048  28.722  28.108  1.00  0.00     0.173 A 
ATOM     79  F   UNL A   1      38.918  27.705  31.589  1.00  0.00    -0.203 F 
ATOM     80  C   UNL A   1      37.376  28.924  30.298  1.00  0.00     0.198 A 
ATOM     81  C   UNL A   1      37.844  29.419  28.007  1.00  0.00     0.198 A 
ATOM     82  F   UNL A   1      39.852  28.742  27.034  1.00  0.00    -0.203 F 
ATOM     83  F   UNL A   1      36.589  29.061  31.375  1.00  0.00    -0.200 F 
ATOM     84  C   UNL A   1      37.013  29.530  29.106  1.00  0.00     0.200 A 
ATOM     85  F   UNL A   1      37.525  30.033  26.859  1.00  0.00    -0.200 F 
ATOM     86  F   UNL A   1      35.886  30.251  29.025  1.00  0.00    -0.200 F 
ENDBRANCH  52  76
BRANCH  64  87
ATOM     87  C   UNL A   1      44.905  26.604  32.125  1.00  0.00     0.064 A 
ATOM     88  C   UNL A   1      44.650  25.301  31.661  1.00  0.00     0.173 A 
ATOM     89  C   UNL A   1      45.178  26.757  33.491  1.00  0.00     0.173 A 
ATOM     90  F   UNL A   1      44.485  25.058  30.357  1.00  0.00    -0.203 F 
ATOM     91  C   UNL A   1      44.632  24.210  32.530  1.00  0.00     0.198 A 
ATOM     92  C   UNL A   1      45.196  25.661  34.351  1.00  0.00     0.198 A 
ATOM     93  F   UNL A   1      45.490  27.966  33.981  1.00  0.00    -0.203 F 
ATOM     94  F   UNL A   1      44.383  22.978  32.061  1.00  0.00    -0.200 F 
ATOM     95  C   UNL A   1      44.915  24.390  33.874  1.00  0.00     0.200 A 
ATOM     96  F   UNL A   1      45.522  25.832  35.640  1.00  0.00    -0.200 F 
ATOM     97  F   UNL A   1      44.949  23.337  34.702  1.00  0.00    -0.200 F 
ENDBRANCH  64  87
ENDBRANCH  38  39
ENDBRANCH  31  33
ENDBRANCH  30  31
ENDBRANCH  29  30
ENDBRANCH  28  29
ENDBRANCH  27  28
ENDBRANCH  26  27
ENDBRANCH  25  26
ENDBRANCH  24  25
ENDBRANCH   1  24
TORSDOF 24
ENDMDL
MODEL 2
REMARK VINA RESULT:      -9.4      1.152      2.562
REMARK SMILES Cc1cc(C)c2c(OCCCC(=O)OCCOCCOCCOCCOC(=O)c3ccc(-c4c5nc(c(-c6c(F)c(F)c(F)c(F)c6F)c6ccc([nH]6)c(-c6c(F)c(F)c(F)c(F)c6F)c6nc(c(-c7c(F)c(F)c(F)c(F)c7F)c7ccc4[nH]7)C=C6)C=C5)cc3)nsc2n1
REMARK SMILES IDX 19 1 18 2 17 3 16 4 15 5 14 6 12 7 13 8 11 9 10 10 9 11 8 12
REMARK SMILES IDX 7 13 1 14 2 15 3 16 95 17 4 18 94 19 5 20 6 21 93 22 92 23
REMARK SMILES IDX 20 24 21 25 22 26 23 27 24 28 25 29 26 30 27 31 28 32 29 33
REMARK SMILES IDX 30 34 91 35 31 36 90 37 32 38 33 39 34 40 84 41 35 42 89 43
REMARK SMILES IDX 83 44 85 45 36 46 88 47 82 48 81 49 37 51 69 52 49 53 68 54
REMARK SMILES IDX 50 55 53 56 67 57 86 58 51 59 52 60 66 62 87 63 54 64 38 65
REMARK SMILES IDX 39 66 47 67 40 68 41 69 45 70 48 71 42 72 43 73 46 74 44 75
REMARK SMILES IDX 70 76 71 77 79 78 72 79 73 80 77 81 80 82 74 83 75 84 78 85
REMARK SMILES IDX 76 86 55 87 56 88 64 89 57 90 58 91 62 92 65 93 59 94 60 95
REMARK SMILES IDX 63 96 61 97
REMARK H PARENT 85 50 53 61
REMARK Flexibility Score: inf
ROOT
ATOM      1  C   UNL A   1      36.069  22.916  24.507  1.00  0.00     0.188 C 
ENDROOT
BRANCH   1   2
ATOM      2  C   UNL A   1      35.252  23.320  23.302  1.00  0.00     0.188 C 
BRANCH   2   3
ATOM      3  O   UNL A   1      33.847  23.127  23.281  1.00  0.00    -0.376 OA
BRANCH   3   4
ATOM      4  C   UNL A   1      33.272  23.148  21.966  1.00  0.00     0.202 C 
BRANCH   4   5
ATOM      5  C   UNL A   1      32.820  24.501  21.370  1.00  0.00     0.261 C 
BRANCH   5   6
ATOM      6  O   UNL A   1      33.612  25.667  21.742  1.00  0.00    -0.463 OA
BRANCH   6   7
ATOM      7  C   UNL A   1      32.955  26.835  21.988  1.00  0.00     0.305 C 
ATOM      8  O   UNL A   1      31.777  27.004  21.695  1.00  0.00    -0.252 OA
BRANCH   7   9
ATOM      9  C   UNL A   1      33.801  27.940  22.636  1.00  0.00     0.126 C 
BRANCH   9  10
ATOM     10  C   UNL A   1      33.253  29.180  23.377  1.00  0.00     0.053 C 
BRANCH  10  11
ATOM     11  C   UNL A   1      31.941  29.231  24.201  1.00  0.00     0.232 C 
BRANCH  11  12
ATOM     12  O   UNL A   1      31.726  28.421  25.360  1.00  0.00    -0.477 OA
BRANCH  12  13
ATOM     13  C   UNL A   1      31.346  27.145  25.156  1.00  0.00     0.235 A 
ATOM     14  C   UNL A   1      32.512  22.499  27.745  1.00  0.00     0.067 C 
ATOM     15  C   UNL A   1      32.436  23.520  26.643  1.00  0.00     0.039 A 
ATOM     16  C   UNL A   1      33.544  24.326  26.395  1.00  0.00     0.027 A 
ATOM     17  N   UNL A   1      31.229  23.726  26.087  1.00  0.00    -0.240 NA
ATOM     18  C   UNL A   1      33.389  25.593  25.803  1.00  0.00    -0.034 A 
ATOM     19  C   UNL A   1      31.112  24.919  25.477  1.00  0.00     0.147 A 
ATOM     20  C   UNL A   1      34.564  26.533  25.793  1.00  0.00     0.045 C 
ATOM     21  C   UNL A   1      32.067  25.934  25.425  1.00  0.00     0.078 A 
ATOM     22  S   UNL A   1      29.660  25.453  24.761  1.00  0.00    -0.012 S 
ATOM     23  N   UNL A   1      30.115  27.046  24.660  1.00  0.00    -0.153 NA
ENDBRANCH  12  13
ENDBRANCH  11  12
ENDBRANCH  10  11
ENDBRANCH   9  10
ENDBRANCH   7   9
ENDBRANCH   6   7
ENDBRANCH   5   6
ENDBRANCH   4   5
ENDBRANCH   3   4
ENDBRANCH   2   3
ENDBRANCH   1   2
BRANCH   1  24
ATOM     24  O   UNL A   1      35.795  21.646  25.064  1.00  0.00    -0.377 OA
BRANCH  24  25
ATOM     25  C   UNL A   1      36.829  20.687  25.061  1.00  0.00     0.188 C 
BRANCH  25  26
ATOM     26  C   UNL A   1      38.305  21.077  25.316  1.00  0.00     0.188 C 
BRANCH  26  27
ATOM     27  O   UNL A   1      38.864  21.973  26.262  1.00  0.00    -0.376 OA
BRANCH  27  28
ATOM     28  C   UNL A   1      40.221  22.274  26.524  1.00  0.00     0.202 C 
BRANCH  28  29
ATOM     29  C   UNL A   1      41.301  21.199  26.747  1.00  0.00     0.261 C 
BRANCH  29  30
ATOM     30  O   UNL A   1      42.605  21.728  26.830  1.00  0.00    -0.460 OA
BRANCH  30  31
ATOM     31  C   UNL A   1      43.362  21.312  25.797  1.00  0.00     0.338 C 
ATOM     32  O   UNL A   1      43.321  20.222  25.257  1.00  0.00    -0.246 OA
BRANCH  31  33
ATOM     33  C   UNL A   1      44.293  22.386  25.392  1.00  0.00     0.060 A 
ATOM     34  C   UNL A   1      45.227  22.654  26.388  1.00  0.00     0.016 A 
ATOM     35  C   UNL A   1      43.802  23.368  24.524  1.00  0.00     0.016 A 
ATOM     36  C   UNL A   1      45.173  23.915  26.899  1.00  0.00     0.010 A 
ATOM     37  C   UNL A   1      43.783  24.644  25.006  1.00  0.00     0.010 A 
ATOM     38  C   UNL A   1      44.314  24.827  26.274  1.00  0.00    -0.014 A 
BRANCH  38  39
ATOM     39  C   UNL A   1      43.909  25.955  27.062  1.00  0.00     0.031 A 
ATOM     40  C   UNL A   1      44.901  27.031  27.025  1.00  0.00     0.074 A 
ATOM     41  C   UNL A   1      42.769  25.957  27.770  1.00  0.00     0.049 A 
ATOM     42  N   UNL A   1      45.723  27.366  27.960  1.00  0.00    -0.248 NA
ATOM     43  C   UNL A   1      45.159  27.640  25.716  1.00  0.00     0.031 C 
ATOM     44  C   UNL A   1      41.617  25.056  27.722  1.00  0.00     0.029 A 
ATOM     45  N   UNL A   1      42.403  26.878  28.692  1.00  0.00    -0.354 N 
ATOM     46  C   UNL A   1      46.518  28.353  27.400  1.00  0.00     0.074 A 
ATOM     47  C   UNL A   1      46.257  28.342  25.984  1.00  0.00     0.031 C 
ATOM     48  C   UNL A   1      40.593  25.611  28.416  1.00  0.00     0.029 A 
ATOM     49  C   UNL A   1      41.071  26.819  29.065  1.00  0.00     0.049 A 
ATOM     50  H   UNL A   1      43.032  27.536  29.068  1.00  0.00     0.167 HD
ATOM     51  C   UNL A   1      47.170  29.253  28.179  1.00  0.00     0.037 A 
ATOM     52  C   UNL A   1      40.443  27.789  29.772  1.00  0.00     0.037 A 
ATOM     53  C   UNL A   1      47.291  28.786  29.536  1.00  0.00     0.049 A 
ATOM     54  C   UNL A   1      41.504  28.569  30.480  1.00  0.00     0.074 A 
ATOM     55  C   UNL A   1      47.954  27.725  30.125  1.00  0.00     0.029 A 
ATOM     56  N   UNL A   1      46.354  29.194  30.457  1.00  0.00    -0.354 N 
ATOM     57  N   UNL A   1      42.228  28.075  31.450  1.00  0.00    -0.248 NA
ATOM     58  C   UNL A   1      42.097  29.702  29.778  1.00  0.00     0.031 C 
ATOM     59  C   UNL A   1      47.078  27.256  31.146  1.00  0.00     0.029 A 
ATOM     60  C   UNL A   1      45.954  28.082  31.158  1.00  0.00     0.049 A 
ATOM     61  H   UNL A   1      46.029  30.115  30.588  1.00  0.00     0.167 HD
ATOM     62  C   UNL A   1      43.510  28.565  31.233  1.00  0.00     0.074 A 
ATOM     63  C   UNL A   1      43.355  29.610  30.223  1.00  0.00     0.031 C 
ATOM     64  C   UNL A   1      44.615  27.887  31.666  1.00  0.00     0.037 A 
BRANCH  51  65
ATOM     65  C   UNL A   1      47.409  30.674  27.760  1.00  0.00     0.064 A 
ATOM     66  C   UNL A   1      46.309  31.511  27.509  1.00  0.00     0.173 A 
ATOM     67  C   UNL A   1      48.666  31.174  27.348  1.00  0.00     0.173 A 
ATOM     68  F   UNL A   1      45.067  31.124  27.835  1.00  0.00    -0.203 F 
ATOM     69  C   UNL A   1      46.453  32.732  26.848  1.00  0.00     0.198 A 
ATOM     70  C   UNL A   1      48.813  32.419  26.747  1.00  0.00     0.198 A 
ATOM     71  F   UNL A   1      49.785  30.442  27.407  1.00  0.00    -0.203 F 
ATOM     72  F   UNL A   1      45.365  33.446  26.528  1.00  0.00    -0.200 F 
ATOM     73  C   UNL A   1      47.704  33.185  26.468  1.00  0.00     0.200 A 
ATOM     74  F   UNL A   1      50.034  32.828  26.373  1.00  0.00    -0.200 F 
ATOM     75  F   UNL A   1      47.838  34.331  25.789  1.00  0.00    -0.200 F 
ENDBRANCH  51  65
BRANCH  52  76
ATOM     76  C   UNL A   1      39.070  28.300  29.555  1.00  0.00     0.064 A 
ATOM     77  C   UNL A   1      38.206  28.540  30.634  1.00  0.00     0.173 A 
ATOM     78  C   UNL A   1      38.669  28.812  28.304  1.00  0.00     0.173 A 
ATOM     79  F   UNL A   1      38.539  28.131  31.866  1.00  0.00    -0.203 F 
ATOM     80  C   UNL A   1      37.018  29.261  30.473  1.00  0.00     0.198 A 
ATOM     81  C   UNL A   1      37.481  29.526  28.144  1.00  0.00     0.198 A 
ATOM     82  F   UNL A   1      39.465  28.711  27.230  1.00  0.00    -0.203 F 
ATOM     83  F   UNL A   1      36.241  29.518  31.536  1.00  0.00    -0.200 F 
ATOM     84  C   UNL A   1      36.660  29.760  29.231  1.00  0.00     0.200 A 
ATOM     85  F   UNL A   1      37.169  30.036  26.944  1.00  0.00    -0.200 F 
ATOM     86  F   UNL A   1      35.551  30.498  29.087  1.00  0.00    -0.200 F 
ENDBRANCH  52  76
BRANCH  64  87
ATOM     87  C   UNL A   1      44.395  26.680  32.538  1.00  0.00     0.064 A 
ATOM     88  C   UNL A   1      44.292  25.372  32.032  1.00  0.00     0.173 A 
ATOM     89  C   UNL A   1      44.470  26.826  33.930  1.00  0.00     0.173 A 
ATOM     90  F   UNL A   1      44.321  25.142  30.715  1.00  0.00    -0.203 F 
ATOM     91  C   UNL A   1      44.229  24.267  32.881  1.00  0.00     0.198 A 
ATOM     92  C   UNL A   1      44.445  25.718  34.775  1.00  0.00     0.198 A 
ATOM     93  F   UNL A   1      44.632  28.044  34.469  1.00  0.00    -0.203 F 
ATOM     94  F   UNL A   1      44.129  23.030  32.371  1.00  0.00    -0.200 F 
ATOM     95  C   UNL A   1      44.316  24.441  34.252  1.00  0.00     0.200 A 
ATOM     96  F   UNL A   1      44.582  25.887  36.097  1.00  0.00    -0.200 F 
ATOM     97  F   UNL A   1      44.308  23.377  35.068  1.00  0.00    -0.200 F 
ENDBRANCH  64  87
ENDBRANCH  38  39
ENDBRANCH  31  33
ENDBRANCH  30  31
ENDBRANCH  29  30
ENDBRANCH  28  29
ENDBRANCH  27  28
ENDBRANCH  26  27
ENDBRANCH  25  26
ENDBRANCH  24  25
ENDBRANCH   1  24
TORSDOF 24
ENDMDL
MODEL 3
REMARK VINA RESULT:      -8.7      4.336      9.328
REMARK SMILES Cc1cc(C)c2c(OCCCC(=O)OCCOCCOCCOCCOC(=O)c3ccc(-c4c5nc(c(-c6c(F)c(F)c(F)c(F)c6F)c6ccc([nH]6)c(-c6c(F)c(F)c(F)c(F)c6F)c6nc(c(-c7c(F)c(F)c(F)c(F)c7F)c7ccc4[nH]7)C=C6)C=C5)cc3)nsc2n1
REMARK SMILES IDX 19 1 18 2 17 3 16 4 15 5 14 6 12 7 13 8 11 9 10 10 9 11 8 12
REMARK SMILES IDX 7 13 1 14 2 15 3 16 95 17 4 18 94 19 5 20 6 21 93 22 92 23
REMARK SMILES IDX 20 24 21 25 22 26 23 27 24 28 25 29 26 30 27 31 28 32 29 33
REMARK SMILES IDX 30 34 91 35 31 36 90 37 32 38 33 39 34 40 84 41 35 42 89 43
REMARK SMILES IDX 83 44 85 45 36 46 88 47 82 48 81 49 37 51 69 52 49 53 68 54
REMARK SMILES IDX 50 55 53 56 67 57 86 58 51 59 52 60 66 62 87 63 54 64 38 65
REMARK SMILES IDX 39 66 47 67 40 68 41 69 45 70 48 71 42 72 43 73 46 74 44 75
REMARK SMILES IDX 70 76 71 77 79 78 72 79 73 80 77 81 80 82 74 83 75 84 78 85
REMARK SMILES IDX 76 86 55 87 56 88 64 89 57 90 58 91 62 92 65 93 59 94 60 95
REMARK SMILES IDX 63 96 61 97
REMARK H PARENT 85 50 53 61
REMARK Flexibility Score: inf
ROOT
ATOM      1  C   UNL A   1      46.721  26.032  25.181  1.00  0.00     0.188 C 
ENDROOT
BRANCH   1   2
ATOM      2  C   UNL A   1      45.538  25.117  24.962  1.00  0.00     0.188 C 
BRANCH   2   3
ATOM      3  O   UNL A   1      45.276  24.046  25.852  1.00  0.00    -0.376 OA
BRANCH   3   4
ATOM      4  C   UNL A   1      44.573  22.946  25.256  1.00  0.00     0.202 C 
BRANCH   4   5
ATOM      5  C   UNL A   1      43.050  23.071  25.022  1.00  0.00     0.261 C 
BRANCH   5   6
ATOM      6  O   UNL A   1      42.267  23.595  26.135  1.00  0.00    -0.463 OA
BRANCH   6   7
ATOM      7  C   UNL A   1      41.699  24.825  25.994  1.00  0.00     0.305 C 
ATOM      8  O   UNL A   1      42.015  25.599  25.098  1.00  0.00    -0.252 OA
BRANCH   7   9
ATOM      9  C   UNL A   1      40.652  25.190  27.056  1.00  0.00     0.126 C 
BRANCH   9  10
ATOM     10  C   UNL A   1      39.152  24.819  27.011  1.00  0.00     0.053 C 
BRANCH  10  11
ATOM     11  C   UNL A   1      38.514  23.763  26.074  1.00  0.00     0.232 C 
BRANCH  11  12
ATOM     12  O   UNL A   1      37.468  22.885  26.501  1.00  0.00    -0.477 OA
BRANCH  12  13
ATOM     13  C   UNL A   1      36.348  22.854  25.753  1.00  0.00     0.235 A 
ATOM     14  C   UNL A   1      32.531  19.045  24.996  1.00  0.00     0.067 C 
ATOM     15  C   UNL A   1      33.648  20.007  24.688  1.00  0.00     0.039 A 
ATOM     16  C   UNL A   1      34.952  19.525  24.624  1.00  0.00     0.027 A 
ATOM     17  N   UNL A   1      33.339  21.315  24.684  1.00  0.00    -0.240 NA
ATOM     18  C   UNL A   1      36.043  20.376  24.877  1.00  0.00    -0.034 A 
ATOM     19  C   UNL A   1      34.399  22.121  24.873  1.00  0.00     0.147 A 
ATOM     20  C   UNL A   1      37.407  19.768  25.056  1.00  0.00     0.045 C 
ATOM     21  C   UNL A   1      35.716  21.733  25.119  1.00  0.00     0.078 A 
ATOM     22  S   UNL A   1      34.264  23.816  24.985  1.00  0.00    -0.012 S 
ATOM     23  N   UNL A   1      35.771  24.048  25.640  1.00  0.00    -0.153 NA
ENDBRANCH  12  13
ENDBRANCH  11  12
ENDBRANCH  10  11
ENDBRANCH   9  10
ENDBRANCH   7   9
ENDBRANCH   6   7
ENDBRANCH   5   6
ENDBRANCH   4   5
ENDBRANCH   3   4
ENDBRANCH   2   3
ENDBRANCH   1   2
BRANCH   1  24
ATOM     24  O   UNL A   1      47.262  26.070  26.486  1.00  0.00    -0.377 OA
BRANCH  24  25
ATOM     25  C   UNL A   1      47.579  27.331  27.034  1.00  0.00     0.188 C 
BRANCH  25  26
ATOM     26  C   UNL A   1      47.918  28.547  26.138  1.00  0.00     0.188 C 
BRANCH  26  27
ATOM     27  O   UNL A   1      47.368  29.854  26.125  1.00  0.00    -0.376 OA
BRANCH  27  28
ATOM     28  C   UNL A   1      46.178  30.336  26.718  1.00  0.00     0.202 C 
BRANCH  28  29
ATOM     29  C   UNL A   1      45.628  31.756  26.483  1.00  0.00     0.261 C 
BRANCH  29  30
ATOM     30  O   UNL A   1      46.033  32.679  27.468  1.00  0.00    -0.460 OA
BRANCH  30  31
ATOM     31  C   UNL A   1      45.975  33.941  27.002  1.00  0.00     0.338 C 
ATOM     32  O   UNL A   1      46.549  34.383  26.025  1.00  0.00    -0.246 OA
BRANCH  31  33
ATOM     33  C   UNL A   1      45.098  34.756  27.869  1.00  0.00     0.060 A 
ATOM     34  C   UNL A   1      45.524  34.733  29.193  1.00  0.00     0.016 A 
ATOM     35  C   UNL A   1      43.750  34.858  27.504  1.00  0.00     0.016 A 
ATOM     36  C   UNL A   1      44.636  34.191  30.071  1.00  0.00     0.010 A 
ATOM     37  C   UNL A   1      42.845  34.358  28.394  1.00  0.00     0.010 A 
ATOM     38  C   UNL A   1      43.363  33.870  29.584  1.00  0.00    -0.014 A 
BRANCH  38  39
ATOM     39  C   UNL A   1      42.623  32.902  30.341  1.00  0.00     0.031 A 
ATOM     40  C   UNL A   1      43.085  31.538  30.081  1.00  0.00     0.074 A 
ATOM     41  C   UNL A   1      41.605  33.250  31.142  1.00  0.00     0.049 A 
ATOM     42  N   UNL A   1      42.492  30.634  29.378  1.00  0.00    -0.248 NA
ATOM     43  C   UNL A   1      44.471  31.232  30.452  1.00  0.00     0.031 C 
ATOM     44  C   UNL A   1      41.194  34.563  31.643  1.00  0.00     0.029 A 
ATOM     45  N   UNL A   1      40.726  32.406  31.732  1.00  0.00    -0.354 N 
ATOM     46  C   UNL A   1      43.377  29.569  29.344  1.00  0.00     0.074 A 
ATOM     47  C   UNL A   1      44.634  30.058  29.848  1.00  0.00     0.031 C 
ATOM     48  C   UNL A   1      40.288  34.392  32.637  1.00  0.00     0.029 A 
ATOM     49  C   UNL A   1      39.959  32.981  32.730  1.00  0.00     0.049 A 
ATOM     50  H   UNL A   1      40.639  31.461  31.472  1.00  0.00     0.167 HD
ATOM     51  C   UNL A   1      42.944  28.305  29.107  1.00  0.00     0.037 A 
ATOM     52  C   UNL A   1      39.209  32.271  33.607  1.00  0.00     0.037 A 
ATOM     53  C   UNL A   1      41.645  28.301  28.484  1.00  0.00     0.049 A 
ATOM     54  C   UNL A   1      38.954  30.937  32.983  1.00  0.00     0.074 A 
ATOM     55  C   UNL A   1      41.171  28.744  27.262  1.00  0.00     0.029 A 
ATOM     56  N   UNL A   1      40.534  28.157  29.283  1.00  0.00    -0.354 N 
ATOM     57  N   UNL A   1      38.203  30.773  31.926  1.00  0.00    -0.248 NA
ATOM     58  C   UNL A   1      39.929  29.877  33.221  1.00  0.00     0.031 C 
ATOM     59  C   UNL A   1      39.883  29.290  27.536  1.00  0.00     0.029 A 
ATOM     60  C   UNL A   1      39.622  29.109  28.894  1.00  0.00     0.049 A 
ATOM     61  H   UNL A   1      40.416  27.494  30.001  1.00  0.00     0.167 HD
ATOM     62  C   UNL A   1      38.857  29.817  31.158  1.00  0.00     0.074 A 
ATOM     63  C   UNL A   1      39.883  29.258  32.037  1.00  0.00     0.031 C 
ATOM     64  C   UNL A   1      38.709  29.768  29.801  1.00  0.00     0.037 A 
BRANCH  51  65
ATOM     65  C   UNL A   1      43.576  27.095  29.730  1.00  0.00     0.064 A 
ATOM     66  C   UNL A   1      43.945  26.014  28.912  1.00  0.00     0.173 A 
ATOM     67  C   UNL A   1      43.602  26.848  31.122  1.00  0.00     0.173 A 
ATOM     68  F   UNL A   1      43.929  26.131  27.576  1.00  0.00    -0.203 F 
ATOM     69  C   UNL A   1      44.263  24.765  29.448  1.00  0.00     0.198 A 
ATOM     70  C   UNL A   1      43.981  25.621  31.655  1.00  0.00     0.198 A 
ATOM     71  F   UNL A   1      43.160  27.738  32.019  1.00  0.00    -0.203 F 
ATOM     72  F   UNL A   1      44.497  23.731  28.629  1.00  0.00    -0.200 F 
ATOM     73  C   UNL A   1      44.281  24.569  30.818  1.00  0.00     0.200 A 
ATOM     74  F   UNL A   1      43.975  25.451  32.985  1.00  0.00    -0.200 F 
ATOM     75  F   UNL A   1      44.537  23.360  31.332  1.00  0.00    -0.200 F 
ENDBRANCH  51  65
BRANCH  52  76
ATOM     76  C   UNL A   1      39.051  32.531  35.056  1.00  0.00     0.064 A 
ATOM     77  C   UNL A   1      40.164  32.769  35.877  1.00  0.00     0.173 A 
ATOM     78  C   UNL A   1      37.787  32.813  35.616  1.00  0.00     0.173 A 
ATOM     79  F   UNL A   1      41.402  32.576  35.403  1.00  0.00    -0.203 F 
ATOM     80  C   UNL A   1      40.022  33.271  37.175  1.00  0.00     0.198 A 
ATOM     81  C   UNL A   1      37.647  33.308  36.912  1.00  0.00     0.198 A 
ATOM     82  F   UNL A   1      36.669  32.701  34.885  1.00  0.00    -0.203 F 
ATOM     83  F   UNL A   1      41.110  33.537  37.912  1.00  0.00    -0.200 F 
ATOM     84  C   UNL A   1      38.765  33.548  37.688  1.00  0.00     0.200 A 
ATOM     85  F   UNL A   1      36.427  33.608  37.381  1.00  0.00    -0.200 F 
ATOM     86  F   UNL A   1      38.632  34.081  38.911  1.00  0.00    -0.200 F 
ENDBRANCH  52  76
BRANCH  64  87
ATOM     87  C   UNL A   1      37.680  30.673  29.179  1.00  0.00     0.064 A 
ATOM     88  C   UNL A   1      36.394  30.239  28.810  1.00  0.00     0.173 A 
ATOM     89  C   UNL A   1      37.934  32.050  29.121  1.00  0.00     0.173 A 
ATOM     90  F   UNL A   1      36.041  28.955  28.938  1.00  0.00    -0.203 F 
ATOM     91  C   UNL A   1      35.422  31.136  28.368  1.00  0.00     0.198 A 
ATOM     92  C   UNL A   1      36.950  32.949  28.714  1.00  0.00     0.198 A 
ATOM     93  F   UNL A   1      39.120  32.530  29.519  1.00  0.00    -0.203 F 
ATOM     94  F   UNL A   1      34.204  30.694  28.020  1.00  0.00    -0.200 F 
ATOM     95  C   UNL A   1      35.698  32.493  28.330  1.00  0.00     0.200 A 
ATOM     96  F   UNL A   1      37.204  34.265  28.729  1.00  0.00    -0.200 F 
ATOM     97  F   UNL A   1      34.750  33.363  27.955  1.00  0.00    -0.200 F 
ENDBRANCH  64  87
ENDBRANCH  38  39
ENDBRANCH  31  33
ENDBRANCH  30  31
ENDBRANCH  29  30
ENDBRANCH  28  29
ENDBRANCH  27  28
ENDBRANCH  26  27
ENDBRANCH  25  26
ENDBRANCH  24  25
ENDBRANCH   1  24
TORSDOF 24
ENDMDL
