MODEL 1
REMARK VINA RESULT:      -9.5      0.000      0.000
REMARK SMILES O=C(OCCOCCOCCOCCOC(=O)[C@@H](c1c[nH]c2cc(OCc3ccccc3)ccc12)[NH+]1CCSCC1)c1ccc(-c2c3nc(c(-c4c(F)c(F)c(F)c(F)c4F)c4ccc([nH]4)c(-c4c(F)c(F)c(F)c(F)c4F)c4nc(c(-c5c(F)c(F)c(F)c(F)c5F)c5ccc2[nH]5)C=C4)C=C3)cc1
REMARK SMILES IDX 10 1 9 2 8 3 7 4 6 5 5 6 4 7 3 8 2 9 1 10 42 11 43 12 104 13
REMARK SMILES IDX 44 14 103 15 45 16 46 17 47 18 97 19 48 20 102 21 96 22
REMARK SMILES IDX 98 23 49 24 101 25 95 26 94 27 50 29 82 30 62 31 81 32 63 33
REMARK SMILES IDX 66 34 80 35 99 36 64 37 65 38 79 40 100 41 67 42 51 43 52 44
REMARK SMILES IDX 60 45 53 46 54 47 58 48 61 49 55 50 56 51 59 52 57 53 83 54
REMARK SMILES IDX 84 55 92 56 85 57 86 58 90 59 93 60 87 61 88 62 91 63 89 64
REMARK SMILES IDX 68 65 69 66 77 67 70 68 71 69 75 70 78 71 72 72 73 73 76 74
REMARK SMILES IDX 74 75 11 76 12 77 13 78 14 79 15 80 16 81 17 82 18 83 19 84
REMARK SMILES IDX 20 85 35 86 21 87 22 88 34 89 23 91 33 92 24 93 25 94 26 95
REMARK SMILES IDX 27 96 28 97 32 98 29 99 31 100 30 101 36 102 37 103 41 104
REMARK SMILES IDX 38 106 40 107 39 108
REMARK H PARENT 98 28 66 39 21 90 36 105
REMARK Flexibility Score: inf
ROOT
ATOM      1  C   UNL A   1      36.352  30.933  28.343  1.00  0.00     0.188 C 
ENDROOT
BRANCH   1   2
ATOM      2  O   UNL A   1      37.166  31.105  29.499  1.00  0.00    -0.377 OA
BRANCH   2   3
ATOM      3  C   UNL A   1      36.615  31.377  30.774  1.00  0.00     0.188 C 
BRANCH   3   4
ATOM      4  C   UNL A   1      37.213  32.575  31.411  1.00  0.00     0.188 C 
BRANCH   4   5
ATOM      5  O   UNL A   1      38.390  32.969  30.716  1.00  0.00    -0.376 OA
BRANCH   5   6
ATOM      6  C   UNL A   1      38.628  34.348  30.487  1.00  0.00     0.202 C 
BRANCH   6   7
ATOM      7  C   UNL A   1      39.428  34.758  29.270  1.00  0.00     0.261 C 
BRANCH   7   8
ATOM      8  O   UNL A   1      40.682  35.522  29.372  1.00  0.00    -0.460 OA
BRANCH   8   9
ATOM      9  C   UNL A   1      41.691  35.938  28.565  1.00  0.00     0.338 C 
ATOM     10  O   UNL A   1      41.850  37.109  28.302  1.00  0.00    -0.246 OA
BRANCH   9  11
ATOM     11  C   UNL A   1      42.623  34.933  28.044  1.00  0.00     0.060 A 
ATOM     12  C   UNL A   1      43.069  33.973  28.902  1.00  0.00     0.016 A 
ATOM     13  C   UNL A   1      43.030  34.860  26.721  1.00  0.00     0.016 A 
ATOM     14  C   UNL A   1      44.239  33.331  28.694  1.00  0.00     0.010 A 
ATOM     15  C   UNL A   1      44.000  33.909  26.375  1.00  0.00     0.010 A 
ATOM     16  C   UNL A   1      44.644  33.186  27.391  1.00  0.00    -0.014 A 
BRANCH  16  17
ATOM     17  C   UNL A   1      45.787  32.290  27.233  1.00  0.00     0.031 A 
ATOM     18  C   UNL A   1      45.493  30.841  27.083  1.00  0.00     0.074 A 
ATOM     19  C   UNL A   1      46.993  32.831  26.956  1.00  0.00     0.049 A 
ATOM     20  N   UNL A   1      46.320  29.843  27.013  1.00  0.00    -0.248 NA
ATOM     21  C   UNL A   1      44.071  30.459  26.981  1.00  0.00     0.031 C 
ATOM     22  C   UNL A   1      47.274  34.276  26.831  1.00  0.00     0.029 A 
ATOM     23  N   UNL A   1      48.188  32.253  26.645  1.00  0.00    -0.354 N 
ATOM     24  C   UNL A   1      45.524  28.713  26.939  1.00  0.00     0.074 A 
ATOM     25  C   UNL A   1      44.147  29.140  26.925  1.00  0.00     0.031 C 
ATOM     26  C   UNL A   1      48.526  34.455  26.395  1.00  0.00     0.029 A 
ATOM     27  C   UNL A   1      49.188  33.168  26.409  1.00  0.00     0.049 A 
ATOM     28  H   UNL A   1      48.322  31.279  26.594  1.00  0.00     0.167 HD
ATOM     29  C   UNL A   1      45.948  27.431  26.945  1.00  0.00     0.037 A 
ATOM     30  C   UNL A   1      50.516  32.977  26.328  1.00  0.00     0.037 A 
ATOM     31  C   UNL A   1      47.346  27.105  27.011  1.00  0.00     0.049 A 
ATOM     32  C   UNL A   1      50.973  31.561  26.507  1.00  0.00     0.074 A 
ATOM     33  C   UNL A   1      47.952  25.882  27.201  1.00  0.00     0.029 A 
ATOM     34  N   UNL A   1      48.364  28.053  26.901  1.00  0.00    -0.354 N 
ATOM     35  N   UNL A   1      50.241  30.474  26.620  1.00  0.00    -0.248 NA
ATOM     36  C   UNL A   1      52.415  31.337  26.603  1.00  0.00     0.031 C 
ATOM     37  C   UNL A   1      49.333  26.102  27.277  1.00  0.00     0.029 A 
ATOM     38  C   UNL A   1      49.596  27.449  27.057  1.00  0.00     0.049 A 
ATOM     39  H   UNL A   1      48.225  29.013  26.736  1.00  0.00     0.167 HD
ATOM     40  C   UNL A   1      51.129  29.430  26.798  1.00  0.00     0.074 A 
ATOM     41  C   UNL A   1      52.458  30.019  26.753  1.00  0.00     0.031 C 
ATOM     42  C   UNL A   1      50.880  28.110  26.989  1.00  0.00     0.037 A 
BRANCH  29  43
ATOM     43  C   UNL A   1      44.889  26.378  27.063  1.00  0.00     0.064 A 
ATOM     44  C   UNL A   1      44.423  25.910  28.302  1.00  0.00     0.173 A 
ATOM     45  C   UNL A   1      44.423  25.737  25.905  1.00  0.00     0.173 A 
ATOM     46  F   UNL A   1      44.880  26.449  29.442  1.00  0.00    -0.203 F 
ATOM     47  C   UNL A   1      43.556  24.820  28.376  1.00  0.00     0.198 A 
ATOM     48  C   UNL A   1      43.537  24.665  25.982  1.00  0.00     0.198 A 
ATOM     49  F   UNL A   1      44.861  26.120  24.697  1.00  0.00    -0.203 F 
ATOM     50  F   UNL A   1      43.188  24.339  29.572  1.00  0.00    -0.200 F 
ATOM     51  C   UNL A   1      43.113  24.201  27.216  1.00  0.00     0.200 A 
ATOM     52  F   UNL A   1      43.122  24.061  24.860  1.00  0.00    -0.200 F 
ATOM     53  F   UNL A   1      42.301  23.137  27.291  1.00  0.00    -0.200 F 
ENDBRANCH  29  43
BRANCH  30  54
ATOM     54  C   UNL A   1      51.443  34.137  26.222  1.00  0.00     0.064 A 
ATOM     55  C   UNL A   1      51.906  34.812  27.358  1.00  0.00     0.173 A 
ATOM     56  C   UNL A   1      51.922  34.580  24.973  1.00  0.00     0.173 A 
ATOM     57  F   UNL A   1      51.473  34.448  28.574  1.00  0.00    -0.203 F 
ATOM     58  C   UNL A   1      52.803  35.877  27.252  1.00  0.00     0.198 A 
ATOM     59  C   UNL A   1      52.845  35.618  24.871  1.00  0.00     0.198 A 
ATOM     60  F   UNL A   1      51.514  33.981  23.844  1.00  0.00    -0.203 F 
ATOM     61  F   UNL A   1      53.202  36.525  28.354  1.00  0.00    -0.200 F 
ATOM     62  C   UNL A   1      53.280  36.271  26.011  1.00  0.00     0.200 A 
ATOM     63  F   UNL A   1      53.318  35.976  23.669  1.00  0.00    -0.200 F 
ATOM     64  F   UNL A   1      54.155  37.282  25.912  1.00  0.00    -0.200 F 
ENDBRANCH  30  54
BRANCH  42  65
ATOM     65  C   UNL A   1      52.082  27.232  27.107  1.00  0.00     0.064 A 
ATOM     66  C   UNL A   1      52.666  26.631  25.985  1.00  0.00     0.173 A 
ATOM     67  C   UNL A   1      52.679  27.042  28.360  1.00  0.00     0.173 A 
ATOM     68  F   UNL A   1      52.110  26.775  24.772  1.00  0.00    -0.203 F 
ATOM     69  C   UNL A   1      53.805  25.847  26.119  1.00  0.00     0.198 A 
ATOM     70  C   UNL A   1      53.836  26.287  28.484  1.00  0.00     0.198 A 
ATOM     71  F   UNL A   1      52.149  27.607  29.455  1.00  0.00    -0.203 F 
ATOM     72  F   UNL A   1      54.328  25.240  25.045  1.00  0.00    -0.200 F 
ATOM     73  C   UNL A   1      54.394  25.685  27.365  1.00  0.00     0.200 A 
ATOM     74  F   UNL A   1      54.414  26.144  29.685  1.00  0.00    -0.200 F 
ATOM     75  F   UNL A   1      55.501  24.940  27.490  1.00  0.00    -0.200 F 
ENDBRANCH  42  65
ENDBRANCH  16  17
ENDBRANCH   9  11
ENDBRANCH   8   9
ENDBRANCH   7   8
ENDBRANCH   6   7
ENDBRANCH   5   6
ENDBRANCH   4   5
ENDBRANCH   3   4
ENDBRANCH   2   3
ENDBRANCH   1   2
BRANCH   1  76
ATOM     76  C   UNL A   1      34.893  31.424  28.348  1.00  0.00     0.188 C 
BRANCH  76  77
ATOM     77  O   UNL A   1      34.090  30.954  27.288  1.00  0.00    -0.376 OA
BRANCH  77  78
ATOM     78  C   UNL A   1      34.079  29.565  26.974  1.00  0.00     0.202 C 
BRANCH  78  79
ATOM     79  C   UNL A   1      32.879  28.605  27.268  1.00  0.00     0.261 C 
BRANCH  79  80
ATOM     80  O   UNL A   1      31.520  28.952  26.861  1.00  0.00    -0.459 OA
BRANCH  80  81
ATOM     81  C   UNL A   1      31.368  29.305  25.547  1.00  0.00     0.370 C 
ATOM     82  O   UNL A   1      31.117  30.483  25.249  1.00  0.00    -0.245 OA
BRANCH  81  83
ATOM     83  C   UNL A   1      31.352  28.211  24.419  1.00  0.00     0.328 C 
BRANCH  83  84
ATOM     84  C   UNL A   1      31.925  26.738  24.139  1.00  0.00     0.046 A 
ATOM     85  C   UNL A   1      33.034  26.649  23.282  1.00  0.00     0.094 A 
ATOM     86  C   UNL A   1      31.739  25.310  24.547  1.00  0.00     0.009 A 
ATOM     87  N   UNL A   1      33.511  25.383  23.201  1.00  0.00    -0.361 N 
ATOM     88  C   UNL A   1      32.850  24.582  24.084  1.00  0.00     0.050 A 
ATOM     89  C   UNL A   1      30.829  24.485  25.264  1.00  0.00     0.015 A 
ATOM     90  H   UNL A   1      34.228  25.085  22.595  1.00  0.00     0.166 HD
ATOM     91  C   UNL A   1      33.174  23.260  24.460  1.00  0.00     0.073 A 
ATOM     92  C   UNL A   1      31.158  23.148  25.689  1.00  0.00     0.047 A 
ATOM     93  C   UNL A   1      32.370  22.564  25.359  1.00  0.00     0.121 A 
BRANCH  93  94
ATOM     94  O   UNL A   1      32.895  21.358  25.742  1.00  0.00    -0.489 OA
BRANCH  94  95
ATOM     95  C   UNL A   1      34.013  20.732  25.087  1.00  0.00     0.265 C 
BRANCH  95  96
ATOM     96  C   UNL A   1      33.697  19.381  24.435  1.00  0.00    -0.011 A 
ATOM     97  C   UNL A   1      32.534  19.158  23.683  1.00  0.00     0.007 A 
ATOM     98  C   UNL A   1      34.634  18.328  24.522  1.00  0.00     0.007 A 
ATOM     99  C   UNL A   1      32.377  17.978  22.936  1.00  0.00     0.000 A 
ATOM    100  C   UNL A   1      34.490  17.161  23.754  1.00  0.00     0.000 A 
ATOM    101  C   UNL A   1      33.369  16.997  22.942  1.00  0.00     0.000 A 
ENDBRANCH  95  96
ENDBRANCH  94  95
ENDBRANCH  93  94
ENDBRANCH  83  84
BRANCH  83 102
ATOM    102  N   UNL A   1      30.321  28.646  23.480  1.00  0.00    -0.318 N 
ATOM    103  C   UNL A   1      29.091  27.896  23.429  1.00  0.00     0.274 C 
ATOM    104  C   UNL A   1      30.714  29.450  22.336  1.00  0.00     0.274 C 
ATOM    105  H   UNL A   1      29.954  29.433  24.016  1.00  0.00     0.349 HD
ATOM    106  C   UNL A   1      27.894  28.818  23.165  1.00  0.00     0.131 C 
ATOM    107  C   UNL A   1      29.674  30.500  21.943  1.00  0.00     0.131 C 
ATOM    108  S   UNL A   1      28.050  29.753  21.604  1.00  0.00    -0.150 SA
ENDBRANCH  83 102
ENDBRANCH  81  83
ENDBRANCH  80  81
ENDBRANCH  79  80
ENDBRANCH  78  79
ENDBRANCH  77  78
ENDBRANCH  76  77
ENDBRANCH   1  76
TORSDOF 25
ENDMDL
MODEL 2
REMARK VINA RESULT:      -9.5      0.909      1.973
REMARK SMILES O=C(OCCOCCOCCOCCOC(=O)[C@@H](c1c[nH]c2cc(OCc3ccccc3)ccc12)[NH+]1CCSCC1)c1ccc(-c2c3nc(c(-c4c(F)c(F)c(F)c(F)c4F)c4ccc([nH]4)c(-c4c(F)c(F)c(F)c(F)c4F)c4nc(c(-c5c(F)c(F)c(F)c(F)c5F)c5ccc2[nH]5)C=C4)C=C3)cc1
REMARK SMILES IDX 10 1 9 2 8 3 7 4 6 5 5 6 4 7 3 8 2 9 1 10 42 11 43 12 104 13
REMARK SMILES IDX 44 14 103 15 45 16 46 17 47 18 97 19 48 20 102 21 96 22
REMARK SMILES IDX 98 23 49 24 101 25 95 26 94 27 50 29 82 30 62 31 81 32 63 33
REMARK SMILES IDX 66 34 80 35 99 36 64 37 65 38 79 40 100 41 67 42 51 43 52 44
REMARK SMILES IDX 60 45 53 46 54 47 58 48 61 49 55 50 56 51 59 52 57 53 83 54
REMARK SMILES IDX 84 55 92 56 85 57 86 58 90 59 93 60 87 61 88 62 91 63 89 64
REMARK SMILES IDX 68 65 69 66 77 67 70 68 71 69 75 70 78 71 72 72 73 73 76 74
REMARK SMILES IDX 74 75 11 76 12 77 13 78 14 79 15 80 16 81 17 82 18 83 19 84
REMARK SMILES IDX 20 85 35 86 21 87 22 88 34 89 23 91 33 92 24 93 25 94 26 95
REMARK SMILES IDX 27 96 28 97 32 98 29 99 31 100 30 101 36 102 37 103 41 104
REMARK SMILES IDX 38 106 40 107 39 108
REMARK H PARENT 98 28 66 39 21 90 36 105
REMARK Flexibility Score: inf
ROOT
ATOM      1  C   UNL A   1      36.388  30.828  28.302  1.00  0.00     0.188 C 
ENDROOT
BRANCH   1   2
ATOM      2  O   UNL A   1      37.168  31.179  29.440  1.00  0.00    -0.377 OA
BRANCH   2   3
ATOM      3  C   UNL A   1      36.579  31.563  30.669  1.00  0.00     0.188 C 
BRANCH   3   4
ATOM      4  C   UNL A   1      37.132  32.834  31.195  1.00  0.00     0.188 C 
BRANCH   4   5
ATOM      5  O   UNL A   1      38.323  33.181  30.500  1.00  0.00    -0.376 OA
BRANCH   5   6
ATOM      6  C   UNL A   1      38.602  34.548  30.247  1.00  0.00     0.202 C 
BRANCH   6   7
ATOM      7  C   UNL A   1      39.548  34.902  29.120  1.00  0.00     0.261 C 
BRANCH   7   8
ATOM      8  O   UNL A   1      40.862  35.523  29.360  1.00  0.00    -0.460 OA
BRANCH   8   9
ATOM      9  C   UNL A   1      41.939  35.939  28.647  1.00  0.00     0.338 C 
ATOM     10  O   UNL A   1      42.174  37.115  28.482  1.00  0.00    -0.246 OA
BRANCH   9  11
ATOM     11  C   UNL A   1      42.847  34.924  28.106  1.00  0.00     0.060 A 
ATOM     12  C   UNL A   1      43.323  33.975  28.961  1.00  0.00     0.016 A 
ATOM     13  C   UNL A   1      43.203  34.829  26.770  1.00  0.00     0.016 A 
ATOM     14  C   UNL A   1      44.484  33.327  28.718  1.00  0.00     0.010 A 
ATOM     15  C   UNL A   1      44.157  33.870  26.401  1.00  0.00     0.010 A 
ATOM     16  C   UNL A   1      44.838  33.161  27.403  1.00  0.00    -0.014 A 
BRANCH  16  17
ATOM     17  C   UNL A   1      45.972  32.259  27.215  1.00  0.00     0.031 A 
ATOM     18  C   UNL A   1      45.667  30.813  27.070  1.00  0.00     0.074 A 
ATOM     19  C   UNL A   1      47.174  32.795  26.909  1.00  0.00     0.049 A 
ATOM     20  N   UNL A   1      46.487  29.810  26.978  1.00  0.00    -0.248 NA
ATOM     21  C   UNL A   1      44.241  30.438  27.003  1.00  0.00     0.031 C 
ATOM     22  C   UNL A   1      47.459  34.239  26.779  1.00  0.00     0.029 A 
ATOM     23  N   UNL A   1      48.358  32.211  26.567  1.00  0.00    -0.354 N 
ATOM     24  C   UNL A   1      45.684  28.684  26.923  1.00  0.00     0.074 A 
ATOM     25  C   UNL A   1      44.309  29.119  26.943  1.00  0.00     0.031 C 
ATOM     26  C   UNL A   1      48.701  34.412  26.312  1.00  0.00     0.029 A 
ATOM     27  C   UNL A   1      49.356  33.121  26.308  1.00  0.00     0.049 A 
ATOM     28  H   UNL A   1      48.485  31.237  26.512  1.00  0.00     0.167 HD
ATOM     29  C   UNL A   1      46.101  27.400  26.916  1.00  0.00     0.037 A 
ATOM     30  C   UNL A   1      50.680  32.924  26.193  1.00  0.00     0.037 A 
ATOM     31  C   UNL A   1      47.498  27.067  26.946  1.00  0.00     0.049 A 
ATOM     32  C   UNL A   1      51.135  31.505  26.359  1.00  0.00     0.074 A 
ATOM     33  C   UNL A   1      48.103  25.841  27.119  1.00  0.00     0.029 A 
ATOM     34  N   UNL A   1      48.519  28.010  26.813  1.00  0.00    -0.354 N 
ATOM     35  N   UNL A   1      50.400  30.421  26.489  1.00  0.00    -0.248 NA
ATOM     36  C   UNL A   1      52.577  31.274  26.419  1.00  0.00     0.031 C 
ATOM     37  C   UNL A   1      49.487  26.053  27.161  1.00  0.00     0.029 A 
ATOM     38  C   UNL A   1      49.751  27.399  26.937  1.00  0.00     0.049 A 
ATOM     39  H   UNL A   1      48.380  28.971  26.653  1.00  0.00     0.167 HD
ATOM     40  C   UNL A   1      51.287  29.373  26.642  1.00  0.00     0.074 A 
ATOM     41  C   UNL A   1      52.618  29.956  26.565  1.00  0.00     0.031 C 
ATOM     42  C   UNL A   1      51.036  28.054  26.838  1.00  0.00     0.037 A 
BRANCH  29  43
ATOM     43  C   UNL A   1      45.040  26.353  27.059  1.00  0.00     0.064 A 
ATOM     44  C   UNL A   1      44.585  25.904  28.308  1.00  0.00     0.173 A 
ATOM     45  C   UNL A   1      44.561  25.697  25.914  1.00  0.00     0.173 A 
ATOM     46  F   UNL A   1      45.054  26.457  29.437  1.00  0.00    -0.203 F 
ATOM     47  C   UNL A   1      43.715  24.818  28.406  1.00  0.00     0.198 A 
ATOM     48  C   UNL A   1      43.673  24.629  26.014  1.00  0.00     0.198 A 
ATOM     49  F   UNL A   1      44.988  26.062  24.697  1.00  0.00    -0.203 F 
ATOM     50  F   UNL A   1      43.357  24.354  29.612  1.00  0.00    -0.200 F 
ATOM     51  C   UNL A   1      43.259  24.183  27.259  1.00  0.00     0.200 A 
ATOM     52  F   UNL A   1      43.245  24.011  24.905  1.00  0.00    -0.200 F 
ATOM     53  F   UNL A   1      42.444  23.123  27.356  1.00  0.00    -0.200 F 
ENDBRANCH  29  43
BRANCH  30  54
ATOM     54  C   UNL A   1      51.611  34.079  26.066  1.00  0.00     0.064 A 
ATOM     55  C   UNL A   1      52.043  34.538  24.816  1.00  0.00     0.173 A 
ATOM     56  C   UNL A   1      52.067  34.780  27.199  1.00  0.00     0.173 A 
ATOM     57  F   UNL A   1      51.658  33.901  23.700  1.00  0.00    -0.203 F 
ATOM     58  C   UNL A   1      52.889  35.644  24.704  1.00  0.00     0.198 A 
ATOM     59  C   UNL A   1      52.880  35.905  27.084  1.00  0.00     0.198 A 
ATOM     60  F   UNL A   1      51.696  34.389  28.428  1.00  0.00    -0.203 F 
ATOM     61  F   UNL A   1      53.313  36.039  23.496  1.00  0.00    -0.200 F 
ATOM     62  C   UNL A   1      53.297  36.332  25.836  1.00  0.00     0.200 A 
ATOM     63  F   UNL A   1      53.250  36.577  28.184  1.00  0.00    -0.200 F 
ATOM     64  F   UNL A   1      54.094  37.404  25.725  1.00  0.00    -0.200 F 
ENDBRANCH  30  54
BRANCH  42  65
ATOM     65  C   UNL A   1      52.236  27.169  26.924  1.00  0.00     0.064 A 
ATOM     66  C   UNL A   1      52.943  27.002  28.121  1.00  0.00     0.173 A 
ATOM     67  C   UNL A   1      52.641  26.443  25.797  1.00  0.00     0.173 A 
ATOM     68  F   UNL A   1      52.595  27.697  29.215  1.00  0.00    -0.203 F 
ATOM     69  C   UNL A   1      54.034  26.146  28.181  1.00  0.00     0.198 A 
ATOM     70  C   UNL A   1      53.710  25.562  25.870  1.00  0.00     0.198 A 
ATOM     71  F   UNL A   1      51.984  26.574  24.634  1.00  0.00    -0.203 F 
ATOM     72  F   UNL A   1      54.730  26.030  29.320  1.00  0.00    -0.200 F 
ATOM     73  C   UNL A   1      54.410  25.419  27.060  1.00  0.00     0.200 A 
ATOM     74  F   UNL A   1      54.062  24.848  24.792  1.00  0.00    -0.200 F 
ATOM     75  F   UNL A   1      55.454  24.583  27.123  1.00  0.00    -0.200 F 
ENDBRANCH  42  65
ENDBRANCH  16  17
ENDBRANCH   9  11
ENDBRANCH   8   9
ENDBRANCH   7   8
ENDBRANCH   6   7
ENDBRANCH   5   6
ENDBRANCH   4   5
ENDBRANCH   3   4
ENDBRANCH   2   3
ENDBRANCH   1   2
BRANCH   1  76
ATOM     76  C   UNL A   1      34.875  31.113  28.289  1.00  0.00     0.188 C 
BRANCH  76  77
ATOM     77  O   UNL A   1      34.174  30.623  27.166  1.00  0.00    -0.376 OA
BRANCH  77  78
ATOM     78  C   UNL A   1      34.314  29.257  26.790  1.00  0.00     0.202 C 
BRANCH  78  79
ATOM     79  C   UNL A   1      33.156  28.207  26.836  1.00  0.00     0.261 C 
BRANCH  79  80
ATOM     80  O   UNL A   1      31.774  28.599  26.570  1.00  0.00    -0.459 OA
BRANCH  80  81
ATOM     81  C   UNL A   1      31.531  29.097  25.318  1.00  0.00     0.370 C 
ATOM     82  O   UNL A   1      31.265  30.301  25.174  1.00  0.00    -0.245 OA
BRANCH  81  83
ATOM     83  C   UNL A   1      31.431  28.138  24.078  1.00  0.00     0.328 C 
BRANCH  83  84
ATOM     84  C   UNL A   1      32.000  26.721  23.582  1.00  0.00     0.046 A 
ATOM     85  C   UNL A   1      33.073  26.759  22.677  1.00  0.00     0.094 A 
ATOM     86  C   UNL A   1      31.837  25.250  23.803  1.00  0.00     0.009 A 
ATOM     87  N   UNL A   1      33.553  25.520  22.409  1.00  0.00    -0.361 N 
ATOM     88  C   UNL A   1      32.932  24.601  23.203  1.00  0.00     0.050 A 
ATOM     89  C   UNL A   1      30.961  24.327  24.438  1.00  0.00     0.015 A 
ATOM     90  H   UNL A   1      34.246  25.313  21.742  1.00  0.00     0.166 HD
ATOM     91  C   UNL A   1      33.278  23.245  23.386  1.00  0.00     0.073 A 
ATOM     92  C   UNL A   1      31.314  22.950  24.667  1.00  0.00     0.047 A 
ATOM     93  C   UNL A   1      32.515  22.427  24.215  1.00  0.00     0.121 A 
BRANCH  93  94
ATOM     94  O   UNL A   1      33.061  21.186  24.412  1.00  0.00    -0.489 OA
BRANCH  94  95
ATOM     95  C   UNL A   1      33.892  20.852  25.538  1.00  0.00     0.265 C 
BRANCH  95  96
ATOM     96  C   UNL A   1      35.378  21.183  25.356  1.00  0.00    -0.011 A 
ATOM     97  C   UNL A   1      35.924  22.427  25.709  1.00  0.00     0.007 A 
ATOM     98  C   UNL A   1      36.261  20.189  24.882  1.00  0.00     0.007 A 
ATOM     99  C   UNL A   1      37.316  22.623  25.718  1.00  0.00     0.000 A 
ATOM    100  C   UNL A   1      37.653  20.376  24.916  1.00  0.00     0.000 A 
ATOM    101  C   UNL A   1      38.180  21.588  25.357  1.00  0.00     0.000 A 
ENDBRANCH  95  96
ENDBRANCH  94  95
ENDBRANCH  93  94
ENDBRANCH  83  84
BRANCH  83 102
ATOM    102  N   UNL A   1      30.313  28.649  23.288  1.00  0.00    -0.318 N 
ATOM    103  C   UNL A   1      29.087  27.891  23.280  1.00  0.00     0.274 C 
ATOM    104  C   UNL A   1      30.591  29.568  22.199  1.00  0.00     0.274 C 
ATOM    105  H   UNL A   1      29.995  29.374  23.933  1.00  0.00     0.349 HD
ATOM    106  C   UNL A   1      27.866  28.819  23.223  1.00  0.00     0.131 C 
ATOM    107  C   UNL A   1      29.515  30.638  22.013  1.00  0.00     0.131 C 
ATOM    108  S   UNL A   1      27.869  29.905  21.756  1.00  0.00    -0.150 SA
ENDBRANCH  83 102
ENDBRANCH  81  83
ENDBRANCH  80  81
ENDBRANCH  79  80
ENDBRANCH  78  79
ENDBRANCH  77  78
ENDBRANCH  76  77
ENDBRANCH   1  76
TORSDOF 25
ENDMDL
MODEL 3
REMARK VINA RESULT:      -8.8      7.002     13.419
REMARK SMILES O=C(OCCOCCOCCOCCOC(=O)[C@@H](c1c[nH]c2cc(OCc3ccccc3)ccc12)[NH+]1CCSCC1)c1ccc(-c2c3nc(c(-c4c(F)c(F)c(F)c(F)c4F)c4ccc([nH]4)c(-c4c(F)c(F)c(F)c(F)c4F)c4nc(c(-c5c(F)c(F)c(F)c(F)c5F)c5ccc2[nH]5)C=C4)C=C3)cc1
REMARK SMILES IDX 10 1 9 2 8 3 7 4 6 5 5 6 4 7 3 8 2 9 1 10 42 11 43 12 104 13
REMARK SMILES IDX 44 14 103 15 45 16 46 17 47 18 97 19 48 20 102 21 96 22
REMARK SMILES IDX 98 23 49 24 101 25 95 26 94 27 50 29 82 30 62 31 81 32 63 33
REMARK SMILES IDX 66 34 80 35 99 36 64 37 65 38 79 40 100 41 67 42 51 43 52 44
REMARK SMILES IDX 60 45 53 46 54 47 58 48 61 49 55 50 56 51 59 52 57 53 83 54
REMARK SMILES IDX 84 55 92 56 85 57 86 58 90 59 93 60 87 61 88 62 91 63 89 64
REMARK SMILES IDX 68 65 69 66 77 67 70 68 71 69 75 70 78 71 72 72 73 73 76 74
REMARK SMILES IDX 74 75 11 76 12 77 13 78 14 79 15 80 16 81 17 82 18 83 19 84
REMARK SMILES IDX 20 85 35 86 21 87 22 88 34 89 23 91 33 92 24 93 25 94 26 95
REMARK SMILES IDX 27 96 28 97 32 98 29 99 31 100 30 101 36 102 37 103 41 104
REMARK SMILES IDX 38 106 40 107 39 108
REMARK H PARENT 98 28 66 39 21 90 36 105
REMARK Flexibility Score: inf
ROOT
ATOM      1  C   UNL A   1      51.566  28.673  29.982  1.00  0.00     0.188 C 
ENDROOT
BRANCH   1   2
ATOM      2  O   UNL A   1      51.926  28.704  28.605  1.00  0.00    -0.377 OA
BRANCH   2   3
ATOM      3  C   UNL A   1      53.154  29.247  28.159  1.00  0.00     0.188 C 
BRANCH   3   4
ATOM      4  C   UNL A   1      53.312  29.170  26.687  1.00  0.00     0.188 C 
BRANCH   4   5
ATOM      5  O   UNL A   1      52.253  28.412  26.115  1.00  0.00    -0.376 OA
BRANCH   5   6
ATOM      6  C   UNL A   1      52.414  27.873  24.814  1.00  0.00     0.202 C 
BRANCH   6   7
ATOM      7  C   UNL A   1      51.473  28.322  23.717  1.00  0.00     0.261 C 
BRANCH   7   8
ATOM      8  O   UNL A   1      50.896  27.383  22.741  1.00  0.00    -0.460 OA
BRANCH   8   9
ATOM      9  C   UNL A   1      49.676  26.913  22.377  1.00  0.00     0.338 C 
ATOM     10  O   UNL A   1      49.465  26.493  21.261  1.00  0.00    -0.246 OA
BRANCH   9  11
ATOM     11  C   UNL A   1      48.613  26.884  23.387  1.00  0.00     0.060 A 
ATOM     12  C   UNL A   1      47.429  27.487  23.082  1.00  0.00     0.016 A 
ATOM     13  C   UNL A   1      48.712  26.229  24.604  1.00  0.00     0.016 A 
ATOM     14  C   UNL A   1      46.601  27.939  24.049  1.00  0.00     0.010 A 
ATOM     15  C   UNL A   1      47.658  26.361  25.519  1.00  0.00     0.010 A 
ATOM     16  C   UNL A   1      46.627  27.276  25.249  1.00  0.00    -0.014 A 
BRANCH  16  17
ATOM     17  C   UNL A   1      45.551  27.668  26.156  1.00  0.00     0.031 A 
ATOM     18  C   UNL A   1      44.586  26.612  26.554  1.00  0.00     0.074 A 
ATOM     19  C   UNL A   1      45.647  28.858  26.788  1.00  0.00     0.049 A 
ATOM     20  N   UNL A   1      43.508  26.718  27.271  1.00  0.00    -0.248 NA
ATOM     21  C   UNL A   1      44.878  25.239  26.099  1.00  0.00     0.031 C 
ATOM     22  C   UNL A   1      46.745  29.832  26.617  1.00  0.00     0.029 A 
ATOM     23  N   UNL A   1      44.876  29.425  27.759  1.00  0.00    -0.354 N 
ATOM     24  C   UNL A   1      42.953  25.451  27.287  1.00  0.00     0.074 A 
ATOM     25  C   UNL A   1      43.829  24.573  26.551  1.00  0.00     0.031 C 
ATOM     26  C   UNL A   1      46.611  30.822  27.506  1.00  0.00     0.029 A 
ATOM     27  C   UNL A   1      45.328  30.662  28.158  1.00  0.00     0.049 A 
ATOM     28  H   UNL A   1      44.076  28.994  28.136  1.00  0.00     0.167 HD
ATOM     29  C   UNL A   1      41.770  25.100  27.835  1.00  0.00     0.037 A 
ATOM     30  C   UNL A   1      44.704  31.603  28.886  1.00  0.00     0.037 A 
ATOM     31  C   UNL A   1      40.942  26.062  28.509  1.00  0.00     0.049 A 
ATOM     32  C   UNL A   1      43.320  31.250  29.341  1.00  0.00     0.074 A 
ATOM     33  C   UNL A   1      39.650  25.936  28.968  1.00  0.00     0.029 A 
ATOM     34  N   UNL A   1      41.354  27.363  28.801  1.00  0.00    -0.354 N 
ATOM     35  N   UNL A   1      42.686  30.105  29.216  1.00  0.00    -0.248 NA
ATOM     36  C   UNL A   1      42.542  32.310  29.980  1.00  0.00     0.031 C 
ATOM     37  C   UNL A   1      39.256  27.182  29.473  1.00  0.00     0.029 A 
ATOM     38  C   UNL A   1      40.328  28.064  29.402  1.00  0.00     0.049 A 
ATOM     39  H   UNL A   1      42.248  27.728  28.607  1.00  0.00     0.167 HD
ATOM     40  C   UNL A   1      41.432  30.299  29.765  1.00  0.00     0.074 A 
ATOM     41  C   UNL A   1      41.409  31.672  30.243  1.00  0.00     0.031 C 
ATOM     42  C   UNL A   1      40.390  29.434  29.859  1.00  0.00     0.037 A 
BRANCH  29  43
ATOM     43  C   UNL A   1      41.287  23.712  27.547  1.00  0.00     0.064 A 
ATOM     44  C   UNL A   1      41.929  22.569  28.048  1.00  0.00     0.173 A 
ATOM     45  C   UNL A   1      40.228  23.524  26.644  1.00  0.00     0.173 A 
ATOM     46  F   UNL A   1      42.983  22.692  28.869  1.00  0.00    -0.203 F 
ATOM     47  C   UNL A   1      41.551  21.293  27.630  1.00  0.00     0.198 A 
ATOM     48  C   UNL A   1      39.837  22.248  26.249  1.00  0.00     0.198 A 
ATOM     49  F   UNL A   1      39.601  24.581  26.108  1.00  0.00    -0.203 F 
ATOM     50  F   UNL A   1      42.231  20.220  28.058  1.00  0.00    -0.200 F 
ATOM     51  C   UNL A   1      40.504  21.134  26.733  1.00  0.00     0.200 A 
ATOM     52  F   UNL A   1      38.835  22.099  25.372  1.00  0.00    -0.200 F 
ATOM     53  F   UNL A   1      40.159  19.909  26.313  1.00  0.00    -0.200 F 
ENDBRANCH  29  43
BRANCH  30  54
ATOM     54  C   UNL A   1      45.317  32.946  29.074  1.00  0.00     0.064 A 
ATOM     55  C   UNL A   1      45.087  33.990  28.170  1.00  0.00     0.173 A 
ATOM     56  C   UNL A   1      46.127  33.232  30.190  1.00  0.00     0.173 A 
ATOM     57  F   UNL A   1      44.338  33.776  27.077  1.00  0.00    -0.203 F 
ATOM     58  C   UNL A   1      45.637  35.258  28.372  1.00  0.00     0.198 A 
ATOM     59  C   UNL A   1      46.646  34.506  30.410  1.00  0.00     0.198 A 
ATOM     60  F   UNL A   1      46.394  32.275  31.092  1.00  0.00    -0.203 F 
ATOM     61  F   UNL A   1      45.427  36.228  27.472  1.00  0.00    -0.200 F 
ATOM     62  C   UNL A   1      46.406  35.517  29.496  1.00  0.00     0.200 A 
ATOM     63  F   UNL A   1      47.368  34.753  31.512  1.00  0.00    -0.200 F 
ATOM     64  F   UNL A   1      46.920  36.739  29.697  1.00  0.00    -0.200 F 
ENDBRANCH  30  54
BRANCH  42  65
ATOM     65  C   UNL A   1      39.176  29.954  30.555  1.00  0.00     0.064 A 
ATOM     66  C   UNL A   1      39.048  29.903  31.949  1.00  0.00     0.173 A 
ATOM     67  C   UNL A   1      38.157  30.559  29.808  1.00  0.00     0.173 A 
ATOM     68  F   UNL A   1      39.995  29.313  32.694  1.00  0.00    -0.203 F 
ATOM     69  C   UNL A   1      37.922  30.426  32.572  1.00  0.00     0.198 A 
ATOM     70  C   UNL A   1      37.051  31.111  30.437  1.00  0.00     0.198 A 
ATOM     71  F   UNL A   1      38.249  30.631  28.471  1.00  0.00    -0.203 F 
ATOM     72  F   UNL A   1      37.790  30.328  33.902  1.00  0.00    -0.200 F 
ATOM     73  C   UNL A   1      36.931  31.038  31.818  1.00  0.00     0.200 A 
ATOM     74  F   UNL A   1      36.102  31.717  29.710  1.00  0.00    -0.200 F 
ATOM     75  F   UNL A   1      35.853  31.555  32.423  1.00  0.00    -0.200 F 
ENDBRANCH  42  65
ENDBRANCH  16  17
ENDBRANCH   9  11
ENDBRANCH   8   9
ENDBRANCH   7   8
ENDBRANCH   6   7
ENDBRANCH   5   6
ENDBRANCH   4   5
ENDBRANCH   3   4
ENDBRANCH   2   3
ENDBRANCH   1   2
BRANCH   1  76
ATOM     76  C   UNL A   1      50.213  28.078  30.411  1.00  0.00     0.188 C 
BRANCH  76  77
ATOM     77  O   UNL A   1      49.713  27.049  29.584  1.00  0.00    -0.376 OA
BRANCH  77  78
ATOM     78  C   UNL A   1      48.393  27.147  29.057  1.00  0.00     0.202 C 
BRANCH  78  79
ATOM     79  C   UNL A   1      47.287  26.056  29.240  1.00  0.00     0.261 C 
BRANCH  79  80
ATOM     80  O   UNL A   1      46.951  25.539  30.565  1.00  0.00    -0.459 OA
BRANCH  80  81
ATOM     81  C   UNL A   1      45.671  25.777  30.985  1.00  0.00     0.370 C 
ATOM     82  O   UNL A   1      44.880  26.380  30.243  1.00  0.00    -0.245 OA
BRANCH  81  83
ATOM     83  C   UNL A   1      45.233  25.437  32.455  1.00  0.00     0.328 C 
BRANCH  83  84
ATOM     84  C   UNL A   1      44.958  24.154  33.381  1.00  0.00     0.046 A 
ATOM     85  C   UNL A   1      43.834  23.377  33.056  1.00  0.00     0.094 A 
ATOM     86  C   UNL A   1      45.550  23.378  34.515  1.00  0.00     0.009 A 
ATOM     87  N   UNL A   1      43.754  22.260  33.820  1.00  0.00    -0.361 N 
ATOM     88  C   UNL A   1      44.868  22.150  34.598  1.00  0.00     0.050 A 
ATOM     89  C   UNL A   1      46.579  23.478  35.493  1.00  0.00     0.015 A 
ATOM     90  H   UNL A   1      43.004  21.622  33.814  1.00  0.00     0.166 HD
ATOM     91  C   UNL A   1      45.273  21.043  35.375  1.00  0.00     0.073 A 
ATOM     92  C   UNL A   1      47.030  22.349  36.266  1.00  0.00     0.047 A 
ATOM     93  C   UNL A   1      46.431  21.105  36.145  1.00  0.00     0.121 A 
BRANCH  93  94
ATOM     94  O   UNL A   1      46.773  19.909  36.717  1.00  0.00    -0.489 OA
BRANCH  94  95
ATOM     95  C   UNL A   1      46.198  19.419  37.942  1.00  0.00     0.265 C 
BRANCH  95  96
ATOM     96  C   UNL A   1      47.218  18.909  38.967  1.00  0.00    -0.011 A 
ATOM     97  C   UNL A   1      48.369  19.633  39.313  1.00  0.00     0.007 A 
ATOM     98  C   UNL A   1      46.973  17.700  39.653  1.00  0.00     0.007 A 
ATOM     99  C   UNL A   1      49.169  19.234  40.397  1.00  0.00     0.000 A 
ATOM    100  C   UNL A   1      47.757  17.315  40.753  1.00  0.00     0.000 A 
ATOM    101  C   UNL A   1      48.844  18.097  41.139  1.00  0.00     0.000 A 
ENDBRANCH  95  96
ENDBRANCH  94  95
ENDBRANCH  93  94
ENDBRANCH  83  84
BRANCH  83 102
ATOM    102  N   UNL A   1      45.336  26.698  33.187  1.00  0.00    -0.318 N 
ATOM    103  C   UNL A   1      44.116  27.342  33.602  1.00  0.00     0.274 C 
ATOM    104  C   UNL A   1      46.549  27.486  33.049  1.00  0.00     0.274 C 
ATOM    105  H   UNL A   1      45.584  26.319  34.102  1.00  0.00     0.349 HD
ATOM    106  C   UNL A   1      44.293  28.035  34.960  1.00  0.00     0.131 C 
ATOM    107  C   UNL A   1      46.951  28.214  34.332  1.00  0.00     0.131 C 
ATOM    108  S   UNL A   1      45.619  29.290  34.947  1.00  0.00    -0.150 SA
ENDBRANCH  83 102
ENDBRANCH  81  83
ENDBRANCH  80  81
ENDBRANCH  79  80
ENDBRANCH  78  79
ENDBRANCH  77  78
ENDBRANCH  76  77
ENDBRANCH   1  76
TORSDOF 25
ENDMDL
