MODEL 1
REMARK VINA RESULT:     -10.9      0.000      0.000
REMARK SMILES Cc1sc2nc3c(S[C@H](C)C(=O)OCCOCCOCCOCCOC(=O)c4ccc(-c5c6nc(c(-c7c(F)c(F)c(F)c(F)c7F)c7ccc([nH]7)c(-c7c(F)c(F)c(F)c(F)c7F)c7nc(c(-c8c(F)c(F)c(F)c(F)c8F)c8ccc5[nH]8)C=C7)C=C6)cc4)cc(C(=O)c4ccccc4O)cn3c(=O)c2c1C
REMARK SMILES IDX 17 1 16 2 15 3 14 4 13 5 11 6 12 7 9 8 10 9 8 10 7 11 1 12
REMARK SMILES IDX 2 13 3 14 107 15 4 16 106 17 108 18 5 19 104 20 6 21 103 22
REMARK SMILES IDX 105 23 102 24 91 25 92 26 93 27 94 28 95 29 96 30 100 31
REMARK SMILES IDX 97 32 99 33 98 34 101 35 18 37 19 38 20 39 21 40 22 41 23 42
REMARK SMILES IDX 24 43 25 44 26 45 27 46 28 47 29 48 90 49 30 50 89 51 31 52
REMARK SMILES IDX 32 53 33 54 83 55 34 56 88 57 82 58 84 59 35 60 87 61 81 62
REMARK SMILES IDX 80 63 36 65 68 66 48 67 67 68 49 69 52 70 66 71 85 72 50 73
REMARK SMILES IDX 51 74 65 76 86 77 53 78 37 79 38 80 46 81 39 82 40 83 44 84
REMARK SMILES IDX 47 85 41 86 42 87 45 88 43 89 69 90 70 91 78 92 71 93 72 94
REMARK SMILES IDX 76 95 79 96 73 97 74 98 77 99 75 100 54 101 55 102 63 103
REMARK SMILES IDX 56 104 57 105 61 106 64 107 58 108 59 109 62 110 60 111
REMARK H PARENT 101 36 84 64 52 75
REMARK Flexibility Score: inf
ROOT
ATOM      1  C   UNL A   1      34.990  34.470  28.726  1.00  0.00     0.188 C 
ENDROOT
BRANCH   1   2
ATOM      2  O   UNL A   1      34.901  33.539  27.656  1.00  0.00    -0.376 OA
BRANCH   2   3
ATOM      3  C   UNL A   1      35.774  32.405  27.745  1.00  0.00     0.202 C 
BRANCH   3   4
ATOM      4  C   UNL A   1      35.230  30.979  28.027  1.00  0.00     0.261 C 
BRANCH   4   5
ATOM      5  O   UNL A   1      34.667  30.196  26.959  1.00  0.00    -0.462 OA
BRANCH   5   6
ATOM      6  C   UNL A   1      33.343  30.000  26.823  1.00  0.00     0.319 C 
ATOM      7  O   UNL A   1      32.490  30.764  27.257  1.00  0.00    -0.251 OA
BRANCH   6   8
ATOM      8  C   UNL A   1      33.018  28.794  25.946  1.00  0.00     0.158 C 
ATOM      9  C   UNL A   1      33.930  28.420  24.785  1.00  0.00     0.032 C 
BRANCH   8  10
ATOM     10  S   UNL A   1      32.622  27.286  26.777  1.00  0.00    -0.107 SA
BRANCH  10  11
ATOM     11  C   UNL A   1      31.787  26.093  25.857  1.00  0.00     0.052 A 
ATOM     12  C   UNL A   1      34.535  18.973  25.016  1.00  0.00     0.057 C 
ATOM     13  C   UNL A   1      33.803  20.276  24.947  1.00  0.00     0.007 A 
ATOM     14  S   UNL A   1      33.889  21.374  26.223  1.00  0.00    -0.120 S 
ATOM     15  C   UNL A   1      32.892  20.736  24.015  1.00  0.00    -0.022 A 
ATOM     16  C   UNL A   1      33.183  22.663  25.348  1.00  0.00     0.131 A 
ATOM     17  C   UNL A   1      32.593  22.155  24.221  1.00  0.00     0.080 A 
ATOM     18  C   UNL A   1      32.311  19.830  22.993  1.00  0.00     0.046 C 
ATOM     19  N   UNL A   1      33.107  23.946  25.831  1.00  0.00    -0.218 NA
ATOM     20  C   UNL A   1      31.745  23.079  23.482  1.00  0.00     0.266 A 
ATOM     21  C   UNL A   1      32.210  24.720  25.293  1.00  0.00     0.155 A 
ATOM     22  N   UNL A   1      31.476  24.309  24.154  1.00  0.00    -0.266 N 
ATOM     23  O   UNL A   1      31.292  22.796  22.396  1.00  0.00    -0.268 OA
ATOM     24  C   UNL A   1      30.408  25.071  23.666  1.00  0.00     0.108 A 
ATOM     25  C   UNL A   1      30.615  26.600  25.455  1.00  0.00     0.032 A 
ATOM     26  C   UNL A   1      29.905  26.128  24.318  1.00  0.00     0.041 A 
BRANCH  26  27
ATOM     27  C   UNL A   1      28.662  26.827  23.846  1.00  0.00     0.198 C 
ATOM     28  O   UNL A   1      27.541  26.402  24.075  1.00  0.00    -0.288 OA
BRANCH  27  29
ATOM     29  C   UNL A   1      28.777  28.117  23.139  1.00  0.00     0.064 A 
ATOM     30  C   UNL A   1      30.030  28.542  22.685  1.00  0.00     0.016 A 
ATOM     31  C   UNL A   1      27.646  28.900  22.887  1.00  0.00     0.126 A 
ATOM     32  C   UNL A   1      30.142  29.746  21.989  1.00  0.00     0.001 A 
ATOM     33  C   UNL A   1      27.754  30.087  22.172  1.00  0.00     0.047 A 
ATOM     34  C   UNL A   1      29.004  30.511  21.723  1.00  0.00     0.004 A 
BRANCH  31  35
ATOM     35  O   UNL A   1      26.405  28.539  23.313  1.00  0.00    -0.507 OA
ATOM     36  H   UNL A   1      25.992  27.776  22.960  1.00  0.00     0.293 HD
ENDBRANCH  31  35
ENDBRANCH  27  29
ENDBRANCH  26  27
ENDBRANCH  10  11
ENDBRANCH   8  10
ENDBRANCH   6   8
ENDBRANCH   5   6
ENDBRANCH   4   5
ENDBRANCH   3   4
ENDBRANCH   2   3
ENDBRANCH   1   2
BRANCH   1  37
ATOM     37  C   UNL A   1      33.956  34.250  29.828  1.00  0.00     0.188 C 
BRANCH  37  38
ATOM     38  O   UNL A   1      34.714  34.016  31.004  1.00  0.00    -0.377 OA
BRANCH  38  39
ATOM     39  C   UNL A   1      36.109  33.870  30.913  1.00  0.00     0.188 C 
BRANCH  39  40
ATOM     40  C   UNL A   1      36.722  32.727  31.735  1.00  0.00     0.188 C 
BRANCH  40  41
ATOM     41  O   UNL A   1      37.284  33.060  33.003  1.00  0.00    -0.376 OA
BRANCH  41  42
ATOM     42  C   UNL A   1      38.674  32.839  33.194  1.00  0.00     0.202 C 
BRANCH  42  43
ATOM     43  C   UNL A   1      39.552  32.627  31.943  1.00  0.00     0.261 C 
BRANCH  43  44
ATOM     44  O   UNL A   1      40.872  33.211  32.010  1.00  0.00    -0.460 OA
BRANCH  44  45
ATOM     45  C   UNL A   1      41.619  33.218  30.875  1.00  0.00     0.338 C 
ATOM     46  O   UNL A   1      41.513  32.464  29.924  1.00  0.00    -0.246 OA
BRANCH  45  47
ATOM     47  C   UNL A   1      42.474  34.433  30.875  1.00  0.00     0.060 A 
ATOM     48  C   UNL A   1      42.763  35.127  32.051  1.00  0.00     0.016 A 
ATOM     49  C   UNL A   1      42.966  34.911  29.657  1.00  0.00     0.016 A 
ATOM     50  C   UNL A   1      43.529  36.305  31.999  1.00  0.00     0.010 A 
ATOM     51  C   UNL A   1      43.700  36.104  29.614  1.00  0.00     0.010 A 
ATOM     52  C   UNL A   1      43.997  36.821  30.774  1.00  0.00    -0.014 A 
BRANCH  52  53
ATOM     53  C   UNL A   1      44.911  37.996  30.733  1.00  0.00     0.031 A 
ATOM     54  C   UNL A   1      46.269  37.810  30.075  1.00  0.00     0.074 A 
ATOM     55  C   UNL A   1      44.496  39.257  30.998  1.00  0.00     0.049 A 
ATOM     56  N   UNL A   1      46.577  38.136  28.846  1.00  0.00    -0.248 NA
ATOM     57  C   UNL A   1      47.323  37.033  30.732  1.00  0.00     0.031 C 
ATOM     58  C   UNL A   1      43.157  39.799  30.724  1.00  0.00     0.029 A 
ATOM     59  N   UNL A   1      45.206  40.357  31.416  1.00  0.00    -0.354 N 
ATOM     60  C   UNL A   1      47.819  37.597  28.548  1.00  0.00     0.074 A 
ATOM     61  C   UNL A   1      48.239  36.919  29.757  1.00  0.00     0.031 C 
ATOM     62  C   UNL A   1      43.210  41.149  30.786  1.00  0.00     0.029 A 
ATOM     63  C   UNL A   1      44.527  41.557  31.253  1.00  0.00     0.049 A 
ATOM     64  H   UNL A   1      46.113  40.300  31.794  1.00  0.00     0.167 HD
ATOM     65  C   UNL A   1      48.464  37.726  27.352  1.00  0.00     0.037 A 
ATOM     66  C   UNL A   1      45.070  42.794  31.071  1.00  0.00     0.037 A 
ATOM     67  C   UNL A   1      47.881  38.543  26.325  1.00  0.00     0.049 A 
ATOM     68  C   UNL A   1      45.903  42.618  29.804  1.00  0.00     0.074 A 
ATOM     69  C   UNL A   1      47.432  38.442  25.021  1.00  0.00     0.029 A 
ATOM     70  N   UNL A   1      48.004  39.897  26.480  1.00  0.00    -0.354 N 
ATOM     71  N   UNL A   1      45.522  42.743  28.555  1.00  0.00    -0.248 NA
ATOM     72  C   UNL A   1      47.176  41.930  29.973  1.00  0.00     0.031 C 
ATOM     73  C   UNL A   1      46.812  39.703  24.729  1.00  0.00     0.029 A 
ATOM     74  C   UNL A   1      46.950  40.495  25.867  1.00  0.00     0.049 A 
ATOM     75  H   UNL A   1      48.732  40.359  26.954  1.00  0.00     0.167 HD
ATOM     76  C   UNL A   1      46.392  41.954  27.785  1.00  0.00     0.074 A 
ATOM     77  C   UNL A   1      47.332  41.429  28.760  1.00  0.00     0.031 C 
ATOM     78  C   UNL A   1      46.265  41.634  26.448  1.00  0.00     0.037 A 
BRANCH  65  79
ATOM     79  C   UNL A   1      49.858  37.317  27.071  1.00  0.00     0.064 A 
ATOM     80  C   UNL A   1      50.853  38.254  27.409  1.00  0.00     0.173 A 
ATOM     81  C   UNL A   1      50.173  36.315  26.152  1.00  0.00     0.173 A 
ATOM     82  F   UNL A   1      50.568  39.255  28.260  1.00  0.00    -0.203 F 
ATOM     83  C   UNL A   1      52.087  38.247  26.779  1.00  0.00     0.198 A 
ATOM     84  C   UNL A   1      51.433  36.287  25.552  1.00  0.00     0.198 A 
ATOM     85  F   UNL A   1      49.244  35.428  25.768  1.00  0.00    -0.203 F 
ATOM     86  F   UNL A   1      52.964  39.229  27.029  1.00  0.00    -0.200 F 
ATOM     87  C   UNL A   1      52.375  37.269  25.844  1.00  0.00     0.200 A 
ATOM     88  F   UNL A   1      51.718  35.348  24.639  1.00  0.00    -0.200 F 
ATOM     89  F   UNL A   1      53.550  37.289  25.200  1.00  0.00    -0.200 F 
ENDBRANCH  65  79
BRANCH  66  90
ATOM     90  C   UNL A   1      45.627  43.361  32.363  1.00  0.00     0.064 A 
ATOM     91  C   UNL A   1      45.127  44.606  32.815  1.00  0.00     0.173 A 
ATOM     92  C   UNL A   1      46.563  42.747  33.213  1.00  0.00     0.173 A 
ATOM     93  F   UNL A   1      44.314  45.329  32.029  1.00  0.00    -0.203 F 
ATOM     94  C   UNL A   1      45.427  45.119  34.081  1.00  0.00     0.198 A 
ATOM     95  C   UNL A   1      46.843  43.247  34.491  1.00  0.00     0.198 A 
ATOM     96  F   UNL A   1      47.212  41.636  32.846  1.00  0.00    -0.203 F 
ATOM     97  F   UNL A   1      44.884  46.278  34.480  1.00  0.00    -0.200 F 
ATOM     98  C   UNL A   1      46.259  44.419  34.934  1.00  0.00     0.200 A 
ATOM     99  F   UNL A   1      47.661  42.566  35.307  1.00  0.00    -0.200 F 
ATOM    100  F   UNL A   1      46.495  44.871  36.174  1.00  0.00    -0.200 F 
ENDBRANCH  66  90
BRANCH  78 101
ATOM    101  C   UNL A   1      45.263  42.325  25.565  1.00  0.00     0.064 A 
ATOM    102  C   UNL A   1      44.011  41.758  25.304  1.00  0.00     0.173 A 
ATOM    103  C   UNL A   1      45.477  43.631  25.073  1.00  0.00     0.173 A 
ATOM    104  F   UNL A   1      43.684  40.569  25.832  1.00  0.00    -0.203 F 
ATOM    105  C   UNL A   1      43.062  42.433  24.528  1.00  0.00     0.198 A 
ATOM    106  C   UNL A   1      44.550  44.287  24.273  1.00  0.00     0.198 A 
ATOM    107  F   UNL A   1      46.601  44.306  25.352  1.00  0.00    -0.203 F 
ATOM    108  F   UNL A   1      41.863  41.880  24.299  1.00  0.00    -0.200 F 
ATOM    109  C   UNL A   1      43.344  43.683  23.991  1.00  0.00     0.200 A 
ATOM    110  F   UNL A   1      44.837  45.495  23.762  1.00  0.00    -0.200 F 
ATOM    111  F   UNL A   1      42.465  44.302  23.189  1.00  0.00    -0.200 F 
ENDBRANCH  78 101
ENDBRANCH  52  53
ENDBRANCH  45  47
ENDBRANCH  44  45
ENDBRANCH  43  44
ENDBRANCH  42  43
ENDBRANCH  41  42
ENDBRANCH  40  41
ENDBRANCH  39  40
ENDBRANCH  38  39
ENDBRANCH  37  38
ENDBRANCH   1  37
TORSDOF 25
ENDMDL
MODEL 2
REMARK VINA RESULT:     -10.7      6.969     11.344
REMARK SMILES Cc1sc2nc3c(S[C@H](C)C(=O)OCCOCCOCCOCCOC(=O)c4ccc(-c5c6nc(c(-c7c(F)c(F)c(F)c(F)c7F)c7ccc([nH]7)c(-c7c(F)c(F)c(F)c(F)c7F)c7nc(c(-c8c(F)c(F)c(F)c(F)c8F)c8ccc5[nH]8)C=C7)C=C6)cc4)cc(C(=O)c4ccccc4O)cn3c(=O)c2c1C
REMARK SMILES IDX 17 1 16 2 15 3 14 4 13 5 11 6 12 7 9 8 10 9 8 10 7 11 1 12
REMARK SMILES IDX 2 13 3 14 107 15 4 16 106 17 108 18 5 19 104 20 6 21 103 22
REMARK SMILES IDX 105 23 102 24 91 25 92 26 93 27 94 28 95 29 96 30 100 31
REMARK SMILES IDX 97 32 99 33 98 34 101 35 18 37 19 38 20 39 21 40 22 41 23 42
REMARK SMILES IDX 24 43 25 44 26 45 27 46 28 47 29 48 90 49 30 50 89 51 31 52
REMARK SMILES IDX 32 53 33 54 83 55 34 56 88 57 82 58 84 59 35 60 87 61 81 62
REMARK SMILES IDX 80 63 36 65 68 66 48 67 67 68 49 69 52 70 66 71 85 72 50 73
REMARK SMILES IDX 51 74 65 76 86 77 53 78 37 79 38 80 46 81 39 82 40 83 44 84
REMARK SMILES IDX 47 85 41 86 42 87 45 88 43 89 69 90 70 91 78 92 71 93 72 94
REMARK SMILES IDX 76 95 79 96 73 97 74 98 77 99 75 100 54 101 55 102 63 103
REMARK SMILES IDX 56 104 57 105 61 106 64 107 58 108 59 109 62 110 60 111
REMARK H PARENT 101 36 84 64 52 75
REMARK Flexibility Score: inf
ROOT
ATOM      1  C   UNL A   1      35.112  34.494  28.463  1.00  0.00     0.188 C 
ENDROOT
BRANCH   1   2
ATOM      2  O   UNL A   1      35.436  33.490  27.512  1.00  0.00    -0.376 OA
BRANCH   2   3
ATOM      3  C   UNL A   1      35.820  32.220  28.054  1.00  0.00     0.202 C 
BRANCH   3   4
ATOM      4  C   UNL A   1      34.797  31.066  28.230  1.00  0.00     0.261 C 
BRANCH   4   5
ATOM      5  O   UNL A   1      34.356  30.312  27.086  1.00  0.00    -0.462 OA
BRANCH   5   6
ATOM      6  C   UNL A   1      33.076  30.306  26.671  1.00  0.00     0.319 C 
ATOM      7  O   UNL A   1      32.275  31.201  26.912  1.00  0.00    -0.251 OA
BRANCH   6   8
ATOM      8  C   UNL A   1      32.768  29.133  25.744  1.00  0.00     0.158 C 
ATOM      9  C   UNL A   1      33.413  29.052  24.367  1.00  0.00     0.032 C 
BRANCH   8  10
ATOM     10  S   UNL A   1      32.874  27.515  26.443  1.00  0.00    -0.107 SA
BRANCH  10  11
ATOM     11  C   UNL A   1      31.984  26.271  25.652  1.00  0.00     0.052 A 
ATOM     12  C   UNL A   1      34.711  19.124  24.999  1.00  0.00     0.057 C 
ATOM     13  C   UNL A   1      33.968  20.419  24.913  1.00  0.00     0.007 A 
ATOM     14  S   UNL A   1      34.138  21.585  26.118  1.00  0.00    -0.120 S 
ATOM     15  C   UNL A   1      32.988  20.825  24.026  1.00  0.00    -0.022 A 
ATOM     16  C   UNL A   1      33.362  22.823  25.229  1.00  0.00     0.131 A 
ATOM     17  C   UNL A   1      32.696  22.252  24.177  1.00  0.00     0.080 A 
ATOM     18  C   UNL A   1      32.342  19.864  23.099  1.00  0.00     0.046 C 
ATOM     19  N   UNL A   1      33.312  24.129  25.646  1.00  0.00    -0.218 NA
ATOM     20  C   UNL A   1      31.790  23.132  23.452  1.00  0.00     0.266 A 
ATOM     21  C   UNL A   1      32.373  24.871  25.134  1.00  0.00     0.155 A 
ATOM     22  N   UNL A   1      31.562  24.397  24.074  1.00  0.00    -0.266 N 
ATOM     23  O   UNL A   1      31.262  22.790  22.419  1.00  0.00    -0.268 OA
ATOM     24  C   UNL A   1      30.457  25.128  23.625  1.00  0.00     0.108 A 
ATOM     25  C   UNL A   1      30.782  26.753  25.309  1.00  0.00     0.032 A 
ATOM     26  C   UNL A   1      29.994  26.218  24.253  1.00  0.00     0.041 A 
BRANCH  26  27
ATOM     27  C   UNL A   1      28.716  26.886  23.836  1.00  0.00     0.198 C 
ATOM     28  O   UNL A   1      27.617  26.442  24.124  1.00  0.00    -0.288 OA
BRANCH  27  29
ATOM     29  C   UNL A   1      28.770  28.170  23.110  1.00  0.00     0.064 A 
ATOM     30  C   UNL A   1      30.005  28.655  22.665  1.00  0.00     0.016 A 
ATOM     31  C   UNL A   1      27.602  28.886  22.833  1.00  0.00     0.126 A 
ATOM     32  C   UNL A   1      30.060  29.853  21.951  1.00  0.00     0.001 A 
ATOM     33  C   UNL A   1      27.655  30.067  22.100  1.00  0.00     0.047 A 
ATOM     34  C   UNL A   1      28.885  30.551  21.660  1.00  0.00     0.004 A 
BRANCH  31  35
ATOM     35  O   UNL A   1      26.377  28.465  23.249  1.00  0.00    -0.507 OA
ATOM     36  H   UNL A   1      26.156  28.494  24.158  1.00  0.00     0.293 HD
ENDBRANCH  31  35
ENDBRANCH  27  29
ENDBRANCH  26  27
ENDBRANCH  10  11
ENDBRANCH   8  10
ENDBRANCH   6   8
ENDBRANCH   5   6
ENDBRANCH   4   5
ENDBRANCH   3   4
ENDBRANCH   2   3
ENDBRANCH   1   2
BRANCH   1  37
ATOM     37  C   UNL A   1      33.612  34.747  28.611  1.00  0.00     0.188 C 
BRANCH  37  38
ATOM     38  O   UNL A   1      33.423  35.051  29.984  1.00  0.00    -0.377 OA
BRANCH  38  39
ATOM     39  C   UNL A   1      33.957  34.196  30.964  1.00  0.00     0.188 C 
BRANCH  39  40
ATOM     40  C   UNL A   1      33.945  34.732  32.403  1.00  0.00     0.188 C 
BRANCH  40  41
ATOM     41  O   UNL A   1      35.141  35.342  32.885  1.00  0.00    -0.376 OA
BRANCH  41  42
ATOM     42  C   UNL A   1      36.074  34.524  33.575  1.00  0.00     0.202 C 
BRANCH  42  43
ATOM     43  C   UNL A   1      35.939  32.994  33.435  1.00  0.00     0.261 C 
BRANCH  43  44
ATOM     44  O   UNL A   1      37.179  32.256  33.503  1.00  0.00    -0.460 OA
BRANCH  44  45
ATOM     45  C   UNL A   1      37.214  31.024  32.932  1.00  0.00     0.338 C 
ATOM     46  O   UNL A   1      36.263  30.359  32.564  1.00  0.00    -0.246 OA
BRANCH  45  47
ATOM     47  C   UNL A   1      38.628  30.680  32.630  1.00  0.00     0.060 A 
ATOM     48  C   UNL A   1      38.998  29.406  32.198  1.00  0.00     0.016 A 
ATOM     49  C   UNL A   1      39.615  31.653  32.822  1.00  0.00     0.016 A 
ATOM     50  C   UNL A   1      40.354  29.107  31.977  1.00  0.00     0.010 A 
ATOM     51  C   UNL A   1      40.965  31.334  32.632  1.00  0.00     0.010 A 
ATOM     52  C   UNL A   1      41.362  30.064  32.208  1.00  0.00    -0.014 A 
BRANCH  52  53
ATOM     53  C   UNL A   1      42.783  29.787  31.856  1.00  0.00     0.031 A 
ATOM     54  C   UNL A   1      43.546  28.804  32.730  1.00  0.00     0.074 A 
ATOM     55  C   UNL A   1      43.328  30.145  30.670  1.00  0.00     0.049 A 
ATOM     56  N   UNL A   1      43.738  27.537  32.472  1.00  0.00    -0.248 NA
ATOM     57  C   UNL A   1      43.969  29.173  34.084  1.00  0.00     0.031 C 
ATOM     58  C   UNL A   1      42.619  30.220  29.385  1.00  0.00     0.029 A 
ATOM     59  N   UNL A   1      44.640  30.364  30.325  1.00  0.00    -0.354 N 
ATOM     60  C   UNL A   1      44.263  26.933  33.604  1.00  0.00     0.074 A 
ATOM     61  C   UNL A   1      44.386  27.997  34.580  1.00  0.00     0.031 C 
ATOM     62  C   UNL A   1      43.529  30.263  28.385  1.00  0.00     0.029 A 
ATOM     63  C   UNL A   1      44.864  30.377  28.955  1.00  0.00     0.049 A 
ATOM     64  H   UNL A   1      45.355  30.499  30.987  1.00  0.00     0.167 HD
ATOM     65  C   UNL A   1      44.588  25.611  33.710  1.00  0.00     0.037 A 
ATOM     66  C   UNL A   1      46.019  30.058  28.305  1.00  0.00     0.037 A 
ATOM     67  C   UNL A   1      44.468  24.765  32.556  1.00  0.00     0.049 A 
ATOM     68  C   UNL A   1      46.276  28.621  28.750  1.00  0.00     0.074 A 
ATOM     69  C   UNL A   1      43.809  23.619  32.149  1.00  0.00     0.029 A 
ATOM     70  N   UNL A   1      45.451  24.879  31.611  1.00  0.00    -0.354 N 
ATOM     71  N   UNL A   1      45.823  27.510  28.220  1.00  0.00    -0.248 NA
ATOM     72  C   UNL A   1      46.821  28.461  30.091  1.00  0.00     0.031 C 
ATOM     73  C   UNL A   1      44.090  23.492  30.748  1.00  0.00     0.029 A 
ATOM     74  C   UNL A   1      44.923  24.554  30.403  1.00  0.00     0.049 A 
ATOM     75  H   UNL A   1      46.382  25.150  31.779  1.00  0.00     0.167 HD
ATOM     76  C   UNL A   1      45.816  26.546  29.240  1.00  0.00     0.074 A 
ATOM     77  C   UNL A   1      46.378  27.250  30.380  1.00  0.00     0.031 C 
ATOM     78  C   UNL A   1      45.252  25.287  29.196  1.00  0.00     0.037 A 
BRANCH  65  79
ATOM     79  C   UNL A   1      45.312  24.985  34.838  1.00  0.00     0.064 A 
ATOM     80  C   UNL A   1      44.534  24.665  35.966  1.00  0.00     0.173 A 
ATOM     81  C   UNL A   1      46.694  25.100  34.995  1.00  0.00     0.173 A 
ATOM     82  F   UNL A   1      43.196  24.588  35.856  1.00  0.00    -0.203 F 
ATOM     83  C   UNL A   1      45.105  24.558  37.224  1.00  0.00     0.198 A 
ATOM     84  C   UNL A   1      47.270  24.949  36.257  1.00  0.00     0.198 A 
ATOM     85  F   UNL A   1      47.470  25.446  33.957  1.00  0.00    -0.203 F 
ATOM     86  F   UNL A   1      44.320  24.381  38.295  1.00  0.00    -0.200 F 
ATOM     87  C   UNL A   1      46.472  24.708  37.372  1.00  0.00     0.200 A 
ATOM     88  F   UNL A   1      48.593  25.100  36.412  1.00  0.00    -0.200 F 
ATOM     89  F   UNL A   1      47.020  24.652  38.594  1.00  0.00    -0.200 F 
ENDBRANCH  65  79
BRANCH  66  90
ATOM     90  C   UNL A   1      47.052  31.163  28.417  1.00  0.00     0.064 A 
ATOM     91  C   UNL A   1      47.569  31.716  27.221  1.00  0.00     0.173 A 
ATOM     92  C   UNL A   1      47.521  31.755  29.602  1.00  0.00     0.173 A 
ATOM     93  F   UNL A   1      47.273  31.154  26.037  1.00  0.00    -0.203 F 
ATOM     94  C   UNL A   1      48.372  32.861  27.210  1.00  0.00     0.198 A 
ATOM     95  C   UNL A   1      48.304  32.917  29.590  1.00  0.00     0.198 A 
ATOM     96  F   UNL A   1      47.218  31.245  30.801  1.00  0.00    -0.203 F 
ATOM     97  F   UNL A   1      48.790  33.375  26.044  1.00  0.00    -0.200 F 
ATOM     98  C   UNL A   1      48.709  33.482  28.396  1.00  0.00     0.200 A 
ATOM     99  F   UNL A   1      48.636  33.506  30.749  1.00  0.00    -0.200 F 
ATOM    100  F   UNL A   1      49.421  34.619  28.389  1.00  0.00    -0.200 F 
ENDBRANCH  66  90
BRANCH  78 101
ATOM    101  C   UNL A   1      44.768  24.687  27.904  1.00  0.00     0.064 A 
ATOM    102  C   UNL A   1      43.473  24.926  27.432  1.00  0.00     0.173 A 
ATOM    103  C   UNL A   1      45.631  23.975  27.042  1.00  0.00     0.173 A 
ATOM    104  F   UNL A   1      42.626  25.691  28.138  1.00  0.00    -0.203 F 
ATOM    105  C   UNL A   1      43.048  24.411  26.202  1.00  0.00     0.198 A 
ATOM    106  C   UNL A   1      45.199  23.433  25.838  1.00  0.00     0.198 A 
ATOM    107  F   UNL A   1      46.920  23.779  27.352  1.00  0.00    -0.203 F 
ATOM    108  F   UNL A   1      41.808  24.660  25.760  1.00  0.00    -0.200 F 
ATOM    109  C   UNL A   1      43.903  23.643  25.422  1.00  0.00     0.200 A 
ATOM    110  F   UNL A   1      46.038  22.694  25.094  1.00  0.00    -0.200 F 
ATOM    111  F   UNL A   1      43.478  23.089  24.276  1.00  0.00    -0.200 F 
ENDBRANCH  78 101
ENDBRANCH  52  53
ENDBRANCH  45  47
ENDBRANCH  44  45
ENDBRANCH  43  44
ENDBRANCH  42  43
ENDBRANCH  41  42
ENDBRANCH  40  41
ENDBRANCH  39  40
ENDBRANCH  38  39
ENDBRANCH  37  38
ENDBRANCH   1  37
TORSDOF 25
ENDMDL
MODEL 3
REMARK VINA RESULT:     -10.7      6.477     11.396
REMARK SMILES Cc1sc2nc3c(S[C@H](C)C(=O)OCCOCCOCCOCCOC(=O)c4ccc(-c5c6nc(c(-c7c(F)c(F)c(F)c(F)c7F)c7ccc([nH]7)c(-c7c(F)c(F)c(F)c(F)c7F)c7nc(c(-c8c(F)c(F)c(F)c(F)c8F)c8ccc5[nH]8)C=C7)C=C6)cc4)cc(C(=O)c4ccccc4O)cn3c(=O)c2c1C
REMARK SMILES IDX 17 1 16 2 15 3 14 4 13 5 11 6 12 7 9 8 10 9 8 10 7 11 1 12
REMARK SMILES IDX 2 13 3 14 107 15 4 16 106 17 108 18 5 19 104 20 6 21 103 22
REMARK SMILES IDX 105 23 102 24 91 25 92 26 93 27 94 28 95 29 96 30 100 31
REMARK SMILES IDX 97 32 99 33 98 34 101 35 18 37 19 38 20 39 21 40 22 41 23 42
REMARK SMILES IDX 24 43 25 44 26 45 27 46 28 47 29 48 90 49 30 50 89 51 31 52
REMARK SMILES IDX 32 53 33 54 83 55 34 56 88 57 82 58 84 59 35 60 87 61 81 62
REMARK SMILES IDX 80 63 36 65 68 66 48 67 67 68 49 69 52 70 66 71 85 72 50 73
REMARK SMILES IDX 51 74 65 76 86 77 53 78 37 79 38 80 46 81 39 82 40 83 44 84
REMARK SMILES IDX 47 85 41 86 42 87 45 88 43 89 69 90 70 91 78 92 71 93 72 94
REMARK SMILES IDX 76 95 79 96 73 97 74 98 77 99 75 100 54 101 55 102 63 103
REMARK SMILES IDX 56 104 57 105 61 106 64 107 58 108 59 109 62 110 60 111
REMARK H PARENT 101 36 84 64 52 75
REMARK Flexibility Score: inf
ROOT
ATOM      1  C   UNL A   1      35.032  34.574  28.586  1.00  0.00     0.188 C 
ENDROOT
BRANCH   1   2
ATOM      2  O   UNL A   1      35.146  33.598  27.561  1.00  0.00    -0.376 OA
BRANCH   2   3
ATOM      3  C   UNL A   1      35.676  32.329  27.967  1.00  0.00     0.202 C 
BRANCH   3   4
ATOM      4  C   UNL A   1      34.759  31.097  28.191  1.00  0.00     0.261 C 
BRANCH   4   5
ATOM      5  O   UNL A   1      34.366  30.276  27.076  1.00  0.00    -0.462 OA
BRANCH   5   6
ATOM      6  C   UNL A   1      33.097  30.215  26.632  1.00  0.00     0.319 C 
ATOM      7  O   UNL A   1      32.247  31.063  26.872  1.00  0.00    -0.251 OA
BRANCH   6   8
ATOM      8  C   UNL A   1      32.868  29.048  25.675  1.00  0.00     0.158 C 
ATOM      9  C   UNL A   1      33.565  29.016  24.321  1.00  0.00     0.032 C 
BRANCH   8  10
ATOM     10  S   UNL A   1      33.014  27.422  26.352  1.00  0.00    -0.107 SA
BRANCH  10  11
ATOM     11  C   UNL A   1      32.082  26.186  25.597  1.00  0.00     0.052 A 
ATOM     12  C   UNL A   1      34.687  18.995  24.921  1.00  0.00     0.057 C 
ATOM     13  C   UNL A   1      33.960  20.301  24.847  1.00  0.00     0.007 A 
ATOM     14  S   UNL A   1      34.183  21.473  26.037  1.00  0.00    -0.120 S 
ATOM     15  C   UNL A   1      32.960  20.713  23.986  1.00  0.00    -0.022 A 
ATOM     16  C   UNL A   1      33.398  22.715  25.161  1.00  0.00     0.131 A 
ATOM     17  C   UNL A   1      32.692  22.146  24.134  1.00  0.00     0.080 A 
ATOM     18  C   UNL A   1      32.272  19.754  23.087  1.00  0.00     0.046 C 
ATOM     19  N   UNL A   1      33.379  24.025  25.569  1.00  0.00    -0.218 NA
ATOM     20  C   UNL A   1      31.778  23.033  23.430  1.00  0.00     0.266 A 
ATOM     21  C   UNL A   1      32.436  24.776  25.079  1.00  0.00     0.155 A 
ATOM     22  N   UNL A   1      31.587  24.306  24.048  1.00  0.00    -0.266 N 
ATOM     23  O   UNL A   1      31.214  22.690  22.416  1.00  0.00    -0.268 OA
ATOM     24  C   UNL A   1      30.479  25.049  23.626  1.00  0.00     0.108 A 
ATOM     25  C   UNL A   1      30.877  26.682  25.287  1.00  0.00     0.032 A 
ATOM     26  C   UNL A   1      30.051  26.150  24.259  1.00  0.00     0.041 A 
BRANCH  26  27
ATOM     27  C   UNL A   1      28.771  26.834  23.875  1.00  0.00     0.198 C 
ATOM     28  O   UNL A   1      27.674  26.409  24.202  1.00  0.00    -0.288 OA
BRANCH  27  29
ATOM     29  C   UNL A   1      28.821  28.110  23.135  1.00  0.00     0.064 A 
ATOM     30  C   UNL A   1      30.054  28.593  22.684  1.00  0.00     0.016 A 
ATOM     31  C   UNL A   1      27.651  28.820  22.849  1.00  0.00     0.126 A 
ATOM     32  C   UNL A   1      30.106  29.783  21.957  1.00  0.00     0.001 A 
ATOM     33  C   UNL A   1      27.700  29.992  22.103  1.00  0.00     0.047 A 
ATOM     34  C   UNL A   1      28.930  30.474  21.658  1.00  0.00     0.004 A 
BRANCH  31  35
ATOM     35  O   UNL A   1      26.427  28.399  23.270  1.00  0.00    -0.507 OA
ATOM     36  H   UNL A   1      26.336  27.982  24.104  1.00  0.00     0.293 HD
ENDBRANCH  31  35
ENDBRANCH  27  29
ENDBRANCH  26  27
ENDBRANCH  10  11
ENDBRANCH   8  10
ENDBRANCH   6   8
ENDBRANCH   5   6
ENDBRANCH   4   5
ENDBRANCH   3   4
ENDBRANCH   2   3
ENDBRANCH   1   2
BRANCH   1  37
ATOM     37  C   UNL A   1      33.607  34.769  29.102  1.00  0.00     0.188 C 
BRANCH  37  38
ATOM     38  O   UNL A   1      33.735  34.870  30.511  1.00  0.00    -0.377 OA
BRANCH  38  39
ATOM     39  C   UNL A   1      34.521  33.934  31.206  1.00  0.00     0.188 C 
BRANCH  39  40
ATOM     40  C   UNL A   1      35.019  34.369  32.591  1.00  0.00     0.188 C 
BRANCH  40  41
ATOM     41  O   UNL A   1      36.362  34.841  32.688  1.00  0.00    -0.376 OA
BRANCH  41  42
ATOM     42  C   UNL A   1      37.391  33.884  32.890  1.00  0.00     0.202 C 
BRANCH  42  43
ATOM     43  C   UNL A   1      37.085  32.410  32.553  1.00  0.00     0.261 C 
BRANCH  43  44
ATOM     44  O   UNL A   1      38.199  31.653  32.031  1.00  0.00    -0.460 OA
BRANCH  44  45
ATOM     45  C   UNL A   1      37.924  30.601  31.216  1.00  0.00     0.338 C 
ATOM     46  O   UNL A   1      36.822  30.181  30.909  1.00  0.00    -0.246 OA
BRANCH  45  47
ATOM     47  C   UNL A   1      39.187  30.149  30.579  1.00  0.00     0.060 A 
ATOM     48  C   UNL A   1      40.433  30.413  31.149  1.00  0.00     0.016 A 
ATOM     49  C   UNL A   1      39.122  29.476  29.355  1.00  0.00     0.016 A 
ATOM     50  C   UNL A   1      41.607  30.016  30.485  1.00  0.00     0.010 A 
ATOM     51  C   UNL A   1      40.298  29.116  28.685  1.00  0.00     0.010 A 
ATOM     52  C   UNL A   1      41.557  29.375  29.231  1.00  0.00    -0.014 A 
BRANCH  52  53
ATOM     53  C   UNL A   1      42.792  28.845  28.588  1.00  0.00     0.031 A 
ATOM     54  C   UNL A   1      43.814  29.854  28.088  1.00  0.00     0.074 A 
ATOM     55  C   UNL A   1      43.163  27.546  28.672  1.00  0.00     0.049 A 
ATOM     56  N   UNL A   1      44.890  30.236  28.726  1.00  0.00    -0.248 NA
ATOM     57  C   UNL A   1      43.554  30.659  26.891  1.00  0.00     0.031 C 
ATOM     58  C   UNL A   1      42.903  26.648  29.806  1.00  0.00     0.029 A 
ATOM     59  N   UNL A   1      43.974  26.799  27.852  1.00  0.00    -0.354 N 
ATOM     60  C   UNL A   1      45.429  31.327  28.063  1.00  0.00     0.074 A 
ATOM     61  C   UNL A   1      44.558  31.550  26.927  1.00  0.00     0.031 C 
ATOM     62  C   UNL A   1      43.704  25.564  29.698  1.00  0.00     0.029 A 
ATOM     63  C   UNL A   1      44.409  25.612  28.426  1.00  0.00     0.049 A 
ATOM     64  H   UNL A   1      44.224  27.079  26.942  1.00  0.00     0.167 HD
ATOM     65  C   UNL A   1      46.556  31.998  28.442  1.00  0.00     0.037 A 
ATOM     66  C   UNL A   1      45.556  24.931  28.143  1.00  0.00     0.037 A 
ATOM     67  C   UNL A   1      47.314  31.518  29.562  1.00  0.00     0.049 A 
ATOM     68  C   UNL A   1      46.644  25.956  28.445  1.00  0.00     0.074 A 
ATOM     69  C   UNL A   1      47.758  31.946  30.800  1.00  0.00     0.029 A 
ATOM     70  N   UNL A   1      48.103  30.422  29.340  1.00  0.00    -0.354 N 
ATOM     71  N   UNL A   1      47.230  26.210  29.591  1.00  0.00    -0.248 NA
ATOM     72  C   UNL A   1      46.842  26.987  27.435  1.00  0.00     0.031 C 
ATOM     73  C   UNL A   1      48.337  30.790  31.422  1.00  0.00     0.029 A 
ATOM     74  C   UNL A   1      48.231  29.742  30.509  1.00  0.00     0.049 A 
ATOM     75  H   UNL A   1      48.510  30.170  28.480  1.00  0.00     0.167 HD
ATOM     76  C   UNL A   1      47.685  27.537  29.529  1.00  0.00     0.074 A 
ATOM     77  C   UNL A   1      47.330  27.960  28.186  1.00  0.00     0.031 C 
ATOM     78  C   UNL A   1      48.197  28.293  30.565  1.00  0.00     0.037 A 
BRANCH  65  79
ATOM     79  C   UNL A   1      47.247  33.044  27.655  1.00  0.00     0.064 A 
ATOM     80  C   UNL A   1      48.273  32.595  26.804  1.00  0.00     0.173 A 
ATOM     81  C   UNL A   1      47.230  34.390  28.024  1.00  0.00     0.173 A 
ATOM     82  F   UNL A   1      48.340  31.296  26.465  1.00  0.00    -0.203 F 
ATOM     83  C   UNL A   1      49.300  33.439  26.412  1.00  0.00     0.198 A 
ATOM     84  C   UNL A   1      48.243  35.247  27.591  1.00  0.00     0.198 A 
ATOM     85  F   UNL A   1      46.296  34.852  28.868  1.00  0.00    -0.203 F 
ATOM     86  F   UNL A   1      50.330  32.948  25.709  1.00  0.00    -0.200 F 
ATOM     87  C   UNL A   1      49.290  34.763  26.813  1.00  0.00     0.200 A 
ATOM     88  F   UNL A   1      48.247  36.529  27.980  1.00  0.00    -0.200 F 
ATOM     89  F   UNL A   1      50.307  35.568  26.474  1.00  0.00    -0.200 F 
ENDBRANCH  65  79
BRANCH  66  90
ATOM     90  C   UNL A   1      45.458  24.182  26.828  1.00  0.00     0.064 A 
ATOM     91  C   UNL A   1      44.209  23.616  26.475  1.00  0.00     0.173 A 
ATOM     92  C   UNL A   1      46.474  24.034  25.870  1.00  0.00     0.173 A 
ATOM     93  F   UNL A   1      43.202  23.603  27.364  1.00  0.00    -0.203 F 
ATOM     94  C   UNL A   1      43.960  23.079  25.208  1.00  0.00     0.198 A 
ATOM     95  C   UNL A   1      46.218  23.519  24.592  1.00  0.00     0.198 A 
ATOM     96  F   UNL A   1      47.734  24.403  26.129  1.00  0.00    -0.203 F 
ATOM     97  F   UNL A   1      42.743  22.604  24.909  1.00  0.00    -0.200 F 
ATOM     98  C   UNL A   1      44.958  23.064  24.254  1.00  0.00     0.200 A 
ATOM     99  F   UNL A   1      47.198  23.499  23.676  1.00  0.00    -0.200 F 
ATOM    100  F   UNL A   1      44.707  22.613  23.016  1.00  0.00    -0.200 F 
ENDBRANCH  66  90
BRANCH  78 101
ATOM    101  C   UNL A   1      48.564  27.674  31.885  1.00  0.00     0.064 A 
ATOM    102  C   UNL A   1      47.659  27.644  32.951  1.00  0.00     0.173 A 
ATOM    103  C   UNL A   1      49.777  26.974  32.069  1.00  0.00     0.173 A 
ATOM    104  F   UNL A   1      46.439  28.185  32.818  1.00  0.00    -0.203 F 
ATOM    105  C   UNL A   1      47.987  27.015  34.158  1.00  0.00     0.198 A 
ATOM    106  C   UNL A   1      50.118  26.381  33.278  1.00  0.00     0.198 A 
ATOM    107  F   UNL A   1      50.670  26.854  31.077  1.00  0.00    -0.203 F 
ATOM    108  F   UNL A   1      47.103  26.985  35.164  1.00  0.00    -0.200 F 
ATOM    109  C   UNL A   1      49.227  26.410  34.327  1.00  0.00     0.200 A 
ATOM    110  F   UNL A   1      51.320  25.799  33.426  1.00  0.00    -0.200 F 
ATOM    111  F   UNL A   1      49.572  25.868  35.505  1.00  0.00    -0.200 F 
ENDBRANCH  78 101
ENDBRANCH  52  53
ENDBRANCH  45  47
ENDBRANCH  44  45
ENDBRANCH  43  44
ENDBRANCH  42  43
ENDBRANCH  41  42
ENDBRANCH  40  41
ENDBRANCH  39  40
ENDBRANCH  38  39
ENDBRANCH  37  38
ENDBRANCH   1  37
TORSDOF 25
ENDMDL
