MODEL 1
REMARK VINA RESULT:      -8.7      0.000      0.000
REMARK SMILES COc1ccc(-n2c(SCc3cn(-c4ccc(C(=O)OCCOCCOCCOCCOC(=O)c5ccc(-c6c7nc(c(-c8c(F)c(F)c(F)c(F)c8F)c8ccc([nH]8)c(-c8c(F)c(F)c(F)c(F)c8F)c8nc(c(-c9c(F)c(F)c(F)c(F)c9F)c9ccc6[nH]9)C=C8)C=C7)cc5)cc4)nn3)nc3ccccc3c2=O)cc1
REMARK SMILES IDX 24 1 23 2 22 3 21 4 20 5 18 6 19 7 17 8 14 9 15 10 99 11
REMARK SMILES IDX 16 12 98 13 13 14 11 15 12 16 101 17 100 18 10 19 9 20 8 21
REMARK SMILES IDX 7 22 109 23 102 24 108 25 110 26 103 27 107 28 104 29 106 30
REMARK SMILES IDX 105 31 6 32 3 33 4 34 112 35 5 36 111 37 2 38 1 39 25 40
REMARK SMILES IDX 26 41 27 42 28 43 29 44 30 45 31 46 32 47 33 48 34 49 35 50
REMARK SMILES IDX 36 51 97 52 37 53 96 54 38 55 39 56 40 57 90 58 41 59 95 60
REMARK SMILES IDX 89 61 91 62 42 63 94 64 88 65 87 66 43 68 75 69 55 70 74 71
REMARK SMILES IDX 56 72 59 73 73 74 92 75 57 76 58 77 72 79 93 80 60 81 44 82
REMARK SMILES IDX 45 83 53 84 46 85 47 86 51 87 54 88 48 89 49 90 52 91 50 92
REMARK SMILES IDX 76 93 77 94 85 95 78 96 79 97 83 98 86 99 80 100 81 101
REMARK SMILES IDX 84 102 82 103 61 104 62 105 70 106 63 107 64 108 68 109
REMARK SMILES IDX 71 110 65 111 66 112 69 113 67 114
REMARK H PARENT 91 67 59 78
REMARK Flexibility Score: inf
ROOT
ATOM      1  C   UNL A   1      43.207  27.212  32.869  1.00  0.00     0.188 C 
ENDROOT
BRANCH   1   2
ATOM      2  O   UNL A   1      44.305  26.864  32.046  1.00  0.00    -0.376 OA
BRANCH   2   3
ATOM      3  C   UNL A   1      44.687  25.517  31.892  1.00  0.00     0.202 C 
BRANCH   3   4
ATOM      4  C   UNL A   1      45.389  25.086  30.601  1.00  0.00     0.261 C 
BRANCH   4   5
ATOM      5  O   UNL A   1      44.808  23.977  29.918  1.00  0.00    -0.460 OA
BRANCH   5   6
ATOM      6  C   UNL A   1      44.938  23.929  28.579  1.00  0.00     0.338 C 
ATOM      7  O   UNL A   1      45.972  23.798  27.935  1.00  0.00    -0.246 OA
BRANCH   6   8
ATOM      8  C   UNL A   1      43.572  23.837  28.031  1.00  0.00     0.060 A 
ATOM      9  C   UNL A   1      40.991  23.508  27.102  1.00  0.00     0.066 A 
ATOM     10  C   UNL A   1      42.041  22.859  26.439  1.00  0.00     0.029 A 
ATOM     11  C   UNL A   1      41.214  24.272  28.253  1.00  0.00     0.029 A 
ATOM     12  C   UNL A   1      43.343  23.052  26.892  1.00  0.00     0.018 A 
ATOM     13  C   UNL A   1      42.507  24.425  28.725  1.00  0.00     0.018 A 
BRANCH   9  14
ATOM     14  N   UNL A   1      39.704  23.477  26.549  1.00  0.00    -0.220 N 
ATOM     15  C   UNL A   1      37.803  22.801  25.770  1.00  0.00     0.093 A 
ATOM     16  C   UNL A   1      39.097  22.396  25.967  1.00  0.00     0.141 A 
ATOM     17  N   UNL A   1      37.692  24.116  26.131  1.00  0.00    -0.134 NA
ATOM     18  N   UNL A   1      38.842  24.505  26.650  1.00  0.00    -0.062 NA
BRANCH  15  19
ATOM     19  C   UNL A   1      36.663  21.980  25.336  1.00  0.00     0.138 C 
BRANCH  19  20
ATOM     20  S   UNL A   1      35.454  22.871  24.387  1.00  0.00    -0.081 SA
BRANCH  20  21
ATOM     21  C   UNL A   1      33.929  22.720  25.350  1.00  0.00     0.176 A 
ATOM     22  N   UNL A   1      32.857  22.247  24.612  1.00  0.00    -0.255 N 
ATOM     23  C   UNL A   1      32.020  23.204  24.046  1.00  0.00     0.266 A 
ATOM     24  N   UNL A   1      33.738  23.712  26.168  1.00  0.00    -0.223 NA
ATOM     25  C   UNL A   1      32.462  24.612  24.305  1.00  0.00     0.066 A 
ATOM     26  O   UNL A   1      31.030  22.990  23.354  1.00  0.00    -0.268 OA
ATOM     27  C   UNL A   1      33.276  24.822  25.435  1.00  0.00     0.079 A 
ATOM     28  C   UNL A   1      32.317  25.609  23.345  1.00  0.00     0.016 A 
ATOM     29  C   UNL A   1      33.902  26.050  25.631  1.00  0.00     0.029 A 
ATOM     30  C   UNL A   1      33.016  26.810  23.510  1.00  0.00     0.001 A 
ATOM     31  C   UNL A   1      33.792  27.035  24.653  1.00  0.00     0.002 A 
BRANCH  22  32
ATOM     32  C   UNL A   1      32.591  20.855  24.547  1.00  0.00     0.052 A 
ATOM     33  C   UNL A   1      32.675  18.065  24.314  1.00  0.00     0.119 A 
ATOM     34  C   UNL A   1      32.747  18.654  25.573  1.00  0.00     0.048 A 
ATOM     35  C   UNL A   1      32.431  18.855  23.190  1.00  0.00     0.048 A 
ATOM     36  C   UNL A   1      32.739  20.049  25.687  1.00  0.00     0.030 A 
ATOM     37  C   UNL A   1      32.352  20.248  23.311  1.00  0.00     0.030 A 
BRANCH  33  38
ATOM     38  O   UNL A   1      32.774  16.704  24.227  1.00  0.00    -0.497 OA
ATOM     39  C   UNL A   1      34.064  16.277  23.784  1.00  0.00     0.278 C 
ENDBRANCH  33  38
ENDBRANCH  22  32
ENDBRANCH  20  21
ENDBRANCH  19  20
ENDBRANCH  15  19
ENDBRANCH   9  14
ENDBRANCH   6   8
ENDBRANCH   5   6
ENDBRANCH   4   5
ENDBRANCH   3   4
ENDBRANCH   2   3
ENDBRANCH   1   2
BRANCH   1  40
ATOM     40  C   UNL A   1      42.118  28.012  32.118  1.00  0.00     0.188 C 
BRANCH  40  41
ATOM     41  O   UNL A   1      42.353  28.405  30.772  1.00  0.00    -0.377 OA
BRANCH  41  42
ATOM     42  C   UNL A   1      41.591  27.824  29.715  1.00  0.00     0.188 C 
BRANCH  42  43
ATOM     43  C   UNL A   1      40.720  28.653  28.727  1.00  0.00     0.188 C 
BRANCH  43  44
ATOM     44  O   UNL A   1      40.793  28.267  27.365  1.00  0.00    -0.376 OA
BRANCH  44  45
ATOM     45  C   UNL A   1      41.750  28.793  26.472  1.00  0.00     0.202 C 
BRANCH  45  46
ATOM     46  C   UNL A   1      42.439  27.822  25.522  1.00  0.00     0.261 C 
BRANCH  46  47
ATOM     47  O   UNL A   1      43.195  26.830  26.185  1.00  0.00    -0.460 OA
BRANCH  47  48
ATOM     48  C   UNL A   1      44.475  26.754  25.790  1.00  0.00     0.338 C 
ATOM     49  O   UNL A   1      44.947  26.022  24.932  1.00  0.00    -0.246 OA
BRANCH  48  50
ATOM     50  C   UNL A   1      45.266  27.607  26.673  1.00  0.00     0.060 A 
ATOM     51  C   UNL A   1      44.907  27.555  28.017  1.00  0.00     0.016 A 
ATOM     52  C   UNL A   1      45.960  28.690  26.108  1.00  0.00     0.016 A 
ATOM     53  C   UNL A   1      44.943  28.731  28.714  1.00  0.00     0.010 A 
ATOM     54  C   UNL A   1      45.979  29.870  26.800  1.00  0.00     0.010 A 
ATOM     55  C   UNL A   1      45.367  29.890  28.047  1.00  0.00    -0.014 A 
BRANCH  55  56
ATOM     56  C   UNL A   1      45.216  31.135  28.751  1.00  0.00     0.031 A 
ATOM     57  C   UNL A   1      45.848  31.090  30.079  1.00  0.00     0.074 A 
ATOM     58  C   UNL A   1      44.591  32.198  28.218  1.00  0.00     0.049 A 
ATOM     59  N   UNL A   1      45.254  31.112  31.223  1.00  0.00    -0.248 NA
ATOM     60  C   UNL A   1      47.284  30.780  30.139  1.00  0.00     0.031 C 
ATOM     61  C   UNL A   1      44.153  32.406  26.837  1.00  0.00     0.029 A 
ATOM     62  N   UNL A   1      44.296  33.380  28.816  1.00  0.00    -0.354 N 
ATOM     63  C   UNL A   1      46.271  31.021  32.161  1.00  0.00     0.074 A 
ATOM     64  C   UNL A   1      47.459  30.629  31.451  1.00  0.00     0.031 C 
ATOM     65  C   UNL A   1      43.866  33.717  26.659  1.00  0.00     0.029 A 
ATOM     66  C   UNL A   1      43.985  34.404  27.936  1.00  0.00     0.049 A 
ATOM     67  H   UNL A   1      44.301  33.500  29.794  1.00  0.00     0.167 HD
ATOM     68  C   UNL A   1      46.109  31.572  33.390  1.00  0.00     0.037 A 
ATOM     69  C   UNL A   1      43.932  35.722  28.247  1.00  0.00     0.037 A 
ATOM     70  C   UNL A   1      44.711  31.722  33.716  1.00  0.00     0.049 A 
ATOM     71  C   UNL A   1      43.779  35.827  29.724  1.00  0.00     0.074 A 
ATOM     72  C   UNL A   1      43.644  30.848  33.814  1.00  0.00     0.029 A 
ATOM     73  N   UNL A   1      44.154  32.975  33.626  1.00  0.00    -0.354 N 
ATOM     74  N   UNL A   1      42.696  35.486  30.365  1.00  0.00    -0.248 NA
ATOM     75  C   UNL A   1      44.991  35.868  30.533  1.00  0.00     0.031 C 
ATOM     76  C   UNL A   1      42.522  31.566  33.303  1.00  0.00     0.029 A 
ATOM     77  C   UNL A   1      42.954  32.850  32.974  1.00  0.00     0.049 A 
ATOM     78  H   UNL A   1      44.545  33.811  33.969  1.00  0.00     0.167 HD
ATOM     79  C   UNL A   1      43.149  34.850  31.512  1.00  0.00     0.074 A 
ATOM     80  C   UNL A   1      44.565  35.198  31.607  1.00  0.00     0.031 C 
ATOM     81  C   UNL A   1      42.411  33.868  32.107  1.00  0.00     0.037 A 
BRANCH  68  82
ATOM     82  C   UNL A   1      47.199  32.362  34.069  1.00  0.00     0.064 A 
ATOM     83  C   UNL A   1      47.808  33.413  33.362  1.00  0.00     0.173 A 
ATOM     84  C   UNL A   1      47.878  31.934  35.234  1.00  0.00     0.173 A 
ATOM     85  F   UNL A   1      47.256  33.885  32.234  1.00  0.00    -0.203 F 
ATOM     86  C   UNL A   1      49.050  33.926  33.738  1.00  0.00     0.198 A 
ATOM     87  C   UNL A   1      49.088  32.488  35.637  1.00  0.00     0.198 A 
ATOM     88  F   UNL A   1      47.472  30.892  35.967  1.00  0.00    -0.203 F 
ATOM     89  F   UNL A   1      49.659  34.825  32.954  1.00  0.00    -0.200 F 
ATOM     90  C   UNL A   1      49.694  33.457  34.869  1.00  0.00     0.200 A 
ATOM     91  F   UNL A   1      49.702  32.005  36.727  1.00  0.00    -0.200 F 
ATOM     92  F   UNL A   1      50.916  33.897  35.190  1.00  0.00    -0.200 F 
ENDBRANCH  68  82
BRANCH  69  93
ATOM     93  C   UNL A   1      44.332  36.877  27.407  1.00  0.00     0.064 A 
ATOM     94  C   UNL A   1      43.446  37.941  27.173  1.00  0.00     0.173 A 
ATOM     95  C   UNL A   1      45.676  37.092  27.044  1.00  0.00     0.173 A 
ATOM     96  F   UNL A   1      42.159  37.838  27.533  1.00  0.00    -0.203 F 
ATOM     97  C   UNL A   1      43.884  39.155  26.633  1.00  0.00     0.198 A 
ATOM     98  C   UNL A   1      46.109  38.301  26.496  1.00  0.00     0.198 A 
ATOM     99  F   UNL A   1      46.619  36.176  27.303  1.00  0.00    -0.203 F 
ATOM    100  F   UNL A   1      43.021  40.170  26.487  1.00  0.00    -0.200 F 
ATOM    101  C   UNL A   1      45.216  39.337  26.304  1.00  0.00     0.200 A 
ATOM    102  F   UNL A   1      47.409  38.475  26.218  1.00  0.00    -0.200 F 
ATOM    103  F   UNL A   1      45.648  40.520  25.845  1.00  0.00    -0.200 F 
ENDBRANCH  69  93
BRANCH  81 104
ATOM    104  C   UNL A   1      40.990  33.696  31.649  1.00  0.00     0.064 A 
ATOM    105  C   UNL A   1      40.597  32.850  30.598  1.00  0.00     0.173 A 
ATOM    106  C   UNL A   1      39.975  34.331  32.377  1.00  0.00     0.173 A 
ATOM    107  F   UNL A   1      41.497  32.121  29.925  1.00  0.00    -0.203 F 
ATOM    108  C   UNL A   1      39.255  32.699  30.253  1.00  0.00     0.198 A 
ATOM    109  C   UNL A   1      38.633  34.148  32.057  1.00  0.00     0.198 A 
ATOM    110  F   UNL A   1      40.285  35.104  33.430  1.00  0.00    -0.203 F 
ATOM    111  F   UNL A   1      38.908  31.906  29.228  1.00  0.00    -0.200 F 
ATOM    112  C   UNL A   1      38.273  33.346  30.986  1.00  0.00     0.200 A 
ATOM    113  F   UNL A   1      37.685  34.735  32.801  1.00  0.00    -0.200 F 
ATOM    114  F   UNL A   1      36.981  33.177  30.677  1.00  0.00    -0.200 F 
ENDBRANCH  81 104
ENDBRANCH  55  56
ENDBRANCH  48  50
ENDBRANCH  47  48
ENDBRANCH  46  47
ENDBRANCH  45  46
ENDBRANCH  44  45
ENDBRANCH  43  44
ENDBRANCH  42  43
ENDBRANCH  41  42
ENDBRANCH  40  41
ENDBRANCH   1  40
TORSDOF 26
ENDMDL
MODEL 2
REMARK VINA RESULT:      -8.5      7.004     16.006
REMARK SMILES COc1ccc(-n2c(SCc3cn(-c4ccc(C(=O)OCCOCCOCCOCCOC(=O)c5ccc(-c6c7nc(c(-c8c(F)c(F)c(F)c(F)c8F)c8ccc([nH]8)c(-c8c(F)c(F)c(F)c(F)c8F)c8nc(c(-c9c(F)c(F)c(F)c(F)c9F)c9ccc6[nH]9)C=C8)C=C7)cc5)cc4)nn3)nc3ccccc3c2=O)cc1
REMARK SMILES IDX 24 1 23 2 22 3 21 4 20 5 18 6 19 7 17 8 14 9 15 10 99 11
REMARK SMILES IDX 16 12 98 13 13 14 11 15 12 16 101 17 100 18 10 19 9 20 8 21
REMARK SMILES IDX 7 22 109 23 102 24 108 25 110 26 103 27 107 28 104 29 106 30
REMARK SMILES IDX 105 31 6 32 3 33 4 34 112 35 5 36 111 37 2 38 1 39 25 40
REMARK SMILES IDX 26 41 27 42 28 43 29 44 30 45 31 46 32 47 33 48 34 49 35 50
REMARK SMILES IDX 36 51 97 52 37 53 96 54 38 55 39 56 40 57 90 58 41 59 95 60
REMARK SMILES IDX 89 61 91 62 42 63 94 64 88 65 87 66 43 68 75 69 55 70 74 71
REMARK SMILES IDX 56 72 59 73 73 74 92 75 57 76 58 77 72 79 93 80 60 81 44 82
REMARK SMILES IDX 45 83 53 84 46 85 47 86 51 87 54 88 48 89 49 90 52 91 50 92
REMARK SMILES IDX 76 93 77 94 85 95 78 96 79 97 83 98 86 99 80 100 81 101
REMARK SMILES IDX 84 102 82 103 61 104 62 105 70 106 63 107 64 108 68 109
REMARK SMILES IDX 71 110 65 111 66 112 69 113 67 114
REMARK H PARENT 91 67 59 78
REMARK Flexibility Score: inf
ROOT
ATOM      1  C   UNL A   1      44.507  40.423  32.126  1.00  0.00     0.188 C 
ENDROOT
BRANCH   1   2
ATOM      2  O   UNL A   1      45.454  40.503  31.077  1.00  0.00    -0.376 OA
BRANCH   2   3
ATOM      3  C   UNL A   1      45.141  41.172  29.878  1.00  0.00     0.202 C 
BRANCH   3   4
ATOM      4  C   UNL A   1      43.704  41.646  29.643  1.00  0.00     0.261 C 
BRANCH   4   5
ATOM      5  O   UNL A   1      42.807  40.670  29.115  1.00  0.00    -0.460 OA
BRANCH   5   6
ATOM      6  C   UNL A   1      43.278  39.833  28.172  1.00  0.00     0.338 C 
ATOM      7  O   UNL A   1      43.664  38.680  28.323  1.00  0.00    -0.246 OA
BRANCH   6   8
ATOM      8  C   UNL A   1      43.031  40.488  26.874  1.00  0.00     0.060 A 
ATOM      9  C   UNL A   1      42.535  41.873  24.534  1.00  0.00     0.066 A 
ATOM     10  C   UNL A   1      41.458  41.325  25.242  1.00  0.00     0.029 A 
ATOM     11  C   UNL A   1      43.847  41.781  25.013  1.00  0.00     0.029 A 
ATOM     12  C   UNL A   1      41.715  40.602  26.404  1.00  0.00     0.018 A 
ATOM     13  C   UNL A   1      44.091  41.098  26.193  1.00  0.00     0.018 A 
BRANCH   9  14
ATOM     14  N   UNL A   1      42.313  42.437  23.271  1.00  0.00    -0.220 N 
ATOM     15  C   UNL A   1      42.514  43.000  21.193  1.00  0.00     0.093 A 
ATOM     16  C   UNL A   1      43.245  42.599  22.280  1.00  0.00     0.141 A 
ATOM     17  N   UNL A   1      41.210  43.166  21.573  1.00  0.00    -0.134 NA
ATOM     18  N   UNL A   1      41.088  42.775  22.828  1.00  0.00    -0.062 NA
BRANCH  15  19
ATOM     19  C   UNL A   1      42.980  43.149  19.805  1.00  0.00     0.138 C 
BRANCH  19  20
ATOM     20  S   UNL A   1      43.012  44.830  19.234  1.00  0.00    -0.081 SA
BRANCH  20  21
ATOM     21  C   UNL A   1      44.773  45.236  19.132  1.00  0.00     0.176 A 
ATOM     22  N   UNL A   1      45.238  45.946  20.226  1.00  0.00    -0.255 N 
ATOM     23  C   UNL A   1      45.246  47.333  20.110  1.00  0.00     0.266 A 
ATOM     24  N   UNL A   1      45.148  45.600  17.942  1.00  0.00    -0.223 NA
ATOM     25  C   UNL A   1      44.695  47.826  18.807  1.00  0.00     0.066 A 
ATOM     26  O   UNL A   1      45.609  48.134  20.965  1.00  0.00    -0.268 OA
ATOM     27  C   UNL A   1      44.734  46.928  17.723  1.00  0.00     0.079 A 
ATOM     28  C   UNL A   1      43.938  48.991  18.731  1.00  0.00     0.016 A 
ATOM     29  C   UNL A   1      44.057  47.223  16.542  1.00  0.00     0.029 A 
ATOM     30  C   UNL A   1      43.197  49.238  17.571  1.00  0.00     0.001 A 
ATOM     31  C   UNL A   1      43.266  48.367  16.477  1.00  0.00     0.002 A 
BRANCH  22  32
ATOM     32  C   UNL A   1      45.774  45.262  21.347  1.00  0.00     0.052 A 
ATOM     33  C   UNL A   1      47.163  44.430  23.633  1.00  0.00     0.119 A 
ATOM     34  C   UNL A   1      45.899  44.998  23.763  1.00  0.00     0.048 A 
ATOM     35  C   UNL A   1      47.676  44.159  22.364  1.00  0.00     0.048 A 
ATOM     36  C   UNL A   1      45.220  45.444  22.624  1.00  0.00     0.030 A 
ATOM     37  C   UNL A   1      46.965  44.542  21.220  1.00  0.00     0.030 A 
BRANCH  33  38
ATOM     38  O   UNL A   1      47.840  44.085  24.769  1.00  0.00    -0.497 OA
ATOM     39  C   UNL A   1      48.464  45.207  25.397  1.00  0.00     0.278 C 
ENDBRANCH  33  38
ENDBRANCH  22  32
ENDBRANCH  20  21
ENDBRANCH  19  20
ENDBRANCH  15  19
ENDBRANCH   9  14
ENDBRANCH   6   8
ENDBRANCH   5   6
ENDBRANCH   4   5
ENDBRANCH   3   4
ENDBRANCH   2   3
ENDBRANCH   1   2
BRANCH   1  40
ATOM     40  C   UNL A   1      44.878  39.371  33.197  1.00  0.00     0.188 C 
BRANCH  40  41
ATOM     41  O   UNL A   1      46.240  39.220  33.576  1.00  0.00    -0.377 OA
BRANCH  41  42
ATOM     42  C   UNL A   1      46.952  38.035  33.222  1.00  0.00     0.188 C 
BRANCH  42  43
ATOM     43  C   UNL A   1      48.097  38.004  32.168  1.00  0.00     0.188 C 
BRANCH  43  44
ATOM     44  O   UNL A   1      48.490  36.717  31.721  1.00  0.00    -0.376 OA
BRANCH  44  45
ATOM     45  C   UNL A   1      49.430  36.522  30.687  1.00  0.00     0.202 C 
BRANCH  45  46
ATOM     46  C   UNL A   1      48.900  36.133  29.314  1.00  0.00     0.261 C 
BRANCH  46  47
ATOM     47  O   UNL A   1      47.563  35.680  29.337  1.00  0.00    -0.460 OA
BRANCH  47  48
ATOM     48  C   UNL A   1      46.828  36.070  28.282  1.00  0.00     0.338 C 
ATOM     49  O   UNL A   1      47.222  36.613  27.261  1.00  0.00    -0.246 OA
BRANCH  48  50
ATOM     50  C   UNL A   1      45.421  35.865  28.619  1.00  0.00     0.060 A 
ATOM     51  C   UNL A   1      45.152  35.768  29.982  1.00  0.00     0.016 A 
ATOM     52  C   UNL A   1      44.568  35.346  27.632  1.00  0.00     0.016 A 
ATOM     53  C   UNL A   1      44.203  34.859  30.362  1.00  0.00     0.010 A 
ATOM     54  C   UNL A   1      43.633  34.424  28.013  1.00  0.00     0.010 A 
ATOM     55  C   UNL A   1      43.550  34.119  29.366  1.00  0.00    -0.014 A 
BRANCH  55  56
ATOM     56  C   UNL A   1      42.699  33.047  29.807  1.00  0.00     0.031 A 
ATOM     57  C   UNL A   1      41.378  33.539  30.229  1.00  0.00     0.074 A 
ATOM     58  C   UNL A   1      43.088  31.761  29.796  1.00  0.00     0.049 A 
ATOM     59  N   UNL A   1      40.900  33.551  31.426  1.00  0.00    -0.248 NA
ATOM     60  C   UNL A   1      40.583  34.285  29.242  1.00  0.00     0.031 C 
ATOM     61  C   UNL A   1      44.275  31.168  29.179  1.00  0.00     0.029 A 
ATOM     62  N   UNL A   1      42.422  30.682  30.282  1.00  0.00    -0.354 N 
ATOM     63  C   UNL A   1      39.645  34.131  31.309  1.00  0.00     0.074 A 
ATOM     64  C   UNL A   1      39.584  34.730  30.003  1.00  0.00     0.031 C 
ATOM     65  C   UNL A   1      44.119  29.824  29.127  1.00  0.00     0.029 A 
ATOM     66  C   UNL A   1      42.888  29.465  29.812  1.00  0.00     0.049 A 
ATOM     67  H   UNL A   1      41.671  30.759  30.914  1.00  0.00     0.167 HD
ATOM     68  C   UNL A   1      38.663  33.801  32.185  1.00  0.00     0.037 A 
ATOM     69  C   UNL A   1      42.236  28.280  29.912  1.00  0.00     0.037 A 
ATOM     70  C   UNL A   1      39.212  33.288  33.417  1.00  0.00     0.049 A 
ATOM     71  C   UNL A   1      41.225  28.416  30.996  1.00  0.00     0.074 A 
ATOM     72  C   UNL A   1      40.083  33.788  34.368  1.00  0.00     0.029 A 
ATOM     73  N   UNL A   1      39.175  31.932  33.631  1.00  0.00    -0.354 N 
ATOM     74  N   UNL A   1      41.528  28.518  32.260  1.00  0.00    -0.248 NA
ATOM     75  C   UNL A   1      39.902  28.909  30.634  1.00  0.00     0.031 C 
ATOM     76  C   UNL A   1      40.873  32.674  34.777  1.00  0.00     0.029 A 
ATOM     77  C   UNL A   1      40.407  31.550  34.096  1.00  0.00     0.049 A 
ATOM     78  H   UNL A   1      38.403  31.340  33.477  1.00  0.00     0.167 HD
ATOM     79  C   UNL A   1      40.650  29.470  32.758  1.00  0.00     0.074 A 
ATOM     80  C   UNL A   1      39.614  29.605  31.738  1.00  0.00     0.031 C 
ATOM     81  C   UNL A   1      41.004  30.268  33.808  1.00  0.00     0.037 A 
BRANCH  68  82
ATOM     82  C   UNL A   1      37.247  33.535  31.744  1.00  0.00     0.064 A 
ATOM     83  C   UNL A   1      37.027  32.608  30.710  1.00  0.00     0.173 A 
ATOM     84  C   UNL A   1      36.148  34.368  32.062  1.00  0.00     0.173 A 
ATOM     85  F   UNL A   1      38.008  31.781  30.317  1.00  0.00    -0.203 F 
ATOM     86  C   UNL A   1      35.835  32.588  29.985  1.00  0.00     0.198 A 
ATOM     87  C   UNL A   1      34.941  34.304  31.374  1.00  0.00     0.198 A 
ATOM     88  F   UNL A   1      36.225  35.353  32.963  1.00  0.00    -0.203 F 
ATOM     89  F   UNL A   1      35.724  31.788  28.916  1.00  0.00    -0.200 F 
ATOM     90  C   UNL A   1      34.797  33.442  30.312  1.00  0.00     0.200 A 
ATOM     91  F   UNL A   1      33.956  35.154  31.697  1.00  0.00    -0.200 F 
ATOM     92  F   UNL A   1      33.681  33.473  29.573  1.00  0.00    -0.200 F 
ENDBRANCH  68  82
BRANCH  69  93
ATOM     93  C   UNL A   1      42.202  27.170  28.929  1.00  0.00     0.064 A 
ATOM     94  C   UNL A   1      42.822  25.941  29.208  1.00  0.00     0.173 A 
ATOM     95  C   UNL A   1      41.334  27.194  27.821  1.00  0.00     0.173 A 
ATOM     96  F   UNL A   1      43.626  25.817  30.274  1.00  0.00    -0.203 F 
ATOM     97  C   UNL A   1      42.567  24.800  28.439  1.00  0.00     0.198 A 
ATOM     98  C   UNL A   1      41.088  26.058  27.049  1.00  0.00     0.198 A 
ATOM     99  F   UNL A   1      40.625  28.292  27.520  1.00  0.00    -0.203 F 
ATOM    100  F   UNL A   1      43.126  23.629  28.776  1.00  0.00    -0.200 F 
ATOM    101  C   UNL A   1      41.694  24.857  27.366  1.00  0.00     0.200 A 
ATOM    102  F   UNL A   1      40.211  26.120  26.037  1.00  0.00    -0.200 F 
ATOM    103  F   UNL A   1      41.402  23.752  26.668  1.00  0.00    -0.200 F 
ENDBRANCH  69  93
BRANCH  81 104
ATOM    104  C   UNL A   1      42.244  29.898  34.572  1.00  0.00     0.064 A 
ATOM    105  C   UNL A   1      42.275  28.957  35.616  1.00  0.00     0.173 A 
ATOM    106  C   UNL A   1      43.468  30.438  34.156  1.00  0.00     0.173 A 
ATOM    107  F   UNL A   1      41.165  28.313  35.998  1.00  0.00    -0.203 F 
ATOM    108  C   UNL A   1      43.468  28.623  36.253  1.00  0.00     0.198 A 
ATOM    109  C   UNL A   1      44.664  30.073  34.766  1.00  0.00     0.198 A 
ATOM    110  F   UNL A   1      43.508  31.296  33.124  1.00  0.00    -0.203 F 
ATOM    111  F   UNL A   1      43.468  27.742  37.265  1.00  0.00    -0.200 F 
ATOM    112  C   UNL A   1      44.663  29.179  35.825  1.00  0.00     0.200 A 
ATOM    113  F   UNL A   1      45.822  30.575  34.315  1.00  0.00    -0.200 F 
ATOM    114  F   UNL A   1      45.816  28.835  36.415  1.00  0.00    -0.200 F 
ENDBRANCH  81 104
ENDBRANCH  55  56
ENDBRANCH  48  50
ENDBRANCH  47  48
ENDBRANCH  46  47
ENDBRANCH  45  46
ENDBRANCH  44  45
ENDBRANCH  43  44
ENDBRANCH  42  43
ENDBRANCH  41  42
ENDBRANCH  40  41
ENDBRANCH   1  40
TORSDOF 26
ENDMDL
MODEL 3
REMARK VINA RESULT:      -8.4      7.103     15.480
REMARK SMILES COc1ccc(-n2c(SCc3cn(-c4ccc(C(=O)OCCOCCOCCOCCOC(=O)c5ccc(-c6c7nc(c(-c8c(F)c(F)c(F)c(F)c8F)c8ccc([nH]8)c(-c8c(F)c(F)c(F)c(F)c8F)c8nc(c(-c9c(F)c(F)c(F)c(F)c9F)c9ccc6[nH]9)C=C8)C=C7)cc5)cc4)nn3)nc3ccccc3c2=O)cc1
REMARK SMILES IDX 24 1 23 2 22 3 21 4 20 5 18 6 19 7 17 8 14 9 15 10 99 11
REMARK SMILES IDX 16 12 98 13 13 14 11 15 12 16 101 17 100 18 10 19 9 20 8 21
REMARK SMILES IDX 7 22 109 23 102 24 108 25 110 26 103 27 107 28 104 29 106 30
REMARK SMILES IDX 105 31 6 32 3 33 4 34 112 35 5 36 111 37 2 38 1 39 25 40
REMARK SMILES IDX 26 41 27 42 28 43 29 44 30 45 31 46 32 47 33 48 34 49 35 50
REMARK SMILES IDX 36 51 97 52 37 53 96 54 38 55 39 56 40 57 90 58 41 59 95 60
REMARK SMILES IDX 89 61 91 62 42 63 94 64 88 65 87 66 43 68 75 69 55 70 74 71
REMARK SMILES IDX 56 72 59 73 73 74 92 75 57 76 58 77 72 79 93 80 60 81 44 82
REMARK SMILES IDX 45 83 53 84 46 85 47 86 51 87 54 88 48 89 49 90 52 91 50 92
REMARK SMILES IDX 76 93 77 94 85 95 78 96 79 97 83 98 86 99 80 100 81 101
REMARK SMILES IDX 84 102 82 103 61 104 62 105 70 106 63 107 64 108 68 109
REMARK SMILES IDX 71 110 65 111 66 112 69 113 67 114
REMARK H PARENT 91 67 59 78
REMARK Flexibility Score: inf
ROOT
ATOM      1  C   UNL A   1      44.567  40.408  32.014  1.00  0.00     0.188 C 
ENDROOT
BRANCH   1   2
ATOM      2  O   UNL A   1      45.447  40.635  30.931  1.00  0.00    -0.376 OA
BRANCH   2   3
ATOM      3  C   UNL A   1      45.012  41.331  29.786  1.00  0.00     0.202 C 
BRANCH   3   4
ATOM      4  C   UNL A   1      43.521  41.636  29.623  1.00  0.00     0.261 C 
BRANCH   4   5
ATOM      5  O   UNL A   1      42.735  40.598  29.041  1.00  0.00    -0.460 OA
BRANCH   5   6
ATOM      6  C   UNL A   1      43.311  39.833  28.095  1.00  0.00     0.338 C 
ATOM      7  O   UNL A   1      43.800  38.718  28.234  1.00  0.00    -0.246 OA
BRANCH   6   8
ATOM      8  C   UNL A   1      43.043  40.494  26.804  1.00  0.00     0.060 A 
ATOM      9  C   UNL A   1      42.498  41.886  24.480  1.00  0.00     0.066 A 
ATOM     10  C   UNL A   1      41.444  41.272  25.168  1.00  0.00     0.029 A 
ATOM     11  C   UNL A   1      43.808  41.856  24.971  1.00  0.00     0.029 A 
ATOM     12  C   UNL A   1      41.727  40.546  26.322  1.00  0.00     0.018 A 
ATOM     13  C   UNL A   1      44.076  41.169  26.143  1.00  0.00     0.018 A 
BRANCH   9  14
ATOM     14  N   UNL A   1      42.259  42.458  23.223  1.00  0.00    -0.220 N 
ATOM     15  C   UNL A   1      42.421  43.016  21.141  1.00  0.00     0.093 A 
ATOM     16  C   UNL A   1      43.169  42.594  22.209  1.00  0.00     0.141 A 
ATOM     17  N   UNL A   1      41.132  43.218  21.554  1.00  0.00    -0.134 NA
ATOM     18  N   UNL A   1      41.032  42.829  22.812  1.00  0.00    -0.062 NA
BRANCH  15  19
ATOM     19  C   UNL A   1      42.855  43.153  19.741  1.00  0.00     0.138 C 
BRANCH  19  20
ATOM     20  S   UNL A   1      42.907  44.833  19.166  1.00  0.00    -0.081 SA
BRANCH  20  21
ATOM     21  C   UNL A   1      44.673  45.209  19.040  1.00  0.00     0.176 A 
ATOM     22  N   UNL A   1      45.170  45.890  20.140  1.00  0.00    -0.255 N 
ATOM     23  C   UNL A   1      45.201  47.278  20.050  1.00  0.00     0.266 A 
ATOM     24  N   UNL A   1      45.034  45.589  17.852  1.00  0.00    -0.223 NA
ATOM     25  C   UNL A   1      44.636  47.806  18.767  1.00  0.00     0.066 A 
ATOM     26  O   UNL A   1      45.592  48.056  20.914  1.00  0.00    -0.268 OA
ATOM     27  C   UNL A   1      44.640  46.929  17.665  1.00  0.00     0.079 A 
ATOM     28  C   UNL A   1      43.899  48.985  18.727  1.00  0.00     0.016 A 
ATOM     29  C   UNL A   1      43.949  47.258  16.502  1.00  0.00     0.029 A 
ATOM     30  C   UNL A   1      43.142  49.268  17.584  1.00  0.00     0.001 A 
ATOM     31  C   UNL A   1      43.178  48.417  16.473  1.00  0.00     0.002 A 
BRANCH  22  32
ATOM     32  C   UNL A   1      45.713  45.175  21.239  1.00  0.00     0.052 A 
ATOM     33  C   UNL A   1      47.119  44.278  23.488  1.00  0.00     0.119 A 
ATOM     34  C   UNL A   1      45.861  44.851  23.646  1.00  0.00     0.048 A 
ATOM     35  C   UNL A   1      47.617  44.033  22.207  1.00  0.00     0.048 A 
ATOM     36  C   UNL A   1      45.173  45.330  22.525  1.00  0.00     0.030 A 
ATOM     37  C   UNL A   1      46.896  44.449  21.081  1.00  0.00     0.030 A 
BRANCH  33  38
ATOM     38  O   UNL A   1      47.806  43.899  24.608  1.00  0.00    -0.497 OA
ATOM     39  C   UNL A   1      48.704  44.912  25.067  1.00  0.00     0.278 C 
ENDBRANCH  33  38
ENDBRANCH  22  32
ENDBRANCH  20  21
ENDBRANCH  19  20
ENDBRANCH  15  19
ENDBRANCH   9  14
ENDBRANCH   6   8
ENDBRANCH   5   6
ENDBRANCH   4   5
ENDBRANCH   3   4
ENDBRANCH   2   3
ENDBRANCH   1   2
BRANCH   1  40
ATOM     40  C   UNL A   1      45.068  39.312  32.983  1.00  0.00     0.188 C 
BRANCH  40  41
ATOM     41  O   UNL A   1      46.462  39.202  33.242  1.00  0.00    -0.377 OA
BRANCH  41  42
ATOM     42  C   UNL A   1      47.212  38.130  32.673  1.00  0.00     0.188 C 
BRANCH  42  43
ATOM     43  C   UNL A   1      48.216  38.312  31.499  1.00  0.00     0.188 C 
BRANCH  43  44
ATOM     44  O   UNL A   1      48.705  37.118  30.912  1.00  0.00    -0.376 OA
BRANCH  44  45
ATOM     45  C   UNL A   1      49.556  37.112  29.786  1.00  0.00     0.202 C 
BRANCH  45  46
ATOM     46  C   UNL A   1      48.993  36.572  28.478  1.00  0.00     0.261 C 
BRANCH  46  47
ATOM     47  O   UNL A   1      47.724  35.970  28.620  1.00  0.00    -0.460 OA
BRANCH  47  48
ATOM     48  C   UNL A   1      47.001  35.930  27.489  1.00  0.00     0.338 C 
ATOM     49  O   UNL A   1      47.376  36.191  26.356  1.00  0.00    -0.246 OA
BRANCH  48  50
ATOM     50  C   UNL A   1      45.614  35.655  27.857  1.00  0.00     0.060 A 
ATOM     51  C   UNL A   1      45.311  35.857  29.201  1.00  0.00     0.016 A 
ATOM     52  C   UNL A   1      44.855  34.822  27.019  1.00  0.00     0.016 A 
ATOM     53  C   UNL A   1      44.454  34.964  29.783  1.00  0.00     0.010 A 
ATOM     54  C   UNL A   1      44.013  33.918  27.606  1.00  0.00     0.010 A 
ATOM     55  C   UNL A   1      43.918  33.939  28.991  1.00  0.00    -0.014 A 
BRANCH  55  56
ATOM     56  C   UNL A   1      43.174  32.914  29.673  1.00  0.00     0.031 A 
ATOM     57  C   UNL A   1      43.619  31.567  29.283  1.00  0.00     0.074 A 
ATOM     58  C   UNL A   1      42.214  33.191  30.571  1.00  0.00     0.049 A 
ATOM     59  N   UNL A   1      42.957  30.696  28.603  1.00  0.00    -0.248 NA
ATOM     60  C   UNL A   1      45.035  31.230  29.499  1.00  0.00     0.031 C 
ATOM     61  C   UNL A   1      41.877  34.475  31.186  1.00  0.00     0.029 A 
ATOM     62  N   UNL A   1      41.378  32.322  31.196  1.00  0.00    -0.354 N 
ATOM     63  C   UNL A   1      43.809  29.609  28.477  1.00  0.00     0.074 A 
ATOM     64  C   UNL A   1      45.117  30.059  28.869  1.00  0.00     0.031 C 
ATOM     65  C   UNL A   1      41.076  34.255  32.255  1.00  0.00     0.029 A 
ATOM     66  C   UNL A   1      40.754  32.839  32.319  1.00  0.00     0.049 A 
ATOM     67  H   UNL A   1      41.229  31.403  30.876  1.00  0.00     0.167 HD
ATOM     68  C   UNL A   1      43.296  28.359  28.350  1.00  0.00     0.037 A 
ATOM     69  C   UNL A   1      40.108  32.113  33.265  1.00  0.00     0.037 A 
ATOM     70  C   UNL A   1      41.944  28.396  27.850  1.00  0.00     0.049 A 
ATOM     71  C   UNL A   1      39.769  30.794  32.664  1.00  0.00     0.074 A 
ATOM     72  C   UNL A   1      41.350  28.905  26.709  1.00  0.00     0.029 A 
ATOM     73  N   UNL A   1      40.915  28.191  28.738  1.00  0.00    -0.354 N 
ATOM     74  N   UNL A   1      38.876  30.634  31.727  1.00  0.00    -0.248 NA
ATOM     75  C   UNL A   1      40.753  29.725  32.771  1.00  0.00     0.031 C 
ATOM     76  C   UNL A   1      40.090  29.418  27.137  1.00  0.00     0.029 A 
ATOM     77  C   UNL A   1      39.962  29.147  28.498  1.00  0.00     0.049 A 
ATOM     78  H   UNL A   1      40.872  27.485  29.423  1.00  0.00     0.167 HD
ATOM     79  C   UNL A   1      39.434  29.705  30.861  1.00  0.00     0.074 A 
ATOM     80  C   UNL A   1      40.545  29.112  31.602  1.00  0.00     0.031 C 
ATOM     81  C   UNL A   1      39.130  29.716  29.530  1.00  0.00     0.037 A 
BRANCH  68  82
ATOM     82  C   UNL A   1      43.864  27.178  29.095  1.00  0.00     0.064 A 
ATOM     83  C   UNL A   1      44.224  26.032  28.364  1.00  0.00     0.173 A 
ATOM     84  C   UNL A   1      43.769  27.005  30.496  1.00  0.00     0.173 A 
ATOM     85  F   UNL A   1      44.327  26.081  27.027  1.00  0.00    -0.203 F 
ATOM     86  C   UNL A   1      44.377  24.788  28.979  1.00  0.00     0.198 A 
ATOM     87  C   UNL A   1      43.979  25.775  31.111  1.00  0.00     0.198 A 
ATOM     88  F   UNL A   1      43.356  27.976  31.318  1.00  0.00    -0.203 F 
ATOM     89  F   UNL A   1      44.578  23.698  28.227  1.00  0.00    -0.200 F 
ATOM     90  C   UNL A   1      44.246  24.659  30.350  1.00  0.00     0.200 A 
ATOM     91  F   UNL A   1      43.829  25.671  32.439  1.00  0.00    -0.200 F 
ATOM     92  F   UNL A   1      44.322  23.457  30.933  1.00  0.00    -0.200 F 
ENDBRANCH  68  82
BRANCH  69  93
ATOM     93  C   UNL A   1      40.061  32.354  34.728  1.00  0.00     0.064 A 
ATOM     94  C   UNL A   1      41.161  32.050  35.545  1.00  0.00     0.173 A 
ATOM     95  C   UNL A   1      39.047  33.138  35.312  1.00  0.00     0.173 A 
ATOM     96  F   UNL A   1      42.194  31.350  35.054  1.00  0.00    -0.203 F 
ATOM     97  C   UNL A   1      41.253  32.524  36.859  1.00  0.00     0.198 A 
ATOM     98  C   UNL A   1      39.134  33.601  36.626  1.00  0.00     0.198 A 
ATOM     99  F   UNL A   1      37.995  33.557  34.595  1.00  0.00    -0.203 F 
ATOM    100  F   UNL A   1      42.349  32.268  37.586  1.00  0.00    -0.200 F 
ATOM    101  C   UNL A   1      40.244  33.306  37.394  1.00  0.00     0.200 A 
ATOM    102  F   UNL A   1      38.168  34.389  37.117  1.00  0.00    -0.200 F 
ATOM    103  F   UNL A   1      40.359  33.811  38.631  1.00  0.00    -0.200 F 
ENDBRANCH  69  93
BRANCH  81 104
ATOM    104  C   UNL A   1      37.977  30.574  29.091  1.00  0.00     0.064 A 
ATOM    105  C   UNL A   1      36.695  30.080  28.792  1.00  0.00     0.173 A 
ATOM    106  C   UNL A   1      38.148  31.964  29.079  1.00  0.00     0.173 A 
ATOM    107  F   UNL A   1      36.420  28.772  28.889  1.00  0.00    -0.203 F 
ATOM    108  C   UNL A   1      35.655  30.935  28.435  1.00  0.00     0.198 A 
ATOM    109  C   UNL A   1      37.097  32.820  28.763  1.00  0.00     0.198 A 
ATOM    110  F   UNL A   1      39.333  32.499  29.415  1.00  0.00    -0.203 F 
ATOM    111  F   UNL A   1      34.448  30.436  28.128  1.00  0.00    -0.200 F 
ATOM    112  C   UNL A   1      35.855  32.306  28.425  1.00  0.00     0.200 A 
ATOM    113  F   UNL A   1      37.283  34.147  28.804  1.00  0.00    -0.200 F 
ATOM    114  F   UNL A   1      34.848  33.132  28.114  1.00  0.00    -0.200 F 
ENDBRANCH  81 104
ENDBRANCH  55  56
ENDBRANCH  48  50
ENDBRANCH  47  48
ENDBRANCH  46  47
ENDBRANCH  45  46
ENDBRANCH  44  45
ENDBRANCH  43  44
ENDBRANCH  42  43
ENDBRANCH  41  42
ENDBRANCH  40  41
ENDBRANCH   1  40
TORSDOF 26
ENDMDL
