MODEL 1
REMARK VINA RESULT:      -9.9      0.000      0.000
REMARK SMILES C[C@@H]1[C@H](C(=O)OCCOCCOCCOCCOC(=O)c2ccc(-c3c4nc(c(-c5c(F)c(F)c(F)c(F)c5F)c5ccc([nH]5)c(-c5c(F)c(F)c(F)c(F)c5F)c5nc(c(-c6c(F)c(F)c(F)c(F)c6F)c6ccc3[nH]6)C=C5)C=C4)cc2)[C@@H](C)CC(=O)N1CC(C)(C)S(C)(=O)=O
REMARK SMILES IDX 11 1 10 2 9 3 8 4 7 5 6 6 4 7 5 8 3 9 1 10 2 11 89 12 84 13
REMARK SMILES IDX 87 14 86 15 85 16 88 17 90 18 91 19 92 20 93 21 94 22 95 23
REMARK SMILES IDX 96 24 97 25 12 26 13 27 14 28 15 29 16 30 17 31 18 32 19 33
REMARK SMILES IDX 20 34 21 35 22 36 83 37 23 38 82 39 24 40 25 41 26 42 76 43
REMARK SMILES IDX 27 44 81 45 75 46 77 47 28 48 80 49 74 50 73 51 29 53 61 54
REMARK SMILES IDX 41 55 60 56 42 57 45 58 59 59 78 60 43 61 44 62 58 64 79 65
REMARK SMILES IDX 46 66 30 67 31 68 39 69 32 70 33 71 37 72 40 73 34 74 35 75
REMARK SMILES IDX 38 76 36 77 62 78 63 79 71 80 64 81 65 82 69 83 72 84 66 85
REMARK SMILES IDX 67 86 70 87 68 88 47 89 48 90 56 91 49 92 50 93 54 94 57 95
REMARK SMILES IDX 51 96 52 97 55 98 53 99
REMARK H PARENT 77 52 45 63
REMARK Flexibility Score: inf
ROOT
ATOM      1  C   UNL A   1      33.797  33.121  28.823  1.00  0.00     0.188 C 
ENDROOT
BRANCH   1   2
ATOM      2  C   UNL A   1      34.105  32.018  27.805  1.00  0.00     0.188 C 
BRANCH   2   3
ATOM      3  O   UNL A   1      34.987  30.990  28.181  1.00  0.00    -0.376 OA
BRANCH   3   4
ATOM      4  C   UNL A   1      35.281  29.871  27.366  1.00  0.00     0.202 C 
BRANCH   4   5
ATOM      5  C   UNL A   1      34.301  28.806  26.839  1.00  0.00     0.261 C 
BRANCH   5   6
ATOM      6  O   UNL A   1      33.360  28.199  27.730  1.00  0.00    -0.463 OA
BRANCH   6   7
ATOM      7  C   UNL A   1      32.113  28.059  27.237  1.00  0.00     0.311 C 
ATOM      8  O   UNL A   1      31.106  28.107  27.940  1.00  0.00    -0.252 OA
BRANCH   7   9
ATOM      9  C   UNL A   1      32.010  27.758  25.745  1.00  0.00     0.125 C 
ATOM     10  C   UNL A   1      30.264  25.817  25.652  1.00  0.00     0.032 C 
ATOM     11  C   UNL A   1      31.636  26.343  25.224  1.00  0.00     0.096 C 
ATOM     12  N   UNL A   1      31.746  26.286  23.726  1.00  0.00    -0.338 N 
ATOM     13  C   UNL A   1      31.141  28.821  25.057  1.00  0.00     0.011 C 
ATOM     14  C   UNL A   1      31.282  27.346  22.949  1.00  0.00     0.223 C 
ATOM     15  C   UNL A   1      31.378  28.722  23.561  1.00  0.00     0.104 C 
ATOM     16  C   UNL A   1      31.469  30.261  25.481  1.00  0.00     0.009 C 
ATOM     17  O   UNL A   1      31.040  27.268  21.749  1.00  0.00    -0.275 OA
BRANCH  12  18
ATOM     18  C   UNL A   1      32.600  25.267  23.080  1.00  0.00     0.142 C 
BRANCH  18  19
ATOM     19  C   UNL A   1      32.641  23.756  23.481  1.00  0.00     0.084 C 
ATOM     20  C   UNL A   1      31.296  23.152  23.910  1.00  0.00     0.030 C 
ATOM     21  C   UNL A   1      33.074  22.970  22.214  1.00  0.00     0.030 C 
BRANCH  19  22
ATOM     22  S   UNL A   1      33.844  23.409  24.808  1.00  0.00     0.154 S 
ATOM     23  C   UNL A   1      35.212  24.516  24.547  1.00  0.00     0.158 C 
ATOM     24  O   UNL A   1      33.256  23.747  26.088  1.00  0.00    -0.229 OA
ATOM     25  O   UNL A   1      34.374  22.072  24.600  1.00  0.00    -0.229 OA
ENDBRANCH  19  22
ENDBRANCH  18  19
ENDBRANCH  12  18
ENDBRANCH   7   9
ENDBRANCH   6   7
ENDBRANCH   5   6
ENDBRANCH   4   5
ENDBRANCH   3   4
ENDBRANCH   2   3
ENDBRANCH   1   2
BRANCH   1  26
ATOM     26  O   UNL A   1      32.981  34.198  28.404  1.00  0.00    -0.377 OA
BRANCH  26  27
ATOM     27  C   UNL A   1      33.317  35.530  28.791  1.00  0.00     0.188 C 
BRANCH  27  28
ATOM     28  C   UNL A   1      32.880  36.103  30.155  1.00  0.00     0.188 C 
BRANCH  28  29
ATOM     29  O   UNL A   1      32.838  35.156  31.208  1.00  0.00    -0.376 OA
BRANCH  29  30
ATOM     30  C   UNL A   1      33.477  35.476  32.434  1.00  0.00     0.202 C 
BRANCH  30  31
ATOM     31  C   UNL A   1      34.882  34.902  32.668  1.00  0.00     0.261 C 
BRANCH  31  32
ATOM     32  O   UNL A   1      35.404  34.051  31.634  1.00  0.00    -0.460 OA
BRANCH  32  33
ATOM     33  C   UNL A   1      35.636  32.756  31.944  1.00  0.00     0.338 C 
ATOM     34  O   UNL A   1      34.839  31.943  32.362  1.00  0.00    -0.246 OA
BRANCH  33  35
ATOM     35  C   UNL A   1      37.010  32.430  31.508  1.00  0.00     0.060 A 
ATOM     36  C   UNL A   1      37.396  32.733  30.195  1.00  0.00     0.016 A 
ATOM     37  C   UNL A   1      37.901  31.812  32.386  1.00  0.00     0.016 A 
ATOM     38  C   UNL A   1      38.667  32.380  29.744  1.00  0.00     0.010 A 
ATOM     39  C   UNL A   1      39.166  31.439  31.926  1.00  0.00     0.010 A 
ATOM     40  C   UNL A   1      39.540  31.687  30.593  1.00  0.00    -0.014 A 
BRANCH  40  41
ATOM     41  C   UNL A   1      40.750  31.040  30.031  1.00  0.00     0.031 A 
ATOM     42  C   UNL A   1      42.005  31.860  29.914  1.00  0.00     0.074 A 
ATOM     43  C   UNL A   1      40.745  29.751  29.654  1.00  0.00     0.049 A 
ATOM     44  N   UNL A   1      43.165  31.542  29.399  1.00  0.00    -0.248 NA
ATOM     45  C   UNL A   1      41.939  33.230  30.449  1.00  0.00     0.031 C 
ATOM     46  C   UNL A   1      39.608  28.841  29.765  1.00  0.00     0.029 A 
ATOM     47  N   UNL A   1      41.735  28.987  29.085  1.00  0.00    -0.354 N 
ATOM     48  C   UNL A   1      43.961  32.672  29.540  1.00  0.00     0.074 A 
ATOM     49  C   UNL A   1      43.144  33.693  30.158  1.00  0.00     0.031 C 
ATOM     50  C   UNL A   1      39.959  27.643  29.266  1.00  0.00     0.029 A 
ATOM     51  C   UNL A   1      41.332  27.715  28.766  1.00  0.00     0.049 A 
ATOM     52  H   UNL A   1      42.647  29.321  28.924  1.00  0.00     0.167 HD
ATOM     53  C   UNL A   1      45.258  32.839  29.190  1.00  0.00     0.037 A 
ATOM     54  C   UNL A   1      41.989  26.734  28.115  1.00  0.00     0.037 A 
ATOM     55  C   UNL A   1      46.064  31.821  28.569  1.00  0.00     0.049 A 
ATOM     56  C   UNL A   1      43.407  26.975  27.655  1.00  0.00     0.074 A 
ATOM     57  C   UNL A   1      47.392  31.885  28.188  1.00  0.00     0.029 A 
ATOM     58  N   UNL A   1      45.609  30.555  28.227  1.00  0.00    -0.354 N 
ATOM     59  N   UNL A   1      44.162  28.035  27.812  1.00  0.00    -0.248 NA
ATOM     60  C   UNL A   1      44.062  25.878  26.928  1.00  0.00     0.031 C 
ATOM     61  C   UNL A   1      47.722  30.682  27.556  1.00  0.00     0.029 A 
ATOM     62  C   UNL A   1      46.623  29.840  27.610  1.00  0.00     0.049 A 
ATOM     63  H   UNL A   1      44.701  30.215  28.398  1.00  0.00     0.167 HD
ATOM     64  C   UNL A   1      45.388  27.722  27.235  1.00  0.00     0.074 A 
ATOM     65  C   UNL A   1      45.279  26.368  26.738  1.00  0.00     0.031 C 
ATOM     66  C   UNL A   1      46.503  28.486  27.129  1.00  0.00     0.037 A 
BRANCH  53  67
ATOM     67  C   UNL A   1      45.876  34.186  29.440  1.00  0.00     0.064 A 
ATOM     68  C   UNL A   1      45.837  35.209  28.481  1.00  0.00     0.173 A 
ATOM     69  C   UNL A   1      46.494  34.462  30.669  1.00  0.00     0.173 A 
ATOM     70  F   UNL A   1      45.272  34.992  27.284  1.00  0.00    -0.203 F 
ATOM     71  C   UNL A   1      46.421  36.448  28.731  1.00  0.00     0.198 A 
ATOM     72  C   UNL A   1      47.046  35.714  30.929  1.00  0.00     0.198 A 
ATOM     73  F   UNL A   1      46.558  33.522  31.622  1.00  0.00    -0.203 F 
ATOM     74  F   UNL A   1      46.420  37.392  27.780  1.00  0.00    -0.200 F 
ATOM     75  C   UNL A   1      47.018  36.702  29.957  1.00  0.00     0.200 A 
ATOM     76  F   UNL A   1      47.610  35.961  32.119  1.00  0.00    -0.200 F 
ATOM     77  F   UNL A   1      47.573  37.898  30.199  1.00  0.00    -0.200 F 
ENDBRANCH  53  67
BRANCH  54  78
ATOM     78  C   UNL A   1      41.315  25.436  27.842  1.00  0.00     0.064 A 
ATOM     79  C   UNL A   1      41.725  24.259  28.482  1.00  0.00     0.173 A 
ATOM     80  C   UNL A   1      40.266  25.341  26.916  1.00  0.00     0.173 A 
ATOM     81  F   UNL A   1      42.741  24.290  29.357  1.00  0.00    -0.203 F 
ATOM     82  C   UNL A   1      41.128  23.033  28.190  1.00  0.00     0.198 A 
ATOM     83  C   UNL A   1      39.647  24.122  26.649  1.00  0.00     0.198 A 
ATOM     84  F   UNL A   1      39.837  26.437  26.273  1.00  0.00    -0.203 F 
ATOM     85  F   UNL A   1      41.576  21.915  28.777  1.00  0.00    -0.200 F 
ATOM     86  C   UNL A   1      40.085  22.967  27.279  1.00  0.00     0.200 A 
ATOM     87  F   UNL A   1      38.631  24.066  25.778  1.00  0.00    -0.200 F 
ATOM     88  F   UNL A   1      39.509  21.790  27.001  1.00  0.00    -0.200 F 
ENDBRANCH  54  78
BRANCH  66  89
ATOM     89  C   UNL A   1      47.717  27.863  26.497  1.00  0.00     0.064 A 
ATOM     90  C   UNL A   1      48.738  27.281  27.263  1.00  0.00     0.173 A 
ATOM     91  C   UNL A   1      47.835  27.805  25.099  1.00  0.00     0.173 A 
ATOM     92  F   UNL A   1      48.682  27.318  28.604  1.00  0.00    -0.203 F 
ATOM     93  C   UNL A   1      49.844  26.692  26.655  1.00  0.00     0.198 A 
ATOM     94  C   UNL A   1      48.924  27.184  24.494  1.00  0.00     0.198 A 
ATOM     95  F   UNL A   1      46.883  28.336  24.317  1.00  0.00    -0.203 F 
ATOM     96  F   UNL A   1      50.833  26.190  27.408  1.00  0.00    -0.200 F 
ATOM     97  C   UNL A   1      49.931  26.636  25.272  1.00  0.00     0.200 A 
ATOM     98  F   UNL A   1      48.996  27.113  23.157  1.00  0.00    -0.200 F 
ATOM     99  F   UNL A   1      50.992  26.059  24.689  1.00  0.00    -0.200 F 
ENDBRANCH  66  89
ENDBRANCH  40  41
ENDBRANCH  33  35
ENDBRANCH  32  33
ENDBRANCH  31  32
ENDBRANCH  30  31
ENDBRANCH  29  30
ENDBRANCH  28  29
ENDBRANCH  27  28
ENDBRANCH  26  27
ENDBRANCH   1  26
TORSDOF 23
ENDMDL
MODEL 2
REMARK VINA RESULT:      -9.7      1.777      2.870
REMARK SMILES C[C@@H]1[C@H](C(=O)OCCOCCOCCOCCOC(=O)c2ccc(-c3c4nc(c(-c5c(F)c(F)c(F)c(F)c5F)c5ccc([nH]5)c(-c5c(F)c(F)c(F)c(F)c5F)c5nc(c(-c6c(F)c(F)c(F)c(F)c6F)c6ccc3[nH]6)C=C5)C=C4)cc2)[C@@H](C)CC(=O)N1CC(C)(C)S(C)(=O)=O
REMARK SMILES IDX 11 1 10 2 9 3 8 4 7 5 6 6 4 7 5 8 3 9 1 10 2 11 89 12 84 13
REMARK SMILES IDX 87 14 86 15 85 16 88 17 90 18 91 19 92 20 93 21 94 22 95 23
REMARK SMILES IDX 96 24 97 25 12 26 13 27 14 28 15 29 16 30 17 31 18 32 19 33
REMARK SMILES IDX 20 34 21 35 22 36 83 37 23 38 82 39 24 40 25 41 26 42 76 43
REMARK SMILES IDX 27 44 81 45 75 46 77 47 28 48 80 49 74 50 73 51 29 53 61 54
REMARK SMILES IDX 41 55 60 56 42 57 45 58 59 59 78 60 43 61 44 62 58 64 79 65
REMARK SMILES IDX 46 66 30 67 31 68 39 69 32 70 33 71 37 72 40 73 34 74 35 75
REMARK SMILES IDX 38 76 36 77 62 78 63 79 71 80 64 81 65 82 69 83 72 84 66 85
REMARK SMILES IDX 67 86 70 87 68 88 47 89 48 90 56 91 49 92 50 93 54 94 57 95
REMARK SMILES IDX 51 96 52 97 55 98 53 99
REMARK H PARENT 77 52 45 63
REMARK Flexibility Score: inf
ROOT
ATOM      1  C   UNL A   1      33.942  33.263  29.050  1.00  0.00     0.188 C 
ENDROOT
BRANCH   1   2
ATOM      2  C   UNL A   1      34.320  32.376  27.858  1.00  0.00     0.188 C 
BRANCH   2   3
ATOM      3  O   UNL A   1      34.833  31.093  28.118  1.00  0.00    -0.376 OA
BRANCH   3   4
ATOM      4  C   UNL A   1      34.606  29.974  27.282  1.00  0.00     0.202 C 
BRANCH   4   5
ATOM      5  C   UNL A   1      33.310  29.600  26.538  1.00  0.00     0.261 C 
BRANCH   5   6
ATOM      6  O   UNL A   1      33.333  29.404  25.121  1.00  0.00    -0.463 OA
BRANCH   6   7
ATOM      7  C   UNL A   1      33.058  28.149  24.713  1.00  0.00     0.311 C 
ATOM      8  O   UNL A   1      33.930  27.321  24.458  1.00  0.00    -0.252 OA
BRANCH   7   9
ATOM      9  C   UNL A   1      31.583  27.817  24.504  1.00  0.00     0.125 C 
ATOM     10  C   UNL A   1      31.490  27.081  22.000  1.00  0.00     0.032 C 
ATOM     11  C   UNL A   1      30.906  27.955  23.113  1.00  0.00     0.096 C 
ATOM     12  N   UNL A   1      29.428  27.706  23.218  1.00  0.00    -0.338 N 
ATOM     13  C   UNL A   1      31.266  26.443  25.112  1.00  0.00     0.011 C 
ATOM     14  C   UNL A   1      28.948  26.665  24.011  1.00  0.00     0.223 C 
ATOM     15  C   UNL A   1      29.758  26.324  25.237  1.00  0.00     0.104 C 
ATOM     16  C   UNL A   1      31.863  26.232  26.513  1.00  0.00     0.009 C 
ATOM     17  O   UNL A   1      27.821  26.191  23.919  1.00  0.00    -0.275 OA
BRANCH  12  18
ATOM     18  C   UNL A   1      28.466  28.720  22.737  1.00  0.00     0.142 C 
BRANCH  18  19
ATOM     19  C   UNL A   1      28.854  30.155  22.252  1.00  0.00     0.084 C 
ATOM     20  C   UNL A   1      30.312  30.327  21.803  1.00  0.00     0.030 C 
ATOM     21  C   UNL A   1      27.986  30.452  21.000  1.00  0.00     0.030 C 
BRANCH  19  22
ATOM     22  S   UNL A   1      28.511  31.440  23.502  1.00  0.00     0.154 S 
ATOM     23  C   UNL A   1      28.779  33.005  22.700  1.00  0.00     0.158 C 
ATOM     24  O   UNL A   1      27.113  31.382  23.877  1.00  0.00    -0.229 OA
ATOM     25  O   UNL A   1      29.529  31.347  24.535  1.00  0.00    -0.229 OA
ENDBRANCH  19  22
ENDBRANCH  18  19
ENDBRANCH  12  18
ENDBRANCH   7   9
ENDBRANCH   6   7
ENDBRANCH   5   6
ENDBRANCH   4   5
ENDBRANCH   3   4
ENDBRANCH   2   3
ENDBRANCH   1   2
BRANCH   1  26
ATOM     26  O   UNL A   1      32.981  34.279  28.839  1.00  0.00    -0.377 OA
BRANCH  26  27
ATOM     27  C   UNL A   1      33.280  35.623  29.216  1.00  0.00     0.188 C 
BRANCH  27  28
ATOM     28  C   UNL A   1      33.029  36.128  30.651  1.00  0.00     0.188 C 
BRANCH  28  29
ATOM     29  O   UNL A   1      33.180  35.145  31.659  1.00  0.00    -0.376 OA
BRANCH  29  30
ATOM     30  C   UNL A   1      33.919  35.476  32.824  1.00  0.00     0.202 C 
BRANCH  30  31
ATOM     31  C   UNL A   1      35.355  34.940  32.924  1.00  0.00     0.261 C 
BRANCH  31  32
ATOM     32  O   UNL A   1      35.769  34.030  31.893  1.00  0.00    -0.460 OA
BRANCH  32  33
ATOM     33  C   UNL A   1      36.076  32.765  32.258  1.00  0.00     0.338 C 
ATOM     34  O   UNL A   1      35.353  31.959  32.805  1.00  0.00    -0.246 OA
BRANCH  33  35
ATOM     35  C   UNL A   1      37.409  32.449  31.705  1.00  0.00     0.060 A 
ATOM     36  C   UNL A   1      37.672  32.736  30.359  1.00  0.00     0.016 A 
ATOM     37  C   UNL A   1      38.384  31.857  32.509  1.00  0.00     0.016 A 
ATOM     38  C   UNL A   1      38.902  32.392  29.800  1.00  0.00     0.010 A 
ATOM     39  C   UNL A   1      39.608  31.493  31.942  1.00  0.00     0.010 A 
ATOM     40  C   UNL A   1      39.857  31.724  30.577  1.00  0.00    -0.014 A 
BRANCH  40  41
ATOM     41  C   UNL A   1      41.021  31.084  29.919  1.00  0.00     0.031 A 
ATOM     42  C   UNL A   1      42.256  31.912  29.695  1.00  0.00     0.074 A 
ATOM     43  C   UNL A   1      40.994  29.793  29.547  1.00  0.00     0.049 A 
ATOM     44  N   UNL A   1      43.372  31.600  29.086  1.00  0.00    -0.248 NA
ATOM     45  C   UNL A   1      42.225  33.283  30.229  1.00  0.00     0.031 C 
ATOM     46  C   UNL A   1      39.877  28.875  29.755  1.00  0.00     0.029 A 
ATOM     47  N   UNL A   1      41.939  29.034  28.900  1.00  0.00    -0.354 N 
ATOM     48  C   UNL A   1      44.168  32.737  29.157  1.00  0.00     0.074 A 
ATOM     49  C   UNL A   1      43.398  33.754  29.837  1.00  0.00     0.031 C 
ATOM     50  C   UNL A   1      40.195  27.678  29.232  1.00  0.00     0.029 A 
ATOM     51  C   UNL A   1      41.521  27.759  28.619  1.00  0.00     0.049 A 
ATOM     52  H   UNL A   1      42.833  29.374  28.662  1.00  0.00     0.167 HD
ATOM     53  C   UNL A   1      45.431  32.912  28.700  1.00  0.00     0.037 A 
ATOM     54  C   UNL A   1      42.129  26.780  27.919  1.00  0.00     0.037 A 
ATOM     55  C   UNL A   1      46.189  31.897  28.017  1.00  0.00     0.049 A 
ATOM     56  C   UNL A   1      43.501  27.029  27.341  1.00  0.00     0.074 A 
ATOM     57  C   UNL A   1      47.480  31.970  27.527  1.00  0.00     0.029 A 
ATOM     58  N   UNL A   1      45.717  30.627  27.717  1.00  0.00    -0.354 N 
ATOM     59  N   UNL A   1      44.259  28.095  27.432  1.00  0.00    -0.248 NA
ATOM     60  C   UNL A   1      44.102  25.934  26.566  1.00  0.00     0.031 C 
ATOM     61  C   UNL A   1      47.766  30.767  26.873  1.00  0.00     0.029 A 
ATOM     62  C   UNL A   1      46.681  29.917  27.020  1.00  0.00     0.049 A 
ATOM     63  H   UNL A   1      44.829  30.281  27.965  1.00  0.00     0.167 HD
ATOM     64  C   UNL A   1      45.435  27.789  26.756  1.00  0.00     0.074 A 
ATOM     65  C   UNL A   1      45.295  26.432  26.274  1.00  0.00     0.031 C 
ATOM     66  C   UNL A   1      46.532  28.561  26.556  1.00  0.00     0.037 A 
BRANCH  53  67
ATOM     67  C   UNL A   1      46.057  34.264  28.893  1.00  0.00     0.064 A 
ATOM     68  C   UNL A   1      45.812  35.328  28.012  1.00  0.00     0.173 A 
ATOM     69  C   UNL A   1      46.896  34.503  29.992  1.00  0.00     0.173 A 
ATOM     70  F   UNL A   1      45.030  35.148  26.937  1.00  0.00    -0.203 F 
ATOM     71  C   UNL A   1      46.407  36.571  28.207  1.00  0.00     0.198 A 
ATOM     72  C   UNL A   1      47.461  35.758  30.204  1.00  0.00     0.198 A 
ATOM     73  F   UNL A   1      47.163  33.523  30.867  1.00  0.00    -0.203 F 
ATOM     74  F   UNL A   1      46.203  37.557  27.322  1.00  0.00    -0.200 F 
ATOM     75  C   UNL A   1      47.225  36.787  29.306  1.00  0.00     0.200 A 
ATOM     76  F   UNL A   1      48.240  35.968  31.274  1.00  0.00    -0.200 F 
ATOM     77  F   UNL A   1      47.791  37.988  29.496  1.00  0.00    -0.200 F 
ENDBRANCH  53  67
BRANCH  54  78
ATOM     78  C   UNL A   1      41.444  25.476  27.707  1.00  0.00     0.064 A 
ATOM     79  C   UNL A   1      41.866  24.319  28.376  1.00  0.00     0.173 A 
ATOM     80  C   UNL A   1      40.372  25.354  26.811  1.00  0.00     0.173 A 
ATOM     81  F   UNL A   1      42.905  24.376  29.223  1.00  0.00    -0.203 F 
ATOM     82  C   UNL A   1      41.258  23.087  28.140  1.00  0.00     0.198 A 
ATOM     83  C   UNL A   1      39.742  24.129  26.601  1.00  0.00     0.198 A 
ATOM     84  F   UNL A   1      39.930  26.430  26.142  1.00  0.00    -0.203 F 
ATOM     85  F   UNL A   1      41.717  21.987  28.753  1.00  0.00    -0.200 F 
ATOM     86  C   UNL A   1      40.192  22.995  27.258  1.00  0.00     0.200 A 
ATOM     87  F   UNL A   1      38.704  24.048  25.759  1.00  0.00    -0.200 F 
ATOM     88  F   UNL A   1      39.605  21.811  27.035  1.00  0.00    -0.200 F 
ENDBRANCH  54  78
BRANCH  66  89
ATOM     89  C   UNL A   1      47.693  27.944  25.826  1.00  0.00     0.064 A 
ATOM     90  C   UNL A   1      48.806  27.425  26.505  1.00  0.00     0.173 A 
ATOM     91  C   UNL A   1      47.668  27.827  24.427  1.00  0.00     0.173 A 
ATOM     92  F   UNL A   1      48.888  27.521  27.841  1.00  0.00    -0.203 F 
ATOM     93  C   UNL A   1      49.862  26.841  25.809  1.00  0.00     0.198 A 
ATOM     94  C   UNL A   1      48.708  27.209  23.738  1.00  0.00     0.198 A 
ATOM     95  F   UNL A   1      46.624  28.296  23.727  1.00  0.00    -0.203 F 
ATOM     96  F   UNL A   1      50.939  26.401  26.475  1.00  0.00    -0.200 F 
ATOM     97  C   UNL A   1      49.808  26.726  24.428  1.00  0.00     0.200 A 
ATOM     98  F   UNL A   1      48.644  27.081  22.405  1.00  0.00    -0.200 F 
ATOM     99  F   UNL A   1      50.820  26.153  23.762  1.00  0.00    -0.200 F 
ENDBRANCH  66  89
ENDBRANCH  40  41
ENDBRANCH  33  35
ENDBRANCH  32  33
ENDBRANCH  31  32
ENDBRANCH  30  31
ENDBRANCH  29  30
ENDBRANCH  28  29
ENDBRANCH  27  28
ENDBRANCH  26  27
ENDBRANCH   1  26
TORSDOF 23
ENDMDL
MODEL 3
REMARK VINA RESULT:      -9.7      2.539      7.731
REMARK SMILES C[C@@H]1[C@H](C(=O)OCCOCCOCCOCCOC(=O)c2ccc(-c3c4nc(c(-c5c(F)c(F)c(F)c(F)c5F)c5ccc([nH]5)c(-c5c(F)c(F)c(F)c(F)c5F)c5nc(c(-c6c(F)c(F)c(F)c(F)c6F)c6ccc3[nH]6)C=C5)C=C4)cc2)[C@@H](C)CC(=O)N1CC(C)(C)S(C)(=O)=O
REMARK SMILES IDX 11 1 10 2 9 3 8 4 7 5 6 6 4 7 5 8 3 9 1 10 2 11 89 12 84 13
REMARK SMILES IDX 87 14 86 15 85 16 88 17 90 18 91 19 92 20 93 21 94 22 95 23
REMARK SMILES IDX 96 24 97 25 12 26 13 27 14 28 15 29 16 30 17 31 18 32 19 33
REMARK SMILES IDX 20 34 21 35 22 36 83 37 23 38 82 39 24 40 25 41 26 42 76 43
REMARK SMILES IDX 27 44 81 45 75 46 77 47 28 48 80 49 74 50 73 51 29 53 61 54
REMARK SMILES IDX 41 55 60 56 42 57 45 58 59 59 78 60 43 61 44 62 58 64 79 65
REMARK SMILES IDX 46 66 30 67 31 68 39 69 32 70 33 71 37 72 40 73 34 74 35 75
REMARK SMILES IDX 38 76 36 77 62 78 63 79 71 80 64 81 65 82 69 83 72 84 66 85
REMARK SMILES IDX 67 86 70 87 68 88 47 89 48 90 56 91 49 92 50 93 54 94 57 95
REMARK SMILES IDX 51 96 52 97 55 98 53 99
REMARK H PARENT 77 52 45 63
REMARK Flexibility Score: inf
ROOT
ATOM      1  C   UNL A   1      31.686  32.765  26.562  1.00  0.00     0.188 C 
ENDROOT
BRANCH   1   2
ATOM      2  C   UNL A   1      31.913  31.273  26.833  1.00  0.00     0.188 C 
BRANCH   2   3
ATOM      3  O   UNL A   1      32.973  30.629  26.173  1.00  0.00    -0.376 OA
BRANCH   3   4
ATOM      4  C   UNL A   1      32.849  29.373  25.533  1.00  0.00     0.202 C 
BRANCH   4   5
ATOM      5  C   UNL A   1      33.165  29.027  24.065  1.00  0.00     0.261 C 
BRANCH   5   6
ATOM      6  O   UNL A   1      34.091  27.978  23.763  1.00  0.00    -0.463 OA
BRANCH   6   7
ATOM      7  C   UNL A   1      33.702  27.136  22.785  1.00  0.00     0.311 C 
ATOM      8  O   UNL A   1      33.726  27.438  21.593  1.00  0.00    -0.252 OA
BRANCH   7   9
ATOM      9  C   UNL A   1      33.149  25.788  23.237  1.00  0.00     0.125 C 
ATOM     10  C   UNL A   1      34.293  25.427  25.558  1.00  0.00     0.032 C 
ATOM     11  C   UNL A   1      33.954  24.852  24.180  1.00  0.00     0.096 C 
ATOM     12  N   UNL A   1      33.246  23.537  24.350  1.00  0.00    -0.338 N 
ATOM     13  C   UNL A   1      31.716  25.962  23.763  1.00  0.00     0.011 C 
ATOM     14  C   UNL A   1      31.864  23.504  24.519  1.00  0.00     0.223 C 
ATOM     15  C   UNL A   1      31.074  24.589  23.830  1.00  0.00     0.104 C 
ATOM     16  C   UNL A   1      30.830  26.843  22.868  1.00  0.00     0.009 C 
ATOM     17  O   UNL A   1      31.246  22.544  24.969  1.00  0.00    -0.275 OA
BRANCH  12  18
ATOM     18  C   UNL A   1      33.945  22.271  24.044  1.00  0.00     0.142 C 
BRANCH  18  19
ATOM     19  C   UNL A   1      35.011  21.597  24.969  1.00  0.00     0.084 C 
ATOM     20  C   UNL A   1      34.863  21.893  26.468  1.00  0.00     0.030 C 
ATOM     21  C   UNL A   1      34.825  20.063  24.819  1.00  0.00     0.030 C 
BRANCH  19  22
ATOM     22  S   UNL A   1      36.723  22.014  24.494  1.00  0.00     0.154 S 
ATOM     23  C   UNL A   1      37.309  23.179  25.704  1.00  0.00     0.158 C 
ATOM     24  O   UNL A   1      37.551  20.830  24.601  1.00  0.00    -0.229 OA
ATOM     25  O   UNL A   1      36.679  22.741  23.236  1.00  0.00    -0.229 OA
ENDBRANCH  19  22
ENDBRANCH  18  19
ENDBRANCH  12  18
ENDBRANCH   7   9
ENDBRANCH   6   7
ENDBRANCH   5   6
ENDBRANCH   4   5
ENDBRANCH   3   4
ENDBRANCH   2   3
ENDBRANCH   1   2
BRANCH   1  26
ATOM     26  O   UNL A   1      32.097  33.687  27.553  1.00  0.00    -0.377 OA
BRANCH  26  27
ATOM     27  C   UNL A   1      33.402  33.577  28.120  1.00  0.00     0.188 C 
BRANCH  27  28
ATOM     28  C   UNL A   1      33.823  34.428  29.335  1.00  0.00     0.188 C 
BRANCH  28  29
ATOM     29  O   UNL A   1      33.955  33.706  30.547  1.00  0.00    -0.376 OA
BRANCH  29  30
ATOM     30  C   UNL A   1      35.229  33.184  30.890  1.00  0.00     0.202 C 
BRANCH  30  31
ATOM     31  C   UNL A   1      35.499  31.708  30.560  1.00  0.00     0.261 C 
BRANCH  31  32
ATOM     32  O   UNL A   1      35.962  31.426  29.229  1.00  0.00    -0.460 OA
BRANCH  32  33
ATOM     33  C   UNL A   1      35.892  30.147  28.798  1.00  0.00     0.338 C 
ATOM     34  O   UNL A   1      34.913  29.557  28.394  1.00  0.00    -0.246 OA
BRANCH  33  35
ATOM     35  C   UNL A   1      37.273  29.624  28.722  1.00  0.00     0.060 A 
ATOM     36  C   UNL A   1      37.817  28.977  29.839  1.00  0.00     0.016 A 
ATOM     37  C   UNL A   1      38.027  29.791  27.559  1.00  0.00     0.016 A 
ATOM     38  C   UNL A   1      39.138  28.530  29.810  1.00  0.00     0.010 A 
ATOM     39  C   UNL A   1      39.356  29.362  27.540  1.00  0.00     0.010 A 
ATOM     40  C   UNL A   1      39.928  28.764  28.677  1.00  0.00    -0.014 A 
BRANCH  40  41
ATOM     41  C   UNL A   1      41.396  28.579  28.756  1.00  0.00     0.031 A 
ATOM     42  C   UNL A   1      41.977  27.281  28.266  1.00  0.00     0.074 A 
ATOM     43  C   UNL A   1      42.202  29.544  29.230  1.00  0.00     0.049 A 
ATOM     44  N   UNL A   1      43.215  26.858  28.289  1.00  0.00    -0.248 NA
ATOM     45  C   UNL A   1      41.026  26.328  27.670  1.00  0.00     0.031 C 
ATOM     46  C   UNL A   1      41.765  30.862  29.686  1.00  0.00     0.029 A 
ATOM     47  N   UNL A   1      43.562  29.556  29.417  1.00  0.00    -0.354 N 
ATOM     48  C   UNL A   1      43.189  25.590  27.722  1.00  0.00     0.074 A 
ATOM     49  C   UNL A   1      41.811  25.299  27.394  1.00  0.00     0.031 C 
ATOM     50  C   UNL A   1      42.837  31.550  30.116  1.00  0.00     0.029 A 
ATOM     51  C   UNL A   1      44.027  30.707  30.000  1.00  0.00     0.049 A 
ATOM     52  H   UNL A   1      44.148  28.808  29.156  1.00  0.00     0.167 HD
ATOM     53  C   UNL A   1      44.224  24.748  27.491  1.00  0.00     0.037 A 
ATOM     54  C   UNL A   1      45.267  31.029  30.419  1.00  0.00     0.037 A 
ATOM     55  C   UNL A   1      45.592  25.040  27.827  1.00  0.00     0.049 A 
ATOM     56  C   UNL A   1      46.389  30.036  30.232  1.00  0.00     0.074 A 
ATOM     57  C   UNL A   1      46.716  24.261  27.622  1.00  0.00     0.029 A 
ATOM     58  N   UNL A   1      46.020  26.204  28.451  1.00  0.00    -0.354 N 
ATOM     59  N   UNL A   1      46.365  28.850  29.674  1.00  0.00    -0.248 NA
ATOM     60  C   UNL A   1      47.714  30.432  30.734  1.00  0.00     0.031 C 
ATOM     61  C   UNL A   1      47.813  24.923  28.181  1.00  0.00     0.029 A 
ATOM     62  C   UNL A   1      47.387  26.149  28.667  1.00  0.00     0.049 A 
ATOM     63  H   UNL A   1      45.438  26.957  28.702  1.00  0.00     0.167 HD
ATOM     64  C   UNL A   1      47.670  28.373  29.726  1.00  0.00     0.074 A 
ATOM     65  C   UNL A   1      48.464  29.405  30.358  1.00  0.00     0.031 C 
ATOM     66  C   UNL A   1      48.167  27.190  29.288  1.00  0.00     0.037 A 
BRANCH  53  67
ATOM     67  C   UNL A   1      43.908  23.414  26.876  1.00  0.00     0.064 A 
ATOM     68  C   UNL A   1      43.193  22.427  27.571  1.00  0.00     0.173 A 
ATOM     69  C   UNL A   1      44.307  23.130  25.561  1.00  0.00     0.173 A 
ATOM     70  F   UNL A   1      42.802  22.641  28.837  1.00  0.00    -0.203 F 
ATOM     71  C   UNL A   1      42.917  21.195  26.984  1.00  0.00     0.198 A 
ATOM     72  C   UNL A   1      43.998  21.910  24.965  1.00  0.00     0.198 A 
ATOM     73  F   UNL A   1      44.992  24.037  24.849  1.00  0.00    -0.203 F 
ATOM     74  F   UNL A   1      42.280  20.247  27.686  1.00  0.00    -0.200 F 
ATOM     75  C   UNL A   1      43.312  20.940  25.679  1.00  0.00     0.200 A 
ATOM     76  F   UNL A   1      44.370  21.672  23.699  1.00  0.00    -0.200 F 
ATOM     77  F   UNL A   1      43.038  19.756  25.113  1.00  0.00    -0.200 F 
ENDBRANCH  53  67
BRANCH  54  78
ATOM     78  C   UNL A   1      45.519  32.341  31.074  1.00  0.00     0.064 A 
ATOM     79  C   UNL A   1      45.351  32.505  32.455  1.00  0.00     0.173 A 
ATOM     80  C   UNL A   1      45.904  33.464  30.328  1.00  0.00     0.173 A 
ATOM     81  F   UNL A   1      44.958  31.468  33.210  1.00  0.00    -0.203 F 
ATOM     82  C   UNL A   1      45.537  33.746  33.062  1.00  0.00     0.198 A 
ATOM     83  C   UNL A   1      46.123  34.697  30.939  1.00  0.00     0.198 A 
ATOM     84  F   UNL A   1      46.076  33.363  29.001  1.00  0.00    -0.203 F 
ATOM     85  F   UNL A   1      45.318  33.887  34.377  1.00  0.00    -0.200 F 
ATOM     86  C   UNL A   1      45.930  34.839  32.305  1.00  0.00     0.200 A 
ATOM     87  F   UNL A   1      46.515  35.746  30.206  1.00  0.00    -0.200 F 
ATOM     88  F   UNL A   1      46.113  36.031  32.890  1.00  0.00    -0.200 F 
ENDBRANCH  54  78
BRANCH  66  89
ATOM     89  C   UNL A   1      49.646  26.962  29.427  1.00  0.00     0.064 A 
ATOM     90  C   UNL A   1      50.561  27.409  28.463  1.00  0.00     0.173 A 
ATOM     91  C   UNL A   1      50.159  26.327  30.570  1.00  0.00     0.173 A 
ATOM     92  F   UNL A   1      50.125  28.012  27.346  1.00  0.00    -0.203 F 
ATOM     93  C   UNL A   1      51.930  27.204  28.622  1.00  0.00     0.198 A 
ATOM     94  C   UNL A   1      51.530  26.155  30.743  1.00  0.00     0.198 A 
ATOM     95  F   UNL A   1      49.332  25.887  31.530  1.00  0.00    -0.203 F 
ATOM     96  F   UNL A   1      52.781  27.592  27.662  1.00  0.00    -0.200 F 
ATOM     97  C   UNL A   1      52.413  26.585  29.766  1.00  0.00     0.200 A 
ATOM     98  F   UNL A   1      51.996  25.575  31.858  1.00  0.00    -0.200 F 
ATOM     99  F   UNL A   1      53.731  26.398  29.922  1.00  0.00    -0.200 F 
ENDBRANCH  66  89
ENDBRANCH  40  41
ENDBRANCH  33  35
ENDBRANCH  32  33
ENDBRANCH  31  32
ENDBRANCH  30  31
ENDBRANCH  29  30
ENDBRANCH  28  29
ENDBRANCH  27  28
ENDBRANCH  26  27
ENDBRANCH   1  26
TORSDOF 23
ENDMDL
