MODEL 1
REMARK VINA RESULT:     -10.4      0.000      0.000
REMARK SMILES CC(C)[C@H](NS(=O)(=O)c1cccc(F)c1)C(=O)OCCOCCOCCOCCOC(=O)c1ccc(-c2c3nc(c(-c4c(F)c(F)c(F)c(F)c4F)c4ccc([nH]4)c(-c4c(F)c(F)c(F)c(F)c4F)c4nc(c(-c5c(F)c(F)c(F)c(F)c5F)c5ccc2[nH]5)C=C4)C=C3)cc1
REMARK SMILES IDX 23 1 22 2 21 3 20 4 19 5 18 6 16 7 17 8 4 9 2 10 1 11 3 12
REMARK SMILES IDX 5 13 6 15 7 16 8 17 9 18 10 19 15 20 11 21 13 22 12 23 14 24
REMARK SMILES IDX 24 25 25 26 26 27 27 28 28 29 29 30 30 31 31 32 32 33 33 34
REMARK SMILES IDX 34 35 95 36 35 37 94 38 36 39 37 40 38 41 88 42 39 43 93 44
REMARK SMILES IDX 87 45 89 46 40 47 92 48 86 49 85 50 41 52 73 53 53 54 72 55
REMARK SMILES IDX 54 56 57 57 71 58 90 59 55 60 56 61 70 63 91 64 58 65 42 66
REMARK SMILES IDX 43 67 51 68 44 69 45 70 49 71 52 72 46 73 47 74 50 75 48 76
REMARK SMILES IDX 74 77 75 78 83 79 76 80 77 81 81 82 84 83 78 84 79 85 82 86
REMARK SMILES IDX 80 87 59 88 60 89 68 90 61 91 62 92 66 93 69 94 63 95 64 96
REMARK SMILES IDX 67 97 65 98
REMARK H PARENT 5 14 89 51 57 62
REMARK Flexibility Score: inf
ROOT
ATOM      1  C   UNL A   1      40.370  21.984  26.199  1.00  0.00     0.188 C 
ENDROOT
BRANCH   1   2
ATOM      2  C   UNL A   1      38.857  21.760  26.044  1.00  0.00     0.188 C 
BRANCH   2   3
ATOM      3  O   UNL A   1      38.008  22.742  25.462  1.00  0.00    -0.376 OA
BRANCH   3   4
ATOM      4  C   UNL A   1      37.094  22.415  24.427  1.00  0.00     0.202 C 
BRANCH   4   5
ATOM      5  C   UNL A   1      35.846  23.271  24.180  1.00  0.00     0.261 C 
BRANCH   5   6
ATOM      6  O   UNL A   1      35.377  23.338  22.824  1.00  0.00    -0.462 OA
BRANCH   6   7
ATOM      7  C   UNL A   1      34.023  23.281  22.678  1.00  0.00     0.324 C 
ATOM      8  O   UNL A   1      33.435  23.380  21.607  1.00  0.00    -0.250 OA
BRANCH   7   9
ATOM      9  C   UNL A   1      33.291  23.137  24.015  1.00  0.00     0.182 C 
BRANCH   9  10
ATOM     10  C   UNL A   1      32.069  22.214  23.882  1.00  0.00     0.012 C 
ATOM     11  C   UNL A   1      32.332  20.927  23.099  1.00  0.00     0.009 C 
ATOM     12  C   UNL A   1      31.534  21.897  25.284  1.00  0.00     0.009 C 
ENDBRANCH   9  10
BRANCH   9  13
ATOM     13  N   UNL A   1      32.994  24.431  24.655  1.00  0.00    -0.197 NA
ATOM     14  H   UNL A   1      33.802  24.634  25.246  1.00  0.00     0.142 HD
BRANCH  13  15
ATOM     15  S   UNL A   1      32.674  25.850  23.835  1.00  0.00     0.241 S 
ATOM     16  O   UNL A   1      33.967  26.294  23.372  1.00  0.00    -0.207 OA
ATOM     17  O   UNL A   1      31.583  25.625  22.909  1.00  0.00    -0.207 OA
BRANCH  15  18
ATOM     18  C   UNL A   1      32.107  27.095  24.978  1.00  0.00     0.085 A 
ATOM     19  C   UNL A   1      32.088  26.747  26.340  1.00  0.00     0.022 A 
ATOM     20  C   UNL A   1      31.796  28.398  24.600  1.00  0.00     0.061 A 
ATOM     21  C   UNL A   1      31.802  27.711  27.313  1.00  0.00     0.004 A 
ATOM     22  C   UNL A   1      31.532  29.350  25.580  1.00  0.00     0.124 A 
ATOM     23  C   UNL A   1      31.538  29.024  26.930  1.00  0.00     0.039 A 
ATOM     24  F   UNL A   1      31.289  30.614  25.210  1.00  0.00    -0.207 F 
ENDBRANCH  15  18
ENDBRANCH  13  15
ENDBRANCH   9  13
ENDBRANCH   7   9
ENDBRANCH   6   7
ENDBRANCH   5   6
ENDBRANCH   4   5
ENDBRANCH   3   4
ENDBRANCH   2   3
ENDBRANCH   1   2
BRANCH   1  25
ATOM     25  O   UNL A   1      40.914  21.527  27.423  1.00  0.00    -0.377 OA
BRANCH  25  26
ATOM     26  C   UNL A   1      42.012  20.624  27.302  1.00  0.00     0.188 C 
BRANCH  26  27
ATOM     27  C   UNL A   1      42.350  20.120  25.884  1.00  0.00     0.188 C 
BRANCH  27  28
ATOM     28  O   UNL A   1      43.697  20.383  25.495  1.00  0.00    -0.376 OA
BRANCH  28  29
ATOM     29  C   UNL A   1      44.178  21.711  25.688  1.00  0.00     0.202 C 
BRANCH  29  30
ATOM     30  C   UNL A   1      44.285  22.560  24.410  1.00  0.00     0.261 C 
BRANCH  30  31
ATOM     31  O   UNL A   1      43.610  23.829  24.460  1.00  0.00    -0.460 OA
BRANCH  31  32
ATOM     32  C   UNL A   1      44.283  24.865  24.998  1.00  0.00     0.338 C 
ATOM     33  O   UNL A   1      45.436  25.191  24.779  1.00  0.00    -0.246 OA
BRANCH  32  34
ATOM     34  C   UNL A   1      43.337  25.691  25.774  1.00  0.00     0.060 A 
ATOM     35  C   UNL A   1      43.668  27.033  25.996  1.00  0.00     0.016 A 
ATOM     36  C   UNL A   1      42.181  25.141  26.334  1.00  0.00     0.016 A 
ATOM     37  C   UNL A   1      42.898  27.803  26.863  1.00  0.00     0.010 A 
ATOM     38  C   UNL A   1      41.417  25.909  27.218  1.00  0.00     0.010 A 
ATOM     39  C   UNL A   1      41.816  27.220  27.534  1.00  0.00    -0.014 A 
BRANCH  39  40
ATOM     40  C   UNL A   1      41.314  27.879  28.764  1.00  0.00     0.031 A 
ATOM     41  C   UNL A   1      42.089  27.661  30.038  1.00  0.00     0.074 A 
ATOM     42  C   UNL A   1      40.260  28.710  28.745  1.00  0.00     0.049 A 
ATOM     43  N   UNL A   1      41.892  28.163  31.231  1.00  0.00    -0.248 NA
ATOM     44  C   UNL A   1      43.251  26.758  29.953  1.00  0.00     0.031 C 
ATOM     45  C   UNL A   1      39.462  29.036  27.567  1.00  0.00     0.029 A 
ATOM     46  N   UNL A   1      39.688  29.441  29.756  1.00  0.00    -0.354 N 
ATOM     47  C   UNL A   1      42.904  27.645  32.027  1.00  0.00     0.074 A 
ATOM     48  C   UNL A   1      43.693  26.760  31.199  1.00  0.00     0.031 C 
ATOM     49  C   UNL A   1      38.503  29.910  27.921  1.00  0.00     0.029 A 
ATOM     50  C   UNL A   1      38.610  30.188  29.354  1.00  0.00     0.049 A 
ATOM     51  H   UNL A   1      40.021  29.431  30.683  1.00  0.00     0.167 HD
ATOM     52  C   UNL A   1      43.166  27.896  33.330  1.00  0.00     0.037 A 
ATOM     53  C   UNL A   1      37.805  31.002  30.066  1.00  0.00     0.037 A 
ATOM     54  C   UNL A   1      42.382  28.771  34.155  1.00  0.00     0.049 A 
ATOM     55  C   UNL A   1      38.080  31.220  31.532  1.00  0.00     0.074 A 
ATOM     56  C   UNL A   1      42.551  29.075  35.494  1.00  0.00     0.029 A 
ATOM     57  N   UNL A   1      41.276  29.483  33.717  1.00  0.00    -0.354 N 
ATOM     58  N   UNL A   1      39.043  30.731  32.277  1.00  0.00    -0.248 NA
ATOM     59  C   UNL A   1      37.163  32.114  32.256  1.00  0.00     0.031 C 
ATOM     60  C   UNL A   1      41.525  29.942  35.876  1.00  0.00     0.029 A 
ATOM     61  C   UNL A   1      40.748  30.220  34.763  1.00  0.00     0.049 A 
ATOM     62  H   UNL A   1      40.920  29.467  32.799  1.00  0.00     0.167 HD
ATOM     63  C   UNL A   1      38.870  31.284  33.540  1.00  0.00     0.074 A 
ATOM     64  C   UNL A   1      37.711  32.148  33.463  1.00  0.00     0.031 C 
ATOM     65  C   UNL A   1      39.609  31.097  34.660  1.00  0.00     0.037 A 
BRANCH  52  66
ATOM     66  C   UNL A   1      44.343  27.204  33.947  1.00  0.00     0.064 A 
ATOM     67  C   UNL A   1      45.603  27.818  33.961  1.00  0.00     0.173 A 
ATOM     68  C   UNL A   1      44.234  25.912  34.485  1.00  0.00     0.173 A 
ATOM     69  F   UNL A   1      45.759  29.053  33.460  1.00  0.00    -0.203 F 
ATOM     70  C   UNL A   1      46.715  27.160  34.480  1.00  0.00     0.198 A 
ATOM     71  C   UNL A   1      45.343  25.267  35.027  1.00  0.00     0.198 A 
ATOM     72  F   UNL A   1      43.045  25.291  34.513  1.00  0.00    -0.203 F 
ATOM     73  F   UNL A   1      47.914  27.757  34.459  1.00  0.00    -0.200 F 
ATOM     74  C   UNL A   1      46.583  25.887  35.014  1.00  0.00     0.200 A 
ATOM     75  F   UNL A   1      45.208  24.049  35.567  1.00  0.00    -0.200 F 
ATOM     76  F   UNL A   1      47.651  25.259  35.524  1.00  0.00    -0.200 F 
ENDBRANCH  52  66
BRANCH  53  77
ATOM     77  C   UNL A   1      36.675  31.693  29.393  1.00  0.00     0.064 A 
ATOM     78  C   UNL A   1      36.701  33.076  29.163  1.00  0.00     0.173 A 
ATOM     79  C   UNL A   1      35.543  30.983  28.968  1.00  0.00     0.173 A 
ATOM     80  F   UNL A   1      37.761  33.801  29.548  1.00  0.00    -0.203 F 
ATOM     81  C   UNL A   1      35.632  33.724  28.547  1.00  0.00     0.198 A 
ATOM     82  C   UNL A   1      34.486  31.627  28.330  1.00  0.00     0.198 A 
ATOM     83  F   UNL A   1      35.482  29.654  29.144  1.00  0.00    -0.203 F 
ATOM     84  F   UNL A   1      35.672  35.051  28.362  1.00  0.00    -0.200 F 
ATOM     85  C   UNL A   1      34.528  32.999  28.126  1.00  0.00     0.200 A 
ATOM     86  F   UNL A   1      33.432  30.919  27.901  1.00  0.00    -0.200 F 
ATOM     87  F   UNL A   1      33.506  33.619  27.520  1.00  0.00    -0.200 F 
ENDBRANCH  53  77
BRANCH  65  88
ATOM     88  C   UNL A   1      39.233  31.871  35.889  1.00  0.00     0.064 A 
ATOM     89  C   UNL A   1      38.275  31.359  36.779  1.00  0.00     0.173 A 
ATOM     90  C   UNL A   1      39.747  33.151  36.141  1.00  0.00     0.173 A 
ATOM     91  F   UNL A   1      37.744  30.144  36.573  1.00  0.00    -0.203 F 
ATOM     92  C   UNL A   1      37.837  32.107  37.867  1.00  0.00     0.198 A 
ATOM     93  C   UNL A   1      39.326  33.884  37.247  1.00  0.00     0.198 A 
ATOM     94  F   UNL A   1      40.670  33.681  35.324  1.00  0.00    -0.203 F 
ATOM     95  F   UNL A   1      36.894  31.611  38.683  1.00  0.00    -0.200 F 
ATOM     96  C   UNL A   1      38.364  33.365  38.103  1.00  0.00     0.200 A 
ATOM     97  F   UNL A   1      39.852  35.093  37.486  1.00  0.00    -0.200 F 
ATOM     98  F   UNL A   1      37.948  34.082  39.157  1.00  0.00    -0.200 F 
ENDBRANCH  65  88
ENDBRANCH  39  40
ENDBRANCH  32  34
ENDBRANCH  31  32
ENDBRANCH  30  31
ENDBRANCH  29  30
ENDBRANCH  28  29
ENDBRANCH  27  28
ENDBRANCH  26  27
ENDBRANCH  25  26
ENDBRANCH   1  25
TORSDOF 24
ENDMDL
MODEL 2
REMARK VINA RESULT:     -10.2      4.762      7.215
REMARK SMILES CC(C)[C@H](NS(=O)(=O)c1cccc(F)c1)C(=O)OCCOCCOCCOCCOC(=O)c1ccc(-c2c3nc(c(-c4c(F)c(F)c(F)c(F)c4F)c4ccc([nH]4)c(-c4c(F)c(F)c(F)c(F)c4F)c4nc(c(-c5c(F)c(F)c(F)c(F)c5F)c5ccc2[nH]5)C=C4)C=C3)cc1
REMARK SMILES IDX 23 1 22 2 21 3 20 4 19 5 18 6 16 7 17 8 4 9 2 10 1 11 3 12
REMARK SMILES IDX 5 13 6 15 7 16 8 17 9 18 10 19 15 20 11 21 13 22 12 23 14 24
REMARK SMILES IDX 24 25 25 26 26 27 27 28 28 29 29 30 30 31 31 32 32 33 33 34
REMARK SMILES IDX 34 35 95 36 35 37 94 38 36 39 37 40 38 41 88 42 39 43 93 44
REMARK SMILES IDX 87 45 89 46 40 47 92 48 86 49 85 50 41 52 73 53 53 54 72 55
REMARK SMILES IDX 54 56 57 57 71 58 90 59 55 60 56 61 70 63 91 64 58 65 42 66
REMARK SMILES IDX 43 67 51 68 44 69 45 70 49 71 52 72 46 73 47 74 50 75 48 76
REMARK SMILES IDX 74 77 75 78 83 79 76 80 77 81 81 82 84 83 78 84 79 85 82 86
REMARK SMILES IDX 80 87 59 88 60 89 68 90 61 91 62 92 66 93 69 94 63 95 64 96
REMARK SMILES IDX 67 97 65 98
REMARK H PARENT 5 14 89 51 57 62
REMARK Flexibility Score: inf
ROOT
ATOM      1  C   UNL A   1      39.086  23.237  26.475  1.00  0.00     0.188 C 
ENDROOT
BRANCH   1   2
ATOM      2  C   UNL A   1      37.692  23.038  25.857  1.00  0.00     0.188 C 
BRANCH   2   3
ATOM      3  O   UNL A   1      37.487  22.211  24.717  1.00  0.00    -0.376 OA
BRANCH   3   4
ATOM      4  C   UNL A   1      36.926  20.914  24.832  1.00  0.00     0.202 C 
BRANCH   4   5
ATOM      5  C   UNL A   1      35.508  20.715  25.380  1.00  0.00     0.261 C 
BRANCH   5   6
ATOM      6  O   UNL A   1      34.467  20.534  24.406  1.00  0.00    -0.462 OA
BRANCH   6   7
ATOM      7  C   UNL A   1      33.230  20.948  24.800  1.00  0.00     0.324 C 
ATOM      8  O   UNL A   1      32.228  20.242  24.797  1.00  0.00    -0.250 OA
BRANCH   7   9
ATOM      9  C   UNL A   1      33.201  22.426  25.198  1.00  0.00     0.182 C 
BRANCH   9  10
ATOM     10  C   UNL A   1      32.493  22.623  26.548  1.00  0.00     0.012 C 
ATOM     11  C   UNL A   1      33.421  22.577  27.761  1.00  0.00     0.009 C 
ATOM     12  C   UNL A   1      31.714  23.944  26.509  1.00  0.00     0.009 C 
ENDBRANCH   9  10
BRANCH   9  13
ATOM     13  N   UNL A   1      32.700  23.305  24.127  1.00  0.00    -0.197 NA
ATOM     14  H   UNL A   1      32.125  24.005  24.596  1.00  0.00     0.142 HD
BRANCH  13  15
ATOM     15  S   UNL A   1      33.664  24.159  23.063  1.00  0.00     0.241 S 
ATOM     16  O   UNL A   1      34.996  23.662  23.313  1.00  0.00    -0.207 OA
ATOM     17  O   UNL A   1      33.077  24.099  21.741  1.00  0.00    -0.207 OA
BRANCH  15  18
ATOM     18  C   UNL A   1      33.688  25.882  23.519  1.00  0.00     0.085 A 
ATOM     19  C   UNL A   1      33.452  26.815  22.495  1.00  0.00     0.022 A 
ATOM     20  C   UNL A   1      33.818  26.326  24.832  1.00  0.00     0.061 A 
ATOM     21  C   UNL A   1      33.305  28.174  22.794  1.00  0.00     0.004 A 
ATOM     22  C   UNL A   1      33.651  27.677  25.117  1.00  0.00     0.124 A 
ATOM     23  C   UNL A   1      33.389  28.604  24.117  1.00  0.00     0.039 A 
ATOM     24  F   UNL A   1      33.721  28.087  26.390  1.00  0.00    -0.207 F 
ENDBRANCH  15  18
ENDBRANCH  13  15
ENDBRANCH   9  13
ENDBRANCH   7   9
ENDBRANCH   6   7
ENDBRANCH   5   6
ENDBRANCH   4   5
ENDBRANCH   3   4
ENDBRANCH   2   3
ENDBRANCH   1   2
BRANCH   1  25
ATOM     25  O   UNL A   1      39.676  22.062  26.997  1.00  0.00    -0.377 OA
BRANCH  25  26
ATOM     26  C   UNL A   1      40.637  21.436  26.149  1.00  0.00     0.188 C 
BRANCH  26  27
ATOM     27  C   UNL A   1      40.683  19.894  26.164  1.00  0.00     0.188 C 
BRANCH  27  28
ATOM     28  O   UNL A   1      41.782  19.352  25.432  1.00  0.00    -0.376 OA
BRANCH  28  29
ATOM     29  C   UNL A   1      42.637  18.447  26.128  1.00  0.00     0.202 C 
BRANCH  29  30
ATOM     30  C   UNL A   1      43.964  18.126  25.417  1.00  0.00     0.261 C 
BRANCH  30  31
ATOM     31  O   UNL A   1      44.247  18.930  24.259  1.00  0.00    -0.460 OA
BRANCH  31  32
ATOM     32  C   UNL A   1      45.299  19.770  24.333  1.00  0.00     0.338 C 
ATOM     33  O   UNL A   1      46.414  19.598  23.874  1.00  0.00    -0.246 OA
BRANCH  32  34
ATOM     34  C   UNL A   1      44.842  21.051  24.904  1.00  0.00     0.060 A 
ATOM     35  C   UNL A   1      44.601  22.113  24.023  1.00  0.00     0.016 A 
ATOM     36  C   UNL A   1      44.720  21.232  26.284  1.00  0.00     0.016 A 
ATOM     37  C   UNL A   1      44.337  23.384  24.524  1.00  0.00     0.010 A 
ATOM     38  C   UNL A   1      44.472  22.511  26.789  1.00  0.00     0.010 A 
ATOM     39  C   UNL A   1      44.348  23.601  25.908  1.00  0.00    -0.014 A 
BRANCH  39  40
ATOM     40  C   UNL A   1      44.535  24.987  26.400  1.00  0.00     0.031 A 
ATOM     41  C   UNL A   1      45.900  25.605  26.246  1.00  0.00     0.074 A 
ATOM     42  C   UNL A   1      43.515  25.709  26.891  1.00  0.00     0.049 A 
ATOM     43  N   UNL A   1      46.310  26.811  26.545  1.00  0.00    -0.248 NA
ATOM     44  C   UNL A   1      46.948  24.744  25.666  1.00  0.00     0.031 C 
ATOM     45  C   UNL A   1      42.142  25.238  27.045  1.00  0.00     0.029 A 
ATOM     46  N   UNL A   1      43.482  27.006  27.342  1.00  0.00    -0.354 N 
ATOM     47  C   UNL A   1      47.649  26.853  26.183  1.00  0.00     0.074 A 
ATOM     48  C   UNL A   1      48.000  25.545  25.679  1.00  0.00     0.031 C 
ATOM     49  C   UNL A   1      41.395  26.236  27.552  1.00  0.00     0.029 A 
ATOM     50  C   UNL A   1      42.243  27.407  27.774  1.00  0.00     0.049 A 
ATOM     51  H   UNL A   1      44.274  27.592  27.354  1.00  0.00     0.167 HD
ATOM     52  C   UNL A   1      48.510  27.894  26.249  1.00  0.00     0.037 A 
ATOM     53  C   UNL A   1      41.846  28.588  28.289  1.00  0.00     0.037 A 
ATOM     54  C   UNL A   1      48.165  29.194  26.754  1.00  0.00     0.049 A 
ATOM     55  C   UNL A   1      42.839  29.716  28.410  1.00  0.00     0.074 A 
ATOM     56  C   UNL A   1      48.971  30.311  26.884  1.00  0.00     0.029 A 
ATOM     57  N   UNL A   1      46.906  29.549  27.214  1.00  0.00    -0.354 N 
ATOM     58  N   UNL A   1      44.102  29.750  28.060  1.00  0.00    -0.248 NA
ATOM     59  C   UNL A   1      42.346  30.977  28.985  1.00  0.00     0.031 C 
ATOM     60  C   UNL A   1      48.210  31.332  27.458  1.00  0.00     0.029 A 
ATOM     61  C   UNL A   1      46.917  30.868  27.636  1.00  0.00     0.049 A 
ATOM     62  H   UNL A   1      46.123  28.954  27.237  1.00  0.00     0.167 HD
ATOM     63  C   UNL A   1      44.543  31.039  28.337  1.00  0.00     0.074 A 
ATOM     64  C   UNL A   1      43.412  31.759  28.883  1.00  0.00     0.031 C 
ATOM     65  C   UNL A   1      45.773  31.577  28.152  1.00  0.00     0.037 A 
BRANCH  52  66
ATOM     66  C   UNL A   1      49.913  27.666  25.775  1.00  0.00     0.064 A 
ATOM     67  C   UNL A   1      50.954  27.478  26.695  1.00  0.00     0.173 A 
ATOM     68  C   UNL A   1      50.235  27.677  24.409  1.00  0.00     0.173 A 
ATOM     69  F   UNL A   1      50.696  27.457  28.012  1.00  0.00    -0.203 F 
ATOM     70  C   UNL A   1      52.269  27.323  26.267  1.00  0.00     0.198 A 
ATOM     71  C   UNL A   1      51.548  27.496  23.983  1.00  0.00     0.198 A 
ATOM     72  F   UNL A   1      49.270  27.833  23.489  1.00  0.00    -0.203 F 
ATOM     73  F   UNL A   1      53.250  27.171  27.166  1.00  0.00    -0.200 F 
ATOM     74  C   UNL A   1      52.564  27.329  24.912  1.00  0.00     0.200 A 
ATOM     75  F   UNL A   1      51.828  27.475  22.673  1.00  0.00    -0.200 F 
ATOM     76  F   UNL A   1      53.829  27.168  24.501  1.00  0.00    -0.200 F 
ENDBRANCH  52  66
BRANCH  53  77
ATOM     77  C   UNL A   1      40.432  28.770  28.708  1.00  0.00     0.064 A 
ATOM     78  C   UNL A   1      40.041  28.590  30.043  1.00  0.00     0.173 A 
ATOM     79  C   UNL A   1      39.443  29.126  27.781  1.00  0.00     0.173 A 
ATOM     80  F   UNL A   1      40.950  28.251  30.969  1.00  0.00    -0.203 F 
ATOM     81  C   UNL A   1      38.712  28.745  30.431  1.00  0.00     0.198 A 
ATOM     82  C   UNL A   1      38.119  29.305  28.175  1.00  0.00     0.198 A 
ATOM     83  F   UNL A   1      39.772  29.334  26.498  1.00  0.00    -0.203 F 
ATOM     84  F   UNL A   1      38.361  28.542  31.708  1.00  0.00    -0.200 F 
ATOM     85  C   UNL A   1      37.753  29.108  29.498  1.00  0.00     0.200 A 
ATOM     86  F   UNL A   1      37.199  29.682  27.275  1.00  0.00    -0.200 F 
ATOM     87  F   UNL A   1      36.477  29.272  29.874  1.00  0.00    -0.200 F 
ENDBRANCH  53  77
BRANCH  65  88
ATOM     88  C   UNL A   1      45.965  33.027  28.486  1.00  0.00     0.064 A 
ATOM     89  C   UNL A   1      46.334  33.407  29.786  1.00  0.00     0.173 A 
ATOM     90  C   UNL A   1      45.698  34.041  27.555  1.00  0.00     0.173 A 
ATOM     91  F   UNL A   1      46.586  32.474  30.717  1.00  0.00    -0.203 F 
ATOM     92  C   UNL A   1      46.415  34.749  30.144  1.00  0.00     0.198 A 
ATOM     93  C   UNL A   1      45.808  35.383  27.910  1.00  0.00     0.198 A 
ATOM     94  F   UNL A   1      45.349  33.728  26.298  1.00  0.00    -0.203 F 
ATOM     95  F   UNL A   1      46.735  35.087  31.402  1.00  0.00    -0.200 F 
ATOM     96  C   UNL A   1      46.157  35.735  29.206  1.00  0.00     0.200 A 
ATOM     97  F   UNL A   1      45.578  36.335  26.997  1.00  0.00    -0.200 F 
ATOM     98  F   UNL A   1      46.243  37.028  29.549  1.00  0.00    -0.200 F 
ENDBRANCH  65  88
ENDBRANCH  39  40
ENDBRANCH  32  34
ENDBRANCH  31  32
ENDBRANCH  30  31
ENDBRANCH  29  30
ENDBRANCH  28  29
ENDBRANCH  27  28
ENDBRANCH  26  27
ENDBRANCH  25  26
ENDBRANCH   1  25
TORSDOF 24
ENDMDL
MODEL 3
REMARK VINA RESULT:     -10.1      4.177      5.751
REMARK SMILES CC(C)[C@H](NS(=O)(=O)c1cccc(F)c1)C(=O)OCCOCCOCCOCCOC(=O)c1ccc(-c2c3nc(c(-c4c(F)c(F)c(F)c(F)c4F)c4ccc([nH]4)c(-c4c(F)c(F)c(F)c(F)c4F)c4nc(c(-c5c(F)c(F)c(F)c(F)c5F)c5ccc2[nH]5)C=C4)C=C3)cc1
REMARK SMILES IDX 23 1 22 2 21 3 20 4 19 5 18 6 16 7 17 8 4 9 2 10 1 11 3 12
REMARK SMILES IDX 5 13 6 15 7 16 8 17 9 18 10 19 15 20 11 21 13 22 12 23 14 24
REMARK SMILES IDX 24 25 25 26 26 27 27 28 28 29 29 30 30 31 31 32 32 33 33 34
REMARK SMILES IDX 34 35 95 36 35 37 94 38 36 39 37 40 38 41 88 42 39 43 93 44
REMARK SMILES IDX 87 45 89 46 40 47 92 48 86 49 85 50 41 52 73 53 53 54 72 55
REMARK SMILES IDX 54 56 57 57 71 58 90 59 55 60 56 61 70 63 91 64 58 65 42 66
REMARK SMILES IDX 43 67 51 68 44 69 45 70 49 71 52 72 46 73 47 74 50 75 48 76
REMARK SMILES IDX 74 77 75 78 83 79 76 80 77 81 81 82 84 83 78 84 79 85 82 86
REMARK SMILES IDX 80 87 59 88 60 89 68 90 61 91 62 92 66 93 69 94 63 95 64 96
REMARK SMILES IDX 67 97 65 98
REMARK H PARENT 5 14 89 51 57 62
REMARK Flexibility Score: inf
ROOT
ATOM      1  C   UNL A   1      40.771  21.600  26.653  1.00  0.00     0.188 C 
ENDROOT
BRANCH   1   2
ATOM      2  C   UNL A   1      39.562  22.512  26.923  1.00  0.00     0.188 C 
BRANCH   2   3
ATOM      3  O   UNL A   1      38.865  23.168  25.870  1.00  0.00    -0.376 OA
BRANCH   3   4
ATOM      4  C   UNL A   1      37.791  24.055  26.132  1.00  0.00     0.202 C 
BRANCH   4   5
ATOM      5  C   UNL A   1      36.380  23.761  25.606  1.00  0.00     0.261 C 
BRANCH   5   6
ATOM      6  O   UNL A   1      36.261  22.673  24.675  1.00  0.00    -0.462 OA
BRANCH   6   7
ATOM      7  C   UNL A   1      35.713  23.001  23.471  1.00  0.00     0.324 C 
ATOM      8  O   UNL A   1      36.328  23.019  22.411  1.00  0.00    -0.250 OA
BRANCH   7   9
ATOM      9  C   UNL A   1      34.242  23.409  23.583  1.00  0.00     0.182 C 
BRANCH   9  10
ATOM     10  C   UNL A   1      33.379  22.238  24.079  1.00  0.00     0.012 C 
ATOM     11  C   UNL A   1      32.833  22.412  25.496  1.00  0.00     0.009 C 
ATOM     12  C   UNL A   1      32.236  22.010  23.081  1.00  0.00     0.009 C 
ENDBRANCH   9  10
BRANCH   9  13
ATOM     13  N   UNL A   1      33.727  24.057  22.364  1.00  0.00    -0.197 NA
ATOM     14  H   UNL A   1      32.976  23.451  22.030  1.00  0.00     0.142 HD
BRANCH  13  15
ATOM     15  S   UNL A   1      33.113  25.609  22.295  1.00  0.00     0.241 S 
ATOM     16  O   UNL A   1      34.261  26.434  22.005  1.00  0.00    -0.207 OA
ATOM     17  O   UNL A   1      31.947  25.618  21.436  1.00  0.00    -0.207 OA
BRANCH  15  18
ATOM     18  C   UNL A   1      32.545  26.107  23.910  1.00  0.00     0.085 A 
ATOM     19  C   UNL A   1      31.291  25.623  24.322  1.00  0.00     0.022 A 
ATOM     20  C   UNL A   1      33.320  26.845  24.800  1.00  0.00     0.061 A 
ATOM     21  C   UNL A   1      30.841  25.842  25.628  1.00  0.00     0.004 A 
ATOM     22  C   UNL A   1      32.868  27.039  26.102  1.00  0.00     0.124 A 
ATOM     23  C   UNL A   1      31.643  26.542  26.528  1.00  0.00     0.039 A 
ATOM     24  F   UNL A   1      33.645  27.701  26.969  1.00  0.00    -0.207 F 
ENDBRANCH  15  18
ENDBRANCH  13  15
ENDBRANCH   9  13
ENDBRANCH   7   9
ENDBRANCH   6   7
ENDBRANCH   5   6
ENDBRANCH   4   5
ENDBRANCH   3   4
ENDBRANCH   2   3
ENDBRANCH   1   2
BRANCH   1  25
ATOM     25  O   UNL A   1      41.212  20.854  27.771  1.00  0.00    -0.377 OA
BRANCH  25  26
ATOM     26  C   UNL A   1      41.902  19.645  27.462  1.00  0.00     0.188 C 
BRANCH  26  27
ATOM     27  C   UNL A   1      41.883  19.186  25.989  1.00  0.00     0.188 C 
BRANCH  27  28
ATOM     28  O   UNL A   1      42.792  18.120  25.715  1.00  0.00    -0.376 OA
BRANCH  28  29
ATOM     29  C   UNL A   1      44.148  18.477  25.457  1.00  0.00     0.202 C 
BRANCH  29  30
ATOM     30  C   UNL A   1      44.450  18.884  24.004  1.00  0.00     0.261 C 
BRANCH  30  31
ATOM     31  O   UNL A   1      44.689  20.287  23.799  1.00  0.00    -0.460 OA
BRANCH  31  32
ATOM     32  C   UNL A   1      45.617  20.876  24.578  1.00  0.00     0.338 C 
ATOM     33  O   UNL A   1      46.807  20.620  24.629  1.00  0.00    -0.246 OA
BRANCH  32  34
ATOM     34  C   UNL A   1      45.005  22.041  25.245  1.00  0.00     0.060 A 
ATOM     35  C   UNL A   1      44.864  23.222  24.504  1.00  0.00     0.016 A 
ATOM     36  C   UNL A   1      44.642  22.000  26.593  1.00  0.00     0.016 A 
ATOM     37  C   UNL A   1      44.455  24.392  25.136  1.00  0.00     0.010 A 
ATOM     38  C   UNL A   1      44.247  23.179  27.232  1.00  0.00     0.010 A 
ATOM     39  C   UNL A   1      44.219  24.390  26.517  1.00  0.00    -0.014 A 
BRANCH  39  40
ATOM     40  C   UNL A   1      44.249  25.685  27.237  1.00  0.00     0.031 A 
ATOM     41  C   UNL A   1      45.596  26.301  27.511  1.00  0.00     0.074 A 
ATOM     42  C   UNL A   1      43.124  26.341  27.566  1.00  0.00     0.049 A 
ATOM     43  N   UNL A   1      45.893  27.445  28.073  1.00  0.00    -0.248 NA
ATOM     44  C   UNL A   1      46.773  25.522  27.083  1.00  0.00     0.031 C 
ATOM     45  C   UNL A   1      41.766  25.871  27.311  1.00  0.00     0.029 A 
ATOM     46  N   UNL A   1      42.953  27.557  28.180  1.00  0.00    -0.354 N 
ATOM     47  C   UNL A   1      47.279  27.523  28.057  1.00  0.00     0.074 A 
ATOM     48  C   UNL A   1      47.772  26.299  27.468  1.00  0.00     0.031 C 
ATOM     49  C   UNL A   1      40.896  26.792  27.761  1.00  0.00     0.029 A 
ATOM     50  C   UNL A   1      41.637  27.907  28.352  1.00  0.00     0.049 A 
ATOM     51  H   UNL A   1      43.704  28.125  28.469  1.00  0.00     0.167 HD
ATOM     52  C   UNL A   1      48.073  28.531  28.482  1.00  0.00     0.037 A 
ATOM     53  C   UNL A   1      41.100  29.004  28.921  1.00  0.00     0.037 A 
ATOM     54  C   UNL A   1      47.587  29.747  29.072  1.00  0.00     0.049 A 
ATOM     55  C   UNL A   1      42.007  30.089  29.443  1.00  0.00     0.074 A 
ATOM     56  C   UNL A   1      48.311  30.822  29.555  1.00  0.00     0.029 A 
ATOM     57  N   UNL A   1      46.246  30.047  29.259  1.00  0.00    -0.354 N 
ATOM     58  N   UNL A   1      43.316  30.158  29.420  1.00  0.00    -0.248 NA
ATOM     59  C   UNL A   1      41.360  31.258  30.060  1.00  0.00     0.031 C 
ATOM     60  C   UNL A   1      47.410  31.757  30.070  1.00  0.00     0.029 A 
ATOM     61  C   UNL A   1      46.123  31.289  29.859  1.00  0.00     0.049 A 
ATOM     62  H   UNL A   1      45.494  29.465  29.004  1.00  0.00     0.167 HD
ATOM     63  C   UNL A   1      43.647  31.385  29.980  1.00  0.00     0.074 A 
ATOM     64  C   UNL A   1      42.401  32.033  30.334  1.00  0.00     0.031 C 
ATOM     65  C   UNL A   1      44.872  31.929  30.179  1.00  0.00     0.037 A 
BRANCH  52  66
ATOM     66  C   UNL A   1      49.554  28.357  28.334  1.00  0.00     0.064 A 
ATOM     67  C   UNL A   1      50.227  28.889  27.226  1.00  0.00     0.173 A 
ATOM     68  C   UNL A   1      50.302  27.625  29.270  1.00  0.00     0.173 A 
ATOM     69  F   UNL A   1      49.556  29.600  26.305  1.00  0.00    -0.203 F 
ATOM     70  C   UNL A   1      51.592  28.684  27.051  1.00  0.00     0.198 A 
ATOM     71  C   UNL A   1      51.672  27.444  29.105  1.00  0.00     0.198 A 
ATOM     72  F   UNL A   1      49.707  27.113  30.358  1.00  0.00    -0.203 F 
ATOM     73  F   UNL A   1      52.209  29.180  25.969  1.00  0.00    -0.200 F 
ATOM     74  C   UNL A   1      52.314  27.964  27.991  1.00  0.00     0.200 A 
ATOM     75  F   UNL A   1      52.373  26.771  30.028  1.00  0.00    -0.200 F 
ATOM     76  F   UNL A   1      53.630  27.777  27.827  1.00  0.00    -0.200 F 
ENDBRANCH  52  66
BRANCH  53  77
ATOM     77  C   UNL A   1      39.623  29.140  29.007  1.00  0.00     0.064 A 
ATOM     78  C   UNL A   1      38.860  29.494  27.884  1.00  0.00     0.173 A 
ATOM     79  C   UNL A   1      38.944  28.921  30.213  1.00  0.00     0.173 A 
ATOM     80  F   UNL A   1      39.460  29.712  26.705  1.00  0.00    -0.203 F 
ATOM     81  C   UNL A   1      37.476  29.638  27.971  1.00  0.00     0.198 A 
ATOM     82  C   UNL A   1      37.559  29.041  30.293  1.00  0.00     0.198 A 
ATOM     83  F   UNL A   1      39.628  28.557  31.308  1.00  0.00    -0.203 F 
ATOM     84  F   UNL A   1      36.774  30.002  26.889  1.00  0.00    -0.200 F 
ATOM     85  C   UNL A   1      36.826  29.406  29.173  1.00  0.00     0.200 A 
ATOM     86  F   UNL A   1      36.932  28.791  31.451  1.00  0.00    -0.200 F 
ATOM     87  F   UNL A   1      35.494  29.530  29.252  1.00  0.00    -0.200 F 
ENDBRANCH  53  77
BRANCH  65  88
ATOM     88  C   UNL A   1      44.944  33.311  30.758  1.00  0.00     0.064 A 
ATOM     89  C   UNL A   1      44.947  34.431  29.910  1.00  0.00     0.173 A 
ATOM     90  C   UNL A   1      45.098  33.528  32.135  1.00  0.00     0.173 A 
ATOM     91  F   UNL A   1      44.816  34.274  28.584  1.00  0.00    -0.203 F 
ATOM     92  C   UNL A   1      45.117  35.715  30.419  1.00  0.00     0.198 A 
ATOM     93  C   UNL A   1      45.240  34.817  32.643  1.00  0.00     0.198 A 
ATOM     94  F   UNL A   1      45.094  32.492  32.986  1.00  0.00    -0.203 F 
ATOM     95  F   UNL A   1      45.153  36.765  29.586  1.00  0.00    -0.200 F 
ATOM     96  C   UNL A   1      45.259  35.907  31.784  1.00  0.00     0.200 A 
ATOM     97  F   UNL A   1      45.357  35.004  33.964  1.00  0.00    -0.200 F 
ATOM     98  F   UNL A   1      45.414  37.145  32.275  1.00  0.00    -0.200 F 
ENDBRANCH  65  88
ENDBRANCH  39  40
ENDBRANCH  32  34
ENDBRANCH  31  32
ENDBRANCH  30  31
ENDBRANCH  29  30
ENDBRANCH  28  29
ENDBRANCH  27  28
ENDBRANCH  26  27
ENDBRANCH  25  26
ENDBRANCH   1  25
TORSDOF 24
ENDMDL
