MODEL 1
REMARK VINA RESULT:     -11.5      0.000      0.000
REMARK SMILES C[C@H]1[C@H](C(=O)OCCOCCOCCOCCOC(=O)c2ccc(-c3c4nc(c(-c5c(F)c(F)c(F)c(F)c5F)c5ccc([nH]5)c(-c5c(F)c(F)c(F)c(F)c5F)c5nc(c(-c6c(F)c(F)c(F)c(F)c6F)c6ccc3[nH]6)C=C5)C=C4)cc2)CC[N@@H+]1Cc1nnnn1-c1ccccc1
REMARK SMILES IDX 11 1 10 2 9 3 8 4 7 5 6 6 4 7 5 8 3 9 1 10 2 11 86 12 84 13
REMARK SMILES IDX 85 14 87 16 88 17 89 18 92 19 90 20 91 21 93 22 94 23 98 24
REMARK SMILES IDX 95 25 97 26 96 27 12 28 13 29 14 30 15 31 16 32 17 33 18 34
REMARK SMILES IDX 19 35 20 36 21 37 22 38 83 39 23 40 82 41 24 42 25 43 26 44
REMARK SMILES IDX 76 45 27 46 81 47 75 48 77 49 28 50 80 51 74 52 73 53 29 55
REMARK SMILES IDX 61 56 41 57 60 58 42 59 45 60 59 61 78 62 43 63 44 64 58 66
REMARK SMILES IDX 79 67 46 68 30 69 31 70 39 71 32 72 33 73 37 74 40 75 34 76
REMARK SMILES IDX 35 77 38 78 36 79 62 80 63 81 71 82 64 83 65 84 69 85 72 86
REMARK SMILES IDX 66 87 67 88 70 89 68 90 47 91 48 92 56 93 49 94 50 95 54 96
REMARK SMILES IDX 57 97 51 98 52 99 55 100 53 101
REMARK H PARENT 86 15 77 54 45 65
REMARK Flexibility Score: inf
ROOT
ATOM      1  C   UNL A   1      33.729  34.189  28.591  1.00  0.00     0.188 C 
ENDROOT
BRANCH   1   2
ATOM      2  C   UNL A   1      34.578  33.078  29.211  1.00  0.00     0.188 C 
BRANCH   2   3
ATOM      3  O   UNL A   1      34.360  31.729  28.843  1.00  0.00    -0.376 OA
BRANCH   3   4
ATOM      4  C   UNL A   1      34.160  31.307  27.505  1.00  0.00     0.202 C 
BRANCH   4   5
ATOM      5  C   UNL A   1      33.282  30.109  27.096  1.00  0.00     0.261 C 
BRANCH   5   6
ATOM      6  O   UNL A   1      33.728  29.350  25.958  1.00  0.00    -0.463 OA
BRANCH   6   7
ATOM      7  C   UNL A   1      32.995  28.273  25.612  1.00  0.00     0.315 C 
ATOM      8  O   UNL A   1      31.786  28.189  25.807  1.00  0.00    -0.252 OA
BRANCH   7   9
ATOM      9  C   UNL A   1      33.758  27.142  24.922  1.00  0.00     0.162 C 
ATOM     10  C   UNL A   1      34.785  24.872  25.354  1.00  0.00     0.076 C 
ATOM     11  C   UNL A   1      33.461  25.643  25.133  1.00  0.00     0.195 C 
ATOM     12  N   UNL A   1      32.913  25.128  23.880  1.00  0.00    -0.326 N 
ATOM     13  C   UNL A   1      33.637  27.346  23.418  1.00  0.00     0.083 C 
ATOM     14  C   UNL A   1      33.403  25.975  22.812  1.00  0.00     0.263 C 
ATOM     15  H   UNL A   1      33.268  24.192  23.687  1.00  0.00     0.348 HD
BRANCH  12  16
ATOM     16  C   UNL A   1      31.516  24.682  23.897  1.00  0.00     0.343 C 
BRANCH  16  17
ATOM     17  C   UNL A   1      30.777  24.680  25.196  1.00  0.00     0.210 A 
ATOM     18  N   UNL A   1      29.830  25.532  25.550  1.00  0.00    -0.107 NA
ATOM     19  N   UNL A   1      30.916  23.759  26.220  1.00  0.00    -0.192 N 
ATOM     20  N   UNL A   1      29.325  25.080  26.740  1.00  0.00    -0.023 NA
ATOM     21  N   UNL A   1      29.917  23.954  27.109  1.00  0.00    -0.040 NA
BRANCH  19  22
ATOM     22  C   UNL A   1      31.817  22.687  26.332  1.00  0.00     0.069 A 
ATOM     23  C   UNL A   1      31.869  21.742  25.301  1.00  0.00     0.028 A 
ATOM     24  C   UNL A   1      32.751  22.663  27.372  1.00  0.00     0.028 A 
ATOM     25  C   UNL A   1      32.966  20.884  25.229  1.00  0.00     0.002 A 
ATOM     26  C   UNL A   1      33.818  21.769  27.315  1.00  0.00     0.002 A 
ATOM     27  C   UNL A   1      33.948  20.912  26.222  1.00  0.00     0.000 A 
ENDBRANCH  19  22
ENDBRANCH  16  17
ENDBRANCH  12  16
ENDBRANCH   7   9
ENDBRANCH   6   7
ENDBRANCH   5   6
ENDBRANCH   4   5
ENDBRANCH   3   4
ENDBRANCH   2   3
ENDBRANCH   1   2
BRANCH   1  28
ATOM     28  O   UNL A   1      32.654  34.768  29.276  1.00  0.00    -0.377 OA
BRANCH  28  29
ATOM     29  C   UNL A   1      32.834  36.132  29.565  1.00  0.00     0.188 C 
BRANCH  29  30
ATOM     30  C   UNL A   1      32.902  36.347  31.069  1.00  0.00     0.188 C 
BRANCH  30  31
ATOM     31  O   UNL A   1      32.931  35.232  31.943  1.00  0.00    -0.376 OA
BRANCH  31  32
ATOM     32  C   UNL A   1      34.119  34.675  32.487  1.00  0.00     0.202 C 
BRANCH  32  33
ATOM     33  C   UNL A   1      34.243  33.357  33.292  1.00  0.00     0.261 C 
BRANCH  33  34
ATOM     34  O   UNL A   1      35.074  32.306  32.803  1.00  0.00    -0.460 OA
BRANCH  34  35
ATOM     35  C   UNL A   1      36.281  32.183  33.380  1.00  0.00     0.338 C 
ATOM     36  O   UNL A   1      36.612  32.551  34.495  1.00  0.00    -0.246 OA
BRANCH  35  37
ATOM     37  C   UNL A   1      37.125  31.360  32.491  1.00  0.00     0.060 A 
ATOM     38  C   UNL A   1      38.210  30.682  33.058  1.00  0.00     0.016 A 
ATOM     39  C   UNL A   1      36.858  31.253  31.122  1.00  0.00     0.016 A 
ATOM     40  C   UNL A   1      39.068  29.942  32.254  1.00  0.00     0.010 A 
ATOM     41  C   UNL A   1      37.743  30.540  30.306  1.00  0.00     0.010 A 
ATOM     42  C   UNL A   1      38.878  29.929  30.868  1.00  0.00    -0.014 A 
BRANCH  42  43
ATOM     43  C   UNL A   1      40.026  29.527  30.024  1.00  0.00     0.031 A 
ATOM     44  C   UNL A   1      41.126  30.532  29.818  1.00  0.00     0.074 A 
ATOM     45  C   UNL A   1      40.144  28.276  29.550  1.00  0.00     0.049 A 
ATOM     46  N   UNL A   1      42.263  30.409  29.181  1.00  0.00    -0.248 NA
ATOM     47  C   UNL A   1      40.917  31.861  30.420  1.00  0.00     0.031 C 
ATOM     48  C   UNL A   1      39.170  27.205  29.737  1.00  0.00     0.029 A 
ATOM     49  N   UNL A   1      41.152  27.697  28.823  1.00  0.00    -0.354 N 
ATOM     50  C   UNL A   1      42.898  31.638  29.309  1.00  0.00     0.074 A 
ATOM     51  C   UNL A   1      42.009  32.506  30.044  1.00  0.00     0.031 C 
ATOM     52  C   UNL A   1      39.627  26.093  29.135  1.00  0.00     0.029 A 
ATOM     53  C   UNL A   1      40.913  26.384  28.503  1.00  0.00     0.049 A 
ATOM     54  H   UNL A   1      41.969  28.177  28.555  1.00  0.00     0.167 HD
ATOM     55  C   UNL A   1      44.124  32.003  28.865  1.00  0.00     0.037 A 
ATOM     56  C   UNL A   1      41.651  25.526  27.771  1.00  0.00     0.037 A 
ATOM     57  C   UNL A   1      45.003  31.135  28.130  1.00  0.00     0.049 A 
ATOM     58  C   UNL A   1      42.978  25.983  27.220  1.00  0.00     0.074 A 
ATOM     59  C   UNL A   1      46.266  31.405  27.634  1.00  0.00     0.029 A 
ATOM     60  N   UNL A   1      44.705  29.826  27.780  1.00  0.00    -0.354 N 
ATOM     61  N   UNL A   1      43.585  27.138  27.359  1.00  0.00    -0.248 NA
ATOM     62  C   UNL A   1      43.731  25.008  26.418  1.00  0.00     0.031 C 
ATOM     63  C   UNL A   1      46.706  30.280  26.929  1.00  0.00     0.029 A 
ATOM     64  C   UNL A   1      45.749  29.284  27.048  1.00  0.00     0.049 A 
ATOM     65  H   UNL A   1      43.875  29.353  28.015  1.00  0.00     0.167 HD
ATOM     66  C   UNL A   1      44.800  27.018  26.696  1.00  0.00     0.074 A 
ATOM     67  C   UNL A   1      44.851  25.670  26.170  1.00  0.00     0.031 C 
ATOM     68  C   UNL A   1      45.786  27.936  26.537  1.00  0.00     0.037 A 
BRANCH  55  69
ATOM     69  C   UNL A   1      44.561  33.415  29.131  1.00  0.00     0.064 A 
ATOM     70  C   UNL A   1      45.238  33.774  30.308  1.00  0.00     0.173 A 
ATOM     71  C   UNL A   1      44.311  34.422  28.186  1.00  0.00     0.173 A 
ATOM     72  F   UNL A   1      45.483  32.855  31.253  1.00  0.00    -0.203 F 
ATOM     73  C   UNL A   1      45.620  35.092  30.540  1.00  0.00     0.198 A 
ATOM     74  C   UNL A   1      44.726  35.732  28.407  1.00  0.00     0.198 A 
ATOM     75  F   UNL A   1      43.667  34.135  27.045  1.00  0.00    -0.203 F 
ATOM     76  F   UNL A   1      46.215  35.423  31.696  1.00  0.00    -0.200 F 
ATOM     77  C   UNL A   1      45.373  36.069  29.587  1.00  0.00     0.200 A 
ATOM     78  F   UNL A   1      44.497  36.671  27.479  1.00  0.00    -0.200 F 
ATOM     79  F   UNL A   1      45.748  37.336  29.808  1.00  0.00    -0.200 F 
ENDBRANCH  55  69
BRANCH  56  80
ATOM     80  C   UNL A   1      41.152  24.150  27.509  1.00  0.00     0.064 A 
ATOM     81  C   UNL A   1      41.753  23.031  28.103  1.00  0.00     0.173 A 
ATOM     82  C   UNL A   1      40.083  23.923  26.629  1.00  0.00     0.173 A 
ATOM     83  F   UNL A   1      42.796  23.192  28.931  1.00  0.00    -0.203 F 
ATOM     84  C   UNL A   1      41.322  21.739  27.808  1.00  0.00     0.198 A 
ATOM     85  C   UNL A   1      39.631  22.633  26.360  1.00  0.00     0.198 A 
ATOM     86  F   UNL A   1      39.474  24.956  26.029  1.00  0.00    -0.203 F 
ATOM     87  F   UNL A   1      41.954  20.685  28.343  1.00  0.00    -0.200 F 
ATOM     88  C   UNL A   1      40.258  21.541  26.941  1.00  0.00     0.200 A 
ATOM     89  F   UNL A   1      38.596  22.447  25.529  1.00  0.00    -0.200 F 
ATOM     90  F   UNL A   1      39.845  20.299  26.655  1.00  0.00    -0.200 F 
ENDBRANCH  56  80
BRANCH  68  91
ATOM     91  C   UNL A   1      47.026  27.499  25.806  1.00  0.00     0.064 A 
ATOM     92  C   UNL A   1      48.098  26.878  26.466  1.00  0.00     0.173 A 
ATOM     93  C   UNL A   1      47.132  27.688  24.419  1.00  0.00     0.173 A 
ATOM     94  F   UNL A   1      48.052  26.683  27.792  1.00  0.00    -0.203 F 
ATOM     95  C   UNL A   1      49.245  26.503  25.772  1.00  0.00     0.198 A 
ATOM     96  C   UNL A   1      48.265  27.275  23.723  1.00  0.00     0.198 A 
ATOM     97  F   UNL A   1      46.133  28.264  23.735  1.00  0.00    -0.203 F 
ATOM     98  F   UNL A   1      50.283  25.974  26.435  1.00  0.00    -0.200 F 
ATOM     99  C   UNL A   1      49.325  26.696  24.401  1.00  0.00     0.200 A 
ATOM    100  F   UNL A   1      48.331  27.444  22.395  1.00  0.00    -0.200 F 
ATOM    101  F   UNL A   1      50.430  26.333  23.735  1.00  0.00    -0.200 F 
ENDBRANCH  68  91
ENDBRANCH  42  43
ENDBRANCH  35  37
ENDBRANCH  34  35
ENDBRANCH  33  34
ENDBRANCH  32  33
ENDBRANCH  31  32
ENDBRANCH  30  31
ENDBRANCH  29  30
ENDBRANCH  28  29
ENDBRANCH   1  28
TORSDOF 23
ENDMDL
MODEL 2
REMARK VINA RESULT:     -11.1      5.519     10.977
REMARK SMILES C[C@H]1[C@H](C(=O)OCCOCCOCCOCCOC(=O)c2ccc(-c3c4nc(c(-c5c(F)c(F)c(F)c(F)c5F)c5ccc([nH]5)c(-c5c(F)c(F)c(F)c(F)c5F)c5nc(c(-c6c(F)c(F)c(F)c(F)c6F)c6ccc3[nH]6)C=C5)C=C4)cc2)CC[N@@H+]1Cc1nnnn1-c1ccccc1
REMARK SMILES IDX 11 1 10 2 9 3 8 4 7 5 6 6 4 7 5 8 3 9 1 10 2 11 86 12 84 13
REMARK SMILES IDX 85 14 87 16 88 17 89 18 92 19 90 20 91 21 93 22 94 23 98 24
REMARK SMILES IDX 95 25 97 26 96 27 12 28 13 29 14 30 15 31 16 32 17 33 18 34
REMARK SMILES IDX 19 35 20 36 21 37 22 38 83 39 23 40 82 41 24 42 25 43 26 44
REMARK SMILES IDX 76 45 27 46 81 47 75 48 77 49 28 50 80 51 74 52 73 53 29 55
REMARK SMILES IDX 61 56 41 57 60 58 42 59 45 60 59 61 78 62 43 63 44 64 58 66
REMARK SMILES IDX 79 67 46 68 30 69 31 70 39 71 32 72 33 73 37 74 40 75 34 76
REMARK SMILES IDX 35 77 38 78 36 79 62 80 63 81 71 82 64 83 65 84 69 85 72 86
REMARK SMILES IDX 66 87 67 88 70 89 68 90 47 91 48 92 56 93 49 94 50 95 54 96
REMARK SMILES IDX 57 97 51 98 52 99 55 100 53 101
REMARK H PARENT 86 15 77 54 45 65
REMARK Flexibility Score: inf
ROOT
ATOM      1  C   UNL A   1      42.156  19.890  26.093  1.00  0.00     0.188 C 
ENDROOT
BRANCH   1   2
ATOM      2  C   UNL A   1      40.649  20.148  26.104  1.00  0.00     0.188 C 
BRANCH   2   3
ATOM      3  O   UNL A   1      40.156  21.473  26.177  1.00  0.00    -0.376 OA
BRANCH   3   4
ATOM      4  C   UNL A   1      38.792  21.810  25.994  1.00  0.00     0.202 C 
BRANCH   4   5
ATOM      5  C   UNL A   1      37.795  20.972  25.170  1.00  0.00     0.261 C 
BRANCH   5   6
ATOM      6  O   UNL A   1      36.695  21.688  24.581  1.00  0.00    -0.463 OA
BRANCH   6   7
ATOM      7  C   UNL A   1      35.462  21.416  25.052  1.00  0.00     0.315 C 
ATOM      8  O   UNL A   1      34.946  20.304  24.991  1.00  0.00    -0.252 OA
BRANCH   7   9
ATOM      9  C   UNL A   1      34.727  22.585  25.710  1.00  0.00     0.162 C 
ATOM     10  C   UNL A   1      34.594  25.109  25.719  1.00  0.00     0.076 C 
ATOM     11  C   UNL A   1      34.212  23.822  24.948  1.00  0.00     0.195 C 
ATOM     12  N   UNL A   1      32.752  23.771  24.973  1.00  0.00    -0.326 N 
ATOM     13  C   UNL A   1      33.494  22.027  26.410  1.00  0.00     0.083 C 
ATOM     14  C   UNL A   1      32.365  23.001  26.138  1.00  0.00     0.263 C 
ATOM     15  H   UNL A   1      32.358  24.703  25.104  1.00  0.00     0.348 HD
BRANCH  12  16
ATOM     16  C   UNL A   1      32.070  23.575  23.690  1.00  0.00     0.343 C 
BRANCH  16  17
ATOM     17  C   UNL A   1      32.552  24.333  22.495  1.00  0.00     0.210 A 
ATOM     18  N   UNL A   1      33.144  23.813  21.434  1.00  0.00    -0.107 NA
ATOM     19  N   UNL A   1      32.411  25.692  22.272  1.00  0.00    -0.192 N 
ATOM     20  N   UNL A   1      33.279  24.829  20.527  1.00  0.00    -0.023 NA
ATOM     21  N   UNL A   1      32.754  25.952  20.992  1.00  0.00    -0.040 NA
BRANCH  19  22
ATOM     22  C   UNL A   1      31.880  26.679  23.119  1.00  0.00     0.069 A 
ATOM     23  C   UNL A   1      32.733  27.315  24.028  1.00  0.00     0.028 A 
ATOM     24  C   UNL A   1      30.567  27.126  22.938  1.00  0.00     0.028 A 
ATOM     25  C   UNL A   1      32.316  28.506  24.623  1.00  0.00     0.002 A 
ATOM     26  C   UNL A   1      30.145  28.291  23.575  1.00  0.00     0.002 A 
ATOM     27  C   UNL A   1      31.034  29.003  24.380  1.00  0.00     0.000 A 
ENDBRANCH  19  22
ENDBRANCH  16  17
ENDBRANCH  12  16
ENDBRANCH   7   9
ENDBRANCH   6   7
ENDBRANCH   5   6
ENDBRANCH   4   5
ENDBRANCH   3   4
ENDBRANCH   2   3
ENDBRANCH   1   2
BRANCH   1  28
ATOM     28  O   UNL A   1      42.772  19.145  25.080  1.00  0.00    -0.377 OA
BRANCH  28  29
ATOM     29  C   UNL A   1      44.115  18.827  25.345  1.00  0.00     0.188 C 
BRANCH  29  30
ATOM     30  C   UNL A   1      45.027  19.523  24.346  1.00  0.00     0.188 C 
BRANCH  30  31
ATOM     31  O   UNL A   1      45.272  20.914  24.460  1.00  0.00    -0.376 OA
BRANCH  31  32
ATOM     32  C   UNL A   1      45.846  21.532  25.603  1.00  0.00     0.202 C 
BRANCH  32  33
ATOM     33  C   UNL A   1      45.418  22.875  26.247  1.00  0.00     0.261 C 
BRANCH  33  34
ATOM     34  O   UNL A   1      45.106  23.990  25.414  1.00  0.00    -0.460 OA
BRANCH  34  35
ATOM     35  C   UNL A   1      43.863  24.026  24.906  1.00  0.00     0.338 C 
ATOM     36  O   UNL A   1      43.405  23.329  24.015  1.00  0.00    -0.246 OA
BRANCH  35  37
ATOM     37  C   UNL A   1      43.065  24.955  25.731  1.00  0.00     0.060 A 
ATOM     38  C   UNL A   1      43.598  26.221  25.996  1.00  0.00     0.016 A 
ATOM     39  C   UNL A   1      41.813  24.591  26.238  1.00  0.00     0.016 A 
ATOM     40  C   UNL A   1      42.913  27.109  26.816  1.00  0.00     0.010 A 
ATOM     41  C   UNL A   1      41.140  25.469  27.094  1.00  0.00     0.010 A 
ATOM     42  C   UNL A   1      41.718  26.709  27.424  1.00  0.00    -0.014 A 
BRANCH  42  43
ATOM     43  C   UNL A   1      41.263  27.474  28.607  1.00  0.00     0.031 A 
ATOM     44  C   UNL A   1      42.078  27.361  29.867  1.00  0.00     0.074 A 
ATOM     45  C   UNL A   1      40.228  28.326  28.535  1.00  0.00     0.049 A 
ATOM     46  N   UNL A   1      41.933  27.975  31.013  1.00  0.00    -0.248 NA
ATOM     47  C   UNL A   1      43.221  26.432  29.824  1.00  0.00     0.031 C 
ATOM     48  C   UNL A   1      39.404  28.559  27.352  1.00  0.00     0.029 A 
ATOM     49  N   UNL A   1      39.707  29.167  29.484  1.00  0.00    -0.354 N 
ATOM     50  C   UNL A   1      42.962  27.507  31.821  1.00  0.00     0.074 A 
ATOM     51  C   UNL A   1      43.699  26.530  31.053  1.00  0.00     0.031 C 
ATOM     52  C   UNL A   1      38.474  29.484  27.647  1.00  0.00     0.029 A 
ATOM     53  C   UNL A   1      38.625  29.888  29.044  1.00  0.00     0.049 A 
ATOM     54  H   UNL A   1      40.073  29.246  30.395  1.00  0.00     0.167 HD
ATOM     55  C   UNL A   1      43.274  27.873  33.086  1.00  0.00     0.037 A 
ATOM     56  C   UNL A   1      37.845  30.764  29.706  1.00  0.00     0.037 A 
ATOM     57  C   UNL A   1      42.535  28.843  33.847  1.00  0.00     0.049 A 
ATOM     58  C   UNL A   1      38.166  31.095  31.142  1.00  0.00     0.074 A 
ATOM     59  C   UNL A   1      42.766  29.287  35.136  1.00  0.00     0.029 A 
ATOM     60  N   UNL A   1      41.412  29.516  33.385  1.00  0.00    -0.354 N 
ATOM     61  N   UNL A   1      39.151  30.667  31.896  1.00  0.00    -0.248 NA
ATOM     62  C   UNL A   1      37.271  32.047  31.816  1.00  0.00     0.031 C 
ATOM     63  C   UNL A   1      41.746  30.182  35.477  1.00  0.00     0.029 A 
ATOM     64  C   UNL A   1      40.922  30.351  34.375  1.00  0.00     0.049 A 
ATOM     65  H   UNL A   1      41.021  29.414  32.487  1.00  0.00     0.167 HD
ATOM     66  C   UNL A   1      39.015  31.319  33.115  1.00  0.00     0.074 A 
ATOM     67  C   UNL A   1      37.862  32.187  32.993  1.00  0.00     0.031 C 
ATOM     68  C   UNL A   1      39.775  31.213  34.234  1.00  0.00     0.037 A 
BRANCH  55  69
ATOM     69  C   UNL A   1      44.443  27.187  33.734  1.00  0.00     0.064 A 
ATOM     70  C   UNL A   1      44.303  25.973  34.424  1.00  0.00     0.173 A 
ATOM     71  C   UNL A   1      45.726  27.748  33.650  1.00  0.00     0.173 A 
ATOM     72  F   UNL A   1      43.095  25.404  34.552  1.00  0.00    -0.203 F 
ATOM     73  C   UNL A   1      45.398  25.363  35.030  1.00  0.00     0.198 A 
ATOM     74  C   UNL A   1      46.825  27.118  34.228  1.00  0.00     0.198 A 
ATOM     75  F   UNL A   1      45.917  28.908  33.003  1.00  0.00    -0.203 F 
ATOM     76  F   UNL A   1      45.231  24.233  35.732  1.00  0.00    -0.200 F 
ATOM     77  C   UNL A   1      46.659  25.930  34.924  1.00  0.00     0.200 A 
ATOM     78  F   UNL A   1      48.044  27.662  34.113  1.00  0.00    -0.200 F 
ATOM     79  F   UNL A   1      47.714  25.339  35.502  1.00  0.00    -0.200 F 
ENDBRANCH  55  69
BRANCH  56  80
ATOM     80  C   UNL A   1      36.678  31.387  29.025  1.00  0.00     0.064 A 
ATOM     81  C   UNL A   1      36.659  32.754  28.716  1.00  0.00     0.173 A 
ATOM     82  C   UNL A   1      35.541  30.630  28.701  1.00  0.00     0.173 A 
ATOM     83  F   UNL A   1      37.710  33.526  29.030  1.00  0.00    -0.203 F 
ATOM     84  C   UNL A   1      35.540  33.346  28.133  1.00  0.00     0.198 A 
ATOM     85  C   UNL A   1      34.436  31.216  28.087  1.00  0.00     0.198 A 
ATOM     86  F   UNL A   1      35.504  29.319  28.979  1.00  0.00    -0.203 F 
ATOM     87  F   UNL A   1      35.525  34.665  27.903  1.00  0.00    -0.200 F 
ATOM     88  C   UNL A   1      34.431  32.575  27.814  1.00  0.00     0.200 A 
ATOM     89  F   UNL A   1      33.371  30.466  27.772  1.00  0.00    -0.200 F 
ATOM     90  F   UNL A   1      33.354  33.145  27.256  1.00  0.00    -0.200 F 
ENDBRANCH  56  80
BRANCH  68  91
ATOM     91  C   UNL A   1      39.414  32.093  35.400  1.00  0.00     0.064 A 
ATOM     92  C   UNL A   1      38.537  31.668  36.409  1.00  0.00     0.173 A 
ATOM     93  C   UNL A   1      39.974  33.376  35.516  1.00  0.00     0.173 A 
ATOM     94  F   UNL A   1      37.967  30.455  36.341  1.00  0.00    -0.203 F 
ATOM     95  C   UNL A   1      38.200  32.509  37.466  1.00  0.00     0.198 A 
ATOM     96  C   UNL A   1      39.665  34.198  36.597  1.00  0.00     0.198 A 
ATOM     97  F   UNL A   1      40.829  33.830  34.588  1.00  0.00    -0.203 F 
ATOM     98  F   UNL A   1      37.308  32.106  38.381  1.00  0.00    -0.200 F 
ATOM     99  C   UNL A   1      38.768  33.771  37.562  1.00  0.00     0.200 A 
ATOM    100  F   UNL A   1      40.232  35.409  36.697  1.00  0.00    -0.200 F 
ATOM    101  F   UNL A   1      38.444  34.577  38.582  1.00  0.00    -0.200 F 
ENDBRANCH  68  91
ENDBRANCH  42  43
ENDBRANCH  35  37
ENDBRANCH  34  35
ENDBRANCH  33  34
ENDBRANCH  32  33
ENDBRANCH  31  32
ENDBRANCH  30  31
ENDBRANCH  29  30
ENDBRANCH  28  29
ENDBRANCH   1  28
TORSDOF 23
ENDMDL
MODEL 3
REMARK VINA RESULT:     -11.0      1.076      7.088
REMARK SMILES C[C@H]1[C@H](C(=O)OCCOCCOCCOCCOC(=O)c2ccc(-c3c4nc(c(-c5c(F)c(F)c(F)c(F)c5F)c5ccc([nH]5)c(-c5c(F)c(F)c(F)c(F)c5F)c5nc(c(-c6c(F)c(F)c(F)c(F)c6F)c6ccc3[nH]6)C=C5)C=C4)cc2)CC[N@@H+]1Cc1nnnn1-c1ccccc1
REMARK SMILES IDX 11 1 10 2 9 3 8 4 7 5 6 6 4 7 5 8 3 9 1 10 2 11 86 12 84 13
REMARK SMILES IDX 85 14 87 16 88 17 89 18 92 19 90 20 91 21 93 22 94 23 98 24
REMARK SMILES IDX 95 25 97 26 96 27 12 28 13 29 14 30 15 31 16 32 17 33 18 34
REMARK SMILES IDX 19 35 20 36 21 37 22 38 83 39 23 40 82 41 24 42 25 43 26 44
REMARK SMILES IDX 76 45 27 46 81 47 75 48 77 49 28 50 80 51 74 52 73 53 29 55
REMARK SMILES IDX 61 56 41 57 60 58 42 59 45 60 59 61 78 62 43 63 44 64 58 66
REMARK SMILES IDX 79 67 46 68 30 69 31 70 39 71 32 72 33 73 37 74 40 75 34 76
REMARK SMILES IDX 35 77 38 78 36 79 62 80 63 81 71 82 64 83 65 84 69 85 72 86
REMARK SMILES IDX 66 87 67 88 70 89 68 90 47 91 48 92 56 93 49 94 50 95 54 96
REMARK SMILES IDX 57 97 51 98 52 99 55 100 53 101
REMARK H PARENT 86 15 77 54 45 65
REMARK Flexibility Score: inf
ROOT
ATOM      1  C   UNL A   1      34.472  34.642  27.969  1.00  0.00     0.188 C 
ENDROOT
BRANCH   1   2
ATOM      2  C   UNL A   1      35.311  33.433  28.383  1.00  0.00     0.188 C 
BRANCH   2   3
ATOM      3  O   UNL A   1      35.028  32.155  27.844  1.00  0.00    -0.376 OA
BRANCH   3   4
ATOM      4  C   UNL A   1      33.713  31.659  27.661  1.00  0.00     0.202 C 
BRANCH   4   5
ATOM      5  C   UNL A   1      33.376  30.348  26.924  1.00  0.00     0.261 C 
BRANCH   5   6
ATOM      6  O   UNL A   1      32.225  29.628  27.398  1.00  0.00    -0.463 OA
BRANCH   6   7
ATOM      7  C   UNL A   1      31.815  28.573  26.665  1.00  0.00     0.315 C 
ATOM      8  O   UNL A   1      31.173  27.636  27.130  1.00  0.00    -0.252 OA
BRANCH   7   9
ATOM      9  C   UNL A   1      32.176  28.614  25.180  1.00  0.00     0.162 C 
ATOM     10  C   UNL A   1      33.977  27.930  23.543  1.00  0.00     0.076 C 
ATOM     11  C   UNL A   1      32.792  27.431  24.406  1.00  0.00     0.195 C 
ATOM     12  N   UNL A   1      31.786  26.962  23.455  1.00  0.00    -0.326 N 
ATOM     13  C   UNL A   1      30.914  28.963  24.402  1.00  0.00     0.083 C 
ATOM     14  C   UNL A   1      30.906  28.077  23.171  1.00  0.00     0.263 C 
ATOM     15  H   UNL A   1      32.217  26.705  22.568  1.00  0.00     0.348 HD
BRANCH  12  16
ATOM     16  C   UNL A   1      31.241  25.618  23.671  1.00  0.00     0.343 C 
BRANCH  16  17
ATOM     17  C   UNL A   1      30.904  25.193  25.064  1.00  0.00     0.210 A 
ATOM     18  N   UNL A   1      29.777  25.456  25.703  1.00  0.00    -0.107 NA
ATOM     19  N   UNL A   1      31.684  24.410  25.896  1.00  0.00    -0.192 N 
ATOM     20  N   UNL A   1      29.825  24.759  26.880  1.00  0.00    -0.023 NA
ATOM     21  N   UNL A   1      30.941  24.049  26.965  1.00  0.00    -0.040 NA
BRANCH  19  22
ATOM     22  C   UNL A   1      32.980  23.910  25.685  1.00  0.00     0.069 A 
ATOM     23  C   UNL A   1      33.128  22.599  25.219  1.00  0.00     0.028 A 
ATOM     24  C   UNL A   1      34.084  24.763  25.782  1.00  0.00     0.028 A 
ATOM     25  C   UNL A   1      34.357  22.207  24.688  1.00  0.00     0.002 A 
ATOM     26  C   UNL A   1      35.319  24.344  25.292  1.00  0.00     0.002 A 
ATOM     27  C   UNL A   1      35.443  23.085  24.706  1.00  0.00     0.000 A 
ENDBRANCH  19  22
ENDBRANCH  16  17
ENDBRANCH  12  16
ENDBRANCH   7   9
ENDBRANCH   6   7
ENDBRANCH   5   6
ENDBRANCH   4   5
ENDBRANCH   3   4
ENDBRANCH   2   3
ENDBRANCH   1   2
BRANCH   1  28
ATOM     28  O   UNL A   1      33.269  34.963  28.611  1.00  0.00    -0.377 OA
BRANCH  28  29
ATOM     29  C   UNL A   1      33.272  36.227  29.223  1.00  0.00     0.188 C 
BRANCH  29  30
ATOM     30  C   UNL A   1      33.044  36.087  30.721  1.00  0.00     0.188 C 
BRANCH  30  31
ATOM     31  O   UNL A   1      33.132  34.813  31.334  1.00  0.00    -0.376 OA
BRANCH  31  32
ATOM     32  C   UNL A   1      34.334  34.254  31.843  1.00  0.00     0.202 C 
BRANCH  32  33
ATOM     33  C   UNL A   1      34.498  32.879  32.539  1.00  0.00     0.261 C 
BRANCH  33  34
ATOM     34  O   UNL A   1      35.438  31.936  32.028  1.00  0.00    -0.460 OA
BRANCH  34  35
ATOM     35  C   UNL A   1      36.568  31.778  32.738  1.00  0.00     0.338 C 
ATOM     36  O   UNL A   1      36.753  32.055  33.911  1.00  0.00    -0.246 OA
BRANCH  35  37
ATOM     37  C   UNL A   1      37.531  31.041  31.894  1.00  0.00     0.060 A 
ATOM     38  C   UNL A   1      38.541  30.313  32.533  1.00  0.00     0.016 A 
ATOM     39  C   UNL A   1      37.447  31.065  30.498  1.00  0.00     0.016 A 
ATOM     40  C   UNL A   1      39.505  29.652  31.784  1.00  0.00     0.010 A 
ATOM     41  C   UNL A   1      38.440  30.431  29.742  1.00  0.00     0.010 A 
ATOM     42  C   UNL A   1      39.499  29.769  30.389  1.00  0.00    -0.014 A 
BRANCH  42  43
ATOM     43  C   UNL A   1      40.752  29.448  29.670  1.00  0.00     0.031 A 
ATOM     44  C   UNL A   1      40.883  28.070  29.078  1.00  0.00     0.074 A 
ATOM     45  C   UNL A   1      41.693  30.380  29.451  1.00  0.00     0.049 A 
ATOM     46  N   UNL A   1      41.844  27.562  28.349  1.00  0.00    -0.248 NA
ATOM     47  C   UNL A   1      39.772  27.139  29.339  1.00  0.00     0.031 C 
ATOM     48  C   UNL A   1      41.645  31.759  29.925  1.00  0.00     0.029 A 
ATOM     49  N   UNL A   1      42.872  30.300  28.753  1.00  0.00    -0.354 N 
ATOM     50  C   UNL A   1      41.451  26.260  28.068  1.00  0.00     0.074 A 
ATOM     51  C   UNL A   1      40.189  26.039  28.735  1.00  0.00     0.031 C 
ATOM     52  C   UNL A   1      42.750  32.401  29.507  1.00  0.00     0.029 A 
ATOM     53  C   UNL A   1      43.590  31.469  28.757  1.00  0.00     0.049 A 
ATOM     54  H   UNL A   1      43.173  29.483  28.295  1.00  0.00     0.167 HD
ATOM     55  C   UNL A   1      42.081  25.335  27.306  1.00  0.00     0.037 A 
ATOM     56  C   UNL A   1      44.796  31.742  28.221  1.00  0.00     0.037 A 
ATOM     57  C   UNL A   1      43.339  25.559  26.648  1.00  0.00     0.049 A 
ATOM     58  C   UNL A   1      45.514  30.668  27.443  1.00  0.00     0.074 A 
ATOM     59  C   UNL A   1      44.064  24.690  25.851  1.00  0.00     0.029 A 
ATOM     60  N   UNL A   1      44.064  26.740  26.716  1.00  0.00    -0.354 N 
ATOM     61  N   UNL A   1      45.132  29.445  27.162  1.00  0.00    -0.248 NA
ATOM     62  C   UNL A   1      46.832  31.020  26.895  1.00  0.00     0.031 C 
ATOM     63  C   UNL A   1      45.257  25.324  25.490  1.00  0.00     0.029 A 
ATOM     64  C   UNL A   1      45.242  26.613  25.999  1.00  0.00     0.049 A 
ATOM     65  H   UNL A   1      43.783  27.549  27.203  1.00  0.00     0.167 HD
ATOM     66  C   UNL A   1      46.139  28.896  26.379  1.00  0.00     0.074 A 
ATOM     67  C   UNL A   1      47.143  29.927  26.214  1.00  0.00     0.031 C 
ATOM     68  C   UNL A   1      46.228  27.653  25.842  1.00  0.00     0.037 A 
BRANCH  55  69
ATOM     69  C   UNL A   1      41.432  23.986  27.182  1.00  0.00     0.064 A 
ATOM     70  C   UNL A   1      41.939  22.854  27.841  1.00  0.00     0.173 A 
ATOM     71  C   UNL A   1      40.277  23.827  26.402  1.00  0.00     0.173 A 
ATOM     72  F   UNL A   1      43.053  22.946  28.582  1.00  0.00    -0.203 F 
ATOM     73  C   UNL A   1      41.329  21.610  27.699  1.00  0.00     0.198 A 
ATOM     74  C   UNL A   1      39.651  22.588  26.291  1.00  0.00     0.198 A 
ATOM     75  F   UNL A   1      39.751  24.874  25.750  1.00  0.00    -0.203 F 
ATOM     76  F   UNL A   1      41.863  20.532  28.292  1.00  0.00    -0.200 F 
ATOM     77  C   UNL A   1      40.182  21.480  26.932  1.00  0.00     0.200 A 
ATOM     78  F   UNL A   1      38.535  22.468  25.559  1.00  0.00    -0.200 F 
ATOM     79  F   UNL A   1      39.592  20.283  26.802  1.00  0.00    -0.200 F 
ENDBRANCH  55  69
BRANCH  56  80
ATOM     80  C   UNL A   1      45.407  33.085  28.405  1.00  0.00     0.064 A 
ATOM     81  C   UNL A   1      45.143  34.136  27.515  1.00  0.00     0.173 A 
ATOM     82  C   UNL A   1      46.299  33.336  29.460  1.00  0.00     0.173 A 
ATOM     83  F   UNL A   1      44.319  33.939  26.474  1.00  0.00    -0.203 F 
ATOM     84  C   UNL A   1      45.765  35.374  27.656  1.00  0.00     0.198 A 
ATOM     85  C   UNL A   1      46.895  34.585  29.620  1.00  0.00     0.198 A 
ATOM     86  F   UNL A   1      46.592  32.366  30.339  1.00  0.00    -0.203 F 
ATOM     87  F   UNL A   1      45.540  36.341  26.756  1.00  0.00    -0.200 F 
ATOM     88  C   UNL A   1      46.636  35.600  28.712  1.00  0.00     0.200 A 
ATOM     89  F   UNL A   1      47.728  34.802  30.647  1.00  0.00    -0.200 F 
ATOM     90  F   UNL A   1      47.236  36.791  28.845  1.00  0.00    -0.200 F 
ENDBRANCH  56  80
BRANCH  68  91
ATOM     91  C   UNL A   1      47.427  27.356  24.984  1.00  0.00     0.064 A 
ATOM     92  C   UNL A   1      48.564  26.710  25.494  1.00  0.00     0.173 A 
ATOM     93  C   UNL A   1      47.428  27.705  23.624  1.00  0.00     0.173 A 
ATOM     94  F   UNL A   1      48.619  26.363  26.788  1.00  0.00    -0.203 F 
ATOM     95  C   UNL A   1      49.672  26.466  24.686  1.00  0.00     0.198 A 
ATOM     96  C   UNL A   1      48.522  27.423  22.810  1.00  0.00     0.198 A 
ATOM     97  F   UNL A   1      46.364  28.313  23.079  1.00  0.00    -0.203 F 
ATOM     98  F   UNL A   1      50.772  25.909  25.212  1.00  0.00    -0.200 F 
ATOM     99  C   UNL A   1      49.648  26.816  23.344  1.00  0.00     0.200 A 
ATOM    100  F   UNL A   1      48.488  27.745  21.510  1.00  0.00    -0.200 F 
ATOM    101  F   UNL A   1      50.714  26.578  22.569  1.00  0.00    -0.200 F 
ENDBRANCH  68  91
ENDBRANCH  42  43
ENDBRANCH  35  37
ENDBRANCH  34  35
ENDBRANCH  33  34
ENDBRANCH  32  33
ENDBRANCH  31  32
ENDBRANCH  30  31
ENDBRANCH  29  30
ENDBRANCH  28  29
ENDBRANCH   1  28
TORSDOF 23
ENDMDL
