MODEL 1
REMARK VINA RESULT:      -9.7      0.000      0.000
REMARK SMILES CCCc1nnsc1C(=O)NC[C@@H]1CC[C@@H](C(=O)OCCOCCOCCOCCOC(=O)c2ccc(-c3c4nc(c(-c5c(F)c(F)c(F)c(F)c5F)c5ccc([nH]5)c(-c5c(F)c(F)c(F)c(F)c5F)c5nc(c(-c6c(F)c(F)c(F)c(F)c6F)c6ccc3[nH]6)C=C5)C=C4)cc2)O1
REMARK SMILES IDX 23 1 22 2 21 3 20 4 19 5 17 6 18 7 16 8 13 9 14 10 97 11
REMARK SMILES IDX 15 12 12 13 11 14 9 15 10 16 8 18 4 19 5 20 6 21 7 22 3 23
REMARK SMILES IDX 2 24 1 25 24 26 25 27 26 28 27 29 28 30 29 31 30 32 31 33
REMARK SMILES IDX 32 34 33 35 34 36 35 37 96 38 36 39 95 40 37 41 38 42 39 43
REMARK SMILES IDX 89 44 40 45 94 46 88 47 90 48 41 49 93 50 87 51 86 52 42 54
REMARK SMILES IDX 74 55 54 56 73 57 55 58 58 59 72 60 91 61 56 62 57 63 71 65
REMARK SMILES IDX 92 66 59 67 43 68 44 69 52 70 45 71 46 72 50 73 53 74 47 75
REMARK SMILES IDX 48 76 51 77 49 78 75 79 76 80 84 81 77 82 78 83 82 84 85 85
REMARK SMILES IDX 79 86 80 87 83 88 81 89 60 90 61 91 69 92 62 93 63 94 67 95
REMARK SMILES IDX 70 96 64 97 65 98 68 99 66 100
REMARK H PARENT 11 17 90 53 58 64
REMARK Flexibility Score: inf
ROOT
ATOM      1  C   UNL A   1      43.620  23.215  27.348  1.00  0.00     0.188 C 
ENDROOT
BRANCH   1   2
ATOM      2  O   UNL A   1      42.806  22.066  27.331  1.00  0.00    -0.376 OA
BRANCH   2   3
ATOM      3  C   UNL A   1      41.408  22.060  27.523  1.00  0.00     0.202 C 
BRANCH   3   4
ATOM      4  C   UNL A   1      40.364  21.412  26.599  1.00  0.00     0.261 C 
BRANCH   4   5
ATOM      5  O   UNL A   1      39.088  22.051  26.466  1.00  0.00    -0.461 OA
BRANCH   5   6
ATOM      6  C   UNL A   1      38.235  21.444  25.595  1.00  0.00     0.335 C 
ATOM      7  O   UNL A   1      38.460  20.351  25.081  1.00  0.00    -0.249 OA
BRANCH   6   8
ATOM      8  C   UNL A   1      36.893  22.180  25.379  1.00  0.00     0.228 C 
ATOM      9  C   UNL A   1      34.870  22.660  26.512  1.00  0.00     0.138 C 
ATOM     10  C   UNL A   1      35.238  23.851  25.641  1.00  0.00     0.037 C 
ATOM     11  O   UNL A   1      35.816  21.624  26.173  1.00  0.00    -0.361 OA
ATOM     12  C   UNL A   1      36.749  23.687  25.463  1.00  0.00     0.047 C 
BRANCH   9  13
ATOM     13  C   UNL A   1      33.413  22.110  26.562  1.00  0.00     0.148 C 
BRANCH  13  14
ATOM     14  N   UNL A   1      32.367  22.980  27.082  1.00  0.00    -0.349 N 
ATOM     15  C   UNL A   1      31.425  23.839  26.555  1.00  0.00     0.265 C 
ATOM     16  O   UNL A   1      30.404  23.851  27.258  1.00  0.00    -0.268 OA
ATOM     17  H   UNL A   1      32.319  22.947  28.064  1.00  0.00     0.163 HD
BRANCH  15  18
ATOM     18  C   UNL A   1      31.552  24.719  25.402  1.00  0.00     0.136 A 
ATOM     19  C   UNL A   1      31.650  26.075  25.090  1.00  0.00     0.088 A 
ATOM     20  N   UNL A   1      31.584  26.389  23.728  1.00  0.00    -0.142 NA
ATOM     21  N   UNL A   1      31.407  25.329  22.974  1.00  0.00    -0.090 NA
ATOM     22  S   UNL A   1      31.367  23.923  23.851  1.00  0.00    -0.006 S 
BRANCH  19  23
ATOM     23  C   UNL A   1      31.652  27.268  25.965  1.00  0.00     0.060 C 
BRANCH  23  24
ATOM     24  C   UNL A   1      31.525  28.567  25.171  1.00  0.00     0.003 C 
ATOM     25  C   UNL A   1      32.836  29.313  24.930  1.00  0.00     0.004 C 
ENDBRANCH  23  24
ENDBRANCH  19  23
ENDBRANCH  15  18
ENDBRANCH  13  14
ENDBRANCH   9  13
ENDBRANCH   6   8
ENDBRANCH   5   6
ENDBRANCH   4   5
ENDBRANCH   3   4
ENDBRANCH   2   3
ENDBRANCH   1   2
BRANCH   1  26
ATOM     26  C   UNL A   1      44.223  23.660  28.698  1.00  0.00     0.188 C 
BRANCH  26  27
ATOM     27  O   UNL A   1      44.304  22.882  29.878  1.00  0.00    -0.377 OA
BRANCH  27  28
ATOM     28  C   UNL A   1      43.651  23.371  31.027  1.00  0.00     0.188 C 
BRANCH  28  29
ATOM     29  C   UNL A   1      44.652  23.801  32.104  1.00  0.00     0.188 C 
BRANCH  29  30
ATOM     30  O   UNL A   1      44.486  23.062  33.309  1.00  0.00    -0.376 OA
BRANCH  30  31
ATOM     31  C   UNL A   1      45.651  22.531  33.930  1.00  0.00     0.202 C 
BRANCH  31  32
ATOM     32  C   UNL A   1      46.039  22.907  35.378  1.00  0.00     0.261 C 
BRANCH  32  33
ATOM     33  O   UNL A   1      46.775  24.123  35.595  1.00  0.00    -0.460 OA
BRANCH  33  34
ATOM     34  C   UNL A   1      46.322  25.015  36.505  1.00  0.00     0.338 C 
ATOM     35  O   UNL A   1      46.741  25.210  37.618  1.00  0.00    -0.246 OA
BRANCH  34  36
ATOM     36  C   UNL A   1      45.339  25.873  35.790  1.00  0.00     0.060 A 
ATOM     37  C   UNL A   1      43.990  25.493  35.780  1.00  0.00     0.016 A 
ATOM     38  C   UNL A   1      45.733  27.081  35.208  1.00  0.00     0.016 A 
ATOM     39  C   UNL A   1      43.029  26.328  35.204  1.00  0.00     0.010 A 
ATOM     40  C   UNL A   1      44.776  27.895  34.593  1.00  0.00     0.010 A 
ATOM     41  C   UNL A   1      43.422  27.518  34.580  1.00  0.00    -0.014 A 
BRANCH  41  42
ATOM     42  C   UNL A   1      42.454  28.277  33.749  1.00  0.00     0.031 A 
ATOM     43  C   UNL A   1      41.540  29.248  34.441  1.00  0.00     0.074 A 
ATOM     44  C   UNL A   1      42.379  28.108  32.417  1.00  0.00     0.049 A 
ATOM     45  N   UNL A   1      40.552  29.953  33.957  1.00  0.00    -0.248 NA
ATOM     46  C   UNL A   1      41.776  29.445  35.881  1.00  0.00     0.031 C 
ATOM     47  C   UNL A   1      43.244  27.240  31.624  1.00  0.00     0.029 A 
ATOM     48  N   UNL A   1      41.515  28.655  31.499  1.00  0.00    -0.354 N 
ATOM     49  C   UNL A   1      40.045  30.674  35.030  1.00  0.00     0.074 A 
ATOM     50  C   UNL A   1      40.817  30.301  36.195  1.00  0.00     0.031 C 
ATOM     51  C   UNL A   1      42.852  27.295  30.338  1.00  0.00     0.029 A 
ATOM     52  C   UNL A   1      41.685  28.169  30.226  1.00  0.00     0.049 A 
ATOM     53  H   UNL A   1      40.839  29.332  31.732  1.00  0.00     0.167 HD
ATOM     54  C   UNL A   1      39.028  31.567  35.042  1.00  0.00     0.037 A 
ATOM     55  C   UNL A   1      40.956  28.379  29.110  1.00  0.00     0.037 A 
ATOM     56  C   UNL A   1      38.255  31.924  33.882  1.00  0.00     0.049 A 
ATOM     57  C   UNL A   1      39.758  29.296  29.171  1.00  0.00     0.074 A 
ATOM     58  C   UNL A   1      37.216  32.832  33.785  1.00  0.00     0.029 A 
ATOM     59  N   UNL A   1      38.427  31.374  32.619  1.00  0.00    -0.354 N 
ATOM     60  N   UNL A   1      39.301  29.997  30.181  1.00  0.00    -0.248 NA
ATOM     61  C   UNL A   1      38.970  29.446  27.938  1.00  0.00     0.031 C 
ATOM     62  C   UNL A   1      36.715  32.782  32.481  1.00  0.00     0.029 A 
ATOM     63  C   UNL A   1      37.484  31.894  31.748  1.00  0.00     0.049 A 
ATOM     64  H   UNL A   1      39.116  30.714  32.380  1.00  0.00     0.167 HD
ATOM     65  C   UNL A   1      38.194  30.687  29.701  1.00  0.00     0.074 A 
ATOM     66  C   UNL A   1      38.057  30.334  28.303  1.00  0.00     0.031 C 
ATOM     67  C   UNL A   1      37.363  31.535  30.357  1.00  0.00     0.037 A 
BRANCH  54  68
ATOM     68  C   UNL A   1      38.668  32.190  36.357  1.00  0.00     0.064 A 
ATOM     69  C   UNL A   1      39.036  33.505  36.680  1.00  0.00     0.173 A 
ATOM     70  C   UNL A   1      37.918  31.468  37.299  1.00  0.00     0.173 A 
ATOM     71  F   UNL A   1      39.768  34.231  35.822  1.00  0.00    -0.203 F 
ATOM     72  C   UNL A   1      38.687  34.065  37.907  1.00  0.00     0.198 A 
ATOM     73  C   UNL A   1      37.544  32.043  38.511  1.00  0.00     0.198 A 
ATOM     74  F   UNL A   1      37.540  30.207  37.040  1.00  0.00    -0.203 F 
ATOM     75  F   UNL A   1      39.093  35.305  38.214  1.00  0.00    -0.200 F 
ATOM     76  C   UNL A   1      37.936  33.337  38.817  1.00  0.00     0.200 A 
ATOM     77  F   UNL A   1      36.806  31.342  39.382  1.00  0.00    -0.200 F 
ATOM     78  F   UNL A   1      37.594  33.881  39.992  1.00  0.00    -0.200 F 
ENDBRANCH  54  68
BRANCH  55  79
ATOM     79  C   UNL A   1      41.309  27.683  27.843  1.00  0.00     0.064 A 
ATOM     80  C   UNL A   1      40.646  26.512  27.449  1.00  0.00     0.173 A 
ATOM     81  C   UNL A   1      42.340  28.154  27.016  1.00  0.00     0.173 A 
ATOM     82  F   UNL A   1      39.673  26.003  28.219  1.00  0.00    -0.203 F 
ATOM     83  C   UNL A   1      41.011  25.830  26.288  1.00  0.00     0.198 A 
ATOM     84  C   UNL A   1      42.684  27.490  25.840  1.00  0.00     0.198 A 
ATOM     85  F   UNL A   1      43.014  29.266  27.347  1.00  0.00    -0.203 F 
ATOM     86  F   UNL A   1      40.395  24.686  25.964  1.00  0.00    -0.200 F 
ATOM     87  C   UNL A   1      42.026  26.324  25.482  1.00  0.00     0.200 A 
ATOM     88  F   UNL A   1      43.655  27.978  25.057  1.00  0.00    -0.200 F 
ATOM     89  F   UNL A   1      42.374  25.670  24.365  1.00  0.00    -0.200 F 
ENDBRANCH  55  79
BRANCH  67  90
ATOM     90  C   UNL A   1      36.246  32.165  29.573  1.00  0.00     0.064 A 
ATOM     91  C   UNL A   1      36.244  33.532  29.262  1.00  0.00     0.173 A 
ATOM     92  C   UNL A   1      35.199  31.377  29.068  1.00  0.00     0.173 A 
ATOM     93  F   UNL A   1      37.213  34.333  29.731  1.00  0.00    -0.203 F 
ATOM     94  C   UNL A   1      35.227  34.091  28.492  1.00  0.00     0.198 A 
ATOM     95  C   UNL A   1      34.202  31.932  28.271  1.00  0.00     0.198 A 
ATOM     96  F   UNL A   1      35.157  30.061  29.328  1.00  0.00    -0.203 F 
ATOM     97  F   UNL A   1      35.223  35.408  28.244  1.00  0.00    -0.200 F 
ATOM     98  C   UNL A   1      34.213  33.289  27.989  1.00  0.00     0.200 A 
ATOM     99  F   UNL A   1      33.234  31.152  27.770  1.00  0.00    -0.200 F 
ATOM    100  F   UNL A   1      33.244  33.826  27.235  1.00  0.00    -0.200 F 
ENDBRANCH  67  90
ENDBRANCH  41  42
ENDBRANCH  34  36
ENDBRANCH  33  34
ENDBRANCH  32  33
ENDBRANCH  31  32
ENDBRANCH  30  31
ENDBRANCH  29  30
ENDBRANCH  28  29
ENDBRANCH  27  28
ENDBRANCH  26  27
ENDBRANCH   1  26
TORSDOF 25
ENDMDL
MODEL 2
REMARK VINA RESULT:      -9.5      0.796      2.214
REMARK SMILES CCCc1nnsc1C(=O)NC[C@@H]1CC[C@@H](C(=O)OCCOCCOCCOCCOC(=O)c2ccc(-c3c4nc(c(-c5c(F)c(F)c(F)c(F)c5F)c5ccc([nH]5)c(-c5c(F)c(F)c(F)c(F)c5F)c5nc(c(-c6c(F)c(F)c(F)c(F)c6F)c6ccc3[nH]6)C=C5)C=C4)cc2)O1
REMARK SMILES IDX 23 1 22 2 21 3 20 4 19 5 17 6 18 7 16 8 13 9 14 10 97 11
REMARK SMILES IDX 15 12 12 13 11 14 9 15 10 16 8 18 4 19 5 20 6 21 7 22 3 23
REMARK SMILES IDX 2 24 1 25 24 26 25 27 26 28 27 29 28 30 29 31 30 32 31 33
REMARK SMILES IDX 32 34 33 35 34 36 35 37 96 38 36 39 95 40 37 41 38 42 39 43
REMARK SMILES IDX 89 44 40 45 94 46 88 47 90 48 41 49 93 50 87 51 86 52 42 54
REMARK SMILES IDX 74 55 54 56 73 57 55 58 58 59 72 60 91 61 56 62 57 63 71 65
REMARK SMILES IDX 92 66 59 67 43 68 44 69 52 70 45 71 46 72 50 73 53 74 47 75
REMARK SMILES IDX 48 76 51 77 49 78 75 79 76 80 84 81 77 82 78 83 82 84 85 85
REMARK SMILES IDX 79 86 80 87 83 88 81 89 60 90 61 91 69 92 62 93 63 94 67 95
REMARK SMILES IDX 70 96 64 97 65 98 68 99 66 100
REMARK H PARENT 11 17 90 53 58 64
REMARK Flexibility Score: inf
ROOT
ATOM      1  C   UNL A   1      43.610  23.284  27.429  1.00  0.00     0.188 C 
ENDROOT
BRANCH   1   2
ATOM      2  O   UNL A   1      42.820  22.120  27.497  1.00  0.00    -0.376 OA
BRANCH   2   3
ATOM      3  C   UNL A   1      41.430  22.096  27.736  1.00  0.00     0.202 C 
BRANCH   3   4
ATOM      4  C   UNL A   1      40.397  21.210  27.020  1.00  0.00     0.261 C 
BRANCH   4   5
ATOM      5  O   UNL A   1      39.825  21.691  25.797  1.00  0.00    -0.461 OA
BRANCH   5   6
ATOM      6  C   UNL A   1      38.658  21.089  25.438  1.00  0.00     0.335 C 
ATOM      7  O   UNL A   1      38.542  19.875  25.292  1.00  0.00    -0.249 OA
BRANCH   6   8
ATOM      8  C   UNL A   1      37.442  22.037  25.332  1.00  0.00     0.228 C 
ATOM      9  C   UNL A   1      35.412  22.534  26.445  1.00  0.00     0.138 C 
ATOM     10  C   UNL A   1      35.996  23.825  25.892  1.00  0.00     0.037 C 
ATOM     11  O   UNL A   1      36.243  21.476  25.922  1.00  0.00    -0.361 OA
ATOM     12  C   UNL A   1      37.484  23.492  25.755  1.00  0.00     0.047 C 
BRANCH   9  13
ATOM     13  C   UNL A   1      33.898  22.198  26.294  1.00  0.00     0.148 C 
BRANCH  13  14
ATOM     14  N   UNL A   1      32.929  23.108  26.893  1.00  0.00    -0.349 N 
ATOM     15  C   UNL A   1      32.034  24.055  26.441  1.00  0.00     0.265 C 
ATOM     16  O   UNL A   1      31.036  24.098  27.177  1.00  0.00    -0.268 OA
ATOM     17  H   UNL A   1      32.908  23.025  27.873  1.00  0.00     0.163 HD
BRANCH  15  18
ATOM     18  C   UNL A   1      32.189  24.985  25.332  1.00  0.00     0.136 A 
ATOM     19  C   UNL A   1      32.851  25.101  24.109  1.00  0.00     0.088 A 
ATOM     20  N   UNL A   1      32.765  26.353  23.491  1.00  0.00    -0.142 NA
ATOM     21  N   UNL A   1      32.088  27.223  24.204  1.00  0.00    -0.090 NA
ATOM     22  S   UNL A   1      31.485  26.568  25.602  1.00  0.00    -0.006 S 
BRANCH  19  23
ATOM     23  C   UNL A   1      33.771  24.170  23.419  1.00  0.00     0.060 C 
BRANCH  23  24
ATOM     24  C   UNL A   1      33.030  23.200  22.501  1.00  0.00     0.003 C 
ATOM     25  C   UNL A   1      31.774  22.569  23.100  1.00  0.00     0.004 C 
ENDBRANCH  23  24
ENDBRANCH  19  23
ENDBRANCH  15  18
ENDBRANCH  13  14
ENDBRANCH   9  13
ENDBRANCH   6   8
ENDBRANCH   5   6
ENDBRANCH   4   5
ENDBRANCH   3   4
ENDBRANCH   2   3
ENDBRANCH   1   2
BRANCH   1  26
ATOM     26  C   UNL A   1      44.335  23.747  28.712  1.00  0.00     0.188 C 
BRANCH  26  27
ATOM     27  O   UNL A   1      44.524  22.985  29.890  1.00  0.00    -0.377 OA
BRANCH  27  28
ATOM     28  C   UNL A   1      43.740  23.316  31.013  1.00  0.00     0.188 C 
BRANCH  28  29
ATOM     29  C   UNL A   1      44.602  23.832  32.170  1.00  0.00     0.188 C 
BRANCH  29  30
ATOM     30  O   UNL A   1      44.453  23.036  33.340  1.00  0.00    -0.376 OA
BRANCH  30  31
ATOM     31  C   UNL A   1      45.635  22.601  34.003  1.00  0.00     0.202 C 
BRANCH  31  32
ATOM     32  C   UNL A   1      45.901  22.940  35.487  1.00  0.00     0.261 C 
BRANCH  32  33
ATOM     33  O   UNL A   1      46.734  24.073  35.791  1.00  0.00    -0.460 OA
BRANCH  33  34
ATOM     34  C   UNL A   1      46.290  25.001  36.667  1.00  0.00     0.338 C 
ATOM     35  O   UNL A   1      46.707  25.228  37.776  1.00  0.00    -0.246 OA
BRANCH  34  36
ATOM     36  C   UNL A   1      45.322  25.849  35.919  1.00  0.00     0.060 A 
ATOM     37  C   UNL A   1      43.970  25.477  35.902  1.00  0.00     0.016 A 
ATOM     38  C   UNL A   1      45.732  27.038  35.312  1.00  0.00     0.016 A 
ATOM     39  C   UNL A   1      43.022  26.304  35.294  1.00  0.00     0.010 A 
ATOM     40  C   UNL A   1      44.788  27.844  34.666  1.00  0.00     0.010 A 
ATOM     41  C   UNL A   1      43.431  27.475  34.645  1.00  0.00    -0.014 A 
BRANCH  41  42
ATOM     42  C   UNL A   1      42.479  28.220  33.784  1.00  0.00     0.031 A 
ATOM     43  C   UNL A   1      41.549  29.198  34.443  1.00  0.00     0.074 A 
ATOM     44  C   UNL A   1      42.432  28.032  32.453  1.00  0.00     0.049 A 
ATOM     45  N   UNL A   1      40.570  29.895  33.928  1.00  0.00    -0.248 NA
ATOM     46  C   UNL A   1      41.754  29.417  35.884  1.00  0.00     0.031 C 
ATOM     47  C   UNL A   1      43.316  27.155  31.690  1.00  0.00     0.029 A 
ATOM     48  N   UNL A   1      41.586  28.565  31.510  1.00  0.00    -0.354 N 
ATOM     49  C   UNL A   1      40.039  30.629  34.981  1.00  0.00     0.074 A 
ATOM     50  C   UNL A   1      40.786  30.275  36.167  1.00  0.00     0.031 C 
ATOM     51  C   UNL A   1      42.951  27.191  30.396  1.00  0.00     0.029 A 
ATOM     52  C   UNL A   1      41.783  28.061  30.247  1.00  0.00     0.049 A 
ATOM     53  H   UNL A   1      40.904  29.242  31.719  1.00  0.00     0.167 HD
ATOM     54  C   UNL A   1      39.020  31.519  34.958  1.00  0.00     0.037 A 
ATOM     55  C   UNL A   1      41.078  28.253  29.114  1.00  0.00     0.037 A 
ATOM     56  C   UNL A   1      38.270  31.858  33.778  1.00  0.00     0.049 A 
ATOM     57  C   UNL A   1      39.877  29.168  29.137  1.00  0.00     0.074 A 
ATOM     58  C   UNL A   1      37.231  32.761  33.647  1.00  0.00     0.029 A 
ATOM     59  N   UNL A   1      38.469  31.291  32.527  1.00  0.00    -0.354 N 
ATOM     60  N   UNL A   1      39.397  29.882  30.127  1.00  0.00    -0.248 NA
ATOM     61  C   UNL A   1      39.115  29.298  27.885  1.00  0.00     0.031 C 
ATOM     62  C   UNL A   1      36.757  32.692  32.334  1.00  0.00     0.029 A 
ATOM     63  C   UNL A   1      37.544  31.796  31.629  1.00  0.00     0.049 A 
ATOM     64  H   UNL A   1      39.165  30.629  32.312  1.00  0.00     0.167 HD
ATOM     65  C   UNL A   1      38.298  30.562  29.614  1.00  0.00     0.074 A 
ATOM     66  C   UNL A   1      38.191  30.189  28.219  1.00  0.00     0.031 C 
ATOM     67  C   UNL A   1      37.452  31.417  30.241  1.00  0.00     0.037 A 
BRANCH  54  68
ATOM     68  C   UNL A   1      38.630  32.159  36.258  1.00  0.00     0.064 A 
ATOM     69  C   UNL A   1      37.920  31.459  37.245  1.00  0.00     0.173 A 
ATOM     70  C   UNL A   1      38.998  33.486  36.530  1.00  0.00     0.173 A 
ATOM     71  F   UNL A   1      37.529  30.194  37.026  1.00  0.00    -0.203 F 
ATOM     72  C   UNL A   1      37.572  32.072  38.446  1.00  0.00     0.198 A 
ATOM     73  C   UNL A   1      38.676  34.084  37.745  1.00  0.00     0.198 A 
ATOM     74  F   UNL A   1      39.679  34.200  35.621  1.00  0.00    -0.203 F 
ATOM     75  F   UNL A   1      36.849  31.400  39.353  1.00  0.00    -0.200 F 
ATOM     76  C   UNL A   1      37.957  33.380  38.698  1.00  0.00     0.200 A 
ATOM     77  F   UNL A   1      39.062  35.344  37.992  1.00  0.00    -0.200 F 
ATOM     78  F   UNL A   1      37.628  33.965  39.858  1.00  0.00    -0.200 F 
ENDBRANCH  54  68
BRANCH  55  79
ATOM     79  C   UNL A   1      41.458  27.540  27.864  1.00  0.00     0.064 A 
ATOM     80  C   UNL A   1      42.497  28.008  27.049  1.00  0.00     0.173 A 
ATOM     81  C   UNL A   1      40.767  26.394  27.440  1.00  0.00     0.173 A 
ATOM     82  F   UNL A   1      43.170  29.117  27.393  1.00  0.00    -0.203 F 
ATOM     83  C   UNL A   1      42.819  27.372  25.850  1.00  0.00     0.198 A 
ATOM     84  C   UNL A   1      41.110  25.740  26.258  1.00  0.00     0.198 A 
ATOM     85  F   UNL A   1      39.758  25.906  28.177  1.00  0.00    -0.203 F 
ATOM     86  F   UNL A   1      43.783  27.872  25.066  1.00  0.00    -0.200 F 
ATOM     87  C   UNL A   1      42.129  26.234  25.460  1.00  0.00     0.200 A 
ATOM     88  F   UNL A   1      40.449  24.634  25.892  1.00  0.00    -0.200 F 
ATOM     89  F   UNL A   1      42.441  25.620  24.310  1.00  0.00    -0.200 F 
ENDBRANCH  55  79
BRANCH  67  90
ATOM     90  C   UNL A   1      36.350  32.033  29.425  1.00  0.00     0.064 A 
ATOM     91  C   UNL A   1      35.263  31.277  28.965  1.00  0.00     0.173 A 
ATOM     92  C   UNL A   1      36.348  33.412  29.160  1.00  0.00     0.173 A 
ATOM     93  F   UNL A   1      35.223  29.953  29.179  1.00  0.00    -0.203 F 
ATOM     94  C   UNL A   1      34.225  31.873  28.253  1.00  0.00     0.198 A 
ATOM     95  C   UNL A   1      35.293  34.010  28.477  1.00  0.00     0.198 A 
ATOM     96  F   UNL A   1      37.360  34.185  29.585  1.00  0.00    -0.203 F 
ATOM     97  F   UNL A   1      33.218  31.122  27.786  1.00  0.00    -0.200 F 
ATOM     98  C   UNL A   1      34.236  33.240  28.019  1.00  0.00     0.200 A 
ATOM     99  F   UNL A   1      35.296  35.334  28.269  1.00  0.00    -0.200 F 
ATOM    100  F   UNL A   1      33.228  33.814  27.348  1.00  0.00    -0.200 F 
ENDBRANCH  67  90
ENDBRANCH  41  42
ENDBRANCH  34  36
ENDBRANCH  33  34
ENDBRANCH  32  33
ENDBRANCH  31  32
ENDBRANCH  30  31
ENDBRANCH  29  30
ENDBRANCH  28  29
ENDBRANCH  27  28
ENDBRANCH  26  27
ENDBRANCH   1  26
TORSDOF 25
ENDMDL
MODEL 3
REMARK VINA RESULT:      -9.3      2.987      7.508
REMARK SMILES CCCc1nnsc1C(=O)NC[C@@H]1CC[C@@H](C(=O)OCCOCCOCCOCCOC(=O)c2ccc(-c3c4nc(c(-c5c(F)c(F)c(F)c(F)c5F)c5ccc([nH]5)c(-c5c(F)c(F)c(F)c(F)c5F)c5nc(c(-c6c(F)c(F)c(F)c(F)c6F)c6ccc3[nH]6)C=C5)C=C4)cc2)O1
REMARK SMILES IDX 23 1 22 2 21 3 20 4 19 5 17 6 18 7 16 8 13 9 14 10 97 11
REMARK SMILES IDX 15 12 12 13 11 14 9 15 10 16 8 18 4 19 5 20 6 21 7 22 3 23
REMARK SMILES IDX 2 24 1 25 24 26 25 27 26 28 27 29 28 30 29 31 30 32 31 33
REMARK SMILES IDX 32 34 33 35 34 36 35 37 96 38 36 39 95 40 37 41 38 42 39 43
REMARK SMILES IDX 89 44 40 45 94 46 88 47 90 48 41 49 93 50 87 51 86 52 42 54
REMARK SMILES IDX 74 55 54 56 73 57 55 58 58 59 72 60 91 61 56 62 57 63 71 65
REMARK SMILES IDX 92 66 59 67 43 68 44 69 52 70 45 71 46 72 50 73 53 74 47 75
REMARK SMILES IDX 48 76 51 77 49 78 75 79 76 80 84 81 77 82 78 83 82 84 85 85
REMARK SMILES IDX 79 86 80 87 83 88 81 89 60 90 61 91 69 92 62 93 63 94 67 95
REMARK SMILES IDX 70 96 64 97 65 98 68 99 66 100
REMARK H PARENT 11 17 90 53 58 64
REMARK Flexibility Score: inf
ROOT
ATOM      1  C   UNL A   1      40.230  21.699  25.998  1.00  0.00     0.188 C 
ENDROOT
BRANCH   1   2
ATOM      2  O   UNL A   1      39.371  22.422  26.848  1.00  0.00    -0.376 OA
BRANCH   2   3
ATOM      3  C   UNL A   1      38.687  23.605  26.496  1.00  0.00     0.202 C 
BRANCH   3   4
ATOM      4  C   UNL A   1      37.249  23.701  25.958  1.00  0.00     0.261 C 
BRANCH   4   5
ATOM      5  O   UNL A   1      36.370  22.590  26.173  1.00  0.00    -0.461 OA
BRANCH   5   6
ATOM      6  C   UNL A   1      36.170  21.802  25.081  1.00  0.00     0.335 C 
ATOM      7  O   UNL A   1      36.908  20.869  24.778  1.00  0.00    -0.249 OA
BRANCH   6   8
ATOM      8  C   UNL A   1      34.869  22.094  24.298  1.00  0.00     0.228 C 
ATOM      9  C   UNL A   1      32.834  23.284  24.517  1.00  0.00     0.138 C 
ATOM     10  C   UNL A   1      33.282  23.341  23.064  1.00  0.00     0.037 C 
ATOM     11  O   UNL A   1      33.743  22.372  25.168  1.00  0.00    -0.361 OA
ATOM     12  C   UNL A   1      34.789  23.096  23.164  1.00  0.00     0.047 C 
BRANCH   9  13
ATOM     13  C   UNL A   1      31.353  22.983  24.899  1.00  0.00     0.148 C 
BRANCH  13  14
ATOM     14  N   UNL A   1      30.347  23.995  24.601  1.00  0.00    -0.349 N 
ATOM     15  C   UNL A   1      30.339  25.341  24.303  1.00  0.00     0.265 C 
ATOM     16  O   UNL A   1      29.402  25.613  23.538  1.00  0.00    -0.268 OA
ATOM     17  H   UNL A   1      29.437  23.620  24.617  1.00  0.00     0.163 HD
BRANCH  15  18
ATOM     18  C   UNL A   1      31.201  26.387  24.834  1.00  0.00     0.136 A 
ATOM     19  C   UNL A   1      31.859  27.549  24.428  1.00  0.00     0.088 A 
ATOM     20  N   UNL A   1      32.733  28.108  25.366  1.00  0.00    -0.142 NA
ATOM     21  N   UNL A   1      32.803  27.406  26.473  1.00  0.00    -0.090 NA
ATOM     22  S   UNL A   1      31.793  26.092  26.458  1.00  0.00    -0.006 S 
BRANCH  19  23
ATOM     23  C   UNL A   1      31.916  28.212  23.106  1.00  0.00     0.060 C 
BRANCH  23  24
ATOM     24  C   UNL A   1      30.883  29.329  22.976  1.00  0.00     0.003 C 
ATOM     25  C   UNL A   1      29.477  28.872  22.589  1.00  0.00     0.004 C 
ENDBRANCH  23  24
ENDBRANCH  19  23
ENDBRANCH  15  18
ENDBRANCH  13  14
ENDBRANCH   9  13
ENDBRANCH   6   8
ENDBRANCH   5   6
ENDBRANCH   4   5
ENDBRANCH   3   4
ENDBRANCH   2   3
ENDBRANCH   1   2
BRANCH   1  26
ATOM     26  C   UNL A   1      40.739  20.323  26.478  1.00  0.00     0.188 C 
BRANCH  26  27
ATOM     27  O   UNL A   1      41.312  19.312  25.671  1.00  0.00    -0.377 OA
BRANCH  27  28
ATOM     28  C   UNL A   1      42.703  19.107  25.773  1.00  0.00     0.188 C 
BRANCH  28  29
ATOM     29  C   UNL A   1      43.458  20.432  25.922  1.00  0.00     0.188 C 
BRANCH  29  30
ATOM     30  O   UNL A   1      44.395  20.632  24.870  1.00  0.00    -0.376 OA
BRANCH  30  31
ATOM     31  C   UNL A   1      45.629  21.265  25.190  1.00  0.00     0.202 C 
BRANCH  31  32
ATOM     32  C   UNL A   1      45.803  22.797  25.088  1.00  0.00     0.261 C 
BRANCH  32  33
ATOM     33  O   UNL A   1      45.022  23.633  25.959  1.00  0.00    -0.460 OA
BRANCH  33  34
ATOM     34  C   UNL A   1      43.859  24.152  25.507  1.00  0.00     0.338 C 
ATOM     35  O   UNL A   1      43.270  23.871  24.493  1.00  0.00    -0.246 OA
BRANCH  34  36
ATOM     36  C   UNL A   1      43.321  24.989  26.613  1.00  0.00     0.060 A 
ATOM     37  C   UNL A   1      43.811  26.293  26.775  1.00  0.00     0.016 A 
ATOM     38  C   UNL A   1      42.287  24.521  27.428  1.00  0.00     0.016 A 
ATOM     39  C   UNL A   1      43.255  27.138  27.740  1.00  0.00     0.010 A 
ATOM     40  C   UNL A   1      41.762  25.353  28.423  1.00  0.00     0.010 A 
ATOM     41  C   UNL A   1      42.250  26.660  28.590  1.00  0.00    -0.014 A 
BRANCH  41  42
ATOM     42  C   UNL A   1      41.838  27.455  29.773  1.00  0.00     0.031 A 
ATOM     43  C   UNL A   1      40.623  28.329  29.648  1.00  0.00     0.074 A 
ATOM     44  C   UNL A   1      42.524  27.412  30.929  1.00  0.00     0.049 A 
ATOM     45  N   UNL A   1      40.119  29.184  30.499  1.00  0.00    -0.248 NA
ATOM     46  C   UNL A   1      39.876  28.221  28.384  1.00  0.00     0.031 C 
ATOM     47  C   UNL A   1      43.683  26.565  31.194  1.00  0.00     0.029 A 
ATOM     48  N   UNL A   1      42.346  28.117  32.096  1.00  0.00    -0.354 N 
ATOM     49  C   UNL A   1      39.001  29.720  29.873  1.00  0.00     0.074 A 
ATOM     50  C   UNL A   1      38.915  29.114  28.562  1.00  0.00     0.031 C 
ATOM     51  C   UNL A   1      44.129  26.816  32.439  1.00  0.00     0.029 A 
ATOM     52  C   UNL A   1      43.312  27.869  33.041  1.00  0.00     0.049 A 
ATOM     53  H   UNL A   1      41.598  28.739  32.240  1.00  0.00     0.167 HD
ATOM     54  C   UNL A   1      38.125  30.635  30.349  1.00  0.00     0.037 A 
ATOM     55  C   UNL A   1      43.529  28.455  34.236  1.00  0.00     0.037 A 
ATOM     56  C   UNL A   1      38.223  31.245  31.648  1.00  0.00     0.049 A 
ATOM     57  C   UNL A   1      42.601  29.551  34.702  1.00  0.00     0.074 A 
ATOM     58  C   UNL A   1      37.376  32.170  32.232  1.00  0.00     0.029 A 
ATOM     59  N   UNL A   1      39.243  31.004  32.559  1.00  0.00    -0.354 N 
ATOM     60  N   UNL A   1      41.529  30.034  34.119  1.00  0.00    -0.248 NA
ATOM     61  C   UNL A   1      42.917  30.190  35.989  1.00  0.00     0.031 C 
ATOM     62  C   UNL A   1      37.918  32.538  33.467  1.00  0.00     0.029 A 
ATOM     63  C   UNL A   1      39.067  31.794  33.682  1.00  0.00     0.049 A 
ATOM     64  H   UNL A   1      39.980  30.366  32.424  1.00  0.00     0.167 HD
ATOM     65  C   UNL A   1      41.031  31.009  34.976  1.00  0.00     0.074 A 
ATOM     66  C   UNL A   1      41.909  31.039  36.128  1.00  0.00     0.031 C 
ATOM     67  C   UNL A   1      39.948  31.810  34.824  1.00  0.00     0.037 A 
BRANCH  54  68
ATOM     68  C   UNL A   1      37.007  31.061  29.445  1.00  0.00     0.064 A 
ATOM     69  C   UNL A   1      36.986  32.327  28.839  1.00  0.00     0.173 A 
ATOM     70  C   UNL A   1      35.955  30.179  29.158  1.00  0.00     0.173 A 
ATOM     71  F   UNL A   1      37.959  33.214  29.095  1.00  0.00    -0.203 F 
ATOM     72  C   UNL A   1      35.940  32.701  27.999  1.00  0.00     0.198 A 
ATOM     73  C   UNL A   1      34.928  30.545  28.292  1.00  0.00     0.198 A 
ATOM     74  F   UNL A   1      35.927  28.956  29.709  1.00  0.00    -0.203 F 
ATOM     75  F   UNL A   1      35.915  33.933  27.472  1.00  0.00    -0.200 F 
ATOM     76  C   UNL A   1      34.917  31.807  27.721  1.00  0.00     0.200 A 
ATOM     77  F   UNL A   1      33.948  29.674  28.014  1.00  0.00    -0.200 F 
ATOM     78  F   UNL A   1      33.916  32.166  26.905  1.00  0.00    -0.200 F 
ENDBRANCH  54  68
BRANCH  55  79
ATOM     79  C   UNL A   1      44.694  28.049  35.069  1.00  0.00     0.064 A 
ATOM     80  C   UNL A   1      44.573  27.059  36.053  1.00  0.00     0.173 A 
ATOM     81  C   UNL A   1      45.945  28.669  34.922  1.00  0.00     0.173 A 
ATOM     82  F   UNL A   1      43.391  26.458  36.256  1.00  0.00    -0.203 F 
ATOM     83  C   UNL A   1      45.650  26.717  36.870  1.00  0.00     0.198 A 
ATOM     84  C   UNL A   1      47.030  28.303  35.717  1.00  0.00     0.198 A 
ATOM     85  F   UNL A   1      46.117  29.629  34.000  1.00  0.00    -0.203 F 
ATOM     86  F   UNL A   1      45.491  25.803  37.838  1.00  0.00    -0.200 F 
ATOM     87  C   UNL A   1      46.879  27.335  36.696  1.00  0.00     0.200 A 
ATOM     88  F   UNL A   1      48.219  28.893  35.536  1.00  0.00    -0.200 F 
ATOM     89  F   UNL A   1      47.916  27.002  37.479  1.00  0.00    -0.200 F 
ENDBRANCH  55  79
BRANCH  67  90
ATOM     90  C   UNL A   1      39.626  32.771  35.934  1.00  0.00     0.064 A 
ATOM     91  C   UNL A   1      40.210  34.043  36.000  1.00  0.00     0.173 A 
ATOM     92  C   UNL A   1      38.671  32.438  36.907  1.00  0.00     0.173 A 
ATOM     93  F   UNL A   1      41.140  34.407  35.103  1.00  0.00    -0.203 F 
ATOM     94  C   UNL A   1      39.864  34.940  37.007  1.00  0.00     0.198 A 
ATOM     95  C   UNL A   1      38.302  33.349  37.894  1.00  0.00     0.198 A 
ATOM     96  F   UNL A   1      38.074  31.236  36.887  1.00  0.00    -0.203 F 
ATOM     97  F   UNL A   1      40.466  36.135  37.074  1.00  0.00    -0.200 F 
ATOM     98  C   UNL A   1      38.903  34.596  37.947  1.00  0.00     0.200 A 
ATOM     99  F   UNL A   1      37.360  33.020  38.788  1.00  0.00    -0.200 F 
ATOM    100  F   UNL A   1      38.560  35.466  38.906  1.00  0.00    -0.200 F 
ENDBRANCH  67  90
ENDBRANCH  41  42
ENDBRANCH  34  36
ENDBRANCH  33  34
ENDBRANCH  32  33
ENDBRANCH  31  32
ENDBRANCH  30  31
ENDBRANCH  29  30
ENDBRANCH  28  29
ENDBRANCH  27  28
ENDBRANCH  26  27
ENDBRANCH   1  26
TORSDOF 25
ENDMDL
