MODEL 1
REMARK VINA RESULT:     -11.8      0.000      0.000
REMARK SMILES O=C(OCCOCCOCCOCCOC(=O)c1nn(Cc2ccc(F)cc2)c2c1CN(C(=O)[C@H]1CC1(F)F)CC2)c1ccc(-c2c3nc(c(-c4c(F)c(F)c(F)c(F)c4F)c4ccc([nH]4)c(-c4c(F)c(F)c(F)c(F)c4F)c4nc(c(-c5c(F)c(F)c(F)c(F)c5F)c5ccc2[nH]5)C=C4)C=C3)cc1
REMARK SMILES IDX 9 1 8 2 7 3 6 4 5 5 4 6 3 7 2 8 1 9 42 10 43 11 104 12 44 13
REMARK SMILES IDX 103 14 45 15 46 16 47 17 97 18 48 19 102 20 96 21 98 22
REMARK SMILES IDX 49 23 101 24 95 25 94 26 50 28 82 29 62 30 81 31 63 32 66 33
REMARK SMILES IDX 80 34 99 35 64 36 65 37 79 39 100 40 67 41 51 42 52 43 60 44
REMARK SMILES IDX 53 45 54 46 58 47 61 48 55 49 56 50 59 51 57 52 83 53 84 54
REMARK SMILES IDX 92 55 85 56 86 57 90 58 93 59 87 60 88 61 91 62 89 63 68 64
REMARK SMILES IDX 69 65 77 66 70 67 71 68 75 69 78 70 72 71 73 72 76 73 74 74
REMARK SMILES IDX 10 75 11 76 12 77 13 78 14 79 15 80 16 81 17 82 18 83 19 84
REMARK SMILES IDX 30 85 20 86 29 87 31 88 41 89 32 90 40 91 21 92 22 93 23 94
REMARK SMILES IDX 28 95 24 96 27 97 25 98 26 99 33 100 34 101 35 102 36 103
REMARK SMILES IDX 37 104 38 105 39 106
REMARK H PARENT 98 27 66 38
REMARK Flexibility Score: inf
ROOT
ATOM      1  O   UNL A   1      42.768  20.320  26.629  1.00  0.00    -0.377 OA
ENDROOT
BRANCH   1   2
ATOM      2  C   UNL A   1      42.510  19.235  25.759  1.00  0.00     0.188 C 
BRANCH   2   3
ATOM      3  C   UNL A   1      43.729  18.642  25.033  1.00  0.00     0.188 C 
BRANCH   3   4
ATOM      4  O   UNL A   1      44.873  18.071  25.672  1.00  0.00    -0.376 OA
BRANCH   4   5
ATOM      5  C   UNL A   1      46.208  18.525  25.619  1.00  0.00     0.202 C 
BRANCH   5   6
ATOM      6  C   UNL A   1      46.478  19.769  24.774  1.00  0.00     0.261 C 
BRANCH   6   7
ATOM      7  O   UNL A   1      46.157  21.016  25.390  1.00  0.00    -0.460 OA
BRANCH   7   8
ATOM      8  C   UNL A   1      45.381  22.016  24.921  1.00  0.00     0.338 C 
ATOM      9  O   UNL A   1      44.644  21.784  23.961  1.00  0.00    -0.246 OA
BRANCH   8  10
ATOM     10  C   UNL A   1      45.403  23.412  25.428  1.00  0.00     0.060 A 
ATOM     11  C   UNL A   1      46.136  23.857  26.529  1.00  0.00     0.016 A 
ATOM     12  C   UNL A   1      44.506  24.297  24.796  1.00  0.00     0.016 A 
ATOM     13  C   UNL A   1      45.844  25.072  27.105  1.00  0.00     0.010 A 
ATOM     14  C   UNL A   1      44.212  25.520  25.364  1.00  0.00     0.010 A 
ATOM     15  C   UNL A   1      44.812  25.837  26.574  1.00  0.00    -0.014 A 
BRANCH  15  16
ATOM     16  C   UNL A   1      44.342  26.928  27.398  1.00  0.00     0.031 A 
ATOM     17  C   UNL A   1      45.217  28.121  27.408  1.00  0.00     0.074 A 
ATOM     18  C   UNL A   1      43.208  26.793  28.110  1.00  0.00     0.049 A 
ATOM     19  N   UNL A   1      45.848  28.639  28.410  1.00  0.00    -0.248 NA
ATOM     20  C   UNL A   1      45.535  28.735  26.110  1.00  0.00     0.031 C 
ATOM     21  C   UNL A   1      42.189  25.744  27.997  1.00  0.00     0.029 A 
ATOM     22  N   UNL A   1      42.678  27.633  29.035  1.00  0.00    -0.354 N 
ATOM     23  C   UNL A   1      46.502  29.758  27.904  1.00  0.00     0.074 A 
ATOM     24  C   UNL A   1      46.399  29.682  26.471  1.00  0.00     0.031 C 
ATOM     25  C   UNL A   1      41.066  26.148  28.631  1.00  0.00     0.029 A 
ATOM     26  C   UNL A   1      41.336  27.408  29.297  1.00  0.00     0.049 A 
ATOM     27  H   UNL A   1      43.200  28.340  29.478  1.00  0.00     0.167 HD
ATOM     28  C   UNL A   1      46.858  30.786  28.721  1.00  0.00     0.037 A 
ATOM     29  C   UNL A   1      40.500  28.268  29.929  1.00  0.00     0.037 A 
ATOM     30  C   UNL A   1      46.983  30.349  30.086  1.00  0.00     0.049 A 
ATOM     31  C   UNL A   1      41.346  29.210  30.706  1.00  0.00     0.074 A 
ATOM     32  C   UNL A   1      47.785  29.434  30.741  1.00  0.00     0.029 A 
ATOM     33  N   UNL A   1      45.963  30.636  30.959  1.00  0.00    -0.354 N 
ATOM     34  N   UNL A   1      42.055  28.864  31.747  1.00  0.00    -0.248 NA
ATOM     35  C   UNL A   1      41.757  30.446  30.056  1.00  0.00     0.031 C 
ATOM     36  C   UNL A   1      46.956  28.869  31.754  1.00  0.00     0.029 A 
ATOM     37  C   UNL A   1      45.716  29.504  31.690  1.00  0.00     0.049 A 
ATOM     38  H   UNL A   1      45.494  31.498  31.044  1.00  0.00     0.167 HD
ATOM     39  C   UNL A   1      43.232  29.591  31.630  1.00  0.00     0.074 A 
ATOM     40  C   UNL A   1      42.955  30.611  30.622  1.00  0.00     0.031 C 
ATOM     41  C   UNL A   1      44.403  29.119  32.148  1.00  0.00     0.037 A 
BRANCH  28  42
ATOM     42  C   UNL A   1      46.683  32.241  28.346  1.00  0.00     0.064 A 
ATOM     43  C   UNL A   1      47.752  33.109  28.026  1.00  0.00     0.173 A 
ATOM     44  C   UNL A   1      45.402  32.697  27.972  1.00  0.00     0.173 A 
ATOM     45  F   UNL A   1      49.030  32.794  28.259  1.00  0.00    -0.203 F 
ATOM     46  C   UNL A   1      47.562  34.305  27.339  1.00  0.00     0.198 A 
ATOM     47  C   UNL A   1      45.223  33.872  27.236  1.00  0.00     0.198 A 
ATOM     48  F   UNL A   1      44.313  31.956  28.220  1.00  0.00    -0.203 F 
ATOM     49  F   UNL A   1      48.627  35.055  27.020  1.00  0.00    -0.200 F 
ATOM     50  C   UNL A   1      46.305  34.668  26.909  1.00  0.00     0.200 A 
ATOM     51  F   UNL A   1      44.006  34.187  26.777  1.00  0.00    -0.200 F 
ATOM     52  F   UNL A   1      46.146  35.753  26.141  1.00  0.00    -0.200 F 
ENDBRANCH  28  42
BRANCH  29  53
ATOM     53  C   UNL A   1      39.090  28.563  29.571  1.00  0.00     0.064 A 
ATOM     54  C   UNL A   1      38.719  28.971  28.274  1.00  0.00     0.173 A 
ATOM     55  C   UNL A   1      38.120  28.722  30.573  1.00  0.00     0.173 A 
ATOM     56  F   UNL A   1      39.593  28.937  27.258  1.00  0.00    -0.203 F 
ATOM     57  C   UNL A   1      37.466  29.522  28.000  1.00  0.00     0.198 A 
ATOM     58  C   UNL A   1      36.868  29.287  30.300  1.00  0.00     0.198 A 
ATOM     59  F   UNL A   1      38.404  28.399  31.844  1.00  0.00    -0.203 F 
ATOM     60  F   UNL A   1      37.183  29.944  26.759  1.00  0.00    -0.200 F 
ATOM     61  C   UNL A   1      36.548  29.695  29.016  1.00  0.00     0.200 A 
ATOM     62  F   UNL A   1      35.996  29.489  31.297  1.00  0.00    -0.200 F 
ATOM     63  F   UNL A   1      35.376  30.296  28.767  1.00  0.00    -0.200 F 
ENDBRANCH  29  53
BRANCH  41  64
ATOM     64  C   UNL A   1      44.339  27.938  33.073  1.00  0.00     0.064 A 
ATOM     65  C   UNL A   1      44.390  26.655  32.512  1.00  0.00     0.173 A 
ATOM     66  C   UNL A   1      44.054  28.037  34.445  1.00  0.00     0.173 A 
ATOM     67  F   UNL A   1      44.600  26.506  31.196  1.00  0.00    -0.203 F 
ATOM     68  C   UNL A   1      44.162  25.521  33.286  1.00  0.00     0.198 A 
ATOM     69  C   UNL A   1      43.863  26.898  35.225  1.00  0.00     0.198 A 
ATOM     70  F   UNL A   1      43.890  29.230  35.031  1.00  0.00    -0.203 F 
ATOM     71  F   UNL A   1      44.153  24.312  32.708  1.00  0.00    -0.200 F 
ATOM     72  C   UNL A   1      43.907  25.642  34.642  1.00  0.00     0.200 A 
ATOM     73  F   UNL A   1      43.591  27.016  36.533  1.00  0.00    -0.200 F 
ATOM     74  F   UNL A   1      43.668  24.549  35.381  1.00  0.00    -0.200 F 
ENDBRANCH  41  64
ENDBRANCH  15  16
ENDBRANCH   8  10
ENDBRANCH   7   8
ENDBRANCH   6   7
ENDBRANCH   5   6
ENDBRANCH   4   5
ENDBRANCH   3   4
ENDBRANCH   2   3
ENDBRANCH   1   2
BRANCH   1  75
ATOM     75  C   UNL A   1      41.684  20.707  27.435  1.00  0.00     0.188 C 
BRANCH  75  76
ATOM     76  C   UNL A   1      40.910  21.930  26.886  1.00  0.00     0.188 C 
BRANCH  76  77
ATOM     77  O   UNL A   1      39.583  21.814  26.400  1.00  0.00    -0.376 OA
BRANCH  77  78
ATOM     78  C   UNL A   1      38.810  22.970  26.151  1.00  0.00     0.202 C 
BRANCH  78  79
ATOM     79  C   UNL A   1      37.323  22.802  25.807  1.00  0.00     0.261 C 
BRANCH  79  80
ATOM     80  O   UNL A   1      36.731  23.801  24.962  1.00  0.00    -0.458 OA
BRANCH  80  81
ATOM     81  C   UNL A   1      36.162  23.386  23.785  1.00  0.00     0.359 C 
ATOM     82  O   UNL A   1      36.785  23.135  22.760  1.00  0.00    -0.244 OA
BRANCH  81  83
ATOM     83  C   UNL A   1      34.709  23.174  23.921  1.00  0.00     0.175 A 
ATOM     84  N   UNL A   1      34.236  21.928  24.128  1.00  0.00    -0.165 NA
ATOM     85  C   UNL A   1      33.627  24.117  23.855  1.00  0.00     0.028 A 
ATOM     86  N   UNL A   1      32.897  22.062  24.193  1.00  0.00    -0.264 N 
ATOM     87  C   UNL A   1      32.490  23.343  23.988  1.00  0.00     0.046 A 
ATOM     88  C   UNL A   1      33.572  25.597  23.628  1.00  0.00     0.159 C 
ATOM     89  C   UNL A   1      31.096  23.857  23.946  1.00  0.00     0.078 C 
ATOM     90  N   UNL A   1      32.181  26.090  23.752  1.00  0.00    -0.337 N 
ATOM     91  C   UNL A   1      31.111  25.217  23.227  1.00  0.00     0.126 C 
BRANCH  86  92
ATOM     92  C   UNL A   1      32.083  20.921  24.593  1.00  0.00     0.180 C 
BRANCH  92  93
ATOM     93  C   UNL A   1      32.668  19.605  24.145  1.00  0.00    -0.026 A 
ATOM     94  C   UNL A   1      32.165  18.960  23.000  1.00  0.00     0.008 A 
ATOM     95  C   UNL A   1      33.744  19.026  24.835  1.00  0.00     0.008 A 
ATOM     96  C   UNL A   1      32.737  17.772  22.547  1.00  0.00     0.039 A 
ATOM     97  C   UNL A   1      34.317  17.838  24.376  1.00  0.00     0.039 A 
ATOM     98  C   UNL A   1      33.811  17.226  23.234  1.00  0.00     0.123 A 
ATOM     99  F   UNL A   1      34.373  16.095  22.789  1.00  0.00    -0.207 F 
ENDBRANCH  92  93
ENDBRANCH  86  92
BRANCH  90 100
ATOM    100  C   UNL A   1      31.978  27.393  24.186  1.00  0.00     0.232 C 
ATOM    101  O   UNL A   1      32.199  28.375  23.481  1.00  0.00    -0.274 OA
BRANCH 100 102
ATOM    102  C   UNL A   1      31.404  27.586  25.534  1.00  0.00     0.154 C 
ATOM    103  C   UNL A   1      32.036  26.922  26.749  1.00  0.00     0.097 C 
ATOM    104  C   UNL A   1      32.129  28.386  26.550  1.00  0.00     0.260 C 
ATOM    105  F   UNL A   1      33.364  28.947  26.336  1.00  0.00    -0.206 F 
ATOM    106  F   UNL A   1      31.445  29.215  27.413  1.00  0.00    -0.206 F 
ENDBRANCH 100 102
ENDBRANCH  90 100
ENDBRANCH  81  83
ENDBRANCH  80  81
ENDBRANCH  79  80
ENDBRANCH  78  79
ENDBRANCH  77  78
ENDBRANCH  76  77
ENDBRANCH  75  76
ENDBRANCH   1  75
TORSDOF 24
ENDMDL
MODEL 2
REMARK VINA RESULT:     -11.1      2.323      5.194
REMARK SMILES O=C(OCCOCCOCCOCCOC(=O)c1nn(Cc2ccc(F)cc2)c2c1CN(C(=O)[C@H]1CC1(F)F)CC2)c1ccc(-c2c3nc(c(-c4c(F)c(F)c(F)c(F)c4F)c4ccc([nH]4)c(-c4c(F)c(F)c(F)c(F)c4F)c4nc(c(-c5c(F)c(F)c(F)c(F)c5F)c5ccc2[nH]5)C=C4)C=C3)cc1
REMARK SMILES IDX 9 1 8 2 7 3 6 4 5 5 4 6 3 7 2 8 1 9 42 10 43 11 104 12 44 13
REMARK SMILES IDX 103 14 45 15 46 16 47 17 97 18 48 19 102 20 96 21 98 22
REMARK SMILES IDX 49 23 101 24 95 25 94 26 50 28 82 29 62 30 81 31 63 32 66 33
REMARK SMILES IDX 80 34 99 35 64 36 65 37 79 39 100 40 67 41 51 42 52 43 60 44
REMARK SMILES IDX 53 45 54 46 58 47 61 48 55 49 56 50 59 51 57 52 83 53 84 54
REMARK SMILES IDX 92 55 85 56 86 57 90 58 93 59 87 60 88 61 91 62 89 63 68 64
REMARK SMILES IDX 69 65 77 66 70 67 71 68 75 69 78 70 72 71 73 72 76 73 74 74
REMARK SMILES IDX 10 75 11 76 12 77 13 78 14 79 15 80 16 81 17 82 18 83 19 84
REMARK SMILES IDX 30 85 20 86 29 87 31 88 41 89 32 90 40 91 21 92 22 93 23 94
REMARK SMILES IDX 28 95 24 96 27 97 25 98 26 99 33 100 34 101 35 102 36 103
REMARK SMILES IDX 37 104 38 105 39 106
REMARK H PARENT 98 27 66 38
REMARK Flexibility Score: inf
ROOT
ATOM      1  O   UNL A   1      42.501  19.884  26.947  1.00  0.00    -0.377 OA
ENDROOT
BRANCH   1   2
ATOM      2  C   UNL A   1      43.053  18.896  26.098  1.00  0.00     0.188 C 
BRANCH   2   3
ATOM      3  C   UNL A   1      44.032  19.396  25.023  1.00  0.00     0.188 C 
BRANCH   3   4
ATOM      4  O   UNL A   1      45.221  20.149  25.275  1.00  0.00    -0.376 OA
BRANCH   4   5
ATOM      5  C   UNL A   1      45.346  21.549  25.395  1.00  0.00     0.202 C 
BRANCH   5   6
ATOM      6  C   UNL A   1      44.081  22.376  25.163  1.00  0.00     0.261 C 
BRANCH   6   7
ATOM      7  O   UNL A   1      43.581  23.074  26.303  1.00  0.00    -0.460 OA
BRANCH   7   8
ATOM      8  C   UNL A   1      42.540  23.930  26.381  1.00  0.00     0.338 C 
ATOM      9  O   UNL A   1      41.411  23.500  26.142  1.00  0.00    -0.246 OA
BRANCH   8  10
ATOM     10  C   UNL A   1      42.661  25.384  26.660  1.00  0.00     0.060 A 
ATOM     11  C   UNL A   1      43.595  25.964  27.519  1.00  0.00     0.016 A 
ATOM     12  C   UNL A   1      41.657  26.191  26.089  1.00  0.00     0.016 A 
ATOM     13  C   UNL A   1      43.420  27.258  27.952  1.00  0.00     0.010 A 
ATOM     14  C   UNL A   1      41.478  27.493  26.514  1.00  0.00     0.010 A 
ATOM     15  C   UNL A   1      42.303  27.967  27.523  1.00  0.00    -0.014 A 
BRANCH  15  16
ATOM     16  C   UNL A   1      42.004  29.179  28.250  1.00  0.00     0.031 A 
ATOM     17  C   UNL A   1      43.026  30.243  28.134  1.00  0.00     0.074 A 
ATOM     18  C   UNL A   1      40.883  29.260  28.991  1.00  0.00     0.049 A 
ATOM     19  N   UNL A   1      43.748  30.760  29.073  1.00  0.00    -0.248 NA
ATOM     20  C   UNL A   1      43.383  30.690  26.780  1.00  0.00     0.031 C 
ATOM     21  C   UNL A   1      39.733  28.349  28.993  1.00  0.00     0.029 A 
ATOM     22  N   UNL A   1      40.493  30.243  29.842  1.00  0.00    -0.354 N 
ATOM     23  C   UNL A   1      44.527  31.734  28.455  1.00  0.00     0.074 A 
ATOM     24  C   UNL A   1      44.373  31.543  27.037  1.00  0.00     0.031 C 
ATOM     25  C   UNL A   1      38.691  28.953  29.606  1.00  0.00     0.029 A 
ATOM     26  C   UNL A   1      39.142  30.221  30.147  1.00  0.00     0.049 A 
ATOM     27  H   UNL A   1      41.115  30.911  30.209  1.00  0.00     0.167 HD
ATOM     28  C   UNL A   1      45.037  32.775  29.166  1.00  0.00     0.037 A 
ATOM     29  C   UNL A   1      38.443  31.237  30.710  1.00  0.00     0.037 A 
ATOM     30  C   UNL A   1      45.144  32.449  30.564  1.00  0.00     0.049 A 
ATOM     31  C   UNL A   1      39.426  32.125  31.383  1.00  0.00     0.074 A 
ATOM     32  C   UNL A   1      45.838  31.499  31.287  1.00  0.00     0.029 A 
ATOM     33  N   UNL A   1      44.195  32.946  31.424  1.00  0.00    -0.354 N 
ATOM     34  N   UNL A   1      40.115  31.784  32.439  1.00  0.00    -0.248 NA
ATOM     35  C   UNL A   1      39.976  33.233  30.613  1.00  0.00     0.031 C 
ATOM     36  C   UNL A   1      44.973  31.141  32.362  1.00  0.00     0.029 A 
ATOM     37  C   UNL A   1      43.825  31.926  32.261  1.00  0.00     0.049 A 
ATOM     38  H   UNL A   1      43.844  33.866  31.436  1.00  0.00     0.167 HD
ATOM     39  C   UNL A   1      41.372  32.335  32.235  1.00  0.00     0.074 A 
ATOM     40  C   UNL A   1      41.201  33.288  31.141  1.00  0.00     0.031 C 
ATOM     41  C   UNL A   1      42.486  31.761  32.775  1.00  0.00     0.037 A 
BRANCH  28  42
ATOM     42  C   UNL A   1      45.042  34.200  28.662  1.00  0.00     0.064 A 
ATOM     43  C   UNL A   1      43.875  34.963  28.436  1.00  0.00     0.173 A 
ATOM     44  C   UNL A   1      46.243  34.938  28.722  1.00  0.00     0.173 A 
ATOM     45  F   UNL A   1      42.652  34.421  28.413  1.00  0.00    -0.203 F 
ATOM     46  C   UNL A   1      43.898  36.352  28.335  1.00  0.00     0.198 A 
ATOM     47  C   UNL A   1      46.255  36.334  28.674  1.00  0.00     0.198 A 
ATOM     48  F   UNL A   1      47.414  34.321  28.938  1.00  0.00    -0.203 F 
ATOM     49  F   UNL A   1      42.745  37.019  28.174  1.00  0.00    -0.200 F 
ATOM     50  C   UNL A   1      45.080  37.041  28.494  1.00  0.00     0.200 A 
ATOM     51  F   UNL A   1      47.400  36.995  28.883  1.00  0.00    -0.200 F 
ATOM     52  F   UNL A   1      45.078  38.379  28.522  1.00  0.00    -0.200 F 
ENDBRANCH  28  42
BRANCH  29  53
ATOM     53  C   UNL A   1      37.073  31.682  30.351  1.00  0.00     0.064 A 
ATOM     54  C   UNL A   1      36.771  32.212  29.080  1.00  0.00     0.173 A 
ATOM     55  C   UNL A   1      36.098  31.858  31.345  1.00  0.00     0.173 A 
ATOM     56  F   UNL A   1      37.662  32.170  28.079  1.00  0.00    -0.203 F 
ATOM     57  C   UNL A   1      35.579  32.892  28.825  1.00  0.00     0.198 A 
ATOM     58  C   UNL A   1      34.909  32.551  31.092  1.00  0.00     0.198 A 
ATOM     59  F   UNL A   1      36.322  31.423  32.593  1.00  0.00    -0.203 F 
ATOM     60  F   UNL A   1      35.364  33.423  27.613  1.00  0.00    -0.200 F 
ATOM     61  C   UNL A   1      34.656  33.076  29.835  1.00  0.00     0.200 A 
ATOM     62  F   UNL A   1      34.034  32.761  32.085  1.00  0.00    -0.200 F 
ATOM     63  F   UNL A   1      33.548  33.796  29.609  1.00  0.00    -0.200 F 
ENDBRANCH  29  53
BRANCH  41  64
ATOM     64  C   UNL A   1      42.296  30.687  33.806  1.00  0.00     0.064 A 
ATOM     65  C   UNL A   1      42.482  31.023  35.153  1.00  0.00     0.173 A 
ATOM     66  C   UNL A   1      42.114  29.329  33.494  1.00  0.00     0.173 A 
ATOM     67  F   UNL A   1      42.718  32.297  35.501  1.00  0.00    -0.203 F 
ATOM     68  C   UNL A   1      42.493  30.046  36.144  1.00  0.00     0.198 A 
ATOM     69  C   UNL A   1      42.088  28.357  34.493  1.00  0.00     0.198 A 
ATOM     70  F   UNL A   1      42.030  28.919  32.222  1.00  0.00    -0.203 F 
ATOM     71  F   UNL A   1      42.739  30.391  37.416  1.00  0.00    -0.200 F 
ATOM     72  C   UNL A   1      42.288  28.716  35.816  1.00  0.00     0.200 A 
ATOM     73  F   UNL A   1      41.916  27.066  34.172  1.00  0.00    -0.200 F 
ATOM     74  F   UNL A   1      42.318  27.776  36.771  1.00  0.00    -0.200 F 
ENDBRANCH  41  64
ENDBRANCH  15  16
ENDBRANCH   8  10
ENDBRANCH   7   8
ENDBRANCH   6   7
ENDBRANCH   5   6
ENDBRANCH   4   5
ENDBRANCH   3   4
ENDBRANCH   2   3
ENDBRANCH   1   2
BRANCH   1  75
ATOM     75  C   UNL A   1      41.134  19.726  27.232  1.00  0.00     0.188 C 
BRANCH  75  76
ATOM     76  C   UNL A   1      40.203  20.255  26.114  1.00  0.00     0.188 C 
BRANCH  76  77
ATOM     77  O   UNL A   1      39.307  21.331  26.338  1.00  0.00    -0.376 OA
BRANCH  77  78
ATOM     78  C   UNL A   1      38.260  21.590  25.426  1.00  0.00     0.202 C 
BRANCH  78  79
ATOM     79  C   UNL A   1      37.260  22.708  25.751  1.00  0.00     0.261 C 
BRANCH  79  80
ATOM     80  O   UNL A   1      37.046  23.707  24.741  1.00  0.00    -0.458 OA
BRANCH  80  81
ATOM     81  C   UNL A   1      36.363  23.336  23.611  1.00  0.00     0.359 C 
ATOM     82  O   UNL A   1      36.889  22.941  22.578  1.00  0.00    -0.244 OA
BRANCH  81  83
ATOM     83  C   UNL A   1      34.903  23.368  23.816  1.00  0.00     0.175 A 
ATOM     84  N   UNL A   1      34.228  24.516  23.608  1.00  0.00    -0.165 NA
ATOM     85  C   UNL A   1      34.005  22.329  24.240  1.00  0.00     0.028 A 
ATOM     86  N   UNL A   1      32.941  24.229  23.887  1.00  0.00    -0.264 N 
ATOM     87  C   UNL A   1      32.773  22.949  24.314  1.00  0.00     0.046 A 
ATOM     88  C   UNL A   1      34.209  20.893  24.621  1.00  0.00     0.159 C 
ATOM     89  C   UNL A   1      31.511  22.295  24.748  1.00  0.00     0.078 C 
ATOM     90  N   UNL A   1      32.909  20.239  24.893  1.00  0.00    -0.337 N 
ATOM     91  C   UNL A   1      31.879  21.051  25.574  1.00  0.00     0.126 C 
BRANCH  86  92
ATOM     92  C   UNL A   1      31.908  25.212  23.588  1.00  0.00     0.180 C 
BRANCH  92  93
ATOM     93  C   UNL A   1      31.896  26.360  24.566  1.00  0.00    -0.026 A 
ATOM     94  C   UNL A   1      31.519  27.647  24.143  1.00  0.00     0.008 A 
ATOM     95  C   UNL A   1      32.218  26.154  25.917  1.00  0.00     0.008 A 
ATOM     96  C   UNL A   1      31.450  28.701  25.052  1.00  0.00     0.039 A 
ATOM     97  C   UNL A   1      32.143  27.212  26.826  1.00  0.00     0.039 A 
ATOM     98  C   UNL A   1      31.756  28.472  26.386  1.00  0.00     0.123 A 
ATOM     99  F   UNL A   1      31.672  29.480  27.264  1.00  0.00    -0.207 F 
ENDBRANCH  92  93
ENDBRANCH  86  92
BRANCH  90 100
ATOM    100  C   UNL A   1      32.792  18.877  24.656  1.00  0.00     0.232 C 
ATOM    101  O   UNL A   1      31.813  18.218  25.001  1.00  0.00    -0.274 OA
BRANCH 100 102
ATOM    102  C   UNL A   1      33.872  18.219  23.890  1.00  0.00     0.154 C 
ATOM    103  C   UNL A   1      35.007  17.502  24.608  1.00  0.00     0.097 C 
ATOM    104  C   UNL A   1      33.978  16.740  23.863  1.00  0.00     0.260 C 
ATOM    105  F   UNL A   1      33.141  15.905  24.561  1.00  0.00    -0.206 F 
ATOM    106  F   UNL A   1      34.350  16.082  22.711  1.00  0.00    -0.206 F 
ENDBRANCH 100 102
ENDBRANCH  90 100
ENDBRANCH  81  83
ENDBRANCH  80  81
ENDBRANCH  79  80
ENDBRANCH  78  79
ENDBRANCH  77  78
ENDBRANCH  76  77
ENDBRANCH  75  76
ENDBRANCH   1  75
TORSDOF 24
ENDMDL
MODEL 3
REMARK VINA RESULT:     -10.9      1.663      2.843
REMARK SMILES O=C(OCCOCCOCCOCCOC(=O)c1nn(Cc2ccc(F)cc2)c2c1CN(C(=O)[C@H]1CC1(F)F)CC2)c1ccc(-c2c3nc(c(-c4c(F)c(F)c(F)c(F)c4F)c4ccc([nH]4)c(-c4c(F)c(F)c(F)c(F)c4F)c4nc(c(-c5c(F)c(F)c(F)c(F)c5F)c5ccc2[nH]5)C=C4)C=C3)cc1
REMARK SMILES IDX 9 1 8 2 7 3 6 4 5 5 4 6 3 7 2 8 1 9 42 10 43 11 104 12 44 13
REMARK SMILES IDX 103 14 45 15 46 16 47 17 97 18 48 19 102 20 96 21 98 22
REMARK SMILES IDX 49 23 101 24 95 25 94 26 50 28 82 29 62 30 81 31 63 32 66 33
REMARK SMILES IDX 80 34 99 35 64 36 65 37 79 39 100 40 67 41 51 42 52 43 60 44
REMARK SMILES IDX 53 45 54 46 58 47 61 48 55 49 56 50 59 51 57 52 83 53 84 54
REMARK SMILES IDX 92 55 85 56 86 57 90 58 93 59 87 60 88 61 91 62 89 63 68 64
REMARK SMILES IDX 69 65 77 66 70 67 71 68 75 69 78 70 72 71 73 72 76 73 74 74
REMARK SMILES IDX 10 75 11 76 12 77 13 78 14 79 15 80 16 81 17 82 18 83 19 84
REMARK SMILES IDX 30 85 20 86 29 87 31 88 41 89 32 90 40 91 21 92 22 93 23 94
REMARK SMILES IDX 28 95 24 96 27 97 25 98 26 99 33 100 34 101 35 102 36 103
REMARK SMILES IDX 37 104 38 105 39 106
REMARK H PARENT 98 27 66 38
REMARK Flexibility Score: inf
ROOT
ATOM      1  O   UNL A   1      38.588  21.124  25.841  1.00  0.00    -0.377 OA
ENDROOT
BRANCH   1   2
ATOM      2  C   UNL A   1      39.585  21.981  26.361  1.00  0.00     0.188 C 
BRANCH   2   3
ATOM      3  C   UNL A   1      41.042  21.558  26.108  1.00  0.00     0.188 C 
BRANCH   3   4
ATOM      4  O   UNL A   1      41.664  20.384  26.637  1.00  0.00    -0.376 OA
BRANCH   4   5
ATOM      5  C   UNL A   1      42.083  19.237  25.930  1.00  0.00     0.202 C 
BRANCH   5   6
ATOM      6  C   UNL A   1      43.480  18.705  26.248  1.00  0.00     0.261 C 
BRANCH   6   7
ATOM      7  O   UNL A   1      44.500  19.048  25.310  1.00  0.00    -0.460 OA
BRANCH   7   8
ATOM      8  C   UNL A   1      44.553  20.099  24.464  1.00  0.00     0.338 C 
ATOM      9  O   UNL A   1      44.410  19.888  23.260  1.00  0.00    -0.246 OA
BRANCH   8  10
ATOM     10  C   UNL A   1      44.853  21.496  24.870  1.00  0.00     0.060 A 
ATOM     11  C   UNL A   1      45.737  21.868  25.884  1.00  0.00     0.016 A 
ATOM     12  C   UNL A   1      44.072  22.486  24.242  1.00  0.00     0.016 A 
ATOM     13  C   UNL A   1      45.702  23.146  26.393  1.00  0.00     0.010 A 
ATOM     14  C   UNL A   1      44.036  23.773  24.742  1.00  0.00     0.010 A 
ATOM     15  C   UNL A   1      44.776  24.048  25.882  1.00  0.00    -0.014 A 
BRANCH  15  16
ATOM     16  C   UNL A   1      44.566  25.249  26.659  1.00  0.00     0.031 A 
ATOM     17  C   UNL A   1      45.622  26.275  26.515  1.00  0.00     0.074 A 
ATOM     18  C   UNL A   1      43.492  25.350  27.463  1.00  0.00     0.049 A 
ATOM     19  N   UNL A   1      46.415  26.736  27.426  1.00  0.00    -0.248 NA
ATOM     20  C   UNL A   1      45.921  26.749  25.156  1.00  0.00     0.031 C 
ATOM     21  C   UNL A   1      42.308  24.485  27.505  1.00  0.00     0.029 A 
ATOM     22  N   UNL A   1      43.190  26.321  28.362  1.00  0.00    -0.354 N 
ATOM     23  C   UNL A   1      47.197  27.697  26.792  1.00  0.00     0.074 A 
ATOM     24  C   UNL A   1      46.958  27.555  25.380  1.00  0.00     0.031 C 
ATOM     25  C   UNL A   1      41.327  25.110  28.192  1.00  0.00     0.029 A 
ATOM     26  C   UNL A   1      41.857  26.343  28.743  1.00  0.00     0.049 A 
ATOM     27  H   UNL A   1      43.858  26.954  28.712  1.00  0.00     0.167 HD
ATOM     28  C   UNL A   1      47.787  28.695  27.502  1.00  0.00     0.037 A 
ATOM     29  C   UNL A   1      41.233  27.367  29.372  1.00  0.00     0.037 A 
ATOM     30  C   UNL A   1      47.958  28.324  28.882  1.00  0.00     0.049 A 
ATOM     31  C   UNL A   1      42.286  28.197  30.013  1.00  0.00     0.074 A 
ATOM     32  C   UNL A   1      48.653  27.326  29.538  1.00  0.00     0.029 A 
ATOM     33  N   UNL A   1      47.079  28.830  29.808  1.00  0.00    -0.354 N 
ATOM     34  N   UNL A   1      43.018  27.797  31.018  1.00  0.00    -0.248 NA
ATOM     35  C   UNL A   1      42.837  29.305  29.245  1.00  0.00     0.031 C 
ATOM     36  C   UNL A   1      47.834  26.970  30.650  1.00  0.00     0.029 A 
ATOM     37  C   UNL A   1      46.715  27.801  30.635  1.00  0.00     0.049 A 
ATOM     38  H   UNL A   1      46.767  29.763  29.865  1.00  0.00     0.167 HD
ATOM     39  C   UNL A   1      44.283  28.305  30.760  1.00  0.00     0.074 A 
ATOM     40  C   UNL A   1      44.090  29.296  29.704  1.00  0.00     0.031 C 
ATOM     41  C   UNL A   1      45.402  27.672  31.219  1.00  0.00     0.037 A 
BRANCH  28  42
ATOM     42  C   UNL A   1      47.822  30.134  27.038  1.00  0.00     0.064 A 
ATOM     43  C   UNL A   1      46.670  30.915  26.797  1.00  0.00     0.173 A 
ATOM     44  C   UNL A   1      49.027  30.857  27.156  1.00  0.00     0.173 A 
ATOM     45  F   UNL A   1      45.444  30.387  26.722  1.00  0.00    -0.203 F 
ATOM     46  C   UNL A   1      46.709  32.306  26.737  1.00  0.00     0.198 A 
ATOM     47  C   UNL A   1      49.054  32.254  27.148  1.00  0.00     0.198 A 
ATOM     48  F   UNL A   1      50.185  30.222  27.391  1.00  0.00    -0.203 F 
ATOM     49  F   UNL A   1      45.569  32.989  26.559  1.00  0.00    -0.200 F 
ATOM     50  C   UNL A   1      47.893  32.978  26.951  1.00  0.00     0.200 A 
ATOM     51  F   UNL A   1      50.199  32.897  27.411  1.00  0.00    -0.200 F 
ATOM     52  F   UNL A   1      47.902  34.314  27.017  1.00  0.00    -0.200 F 
ENDBRANCH  28  42
BRANCH  29  53
ATOM     53  C   UNL A   1      39.864  27.876  29.103  1.00  0.00     0.064 A 
ATOM     54  C   UNL A   1      39.536  28.533  27.900  1.00  0.00     0.173 A 
ATOM     55  C   UNL A   1      38.925  27.977  30.142  1.00  0.00     0.173 A 
ATOM     56  F   UNL A   1      40.394  28.568  26.870  1.00  0.00    -0.203 F 
ATOM     57  C   UNL A   1      38.354  29.260  27.751  1.00  0.00     0.198 A 
ATOM     58  C   UNL A   1      37.746  28.718  29.996  1.00  0.00     0.198 A 
ATOM     59  F   UNL A   1      39.177  27.418  31.335  1.00  0.00    -0.203 F 
ATOM     60  F   UNL A   1      38.115  29.911  26.604  1.00  0.00    -0.200 F 
ATOM     61  C   UNL A   1      37.468  29.367  28.805  1.00  0.00     0.200 A 
ATOM     62  F   UNL A   1      36.909  28.850  31.034  1.00  0.00    -0.200 F 
ATOM     63  F   UNL A   1      36.372  30.130  28.686  1.00  0.00    -0.200 F 
ENDBRANCH  29  53
BRANCH  41  64
ATOM     64  C   UNL A   1      45.225  26.576  32.229  1.00  0.00     0.064 A 
ATOM     65  C   UNL A   1      45.551  26.847  33.564  1.00  0.00     0.173 A 
ATOM     66  C   UNL A   1      44.921  25.246  31.892  1.00  0.00     0.173 A 
ATOM     67  F   UNL A   1      45.907  28.089  33.929  1.00  0.00    -0.203 F 
ATOM     68  C   UNL A   1      45.579  25.836  34.519  1.00  0.00     0.198 A 
ATOM     69  C   UNL A   1      44.913  24.242  32.858  1.00  0.00     0.198 A 
ATOM     70  F   UNL A   1      44.698  24.891  30.620  1.00  0.00    -0.203 F 
ATOM     71  F   UNL A   1      45.958  26.115  35.774  1.00  0.00    -0.200 F 
ATOM     72  C   UNL A   1      45.252  24.536  34.169  1.00  0.00     0.200 A 
ATOM     73  F   UNL A   1      44.622  22.979  32.514  1.00  0.00    -0.200 F 
ATOM     74  F   UNL A   1      45.298  23.561  35.087  1.00  0.00    -0.200 F 
ENDBRANCH  41  64
ENDBRANCH  15  16
ENDBRANCH   8  10
ENDBRANCH   7   8
ENDBRANCH   6   7
ENDBRANCH   5   6
ENDBRANCH   4   5
ENDBRANCH   3   4
ENDBRANCH   2   3
ENDBRANCH   1   2
BRANCH   1  75
ATOM     75  C   UNL A   1      37.351  21.739  25.580  1.00  0.00     0.188 C 
BRANCH  75  76
ATOM     76  C   UNL A   1      37.087  21.984  24.075  1.00  0.00     0.188 C 
BRANCH  76  77
ATOM     77  O   UNL A   1      36.169  22.969  23.631  1.00  0.00    -0.376 OA
BRANCH  77  78
ATOM     78  C   UNL A   1      35.824  24.053  24.469  1.00  0.00     0.202 C 
BRANCH  78  79
ATOM     79  C   UNL A   1      34.822  25.094  23.951  1.00  0.00     0.261 C 
BRANCH  79  80
ATOM     80  O   UNL A   1      34.479  25.034  22.557  1.00  0.00    -0.458 OA
BRANCH  80  81
ATOM     81  C   UNL A   1      33.360  24.323  22.206  1.00  0.00     0.359 C 
ATOM     82  O   UNL A   1      33.066  24.008  21.059  1.00  0.00    -0.244 OA
BRANCH  81  83
ATOM     83  C   UNL A   1      32.593  23.885  23.387  1.00  0.00     0.175 A 
ATOM     84  N   UNL A   1      32.469  22.568  23.648  1.00  0.00    -0.165 NA
ATOM     85  C   UNL A   1      31.890  24.660  24.373  1.00  0.00     0.028 A 
ATOM     86  N   UNL A   1      31.714  22.496  24.763  1.00  0.00    -0.264 N 
ATOM     87  C   UNL A   1      31.309  23.718  25.200  1.00  0.00     0.046 A 
ATOM     88  C   UNL A   1      31.681  26.133  24.558  1.00  0.00     0.159 C 
ATOM     89  C   UNL A   1      30.438  24.023  26.364  1.00  0.00     0.078 C 
ATOM     90  N   UNL A   1      30.944  26.399  25.815  1.00  0.00    -0.337 N 
ATOM     91  C   UNL A   1      29.878  25.444  26.181  1.00  0.00     0.126 C 
BRANCH  86  92
ATOM     92  C   UNL A   1      31.539  21.210  25.425  1.00  0.00     0.180 C 
BRANCH  92  93
ATOM     93  C   UNL A   1      32.514  20.167  24.937  1.00  0.00    -0.026 A 
ATOM     94  C   UNL A   1      33.880  20.271  25.255  1.00  0.00     0.008 A 
ATOM     95  C   UNL A   1      32.070  19.060  24.197  1.00  0.00     0.008 A 
ATOM     96  C   UNL A   1      34.779  19.283  24.856  1.00  0.00     0.039 A 
ATOM     97  C   UNL A   1      32.972  18.069  23.803  1.00  0.00     0.039 A 
ATOM     98  C   UNL A   1      34.316  18.188  24.141  1.00  0.00     0.123 A 
ATOM     99  F   UNL A   1      35.174  17.229  23.774  1.00  0.00    -0.207 F 
ENDBRANCH  92  93
ENDBRANCH  86  92
BRANCH  90 100
ATOM    100  C   UNL A   1      31.172  27.599  26.473  1.00  0.00     0.232 C 
ATOM    101  O   UNL A   1      31.150  27.705  27.697  1.00  0.00    -0.274 OA
BRANCH 100 102
ATOM    102  C   UNL A   1      31.523  28.776  25.652  1.00  0.00     0.154 C 
ATOM    103  C   UNL A   1      32.196  29.989  26.279  1.00  0.00     0.097 C 
ATOM    104  C   UNL A   1      32.943  29.094  25.366  1.00  0.00     0.260 C 
ATOM    105  F   UNL A   1      33.999  28.372  25.865  1.00  0.00    -0.206 F 
ATOM    106  F   UNL A   1      33.322  29.578  24.132  1.00  0.00    -0.206 F 
ENDBRANCH 100 102
ENDBRANCH  90 100
ENDBRANCH  81  83
ENDBRANCH  80  81
ENDBRANCH  79  80
ENDBRANCH  78  79
ENDBRANCH  77  78
ENDBRANCH  76  77
ENDBRANCH  75  76
ENDBRANCH   1  75
TORSDOF 24
ENDMDL
