MODEL 1
REMARK VINA RESULT:      -9.5      0.000      0.000
REMARK SMILES CCC(CC)(C(=O)OCCOCCOCCOCCOC(=O)c1ccc(-c2c3nc(c(-c4c(F)c(F)c(F)c(F)c4F)c4ccc([nH]4)c(-c4c(F)c(F)c(F)c(F)c4F)c4nc(c(-c5c(F)c(F)c(F)c(F)c5F)c5ccc2[nH]5)C=C4)C=C3)cc1)n1nnnc1CC[C@@H]1CCCO1
REMARK SMILES IDX 13 1 12 2 11 3 10 4 9 5 8 6 6 7 7 8 3 9 2 10 1 11 4 12 5 13
REMARK SMILES IDX 86 14 87 15 90 16 88 17 89 18 91 19 92 20 93 21 94 22 97 23
REMARK SMILES IDX 95 24 96 25 14 26 15 27 16 28 17 29 18 30 19 31 20 32 21 33
REMARK SMILES IDX 22 34 23 35 24 36 85 37 25 38 84 39 26 40 27 41 28 42 78 43
REMARK SMILES IDX 29 44 83 45 77 46 79 47 30 48 82 49 76 50 75 51 31 53 63 54
REMARK SMILES IDX 43 55 62 56 44 57 47 58 61 59 80 60 45 61 46 62 60 64 81 65
REMARK SMILES IDX 48 66 32 67 33 68 41 69 34 70 35 71 39 72 42 73 36 74 37 75
REMARK SMILES IDX 40 76 38 77 64 78 65 79 73 80 66 81 67 82 71 83 74 84 68 85
REMARK SMILES IDX 69 86 72 87 70 88 49 89 50 90 58 91 51 92 52 93 56 94 59 95
REMARK SMILES IDX 53 96 54 97 57 98 55 99
REMARK H PARENT 79 52 47 63
REMARK Flexibility Score: inf
ROOT
ATOM      1  C   UNL A   1      37.146  21.084  24.962  1.00  0.00     0.188 C 
ENDROOT
BRANCH   1   2
ATOM      2  C   UNL A   1      36.645  22.531  24.874  1.00  0.00     0.188 C 
BRANCH   2   3
ATOM      3  O   UNL A   1      35.436  22.707  24.174  1.00  0.00    -0.376 OA
BRANCH   3   4
ATOM      4  C   UNL A   1      34.451  23.605  24.651  1.00  0.00     0.202 C 
BRANCH   4   5
ATOM      5  C   UNL A   1      34.207  25.043  24.142  1.00  0.00     0.261 C 
BRANCH   5   6
ATOM      6  O   UNL A   1      33.801  26.048  25.084  1.00  0.00    -0.461 OA
BRANCH   6   7
ATOM      7  C   UNL A   1      33.487  27.268  24.569  1.00  0.00     0.334 C 
ATOM      8  O   UNL A   1      33.906  27.656  23.480  1.00  0.00    -0.249 OA
BRANCH   7   9
ATOM      9  C   UNL A   1      32.621  28.178  25.513  1.00  0.00     0.163 C 
BRANCH   9  10
ATOM     10  C   UNL A   1      32.287  27.517  26.898  1.00  0.00     0.039 C 
ATOM     11  C   UNL A   1      31.363  28.248  27.872  1.00  0.00     0.007 C 
ENDBRANCH   9  10
BRANCH   9  12
ATOM     12  C   UNL A   1      33.550  29.420  25.685  1.00  0.00     0.039 C 
ATOM     13  C   UNL A   1      34.614  29.235  26.773  1.00  0.00     0.007 C 
ENDBRANCH   9  12
BRANCH   9  14
ATOM     14  N   UNL A   1      31.381  28.487  24.772  1.00  0.00    -0.212 N 
ATOM     15  N   UNL A   1      31.120  29.773  24.431  1.00  0.00    -0.044 NA
ATOM     16  C   UNL A   1      30.418  27.702  24.171  1.00  0.00     0.152 A 
ATOM     17  N   UNL A   1      30.077  29.756  23.627  1.00  0.00    -0.024 NA
ATOM     18  N   UNL A   1      29.646  28.484  23.439  1.00  0.00    -0.114 NA
BRANCH  16  19
ATOM     19  C   UNL A   1      30.243  26.235  24.239  1.00  0.00     0.082 C 
BRANCH  19  20
ATOM     20  C   UNL A   1      29.779  25.734  25.601  1.00  0.00     0.040 C 
BRANCH  20  21
ATOM     21  C   UNL A   1      30.575  24.546  26.149  1.00  0.00     0.118 C 
ATOM     22  C   UNL A   1      30.873  23.459  25.123  1.00  0.00     0.034 C 
ATOM     23  O   UNL A   1      29.771  23.917  27.171  1.00  0.00    -0.378 OA
ATOM     24  C   UNL A   1      30.878  22.212  25.970  1.00  0.00     0.031 C 
ATOM     25  C   UNL A   1      29.770  22.502  26.955  1.00  0.00     0.160 C 
ENDBRANCH  20  21
ENDBRANCH  19  20
ENDBRANCH  16  19
ENDBRANCH   9  14
ENDBRANCH   7   9
ENDBRANCH   6   7
ENDBRANCH   5   6
ENDBRANCH   4   5
ENDBRANCH   3   4
ENDBRANCH   2   3
ENDBRANCH   1   2
BRANCH   1  26
ATOM     26  O   UNL A   1      38.496  20.871  25.346  1.00  0.00    -0.377 OA
BRANCH  26  27
ATOM     27  C   UNL A   1      39.148  21.822  26.182  1.00  0.00     0.188 C 
BRANCH  27  28
ATOM     28  C   UNL A   1      40.576  21.572  26.705  1.00  0.00     0.188 C 
BRANCH  28  29
ATOM     29  O   UNL A   1      40.748  20.371  27.432  1.00  0.00    -0.376 OA
BRANCH  29  30
ATOM     30  C   UNL A   1      42.001  19.709  27.393  1.00  0.00     0.202 C 
BRANCH  30  31
ATOM     31  C   UNL A   1      42.350  18.859  26.159  1.00  0.00     0.261 C 
BRANCH  31  32
ATOM     32  O   UNL A   1      42.747  19.571  24.976  1.00  0.00    -0.460 OA
BRANCH  32  33
ATOM     33  C   UNL A   1      44.064  19.629  24.678  1.00  0.00     0.338 C 
ATOM     34  O   UNL A   1      44.744  18.779  24.147  1.00  0.00    -0.246 OA
BRANCH  33  35
ATOM     35  C   UNL A   1      44.513  21.013  24.947  1.00  0.00     0.060 A 
ATOM     36  C   UNL A   1      45.199  21.285  26.139  1.00  0.00     0.016 A 
ATOM     37  C   UNL A   1      44.246  22.033  24.034  1.00  0.00     0.016 A 
ATOM     38  C   UNL A   1      45.585  22.590  26.439  1.00  0.00     0.010 A 
ATOM     39  C   UNL A   1      44.612  23.344  24.346  1.00  0.00     0.010 A 
ATOM     40  C   UNL A   1      45.248  23.633  25.567  1.00  0.00    -0.014 A 
BRANCH  40  41
ATOM     41  C   UNL A   1      45.362  25.036  26.030  1.00  0.00     0.031 A 
ATOM     42  C   UNL A   1      46.708  25.703  25.950  1.00  0.00     0.074 A 
ATOM     43  C   UNL A   1      44.294  25.715  26.485  1.00  0.00     0.049 A 
ATOM     44  N   UNL A   1      47.073  26.895  26.345  1.00  0.00    -0.248 NA
ATOM     45  C   UNL A   1      47.791  24.910  25.344  1.00  0.00     0.031 C 
ATOM     46  C   UNL A   1      42.931  25.196  26.557  1.00  0.00     0.029 A 
ATOM     47  N   UNL A   1      44.199  26.991  26.982  1.00  0.00    -0.354 N 
ATOM     48  C   UNL A   1      48.427  26.991  26.046  1.00  0.00     0.074 A 
ATOM     49  C   UNL A   1      48.825  25.726  25.468  1.00  0.00     0.031 C 
ATOM     50  C   UNL A   1      42.134  26.143  27.082  1.00  0.00     0.029 A 
ATOM     51  C   UNL A   1      42.939  27.318  27.416  1.00  0.00     0.049 A 
ATOM     52  H   UNL A   1      44.962  27.612  27.022  1.00  0.00     0.167 HD
ATOM     53  C   UNL A   1      49.260  28.041  26.233  1.00  0.00     0.037 A 
ATOM     54  C   UNL A   1      42.498  28.430  28.037  1.00  0.00     0.037 A 
ATOM     55  C   UNL A   1      48.857  29.296  26.810  1.00  0.00     0.049 A 
ATOM     56  C   UNL A   1      43.465  29.554  28.313  1.00  0.00     0.074 A 
ATOM     57  C   UNL A   1      49.618  30.430  27.026  1.00  0.00     0.029 A 
ATOM     58  N   UNL A   1      47.580  29.575  27.276  1.00  0.00    -0.354 N 
ATOM     59  N   UNL A   1      44.738  29.648  28.010  1.00  0.00    -0.248 NA
ATOM     60  C   UNL A   1      42.932  30.729  29.018  1.00  0.00     0.031 C 
ATOM     61  C   UNL A   1      48.822  31.371  27.684  1.00  0.00     0.029 A 
ATOM     62  C   UNL A   1      47.543  30.854  27.811  1.00  0.00     0.049 A 
ATOM     63  H   UNL A   1      46.814  28.959  27.234  1.00  0.00     0.167 HD
ATOM     64  C   UNL A   1      45.147  30.902  28.452  1.00  0.00     0.074 A 
ATOM     65  C   UNL A   1      43.983  31.536  29.034  1.00  0.00     0.031 C 
ATOM     66  C   UNL A   1      46.374  31.476  28.379  1.00  0.00     0.037 A 
BRANCH  53  67
ATOM     67  C   UNL A   1      50.699  27.862  25.845  1.00  0.00     0.064 A 
ATOM     68  C   UNL A   1      51.139  28.014  24.521  1.00  0.00     0.173 A 
ATOM     69  C   UNL A   1      51.660  27.553  26.821  1.00  0.00     0.173 A 
ATOM     70  F   UNL A   1      50.260  28.292  23.545  1.00  0.00    -0.203 F 
ATOM     71  C   UNL A   1      52.479  27.833  24.184  1.00  0.00     0.198 A 
ATOM     72  C   UNL A   1      53.003  27.409  26.487  1.00  0.00     0.198 A 
ATOM     73  F   UNL A   1      51.296  27.398  28.103  1.00  0.00    -0.203 F 
ATOM     74  F   UNL A   1      52.864  27.929  22.904  1.00  0.00    -0.200 F 
ATOM     75  C   UNL A   1      53.411  27.540  25.168  1.00  0.00     0.200 A 
ATOM     76  F   UNL A   1      53.904  27.139  27.442  1.00  0.00    -0.200 F 
ATOM     77  F   UNL A   1      54.701  27.373  24.844  1.00  0.00    -0.200 F 
ENDBRANCH  53  67
BRANCH  54  78
ATOM     78  C   UNL A   1      41.074  28.534  28.457  1.00  0.00     0.064 A 
ATOM     79  C   UNL A   1      40.662  28.117  29.731  1.00  0.00     0.173 A 
ATOM     80  C   UNL A   1      40.092  29.029  27.586  1.00  0.00     0.173 A 
ATOM     81  F   UNL A   1      41.558  27.611  30.592  1.00  0.00    -0.203 F 
ATOM     82  C   UNL A   1      39.322  28.171  30.109  1.00  0.00     0.198 A 
ATOM     83  C   UNL A   1      38.757  29.114  27.978  1.00  0.00     0.198 A 
ATOM     84  F   UNL A   1      40.430  29.440  26.355  1.00  0.00    -0.203 F 
ATOM     85  F   UNL A   1      38.949  27.717  31.314  1.00  0.00    -0.200 F 
ATOM     86  C   UNL A   1      38.371  28.676  29.235  1.00  0.00     0.200 A 
ATOM     87  F   UNL A   1      37.845  29.616  27.134  1.00  0.00    -0.200 F 
ATOM     88  F   UNL A   1      37.084  28.733  29.600  1.00  0.00    -0.200 F 
ENDBRANCH  54  78
BRANCH  66  89
ATOM     89  C   UNL A   1      46.514  32.880  28.898  1.00  0.00     0.064 A 
ATOM     90  C   UNL A   1      46.895  33.149  30.221  1.00  0.00     0.173 A 
ATOM     91  C   UNL A   1      46.309  33.975  28.041  1.00  0.00     0.173 A 
ATOM     92  F   UNL A   1      47.092  32.142  31.085  1.00  0.00    -0.203 F 
ATOM     93  C   UNL A   1      47.034  34.460  30.675  1.00  0.00     0.198 A 
ATOM     94  C   UNL A   1      46.487  35.281  28.488  1.00  0.00     0.198 A 
ATOM     95  F   UNL A   1      45.954  33.776  26.763  1.00  0.00    -0.203 F 
ATOM     96  F   UNL A   1      47.345  34.693  31.957  1.00  0.00    -0.200 F 
ATOM     97  C   UNL A   1      46.839  35.523  29.806  1.00  0.00     0.200 A 
ATOM     98  F   UNL A   1      46.315  36.306  27.641  1.00  0.00    -0.200 F 
ATOM     99  F   UNL A   1      46.984  36.782  30.242  1.00  0.00    -0.200 F 
ENDBRANCH  66  89
ENDBRANCH  40  41
ENDBRANCH  33  35
ENDBRANCH  32  33
ENDBRANCH  31  32
ENDBRANCH  30  31
ENDBRANCH  29  30
ENDBRANCH  28  29
ENDBRANCH  27  28
ENDBRANCH  26  27
ENDBRANCH   1  26
TORSDOF 26
ENDMDL
MODEL 2
REMARK VINA RESULT:      -9.3      2.395      4.321
REMARK SMILES CCC(CC)(C(=O)OCCOCCOCCOCCOC(=O)c1ccc(-c2c3nc(c(-c4c(F)c(F)c(F)c(F)c4F)c4ccc([nH]4)c(-c4c(F)c(F)c(F)c(F)c4F)c4nc(c(-c5c(F)c(F)c(F)c(F)c5F)c5ccc2[nH]5)C=C4)C=C3)cc1)n1nnnc1CC[C@@H]1CCCO1
REMARK SMILES IDX 13 1 12 2 11 3 10 4 9 5 8 6 6 7 7 8 3 9 2 10 1 11 4 12 5 13
REMARK SMILES IDX 86 14 87 15 90 16 88 17 89 18 91 19 92 20 93 21 94 22 97 23
REMARK SMILES IDX 95 24 96 25 14 26 15 27 16 28 17 29 18 30 19 31 20 32 21 33
REMARK SMILES IDX 22 34 23 35 24 36 85 37 25 38 84 39 26 40 27 41 28 42 78 43
REMARK SMILES IDX 29 44 83 45 77 46 79 47 30 48 82 49 76 50 75 51 31 53 63 54
REMARK SMILES IDX 43 55 62 56 44 57 47 58 61 59 80 60 45 61 46 62 60 64 81 65
REMARK SMILES IDX 48 66 32 67 33 68 41 69 34 70 35 71 39 72 42 73 36 74 37 75
REMARK SMILES IDX 40 76 38 77 64 78 65 79 73 80 66 81 67 82 71 83 74 84 68 85
REMARK SMILES IDX 69 86 72 87 70 88 49 89 50 90 58 91 51 92 52 93 56 94 59 95
REMARK SMILES IDX 53 96 54 97 57 98 55 99
REMARK H PARENT 79 52 47 63
REMARK Flexibility Score: inf
ROOT
ATOM      1  C   UNL A   1      33.940  20.525  26.379  1.00  0.00     0.188 C 
ENDROOT
BRANCH   1   2
ATOM      2  C   UNL A   1      32.892  19.849  25.487  1.00  0.00     0.188 C 
BRANCH   2   3
ATOM      3  O   UNL A   1      33.168  19.879  24.106  1.00  0.00    -0.376 OA
BRANCH   3   4
ATOM      4  C   UNL A   1      32.437  20.732  23.243  1.00  0.00     0.202 C 
BRANCH   4   5
ATOM      5  C   UNL A   1      32.761  22.210  22.936  1.00  0.00     0.261 C 
BRANCH   5   6
ATOM      6  O   UNL A   1      32.393  23.210  23.897  1.00  0.00    -0.461 OA
BRANCH   6   7
ATOM      7  C   UNL A   1      32.930  24.448  23.719  1.00  0.00     0.334 C 
ATOM      8  O   UNL A   1      34.134  24.630  23.542  1.00  0.00    -0.249 OA
BRANCH   7   9
ATOM      9  C   UNL A   1      31.908  25.635  23.846  1.00  0.00     0.163 C 
BRANCH   9  10
ATOM     10  C   UNL A   1      31.420  26.200  22.464  1.00  0.00     0.039 C 
ATOM     11  C   UNL A   1      32.328  26.068  21.240  1.00  0.00     0.007 C 
ENDBRANCH   9  10
BRANCH   9  12
ATOM     12  C   UNL A   1      30.740  24.959  24.627  1.00  0.00     0.039 C 
ATOM     13  C   UNL A   1      29.992  25.922  25.556  1.00  0.00     0.007 C 
ENDBRANCH   9  12
BRANCH   9  14
ATOM     14  N   UNL A   1      32.588  26.690  24.626  1.00  0.00    -0.212 N 
ATOM     15  N   UNL A   1      33.472  26.329  25.589  1.00  0.00    -0.044 NA
ATOM     16  C   UNL A   1      32.652  28.063  24.506  1.00  0.00     0.152 A 
ATOM     17  N   UNL A   1      34.070  27.430  25.995  1.00  0.00    -0.024 NA
ATOM     18  N   UNL A   1      33.592  28.505  25.321  1.00  0.00    -0.114 NA
BRANCH  16  19
ATOM     19  C   UNL A   1      31.880  28.952  23.611  1.00  0.00     0.082 C 
BRANCH  19  20
ATOM     20  C   UNL A   1      30.515  29.344  24.162  1.00  0.00     0.040 C 
BRANCH  20  21
ATOM     21  C   UNL A   1      29.665  30.196  23.215  1.00  0.00     0.118 C 
ATOM     22  C   UNL A   1      29.029  31.418  23.868  1.00  0.00     0.034 C 
ATOM     23  O   UNL A   1      28.568  29.376  22.757  1.00  0.00    -0.378 OA
ATOM     24  C   UNL A   1      27.745  31.563  23.092  1.00  0.00     0.031 C 
ATOM     25  C   UNL A   1      27.352  30.121  22.871  1.00  0.00     0.160 C 
ENDBRANCH  20  21
ENDBRANCH  19  20
ENDBRANCH  16  19
ENDBRANCH   9  14
ENDBRANCH   7   9
ENDBRANCH   6   7
ENDBRANCH   5   6
ENDBRANCH   4   5
ENDBRANCH   3   4
ENDBRANCH   2   3
ENDBRANCH   1   2
BRANCH   1  26
ATOM     26  O   UNL A   1      34.146  21.920  26.220  1.00  0.00    -0.377 OA
BRANCH  26  27
ATOM     27  C   UNL A   1      35.426  22.401  25.820  1.00  0.00     0.188 C 
BRANCH  27  28
ATOM     28  C   UNL A   1      36.258  21.653  24.760  1.00  0.00     0.188 C 
BRANCH  28  29
ATOM     29  O   UNL A   1      37.527  21.207  25.197  1.00  0.00    -0.376 OA
BRANCH  29  30
ATOM     30  C   UNL A   1      37.954  19.896  24.863  1.00  0.00     0.202 C 
BRANCH  30  31
ATOM     31  C   UNL A   1      39.188  19.319  25.576  1.00  0.00     0.261 C 
BRANCH  31  32
ATOM     32  O   UNL A   1      39.702  20.069  26.689  1.00  0.00    -0.460 OA
BRANCH  32  33
ATOM     33  C   UNL A   1      41.022  20.354  26.711  1.00  0.00     0.338 C 
ATOM     34  O   UNL A   1      41.938  19.665  26.321  1.00  0.00    -0.246 OA
BRANCH  33  35
ATOM     35  C   UNL A   1      41.157  21.766  27.132  1.00  0.00     0.060 A 
ATOM     36  C   UNL A   1      40.502  22.761  26.393  1.00  0.00     0.016 A 
ATOM     37  C   UNL A   1      41.937  22.103  28.239  1.00  0.00     0.016 A 
ATOM     38  C   UNL A   1      40.658  24.103  26.737  1.00  0.00     0.010 A 
ATOM     39  C   UNL A   1      42.112  23.448  28.568  1.00  0.00     0.010 A 
ATOM     40  C   UNL A   1      41.505  24.455  27.796  1.00  0.00    -0.014 A 
BRANCH  40  41
ATOM     41  C   UNL A   1      41.926  25.866  27.953  1.00  0.00     0.031 A 
ATOM     42  C   UNL A   1      43.266  26.273  27.402  1.00  0.00     0.074 A 
ATOM     43  C   UNL A   1      41.133  26.776  28.546  1.00  0.00     0.049 A 
ATOM     44  N   UNL A   1      43.880  27.427  27.466  1.00  0.00    -0.248 NA
ATOM     45  C   UNL A   1      44.016  25.230  26.683  1.00  0.00     0.031 C 
ATOM     46  C   UNL A   1      39.794  26.515  29.068  1.00  0.00     0.029 A 
ATOM     47  N   UNL A   1      41.350  28.104  28.814  1.00  0.00    -0.354 N 
ATOM     48  C   UNL A   1      45.089  27.244  26.807  1.00  0.00     0.074 A 
ATOM     49  C   UNL A   1      45.138  25.863  26.380  1.00  0.00     0.031 C 
ATOM     50  C   UNL A   1      39.312  27.648  29.607  1.00  0.00     0.029 A 
ATOM     51  C   UNL A   1      40.323  28.700  29.501  1.00  0.00     0.049 A 
ATOM     52  H   UNL A   1      42.165  28.583  28.539  1.00  0.00     0.167 HD
ATOM     53  C   UNL A   1      46.068  28.150  26.576  1.00  0.00     0.037 A 
ATOM     54  C   UNL A   1      40.226  29.946  30.007  1.00  0.00     0.037 A 
ATOM     55  C   UNL A   1      46.015  29.522  27.005  1.00  0.00     0.049 A 
ATOM     56  C   UNL A   1      41.368  30.913  29.812  1.00  0.00     0.074 A 
ATOM     57  C   UNL A   1      46.945  30.526  26.805  1.00  0.00     0.029 A 
ATOM     58  N   UNL A   1      44.974  30.079  27.735  1.00  0.00    -0.354 N 
ATOM     59  N   UNL A   1      42.499  30.742  29.171  1.00  0.00    -0.248 NA
ATOM     60  C   UNL A   1      41.217  32.246  30.411  1.00  0.00     0.031 C 
ATOM     61  C   UNL A   1      46.501  31.671  27.472  1.00  0.00     0.029 A 
ATOM     62  C   UNL A   1      45.258  31.405  28.024  1.00  0.00     0.049 A 
ATOM     63  H   UNL A   1      44.156  29.604  28.008  1.00  0.00     0.167 HD
ATOM     64  C   UNL A   1      43.176  31.954  29.257  1.00  0.00     0.074 A 
ATOM     65  C   UNL A   1      42.322  32.854  30.003  1.00  0.00     0.031 C 
ATOM     66  C   UNL A   1      44.393  32.292  28.761  1.00  0.00     0.037 A 
BRANCH  53  67
ATOM     67  C   UNL A   1      47.299  27.673  25.859  1.00  0.00     0.064 A 
ATOM     68  C   UNL A   1      48.409  27.160  26.547  1.00  0.00     0.173 A 
ATOM     69  C   UNL A   1      47.357  27.710  24.457  1.00  0.00     0.173 A 
ATOM     70  F   UNL A   1      48.413  27.117  27.888  1.00  0.00    -0.203 F 
ATOM     71  C   UNL A   1      49.544  26.732  25.860  1.00  0.00     0.198 A 
ATOM     72  C   UNL A   1      48.478  27.248  23.773  1.00  0.00     0.198 A 
ATOM     73  F   UNL A   1      46.324  28.188  23.749  1.00  0.00    -0.203 F 
ATOM     74  F   UNL A   1      50.613  26.299  26.541  1.00  0.00    -0.200 F 
ATOM     75  C   UNL A   1      49.574  26.768  24.474  1.00  0.00     0.200 A 
ATOM     76  F   UNL A   1      48.499  27.271  22.433  1.00  0.00    -0.200 F 
ATOM     77  F   UNL A   1      50.663  26.350  23.814  1.00  0.00    -0.200 F 
ENDBRANCH  53  67
BRANCH  54  78
ATOM     78  C   UNL A   1      39.011  30.351  30.764  1.00  0.00     0.064 A 
ATOM     79  C   UNL A   1      37.918  30.944  30.115  1.00  0.00     0.173 A 
ATOM     80  C   UNL A   1      38.926  30.179  32.154  1.00  0.00     0.173 A 
ATOM     81  F   UNL A   1      37.959  31.155  28.791  1.00  0.00    -0.203 F 
ATOM     82  C   UNL A   1      36.798  31.366  30.829  1.00  0.00     0.198 A 
ATOM     83  C   UNL A   1      37.792  30.571  32.862  1.00  0.00     0.198 A 
ATOM     84  F   UNL A   1      39.944  29.619  32.825  1.00  0.00    -0.203 F 
ATOM     85  F   UNL A   1      35.790  31.977  30.191  1.00  0.00    -0.200 F 
ATOM     86  C   UNL A   1      36.733  31.173  32.201  1.00  0.00     0.200 A 
ATOM     87  F   UNL A   1      37.728  30.369  34.185  1.00  0.00    -0.200 F 
ATOM     88  F   UNL A   1      35.654  31.575  32.886  1.00  0.00    -0.200 F 
ENDBRANCH  54  78
BRANCH  66  89
ATOM     89  C   UNL A   1      44.857  33.708  28.964  1.00  0.00     0.064 A 
ATOM     90  C   UNL A   1      45.548  34.105  30.119  1.00  0.00     0.173 A 
ATOM     91  C   UNL A   1      44.645  34.672  27.964  1.00  0.00     0.173 A 
ATOM     92  F   UNL A   1      45.766  33.228  31.110  1.00  0.00    -0.203 F 
ATOM     93  C   UNL A   1      45.981  35.420  30.277  1.00  0.00     0.198 A 
ATOM     94  C   UNL A   1      45.114  35.974  28.110  1.00  0.00     0.198 A 
ATOM     95  F   UNL A   1      44.000  34.345  26.835  1.00  0.00    -0.203 F 
ATOM     96  F   UNL A   1      46.591  35.789  31.412  1.00  0.00    -0.200 F 
ATOM     97  C   UNL A   1      45.773  36.350  29.270  1.00  0.00     0.200 A 
ATOM     98  F   UNL A   1      44.927  36.866  27.127  1.00  0.00    -0.200 F 
ATOM     99  F   UNL A   1      46.200  37.611  29.421  1.00  0.00    -0.200 F 
ENDBRANCH  66  89
ENDBRANCH  40  41
ENDBRANCH  33  35
ENDBRANCH  32  33
ENDBRANCH  31  32
ENDBRANCH  30  31
ENDBRANCH  29  30
ENDBRANCH  28  29
ENDBRANCH  27  28
ENDBRANCH  26  27
ENDBRANCH   1  26
TORSDOF 26
ENDMDL
MODEL 3
REMARK VINA RESULT:      -9.1      2.155      7.857
REMARK SMILES CCC(CC)(C(=O)OCCOCCOCCOCCOC(=O)c1ccc(-c2c3nc(c(-c4c(F)c(F)c(F)c(F)c4F)c4ccc([nH]4)c(-c4c(F)c(F)c(F)c(F)c4F)c4nc(c(-c5c(F)c(F)c(F)c(F)c5F)c5ccc2[nH]5)C=C4)C=C3)cc1)n1nnnc1CC[C@@H]1CCCO1
REMARK SMILES IDX 13 1 12 2 11 3 10 4 9 5 8 6 6 7 7 8 3 9 2 10 1 11 4 12 5 13
REMARK SMILES IDX 86 14 87 15 90 16 88 17 89 18 91 19 92 20 93 21 94 22 97 23
REMARK SMILES IDX 95 24 96 25 14 26 15 27 16 28 17 29 18 30 19 31 20 32 21 33
REMARK SMILES IDX 22 34 23 35 24 36 85 37 25 38 84 39 26 40 27 41 28 42 78 43
REMARK SMILES IDX 29 44 83 45 77 46 79 47 30 48 82 49 76 50 75 51 31 53 63 54
REMARK SMILES IDX 43 55 62 56 44 57 47 58 61 59 80 60 45 61 46 62 60 64 81 65
REMARK SMILES IDX 48 66 32 67 33 68 41 69 34 70 35 71 39 72 42 73 36 74 37 75
REMARK SMILES IDX 40 76 38 77 64 78 65 79 73 80 66 81 67 82 71 83 74 84 68 85
REMARK SMILES IDX 69 86 72 87 70 88 49 89 50 90 58 91 51 92 52 93 56 94 59 95
REMARK SMILES IDX 53 96 54 97 57 98 55 99
REMARK H PARENT 79 52 47 63
REMARK Flexibility Score: inf
ROOT
ATOM      1  C   UNL A   1      33.414  20.196  25.704  1.00  0.00     0.188 C 
ENDROOT
BRANCH   1   2
ATOM      2  C   UNL A   1      32.195  20.024  24.790  1.00  0.00     0.188 C 
BRANCH   2   3
ATOM      3  O   UNL A   1      32.413  20.334  23.433  1.00  0.00    -0.376 OA
BRANCH   3   4
ATOM      4  C   UNL A   1      32.275  21.664  22.966  1.00  0.00     0.202 C 
BRANCH   4   5
ATOM      5  C   UNL A   1      33.428  22.626  22.604  1.00  0.00     0.261 C 
BRANCH   5   6
ATOM      6  O   UNL A   1      33.525  23.877  23.298  1.00  0.00    -0.461 OA
BRANCH   6   7
ATOM      7  C   UNL A   1      32.794  24.908  22.794  1.00  0.00     0.334 C 
ATOM      8  O   UNL A   1      32.686  25.116  21.587  1.00  0.00    -0.249 OA
BRANCH   7   9
ATOM      9  C   UNL A   1      32.171  25.865  23.874  1.00  0.00     0.163 C 
BRANCH   9  10
ATOM     10  C   UNL A   1      30.612  25.732  24.012  1.00  0.00     0.039 C 
ATOM     11  C   UNL A   1      30.012  25.345  25.364  1.00  0.00     0.007 C 
ENDBRANCH   9  10
BRANCH   9  12
ATOM     12  C   UNL A   1      32.899  25.390  25.168  1.00  0.00     0.039 C 
ATOM     13  C   UNL A   1      33.868  26.433  25.738  1.00  0.00     0.007 C 
ENDBRANCH   9  12
BRANCH   9  14
ATOM     14  N   UNL A   1      32.541  27.239  23.477  1.00  0.00    -0.212 N 
ATOM     15  N   UNL A   1      33.731  27.449  22.861  1.00  0.00    -0.044 NA
ATOM     16  C   UNL A   1      31.852  28.435  23.452  1.00  0.00     0.152 A 
ATOM     17  N   UNL A   1      33.736  28.699  22.446  1.00  0.00    -0.024 NA
ATOM     18  N   UNL A   1      32.575  29.314  22.783  1.00  0.00    -0.114 NA
BRANCH  16  19
ATOM     19  C   UNL A   1      30.516  28.746  24.003  1.00  0.00     0.082 C 
BRANCH  19  20
ATOM     20  C   UNL A   1      30.181  30.232  24.000  1.00  0.00     0.040 C 
BRANCH  20  21
ATOM     21  C   UNL A   1      28.910  30.599  23.229  1.00  0.00     0.118 C 
ATOM     22  C   UNL A   1      28.955  30.261  21.743  1.00  0.00     0.034 C 
ATOM     23  O   UNL A   1      28.753  32.033  23.305  1.00  0.00    -0.378 OA
ATOM     24  C   UNL A   1      28.099  31.347  21.142  1.00  0.00     0.031 C 
ATOM     25  C   UNL A   1      28.464  32.537  21.997  1.00  0.00     0.160 C 
ENDBRANCH  20  21
ENDBRANCH  19  20
ENDBRANCH  16  19
ENDBRANCH   9  14
ENDBRANCH   7   9
ENDBRANCH   6   7
ENDBRANCH   5   6
ENDBRANCH   4   5
ENDBRANCH   3   4
ENDBRANCH   2   3
ENDBRANCH   1   2
BRANCH   1  26
ATOM     26  O   UNL A   1      33.659  21.484  26.249  1.00  0.00    -0.377 OA
BRANCH  26  27
ATOM     27  C   UNL A   1      34.958  22.058  26.141  1.00  0.00     0.188 C 
BRANCH  27  28
ATOM     28  C   UNL A   1      35.921  21.634  25.014  1.00  0.00     0.188 C 
BRANCH  28  29
ATOM     29  O   UNL A   1      37.175  21.144  25.447  1.00  0.00    -0.376 OA
BRANCH  29  30
ATOM     30  C   UNL A   1      37.735  20.009  24.808  1.00  0.00     0.202 C 
BRANCH  30  31
ATOM     31  C   UNL A   1      38.953  19.325  25.451  1.00  0.00     0.261 C 
BRANCH  31  32
ATOM     32  O   UNL A   1      39.891  20.178  26.127  1.00  0.00    -0.460 OA
BRANCH  32  33
ATOM     33  C   UNL A   1      41.185  19.794  26.172  1.00  0.00     0.338 C 
ATOM     34  O   UNL A   1      41.658  18.732  25.832  1.00  0.00    -0.246 OA
BRANCH  33  35
ATOM     35  C   UNL A   1      41.983  20.984  26.541  1.00  0.00     0.060 A 
ATOM     36  C   UNL A   1      42.158  21.290  27.898  1.00  0.00     0.016 A 
ATOM     37  C   UNL A   1      42.541  21.796  25.553  1.00  0.00     0.016 A 
ATOM     38  C   UNL A   1      42.860  22.435  28.270  1.00  0.00     0.010 A 
ATOM     39  C   UNL A   1      43.223  22.956  25.927  1.00  0.00     0.010 A 
ATOM     40  C   UNL A   1      43.352  23.300  27.285  1.00  0.00    -0.014 A 
BRANCH  40  41
ATOM     41  C   UNL A   1      43.800  24.660  27.666  1.00  0.00     0.031 A 
ATOM     42  C   UNL A   1      42.752  25.681  28.017  1.00  0.00     0.074 A 
ATOM     43  C   UNL A   1      45.105  24.979  27.727  1.00  0.00     0.049 A 
ATOM     44  N   UNL A   1      42.889  26.945  28.323  1.00  0.00    -0.248 NA
ATOM     45  C   UNL A   1      41.358  25.207  28.017  1.00  0.00     0.031 C 
ATOM     46  C   UNL A   1      46.211  24.062  27.465  1.00  0.00     0.029 A 
ATOM     47  N   UNL A   1      45.715  26.172  28.023  1.00  0.00    -0.354 N 
ATOM     48  C   UNL A   1      41.600  27.419  28.541  1.00  0.00     0.074 A 
ATOM     49  C   UNL A   1      40.695  26.316  28.300  1.00  0.00     0.031 C 
ATOM     50  C   UNL A   1      47.369  24.732  27.599  1.00  0.00     0.029 A 
ATOM     51  C   UNL A   1      47.082  26.130  27.919  1.00  0.00     0.049 A 
ATOM     52  H   UNL A   1      45.218  26.981  28.284  1.00  0.00     0.167 HD
ATOM     53  C   UNL A   1      41.210  28.660  28.913  1.00  0.00     0.037 A 
ATOM     54  C   UNL A   1      47.992  27.117  28.042  1.00  0.00     0.037 A 
ATOM     55  C   UNL A   1      42.116  29.753  29.149  1.00  0.00     0.049 A 
ATOM     56  C   UNL A   1      47.526  28.513  28.372  1.00  0.00     0.074 A 
ATOM     57  C   UNL A   1      41.825  31.044  29.548  1.00  0.00     0.029 A 
ATOM     58  N   UNL A   1      43.493  29.682  28.993  1.00  0.00    -0.354 N 
ATOM     59  N   UNL A   1      46.310  28.951  28.598  1.00  0.00    -0.248 NA
ATOM     60  C   UNL A   1      48.560  29.553  28.466  1.00  0.00     0.031 C 
ATOM     61  C   UNL A   1      43.016  31.774  29.567  1.00  0.00     0.029 A 
ATOM     62  C   UNL A   1      44.061  30.920  29.255  1.00  0.00     0.049 A 
ATOM     63  H   UNL A   1      43.993  28.874  28.736  1.00  0.00     0.167 HD
ATOM     64  C   UNL A   1      46.437  30.304  28.896  1.00  0.00     0.074 A 
ATOM     65  C   UNL A   1      47.851  30.610  28.833  1.00  0.00     0.031 C 
ATOM     66  C   UNL A   1      45.472  31.208  29.197  1.00  0.00     0.037 A 
BRANCH  53  67
ATOM     67  C   UNL A   1      39.736  28.912  29.048  1.00  0.00     0.064 A 
ATOM     68  C   UNL A   1      39.065  28.772  30.273  1.00  0.00     0.173 A 
ATOM     69  C   UNL A   1      38.985  29.322  27.935  1.00  0.00     0.173 A 
ATOM     70  F   UNL A   1      39.732  28.367  31.365  1.00  0.00    -0.203 F 
ATOM     71  C   UNL A   1      37.695  29.002  30.372  1.00  0.00     0.198 A 
ATOM     72  C   UNL A   1      37.623  29.586  28.045  1.00  0.00     0.198 A 
ATOM     73  F   UNL A   1      39.575  29.473  26.740  1.00  0.00    -0.203 F 
ATOM     74  F   UNL A   1      37.067  28.808  31.539  1.00  0.00    -0.200 F 
ATOM     75  C   UNL A   1      36.977  29.417  29.260  1.00  0.00     0.200 A 
ATOM     76  F   UNL A   1      36.934  30.000  26.973  1.00  0.00    -0.200 F 
ATOM     77  F   UNL A   1      35.660  29.646  29.358  1.00  0.00    -0.200 F 
ENDBRANCH  53  67
BRANCH  54  78
ATOM     78  C   UNL A   1      49.437  26.829  27.838  1.00  0.00     0.064 A 
ATOM     79  C   UNL A   1      50.002  26.832  26.554  1.00  0.00     0.173 A 
ATOM     80  C   UNL A   1      50.279  26.520  28.917  1.00  0.00     0.173 A 
ATOM     81  F   UNL A   1      49.235  27.095  25.486  1.00  0.00    -0.203 F 
ATOM     82  C   UNL A   1      51.345  26.517  26.357  1.00  0.00     0.198 A 
ATOM     83  C   UNL A   1      51.629  26.239  28.722  1.00  0.00     0.198 A 
ATOM     84  F   UNL A   1      49.790  26.501  30.166  1.00  0.00    -0.203 F 
ATOM     85  F   UNL A   1      51.846  26.477  25.115  1.00  0.00    -0.200 F 
ATOM     86  C   UNL A   1      52.160  26.228  27.441  1.00  0.00     0.200 A 
ATOM     87  F   UNL A   1      52.415  25.973  29.774  1.00  0.00    -0.200 F 
ATOM     88  F   UNL A   1      53.452  25.930  27.252  1.00  0.00    -0.200 F 
ENDBRANCH  54  78
BRANCH  66  89
ATOM     89  C   UNL A   1      45.912  32.607  29.530  1.00  0.00     0.064 A 
ATOM     90  C   UNL A   1      46.070  33.591  28.544  1.00  0.00     0.173 A 
ATOM     91  C   UNL A   1      46.132  32.979  30.867  1.00  0.00     0.173 A 
ATOM     92  F   UNL A   1      45.884  33.287  27.251  1.00  0.00    -0.203 F 
ATOM     93  C   UNL A   1      46.463  34.886  28.880  1.00  0.00     0.198 A 
ATOM     94  C   UNL A   1      46.487  34.283  31.202  1.00  0.00     0.198 A 
ATOM     95  F   UNL A   1      45.985  32.081  31.853  1.00  0.00    -0.203 F 
ATOM     96  F   UNL A   1      46.661  35.794  27.915  1.00  0.00    -0.200 F 
ATOM     97  C   UNL A   1      46.662  35.232  30.207  1.00  0.00     0.200 A 
ATOM     98  F   UNL A   1      46.661  34.619  32.488  1.00  0.00    -0.200 F 
ATOM     99  F   UNL A   1      47.030  36.480  30.528  1.00  0.00    -0.200 F 
ENDBRANCH  66  89
ENDBRANCH  40  41
ENDBRANCH  33  35
ENDBRANCH  32  33
ENDBRANCH  31  32
ENDBRANCH  30  31
ENDBRANCH  29  30
ENDBRANCH  28  29
ENDBRANCH  27  28
ENDBRANCH  26  27
ENDBRANCH   1  26
TORSDOF 26
ENDMDL
