MODEL 1
REMARK VINA RESULT:      -9.8      0.000      0.000
REMARK SMILES O=C(OCCOCCOCCOCCOC(=O)c1cccnc1SCC(=O)c1ccccc1Cl)c1ccc(-c2c3nc(c(-c4c(F)c(F)c(F)c(F)c4F)c4ccc([nH]4)c(-c4c(F)c(F)c(F)c(F)c4F)c4nc(c(-c5c(F)c(F)c(F)c(F)c5F)c5ccc2[nH]5)C=C4)C=C3)cc1
REMARK SMILES IDX 10 1 9 2 8 3 7 4 6 5 5 6 4 7 3 8 2 9 1 10 35 11 36 12 97 13
REMARK SMILES IDX 37 14 96 15 38 16 39 17 40 18 90 19 41 20 95 21 89 22 91 23
REMARK SMILES IDX 42 24 94 25 88 26 87 27 43 29 75 30 55 31 74 32 56 33 59 34
REMARK SMILES IDX 73 35 92 36 57 37 58 38 72 40 93 41 60 42 44 43 45 44 53 45
REMARK SMILES IDX 46 46 47 47 51 48 54 49 48 50 49 51 52 52 50 53 76 54 77 55
REMARK SMILES IDX 85 56 78 57 79 58 83 59 86 60 80 61 81 62 84 63 82 64 61 65
REMARK SMILES IDX 62 66 70 67 63 68 64 69 68 70 71 71 65 72 66 73 69 74 67 75
REMARK SMILES IDX 11 76 12 77 13 78 14 79 15 80 16 81 17 82 18 83 19 84 23 85
REMARK SMILES IDX 20 86 22 87 21 88 24 89 25 90 26 91 27 92 28 93 29 94 33 95
REMARK SMILES IDX 30 96 32 97 34 98 31 99
REMARK H PARENT 91 28 59 39
REMARK Flexibility Score: inf
ROOT
ATOM      1  C   UNL A   1      33.397  29.274  25.772  1.00  0.00     0.188 C 
ENDROOT
BRANCH   1   2
ATOM      2  O   UNL A   1      33.472  30.326  26.713  1.00  0.00    -0.377 OA
BRANCH   2   3
ATOM      3  C   UNL A   1      34.599  30.236  27.578  1.00  0.00     0.188 C 
BRANCH   3   4
ATOM      4  C   UNL A   1      35.190  31.584  27.985  1.00  0.00     0.188 C 
BRANCH   4   5
ATOM      5  O   UNL A   1      34.401  32.340  28.916  1.00  0.00    -0.376 OA
BRANCH   5   6
ATOM      6  C   UNL A   1      33.681  33.431  28.318  1.00  0.00     0.202 C 
BRANCH   6   7
ATOM      7  C   UNL A   1      34.222  34.831  28.653  1.00  0.00     0.261 C 
BRANCH   7   8
ATOM      8  O   UNL A   1      33.454  35.499  29.668  1.00  0.00    -0.460 OA
BRANCH   8   9
ATOM      9  C   UNL A   1      33.332  35.173  30.978  1.00  0.00     0.338 C 
ATOM     10  O   UNL A   1      32.228  35.297  31.509  1.00  0.00    -0.246 OA
BRANCH   9  11
ATOM     11  C   UNL A   1      34.449  34.630  31.816  1.00  0.00     0.060 A 
ATOM     12  C   UNL A   1      35.605  35.321  32.184  1.00  0.00     0.016 A 
ATOM     13  C   UNL A   1      34.303  33.310  32.278  1.00  0.00     0.016 A 
ATOM     14  C   UNL A   1      36.647  34.689  32.839  1.00  0.00     0.010 A 
ATOM     15  C   UNL A   1      35.326  32.676  32.987  1.00  0.00     0.010 A 
ATOM     16  C   UNL A   1      36.527  33.355  33.211  1.00  0.00    -0.014 A 
BRANCH  16  17
ATOM     17  C   UNL A   1      37.750  32.664  33.650  1.00  0.00     0.031 A 
ATOM     18  C   UNL A   1      38.395  31.712  32.688  1.00  0.00     0.074 A 
ATOM     19  C   UNL A   1      38.345  33.031  34.797  1.00  0.00     0.049 A 
ATOM     20  N   UNL A   1      39.462  30.975  32.839  1.00  0.00    -0.248 NA
ATOM     21  C   UNL A   1      37.761  31.587  31.362  1.00  0.00     0.031 C 
ATOM     22  C   UNL A   1      37.847  34.059  35.713  1.00  0.00     0.029 A 
ATOM     23  N   UNL A   1      39.515  32.612  35.367  1.00  0.00    -0.354 N 
ATOM     24  C   UNL A   1      39.613  30.288  31.642  1.00  0.00     0.074 A 
ATOM     25  C   UNL A   1      38.528  30.682  30.775  1.00  0.00     0.031 C 
ATOM     26  C   UNL A   1      38.717  34.201  36.726  1.00  0.00     0.029 A 
ATOM     27  C   UNL A   1      39.790  33.227  36.563  1.00  0.00     0.049 A 
ATOM     28  H   UNL A   1      40.103  31.935  34.960  1.00  0.00     0.167 HD
ATOM     29  C   UNL A   1      40.581  29.406  31.306  1.00  0.00     0.037 A 
ATOM     30  C   UNL A   1      40.783  32.989  37.438  1.00  0.00     0.037 A 
ATOM     31  C   UNL A   1      41.646  29.037  32.195  1.00  0.00     0.049 A 
ATOM     32  C   UNL A   1      41.785  31.920  37.084  1.00  0.00     0.074 A 
ATOM     33  C   UNL A   1      42.636  28.089  32.022  1.00  0.00     0.029 A 
ATOM     34  N   UNL A   1      41.854  29.617  33.441  1.00  0.00    -0.354 N 
ATOM     35  N   UNL A   1      41.878  31.204  35.989  1.00  0.00    -0.248 NA
ATOM     36  C   UNL A   1      42.810  31.619  38.088  1.00  0.00     0.031 C 
ATOM     37  C   UNL A   1      43.423  28.073  33.180  1.00  0.00     0.029 A 
ATOM     38  C   UNL A   1      42.953  29.044  34.053  1.00  0.00     0.049 A 
ATOM     39  H   UNL A   1      41.301  30.333  33.830  1.00  0.00     0.167 HD
ATOM     40  C   UNL A   1      42.975  30.373  36.165  1.00  0.00     0.074 A 
ATOM     41  C   UNL A   1      43.535  30.703  37.462  1.00  0.00     0.031 C 
ATOM     42  C   UNL A   1      43.473  29.414  35.345  1.00  0.00     0.037 A 
BRANCH  29  43
ATOM     43  C   UNL A   1      40.479  28.754  29.959  1.00  0.00     0.064 A 
ATOM     44  C   UNL A   1      39.700  27.606  29.749  1.00  0.00     0.173 A 
ATOM     45  C   UNL A   1      41.192  29.272  28.868  1.00  0.00     0.173 A 
ATOM     46  F   UNL A   1      39.026  27.051  30.766  1.00  0.00    -0.203 F 
ATOM     47  C   UNL A   1      39.657  26.989  28.499  1.00  0.00     0.198 A 
ATOM     48  C   UNL A   1      41.127  28.668  27.615  1.00  0.00     0.198 A 
ATOM     49  F   UNL A   1      41.961  30.361  29.019  1.00  0.00    -0.203 F 
ATOM     50  F   UNL A   1      38.948  25.864  28.333  1.00  0.00    -0.200 F 
ATOM     51  C   UNL A   1      40.365  27.523  27.433  1.00  0.00     0.200 A 
ATOM     52  F   UNL A   1      41.812  29.187  26.586  1.00  0.00    -0.200 F 
ATOM     53  F   UNL A   1      40.325  26.929  26.234  1.00  0.00    -0.200 F 
ENDBRANCH  29  43
BRANCH  30  54
ATOM     54  C   UNL A   1      40.834  33.706  38.740  1.00  0.00     0.064 A 
ATOM     55  C   UNL A   1      41.701  34.788  38.948  1.00  0.00     0.173 A 
ATOM     56  C   UNL A   1      40.039  33.298  39.823  1.00  0.00     0.173 A 
ATOM     57  F   UNL A   1      42.499  35.208  37.956  1.00  0.00    -0.203 F 
ATOM     58  C   UNL A   1      41.792  35.411  40.194  1.00  0.00     0.198 A 
ATOM     59  C   UNL A   1      40.104  33.943  41.056  1.00  0.00     0.198 A 
ATOM     60  F   UNL A   1      39.193  32.266  39.685  1.00  0.00    -0.203 F 
ATOM     61  F   UNL A   1      42.675  36.401  40.382  1.00  0.00    -0.200 F 
ATOM     62  C   UNL A   1      40.991  34.991  41.245  1.00  0.00     0.200 A 
ATOM     63  F   UNL A   1      39.316  33.541  42.063  1.00  0.00    -0.200 F 
ATOM     64  F   UNL A   1      41.083  35.586  42.442  1.00  0.00    -0.200 F 
ENDBRANCH  30  54
BRANCH  42  65
ATOM     65  C   UNL A   1      44.691  28.687  35.828  1.00  0.00     0.064 A 
ATOM     66  C   UNL A   1      45.982  29.153  35.541  1.00  0.00     0.173 A 
ATOM     67  C   UNL A   1      44.561  27.528  36.607  1.00  0.00     0.173 A 
ATOM     68  F   UNL A   1      46.153  30.248  34.786  1.00  0.00    -0.203 F 
ATOM     69  C   UNL A   1      47.103  28.463  35.992  1.00  0.00     0.198 A 
ATOM     70  C   UNL A   1      45.684  26.861  37.083  1.00  0.00     0.198 A 
ATOM     71  F   UNL A   1      43.345  27.052  36.912  1.00  0.00    -0.203 F 
ATOM     72  F   UNL A   1      48.328  28.892  35.659  1.00  0.00    -0.200 F 
ATOM     73  C   UNL A   1      46.953  27.323  36.767  1.00  0.00     0.200 A 
ATOM     74  F   UNL A   1      45.538  25.768  37.844  1.00  0.00    -0.200 F 
ATOM     75  F   UNL A   1      48.034  26.662  37.203  1.00  0.00    -0.200 F 
ENDBRANCH  42  65
ENDBRANCH  16  17
ENDBRANCH   9  11
ENDBRANCH   8   9
ENDBRANCH   7   8
ENDBRANCH   6   7
ENDBRANCH   5   6
ENDBRANCH   4   5
ENDBRANCH   3   4
ENDBRANCH   2   3
ENDBRANCH   1   2
BRANCH   1  76
ATOM     76  C   UNL A   1      31.990  28.866  25.358  1.00  0.00     0.188 C 
BRANCH  76  77
ATOM     77  O   UNL A   1      31.765  28.048  24.215  1.00  0.00    -0.376 OA
BRANCH  77  78
ATOM     78  C   UNL A   1      30.720  27.070  24.417  1.00  0.00     0.202 C 
BRANCH  78  79
ATOM     79  C   UNL A   1      30.827  26.182  25.681  1.00  0.00     0.261 C 
BRANCH  79  80
ATOM     80  O   UNL A   1      31.023  24.783  25.365  1.00  0.00    -0.460 OA
BRANCH  80  81
ATOM     81  C   UNL A   1      30.849  23.837  26.311  1.00  0.00     0.340 C 
ATOM     82  O   UNL A   1      30.066  23.864  27.252  1.00  0.00    -0.246 OA
BRANCH  81  83
ATOM     83  C   UNL A   1      31.844  22.772  26.090  1.00  0.00     0.092 A 
ATOM     84  C   UNL A   1      32.823  22.637  27.095  1.00  0.00     0.020 A 
ATOM     85  C   UNL A   1      31.933  21.960  24.944  1.00  0.00     0.111 A 
ATOM     86  C   UNL A   1      33.824  21.686  26.976  1.00  0.00     0.021 A 
ATOM     87  N   UNL A   1      32.858  20.954  24.893  1.00  0.00    -0.249 NA
ATOM     88  C   UNL A   1      33.774  20.843  25.886  1.00  0.00     0.112 A 
BRANCH  85  89
ATOM     89  S   UNL A   1      31.630  22.521  23.253  1.00  0.00    -0.097 SA
BRANCH  89  90
ATOM     90  C   UNL A   1      33.117  22.950  22.340  1.00  0.00     0.157 C 
BRANCH  90  91
ATOM     91  C   UNL A   1      33.993  24.032  22.879  1.00  0.00     0.174 C 
ATOM     92  O   UNL A   1      33.703  25.214  22.680  1.00  0.00    -0.293 OA
BRANCH  91  93
ATOM     93  C   UNL A   1      35.054  23.701  23.875  1.00  0.00     0.037 A 
ATOM     94  C   UNL A   1      35.896  22.630  23.518  1.00  0.00     0.013 A 
ATOM     95  C   UNL A   1      35.326  24.405  25.056  1.00  0.00     0.051 A 
ATOM     96  C   UNL A   1      37.015  22.309  24.283  1.00  0.00     0.001 A 
ATOM     97  C   UNL A   1      36.464  24.088  25.808  1.00  0.00     0.021 A 
ATOM     98  Cl  UNL A   1      34.324  25.640  25.728  1.00  0.00    -0.084 Cl
ATOM     99  C   UNL A   1      37.312  23.054  25.417  1.00  0.00     0.002 A 
ENDBRANCH  91  93
ENDBRANCH  90  91
ENDBRANCH  89  90
ENDBRANCH  85  89
ENDBRANCH  81  83
ENDBRANCH  80  81
ENDBRANCH  79  80
ENDBRANCH  78  79
ENDBRANCH  77  78
ENDBRANCH  76  77
ENDBRANCH   1  76
TORSDOF 24
ENDMDL
MODEL 2
REMARK VINA RESULT:      -9.8      2.043      7.771
REMARK SMILES O=C(OCCOCCOCCOCCOC(=O)c1cccnc1SCC(=O)c1ccccc1Cl)c1ccc(-c2c3nc(c(-c4c(F)c(F)c(F)c(F)c4F)c4ccc([nH]4)c(-c4c(F)c(F)c(F)c(F)c4F)c4nc(c(-c5c(F)c(F)c(F)c(F)c5F)c5ccc2[nH]5)C=C4)C=C3)cc1
REMARK SMILES IDX 10 1 9 2 8 3 7 4 6 5 5 6 4 7 3 8 2 9 1 10 35 11 36 12 97 13
REMARK SMILES IDX 37 14 96 15 38 16 39 17 40 18 90 19 41 20 95 21 89 22 91 23
REMARK SMILES IDX 42 24 94 25 88 26 87 27 43 29 75 30 55 31 74 32 56 33 59 34
REMARK SMILES IDX 73 35 92 36 57 37 58 38 72 40 93 41 60 42 44 43 45 44 53 45
REMARK SMILES IDX 46 46 47 47 51 48 54 49 48 50 49 51 52 52 50 53 76 54 77 55
REMARK SMILES IDX 85 56 78 57 79 58 83 59 86 60 80 61 81 62 84 63 82 64 61 65
REMARK SMILES IDX 62 66 70 67 63 68 64 69 68 70 71 71 65 72 66 73 69 74 67 75
REMARK SMILES IDX 11 76 12 77 13 78 14 79 15 80 16 81 17 82 18 83 19 84 23 85
REMARK SMILES IDX 20 86 22 87 21 88 24 89 25 90 26 91 27 92 28 93 29 94 33 95
REMARK SMILES IDX 30 96 32 97 34 98 31 99
REMARK H PARENT 91 28 59 39
REMARK Flexibility Score: inf
ROOT
ATOM      1  C   UNL A   1      31.200  27.204  25.218  1.00  0.00     0.188 C 
ENDROOT
BRANCH   1   2
ATOM      2  O   UNL A   1      32.460  26.925  25.798  1.00  0.00    -0.377 OA
BRANCH   2   3
ATOM      3  C   UNL A   1      32.806  27.812  26.855  1.00  0.00     0.188 C 
BRANCH   3   4
ATOM      4  C   UNL A   1      31.810  28.949  27.075  1.00  0.00     0.188 C 
BRANCH   4   5
ATOM      5  O   UNL A   1      32.032  30.119  26.273  1.00  0.00    -0.376 OA
BRANCH   5   6
ATOM      6  C   UNL A   1      32.740  31.167  26.954  1.00  0.00     0.202 C 
BRANCH   6   7
ATOM      7  C   UNL A   1      31.907  32.421  27.265  1.00  0.00     0.261 C 
BRANCH   7   8
ATOM      8  O   UNL A   1      32.686  33.628  27.250  1.00  0.00    -0.460 OA
BRANCH   8   9
ATOM      9  C   UNL A   1      33.153  34.338  28.306  1.00  0.00     0.338 C 
ATOM     10  O   UNL A   1      32.566  35.374  28.618  1.00  0.00    -0.246 OA
BRANCH   9  11
ATOM     11  C   UNL A   1      34.320  33.921  29.148  1.00  0.00     0.060 A 
ATOM     12  C   UNL A   1      35.597  34.484  29.112  1.00  0.00     0.016 A 
ATOM     13  C   UNL A   1      34.093  32.876  30.062  1.00  0.00     0.016 A 
ATOM     14  C   UNL A   1      36.649  33.936  29.825  1.00  0.00     0.010 A 
ATOM     15  C   UNL A   1      35.135  32.348  30.828  1.00  0.00     0.010 A 
ATOM     16  C   UNL A   1      36.430  32.844  30.657  1.00  0.00    -0.014 A 
BRANCH  16  17
ATOM     17  C   UNL A   1      37.615  32.138  31.170  1.00  0.00     0.031 A 
ATOM     18  C   UNL A   1      38.028  32.407  32.586  1.00  0.00     0.074 A 
ATOM     19  C   UNL A   1      38.172  31.158  30.439  1.00  0.00     0.049 A 
ATOM     20  N   UNL A   1      39.035  31.926  33.263  1.00  0.00    -0.248 NA
ATOM     21  C   UNL A   1      37.174  33.332  33.354  1.00  0.00     0.031 C 
ATOM     22  C   UNL A   1      37.727  30.742  29.108  1.00  0.00     0.029 A 
ATOM     23  N   UNL A   1      39.205  30.308  30.727  1.00  0.00    -0.354 N 
ATOM     24  C   UNL A   1      38.948  32.504  34.522  1.00  0.00     0.074 A 
ATOM     25  C   UNL A   1      37.799  33.379  34.520  1.00  0.00     0.031 C 
ATOM     26  C   UNL A   1      38.476  29.704  28.700  1.00  0.00     0.029 A 
ATOM     27  C   UNL A   1      39.491  29.433  29.710  1.00  0.00     0.049 A 
ATOM     28  H   UNL A   1      39.696  30.324  31.582  1.00  0.00     0.167 HD
ATOM     29  C   UNL A   1      39.763  32.312  35.583  1.00  0.00     0.037 A 
ATOM     30  C   UNL A   1      40.495  28.544  29.605  1.00  0.00     0.037 A 
ATOM     31  C   UNL A   1      40.898  31.434  35.549  1.00  0.00     0.049 A 
ATOM     32  C   UNL A   1      41.453  28.432  30.762  1.00  0.00     0.074 A 
ATOM     33  C   UNL A   1      41.861  31.216  36.516  1.00  0.00     0.029 A 
ATOM     34  N   UNL A   1      41.216  30.616  34.471  1.00  0.00    -0.354 N 
ATOM     35  N   UNL A   1      41.425  29.045  31.922  1.00  0.00    -0.248 NA
ATOM     36  C   UNL A   1      42.587  27.517  30.593  1.00  0.00     0.031 C 
ATOM     37  C   UNL A   1      42.781  30.293  36.006  1.00  0.00     0.029 A 
ATOM     38  C   UNL A   1      42.365  29.898  34.743  1.00  0.00     0.049 A 
ATOM     39  H   UNL A   1      40.698  30.558  33.635  1.00  0.00     0.167 HD
ATOM     40  C   UNL A   1      42.528  28.585  32.627  1.00  0.00     0.074 A 
ATOM     41  C   UNL A   1      43.184  27.614  31.773  1.00  0.00     0.031 C 
ATOM     42  C   UNL A   1      42.974  28.937  33.858  1.00  0.00     0.037 A 
BRANCH  29  43
ATOM     43  C   UNL A   1      39.480  33.111  36.821  1.00  0.00     0.064 A 
ATOM     44  C   UNL A   1      40.130  34.327  37.082  1.00  0.00     0.173 A 
ATOM     45  C   UNL A   1      38.563  32.640  37.771  1.00  0.00     0.173 A 
ATOM     46  F   UNL A   1      41.041  34.805  36.222  1.00  0.00    -0.203 F 
ATOM     47  C   UNL A   1      39.886  35.030  38.261  1.00  0.00     0.198 A 
ATOM     48  C   UNL A   1      38.303  33.358  38.936  1.00  0.00     0.198 A 
ATOM     49  F   UNL A   1      37.924  31.477  37.575  1.00  0.00    -0.203 F 
ATOM     50  F   UNL A   1      40.556  36.162  38.514  1.00  0.00    -0.200 F 
ATOM     51  C   UNL A   1      38.970  34.548  39.183  1.00  0.00     0.200 A 
ATOM     52  F   UNL A   1      37.416  32.890  39.826  1.00  0.00    -0.200 F 
ATOM     53  F   UNL A   1      38.738  35.223  40.317  1.00  0.00    -0.200 F 
ENDBRANCH  29  43
BRANCH  30  54
ATOM     54  C   UNL A   1      40.686  27.761  28.354  1.00  0.00     0.064 A 
ATOM     55  C   UNL A   1      40.144  26.477  28.202  1.00  0.00     0.173 A 
ATOM     56  C   UNL A   1      41.453  28.268  27.293  1.00  0.00     0.173 A 
ATOM     57  F   UNL A   1      39.420  25.934  29.191  1.00  0.00    -0.203 F 
ATOM     58  C   UNL A   1      40.386  25.723  27.054  1.00  0.00     0.198 A 
ATOM     59  C   UNL A   1      41.664  27.529  26.132  1.00  0.00     0.198 A 
ATOM     60  F   UNL A   1      42.001  29.489  27.383  1.00  0.00    -0.203 F 
ATOM     61  F   UNL A   1      39.907  24.475  26.962  1.00  0.00    -0.200 F 
ATOM     62  C   UNL A   1      41.142  26.251  26.018  1.00  0.00     0.200 A 
ATOM     63  F   UNL A   1      42.384  28.051  25.129  1.00  0.00    -0.200 F 
ATOM     64  F   UNL A   1      41.379  25.523  24.918  1.00  0.00    -0.200 F 
ENDBRANCH  30  54
BRANCH  42  65
ATOM     65  C   UNL A   1      44.209  28.243  34.347  1.00  0.00     0.064 A 
ATOM     66  C   UNL A   1      45.485  28.779  34.125  1.00  0.00     0.173 A 
ATOM     67  C   UNL A   1      44.108  27.044  35.067  1.00  0.00     0.173 A 
ATOM     68  F   UNL A   1      45.629  29.915  33.425  1.00  0.00    -0.203 F 
ATOM     69  C   UNL A   1      46.622  28.119  34.580  1.00  0.00     0.198 A 
ATOM     70  C   UNL A   1      45.246  26.406  35.550  1.00  0.00     0.198 A 
ATOM     71  F   UNL A   1      42.907  26.500  35.311  1.00  0.00    -0.203 F 
ATOM     72  F   UNL A   1      47.836  28.616  34.307  1.00  0.00    -0.200 F 
ATOM     73  C   UNL A   1      46.502  26.938  35.296  1.00  0.00     0.200 A 
ATOM     74  F   UNL A   1      45.127  25.273  36.254  1.00  0.00    -0.200 F 
ATOM     75  F   UNL A   1      47.597  26.305  35.737  1.00  0.00    -0.200 F 
ENDBRANCH  42  65
ENDBRANCH  16  17
ENDBRANCH   9  11
ENDBRANCH   8   9
ENDBRANCH   7   8
ENDBRANCH   6   7
ENDBRANCH   5   6
ENDBRANCH   4   5
ENDBRANCH   3   4
ENDBRANCH   2   3
ENDBRANCH   1   2
BRANCH   1  76
ATOM     76  C   UNL A   1      30.239  26.025  25.144  1.00  0.00     0.188 C 
BRANCH  76  77
ATOM     77  O   UNL A   1      30.697  24.720  24.813  1.00  0.00    -0.376 OA
BRANCH  77  78
ATOM     78  C   UNL A   1      30.669  24.454  23.392  1.00  0.00     0.202 C 
BRANCH  78  79
ATOM     79  C   UNL A   1      31.848  25.003  22.553  1.00  0.00     0.261 C 
BRANCH  79  80
ATOM     80  O   UNL A   1      33.113  24.926  23.252  1.00  0.00    -0.460 OA
BRANCH  80  81
ATOM     81  C   UNL A   1      33.976  23.921  22.997  1.00  0.00     0.340 C 
ATOM     82  O   UNL A   1      33.975  23.171  22.030  1.00  0.00    -0.246 OA
BRANCH  81  83
ATOM     83  C   UNL A   1      34.895  23.796  24.143  1.00  0.00     0.092 A 
ATOM     84  C   UNL A   1      36.267  23.761  23.821  1.00  0.00     0.020 A 
ATOM     85  C   UNL A   1      34.510  23.627  25.486  1.00  0.00     0.111 A 
ATOM     86  C   UNL A   1      37.218  23.616  24.819  1.00  0.00     0.021 A 
ATOM     87  N   UNL A   1      35.461  23.597  26.468  1.00  0.00    -0.249 NA
ATOM     88  C   UNL A   1      36.772  23.584  26.122  1.00  0.00     0.112 A 
BRANCH  85  89
ATOM     89  S   UNL A   1      33.106  22.636  26.044  1.00  0.00    -0.097 SA
BRANCH  89  90
ATOM     90  C   UNL A   1      33.457  20.881  26.197  1.00  0.00     0.157 C 
BRANCH  90  91
ATOM     91  C   UNL A   1      34.438  20.268  25.253  1.00  0.00     0.174 C 
ATOM     92  O   UNL A   1      35.642  20.502  25.380  1.00  0.00    -0.293 OA
BRANCH  91  93
ATOM     93  C   UNL A   1      34.003  19.172  24.339  1.00  0.00     0.037 A 
ATOM     94  C   UNL A   1      34.699  17.956  24.491  1.00  0.00     0.013 A 
ATOM     95  C   UNL A   1      32.935  19.226  23.434  1.00  0.00     0.051 A 
ATOM     96  C   UNL A   1      34.300  16.809  23.807  1.00  0.00     0.001 A 
ATOM     97  C   UNL A   1      32.529  18.064  22.766  1.00  0.00     0.021 A 
ATOM     98  Cl  UNL A   1      32.068  20.657  23.007  1.00  0.00    -0.084 Cl
ATOM     99  C   UNL A   1      33.200  16.858  22.961  1.00  0.00     0.002 A 
ENDBRANCH  91  93
ENDBRANCH  90  91
ENDBRANCH  89  90
ENDBRANCH  85  89
ENDBRANCH  81  83
ENDBRANCH  80  81
ENDBRANCH  79  80
ENDBRANCH  78  79
ENDBRANCH  77  78
ENDBRANCH  76  77
ENDBRANCH   1  76
TORSDOF 24
ENDMDL
MODEL 3
REMARK VINA RESULT:      -9.8      1.958      7.617
REMARK SMILES O=C(OCCOCCOCCOCCOC(=O)c1cccnc1SCC(=O)c1ccccc1Cl)c1ccc(-c2c3nc(c(-c4c(F)c(F)c(F)c(F)c4F)c4ccc([nH]4)c(-c4c(F)c(F)c(F)c(F)c4F)c4nc(c(-c5c(F)c(F)c(F)c(F)c5F)c5ccc2[nH]5)C=C4)C=C3)cc1
REMARK SMILES IDX 10 1 9 2 8 3 7 4 6 5 5 6 4 7 3 8 2 9 1 10 35 11 36 12 97 13
REMARK SMILES IDX 37 14 96 15 38 16 39 17 40 18 90 19 41 20 95 21 89 22 91 23
REMARK SMILES IDX 42 24 94 25 88 26 87 27 43 29 75 30 55 31 74 32 56 33 59 34
REMARK SMILES IDX 73 35 92 36 57 37 58 38 72 40 93 41 60 42 44 43 45 44 53 45
REMARK SMILES IDX 46 46 47 47 51 48 54 49 48 50 49 51 52 52 50 53 76 54 77 55
REMARK SMILES IDX 85 56 78 57 79 58 83 59 86 60 80 61 81 62 84 63 82 64 61 65
REMARK SMILES IDX 62 66 70 67 63 68 64 69 68 70 71 71 65 72 66 73 69 74 67 75
REMARK SMILES IDX 11 76 12 77 13 78 14 79 15 80 16 81 17 82 18 83 19 84 23 85
REMARK SMILES IDX 20 86 22 87 21 88 24 89 25 90 26 91 27 92 28 93 29 94 33 95
REMARK SMILES IDX 30 96 32 97 34 98 31 99
REMARK H PARENT 91 28 59 39
REMARK Flexibility Score: inf
ROOT
ATOM      1  C   UNL A   1      33.709  27.421  26.096  1.00  0.00     0.188 C 
ENDROOT
BRANCH   1   2
ATOM      2  O   UNL A   1      32.541  27.983  26.662  1.00  0.00    -0.377 OA
BRANCH   2   3
ATOM      3  C   UNL A   1      31.653  28.538  25.699  1.00  0.00     0.188 C 
BRANCH   3   4
ATOM      4  C   UNL A   1      31.721  30.060  25.583  1.00  0.00     0.188 C 
BRANCH   4   5
ATOM      5  O   UNL A   1      31.620  30.772  26.826  1.00  0.00    -0.376 OA
BRANCH   5   6
ATOM      6  C   UNL A   1      31.544  32.199  26.675  1.00  0.00     0.202 C 
BRANCH   6   7
ATOM      7  C   UNL A   1      32.698  32.985  27.320  1.00  0.00     0.261 C 
BRANCH   7   8
ATOM      8  O   UNL A   1      32.264  34.206  27.940  1.00  0.00    -0.460 OA
BRANCH   8   9
ATOM      9  C   UNL A   1      32.954  35.007  28.789  1.00  0.00     0.338 C 
ATOM     10  O   UNL A   1      32.493  36.119  29.045  1.00  0.00    -0.246 OA
BRANCH   9  11
ATOM     11  C   UNL A   1      34.228  34.608  29.470  1.00  0.00     0.060 A 
ATOM     12  C   UNL A   1      35.503  34.645  28.904  1.00  0.00     0.016 A 
ATOM     13  C   UNL A   1      34.117  34.174  30.803  1.00  0.00     0.016 A 
ATOM     14  C   UNL A   1      36.602  34.121  29.563  1.00  0.00     0.010 A 
ATOM     15  C   UNL A   1      35.228  33.692  31.500  1.00  0.00     0.010 A 
ATOM     16  C   UNL A   1      36.462  33.609  30.848  1.00  0.00    -0.014 A 
BRANCH  16  17
ATOM     17  C   UNL A   1      37.584  32.825  31.388  1.00  0.00     0.031 A 
ATOM     18  C   UNL A   1      38.026  33.117  32.790  1.00  0.00     0.074 A 
ATOM     19  C   UNL A   1      38.049  31.770  30.699  1.00  0.00     0.049 A 
ATOM     20  N   UNL A   1      38.992  32.580  33.485  1.00  0.00    -0.248 NA
ATOM     21  C   UNL A   1      37.261  34.145  33.520  1.00  0.00     0.031 C 
ATOM     22  C   UNL A   1      37.561  31.339  29.387  1.00  0.00     0.029 A 
ATOM     23  N   UNL A   1      39.006  30.847  31.021  1.00  0.00    -0.354 N 
ATOM     24  C   UNL A   1      38.962  33.215  34.719  1.00  0.00     0.074 A 
ATOM     25  C   UNL A   1      37.894  34.187  34.682  1.00  0.00     0.031 C 
ATOM     26  C   UNL A   1      38.214  30.223  29.023  1.00  0.00     0.029 A 
ATOM     27  C   UNL A   1      39.208  29.907  30.041  1.00  0.00     0.049 A 
ATOM     28  H   UNL A   1      39.500  30.856  31.873  1.00  0.00     0.167 HD
ATOM     29  C   UNL A   1      39.764  32.998  35.786  1.00  0.00     0.037 A 
ATOM     30  C   UNL A   1      40.130  28.930  29.972  1.00  0.00     0.037 A 
ATOM     31  C   UNL A   1      40.818  32.023  35.787  1.00  0.00     0.049 A 
ATOM     32  C   UNL A   1      41.081  28.784  31.132  1.00  0.00     0.074 A 
ATOM     33  C   UNL A   1      41.763  31.764  36.760  1.00  0.00     0.029 A 
ATOM     34  N   UNL A   1      41.057  31.137  34.744  1.00  0.00    -0.354 N 
ATOM     35  N   UNL A   1      41.113  29.446  32.264  1.00  0.00    -0.248 NA
ATOM     36  C   UNL A   1      42.130  27.767  31.000  1.00  0.00     0.031 C 
ATOM     37  C   UNL A   1      42.597  30.743  36.289  1.00  0.00     0.029 A 
ATOM     38  C   UNL A   1      42.141  30.332  35.044  1.00  0.00     0.049 A 
ATOM     39  H   UNL A   1      40.531  31.088  33.912  1.00  0.00     0.167 HD
ATOM     40  C   UNL A   1      42.177  28.922  32.986  1.00  0.00     0.074 A 
ATOM     41  C   UNL A   1      42.740  27.862  32.173  1.00  0.00     0.031 C 
ATOM     42  C   UNL A   1      42.658  29.286  34.200  1.00  0.00     0.037 A 
BRANCH  29  43
ATOM     43  C   UNL A   1      39.559  33.871  36.988  1.00  0.00     0.064 A 
ATOM     44  C   UNL A   1      38.808  33.444  38.094  1.00  0.00     0.173 A 
ATOM     45  C   UNL A   1      40.104  35.162  37.025  1.00  0.00     0.173 A 
ATOM     46  F   UNL A   1      38.238  32.230  38.096  1.00  0.00    -0.203 F 
ATOM     47  C   UNL A   1      38.592  34.288  39.182  1.00  0.00     0.198 A 
ATOM     48  C   UNL A   1      39.907  35.994  38.124  1.00  0.00     0.198 A 
ATOM     49  F   UNL A   1      40.820  35.623  35.989  1.00  0.00    -0.203 F 
ATOM     50  F   UNL A   1      37.828  33.880  40.204  1.00  0.00    -0.200 F 
ATOM     51  C   UNL A   1      39.146  35.559  39.199  1.00  0.00     0.200 A 
ATOM     52  F   UNL A   1      40.444  37.223  38.138  1.00  0.00    -0.200 F 
ATOM     53  F   UNL A   1      38.935  36.371  40.243  1.00  0.00    -0.200 F 
ENDBRANCH  29  43
BRANCH  30  54
ATOM     54  C   UNL A   1      40.244  28.081  28.756  1.00  0.00     0.064 A 
ATOM     55  C   UNL A   1      39.654  26.812  28.689  1.00  0.00     0.173 A 
ATOM     56  C   UNL A   1      40.986  28.508  27.643  1.00  0.00     0.173 A 
ATOM     57  F   UNL A   1      38.951  26.343  29.731  1.00  0.00    -0.203 F 
ATOM     58  C   UNL A   1      39.824  25.994  27.571  1.00  0.00     0.198 A 
ATOM     59  C   UNL A   1      41.126  27.707  26.512  1.00  0.00     0.198 A 
ATOM     60  F   UNL A   1      41.578  29.712  27.650  1.00  0.00    -0.203 F 
ATOM     61  F   UNL A   1      39.300  24.761  27.560  1.00  0.00    -0.200 F 
ATOM     62  C   UNL A   1      40.556  26.444  26.482  1.00  0.00     0.200 A 
ATOM     63  F   UNL A   1      41.822  28.154  25.458  1.00  0.00    -0.200 F 
ATOM     64  F   UNL A   1      40.724  25.655  25.412  1.00  0.00    -0.200 F 
ENDBRANCH  30  54
BRANCH  42  65
ATOM     65  C   UNL A   1      43.831  28.507  34.715  1.00  0.00     0.064 A 
ATOM     66  C   UNL A   1      45.148  28.925  34.475  1.00  0.00     0.173 A 
ATOM     67  C   UNL A   1      43.630  27.349  35.479  1.00  0.00     0.173 A 
ATOM     68  F   UNL A   1      45.386  30.018  33.735  1.00  0.00    -0.203 F 
ATOM     69  C   UNL A   1      46.226  28.188  34.956  1.00  0.00     0.198 A 
ATOM     70  C   UNL A   1      44.710  26.634  35.986  1.00  0.00     0.198 A 
ATOM     71  F   UNL A   1      42.387  26.917  35.740  1.00  0.00    -0.203 F 
ATOM     72  F   UNL A   1      47.476  28.570  34.667  1.00  0.00    -0.200 F 
ATOM     73  C   UNL A   1      46.006  27.048  35.715  1.00  0.00     0.200 A 
ATOM     74  F   UNL A   1      44.497  25.542  36.731  1.00  0.00    -0.200 F 
ATOM     75  F   UNL A   1      47.045  26.341  36.179  1.00  0.00    -0.200 F 
ENDBRANCH  42  65
ENDBRANCH  16  17
ENDBRANCH   9  11
ENDBRANCH   8   9
ENDBRANCH   7   8
ENDBRANCH   6   7
ENDBRANCH   5   6
ENDBRANCH   4   5
ENDBRANCH   3   4
ENDBRANCH   2   3
ENDBRANCH   1   2
BRANCH   1  76
ATOM     76  C   UNL A   1      33.598  25.960  25.684  1.00  0.00     0.188 C 
BRANCH  76  77
ATOM     77  O   UNL A   1      34.715  25.083  25.770  1.00  0.00    -0.376 OA
BRANCH  77  78
ATOM     78  C   UNL A   1      34.345  23.730  26.121  1.00  0.00     0.202 C 
BRANCH  78  79
ATOM     79  C   UNL A   1      35.496  22.761  26.484  1.00  0.00     0.261 C 
BRANCH  79  80
ATOM     80  O   UNL A   1      35.141  21.372  26.281  1.00  0.00    -0.460 OA
BRANCH  80  81
ATOM     81  C   UNL A   1      35.459  20.745  25.130  1.00  0.00     0.340 C 
ATOM     82  O   UNL A   1      36.328  21.063  24.328  1.00  0.00    -0.246 OA
BRANCH  81  83
ATOM     83  C   UNL A   1      34.508  19.637  24.925  1.00  0.00     0.092 A 
ATOM     84  C   UNL A   1      35.072  18.430  24.466  1.00  0.00     0.020 A 
ATOM     85  C   UNL A   1      33.111  19.720  25.070  1.00  0.00     0.111 A 
ATOM     86  C   UNL A   1      34.266  17.331  24.212  1.00  0.00     0.021 A 
ATOM     87  N   UNL A   1      32.344  18.598  24.924  1.00  0.00    -0.249 NA
ATOM     88  C   UNL A   1      32.923  17.449  24.498  1.00  0.00     0.112 A 
BRANCH  85  89
ATOM     89  S   UNL A   1      32.105  21.145  24.598  1.00  0.00    -0.097 SA
BRANCH  89  90
ATOM     90  C   UNL A   1      32.460  21.789  22.960  1.00  0.00     0.157 C 
BRANCH  90  91
ATOM     91  C   UNL A   1      33.206  23.077  22.849  1.00  0.00     0.174 C 
ATOM     92  O   UNL A   1      34.422  23.068  22.639  1.00  0.00    -0.293 OA
BRANCH  91  93
ATOM     93  C   UNL A   1      32.457  24.361  22.720  1.00  0.00     0.037 A 
ATOM     94  C   UNL A   1      32.869  25.190  21.659  1.00  0.00     0.013 A 
ATOM     95  C   UNL A   1      31.354  24.754  23.491  1.00  0.00     0.051 A 
ATOM     96  C   UNL A   1      32.162  26.346  21.333  1.00  0.00     0.001 A 
ATOM     97  C   UNL A   1      30.638  25.907  23.144  1.00  0.00     0.021 A 
ATOM     98  Cl  UNL A   1      30.801  23.949  24.914  1.00  0.00    -0.084 Cl
ATOM     99  C   UNL A   1      31.033  26.693  22.063  1.00  0.00     0.002 A 
ENDBRANCH  91  93
ENDBRANCH  90  91
ENDBRANCH  89  90
ENDBRANCH  85  89
ENDBRANCH  81  83
ENDBRANCH  80  81
ENDBRANCH  79  80
ENDBRANCH  78  79
ENDBRANCH  77  78
ENDBRANCH  76  77
ENDBRANCH   1  76
TORSDOF 24
ENDMDL
