MODEL 1
REMARK VINA RESULT:      -9.3      0.000      0.000
REMARK SMILES CCc1cc(OC[C@@H]2C[N@@H+](CC)CCO2)c(C(=O)OCCOCCOCCOCCOC(=O)c2ccc(-c3c4nc(c(-c5c(F)c(F)c(F)c(F)c5F)c5ccc([nH]5)c(-c5c(F)c(F)c(F)c(F)c5F)c5nc(c(-c6c(F)c(F)c(F)c(F)c6F)c6ccc3[nH]6)C=C5)C=C4)cc2)s1
REMARK SMILES IDX 24 1 23 2 22 3 21 4 20 5 19 6 17 7 18 8 16 9 3 10 4 11 97 12
REMARK SMILES IDX 5 13 2 14 1 15 6 16 7 17 8 18 9 19 15 20 10 21 14 22 13 23
REMARK SMILES IDX 11 25 12 26 25 27 26 28 27 29 28 30 29 31 30 32 31 33 32 34
REMARK SMILES IDX 33 35 34 36 35 37 96 38 36 39 95 40 37 41 38 42 39 43 89 44
REMARK SMILES IDX 40 45 94 46 88 47 90 48 41 49 93 50 87 51 86 52 42 54 74 55
REMARK SMILES IDX 54 56 73 57 55 58 58 59 72 60 91 61 56 62 57 63 71 65 92 66
REMARK SMILES IDX 59 67 43 68 44 69 52 70 45 71 46 72 50 73 53 74 47 75 48 76
REMARK SMILES IDX 51 77 49 78 75 79 76 80 84 81 77 82 78 83 82 84 85 85 79 86
REMARK SMILES IDX 80 87 83 88 81 89 60 90 61 91 69 92 62 93 63 94 67 95 70 96
REMARK SMILES IDX 64 97 65 98 68 99 66 100
REMARK H PARENT 10 24 90 53 58 64
REMARK Flexibility Score: inf
ROOT
ATOM      1  C   UNL A   1      40.842  23.247  26.542  1.00  0.00     0.188 C 
ENDROOT
BRANCH   1   2
ATOM      2  C   UNL A   1      39.583  22.361  26.550  1.00  0.00     0.188 C 
BRANCH   2   3
ATOM      3  O   UNL A   1      38.395  23.021  26.121  1.00  0.00    -0.376 OA
BRANCH   3   4
ATOM      4  C   UNL A   1      37.426  22.193  25.489  1.00  0.00     0.202 C 
BRANCH   4   5
ATOM      5  C   UNL A   1      36.680  22.904  24.358  1.00  0.00     0.261 C 
BRANCH   5   6
ATOM      6  O   UNL A   1      35.256  22.850  24.494  1.00  0.00    -0.459 OA
BRANCH   6   7
ATOM      7  C   UNL A   1      34.495  23.417  23.523  1.00  0.00     0.352 C 
ATOM      8  O   UNL A   1      34.775  23.379  22.328  1.00  0.00    -0.245 OA
BRANCH   7   9
ATOM      9  C   UNL A   1      33.275  23.933  24.113  1.00  0.00     0.155 A 
ATOM     10  C   UNL A   1      31.576  25.428  25.114  1.00  0.00     0.009 A 
ATOM     11  C   UNL A   1      31.056  24.187  24.803  1.00  0.00     0.062 A 
ATOM     12  S   UNL A   1      33.239  25.533  24.718  1.00  0.00    -0.130 S 
ATOM     13  C   UNL A   1      32.051  23.310  24.283  1.00  0.00     0.145 A 
BRANCH  10  14
ATOM     14  C   UNL A   1      30.876  26.604  25.732  1.00  0.00     0.043 C 
ATOM     15  C   UNL A   1      31.827  27.773  25.937  1.00  0.00     0.010 C 
ENDBRANCH  10  14
BRANCH  13  16
ATOM     16  O   UNL A   1      31.938  21.994  23.985  1.00  0.00    -0.489 OA
BRANCH  16  17
ATOM     17  C   UNL A   1      32.122  21.070  25.050  1.00  0.00     0.267 C 
BRANCH  17  18
ATOM     18  C   UNL A   1      32.304  19.582  24.675  1.00  0.00     0.210 C 
ATOM     19  C   UNL A   1      33.500  18.858  25.329  1.00  0.00     0.298 C 
ATOM     20  O   UNL A   1      32.421  19.491  23.237  1.00  0.00    -0.363 OA
ATOM     21  N   UNL A   1      33.629  17.444  24.950  1.00  0.00    -0.331 N 
ATOM     22  C   UNL A   1      32.457  18.124  22.806  1.00  0.00     0.222 C 
ATOM     23  C   UNL A   1      33.557  17.298  23.496  1.00  0.00     0.291 C 
ATOM     24  H   UNL A   1      34.566  17.136  25.213  1.00  0.00     0.348 HD
BRANCH  21  25
ATOM     25  C   UNL A   1      32.838  16.506  25.750  1.00  0.00     0.258 C 
ATOM     26  C   UNL A   1      32.821  15.029  25.375  1.00  0.00     0.071 C 
ENDBRANCH  21  25
ENDBRANCH  17  18
ENDBRANCH  16  17
ENDBRANCH  13  16
ENDBRANCH   7   9
ENDBRANCH   6   7
ENDBRANCH   5   6
ENDBRANCH   4   5
ENDBRANCH   3   4
ENDBRANCH   2   3
ENDBRANCH   1   2
BRANCH   1  27
ATOM     27  O   UNL A   1      41.476  23.549  27.773  1.00  0.00    -0.377 OA
BRANCH  27  28
ATOM     28  C   UNL A   1      42.347  22.592  28.363  1.00  0.00     0.188 C 
BRANCH  28  29
ATOM     29  C   UNL A   1      43.772  22.364  27.814  1.00  0.00     0.188 C 
BRANCH  29  30
ATOM     30  O   UNL A   1      43.999  22.836  26.492  1.00  0.00    -0.376 OA
BRANCH  30  31
ATOM     31  C   UNL A   1      45.352  22.861  26.054  1.00  0.00     0.202 C 
BRANCH  31  32
ATOM     32  C   UNL A   1      45.608  23.807  24.875  1.00  0.00     0.261 C 
BRANCH  32  33
ATOM     33  O   UNL A   1      44.728  24.941  24.825  1.00  0.00    -0.460 OA
BRANCH  33  34
ATOM     34  C   UNL A   1      45.274  26.139  25.118  1.00  0.00     0.338 C 
ATOM     35  O   UNL A   1      46.231  26.671  24.586  1.00  0.00    -0.246 OA
BRANCH  34  36
ATOM     36  C   UNL A   1      44.403  26.808  26.099  1.00  0.00     0.060 A 
ATOM     37  C   UNL A   1      44.476  28.201  26.216  1.00  0.00     0.016 A 
ATOM     38  C   UNL A   1      43.545  26.063  26.912  1.00  0.00     0.016 A 
ATOM     39  C   UNL A   1      43.726  28.851  27.193  1.00  0.00     0.010 A 
ATOM     40  C   UNL A   1      42.807  26.714  27.901  1.00  0.00     0.010 A 
ATOM     41  C   UNL A   1      42.930  28.104  28.071  1.00  0.00    -0.014 A 
BRANCH  41  42
ATOM     42  C   UNL A   1      42.411  28.753  29.296  1.00  0.00     0.031 A 
ATOM     43  C   UNL A   1      41.037  29.364  29.247  1.00  0.00     0.074 A 
ATOM     44  C   UNL A   1      43.120  28.764  30.436  1.00  0.00     0.049 A 
ATOM     45  N   UNL A   1      40.350  29.945  30.196  1.00  0.00    -0.248 NA
ATOM     46  C   UNL A   1      40.346  29.308  27.948  1.00  0.00     0.031 C 
ATOM     47  C   UNL A   1      44.453  28.190  30.610  1.00  0.00     0.029 A 
ATOM     48  N   UNL A   1      42.809  29.282  31.667  1.00  0.00    -0.354 N 
ATOM     49  C   UNL A   1      39.145  30.313  29.612  1.00  0.00     0.074 A 
ATOM     50  C   UNL A   1      39.209  29.929  28.220  1.00  0.00     0.031 C 
ATOM     51  C   UNL A   1      44.848  28.392  31.880  1.00  0.00     0.029 A 
ATOM     52  C   UNL A   1      43.803  29.119  32.599  1.00  0.00     0.049 A 
ATOM     53  H   UNL A   1      41.953  29.729  31.864  1.00  0.00     0.167 HD
ATOM     54  C   UNL A   1      38.074  30.906  30.190  1.00  0.00     0.037 A 
ATOM     55  C   UNL A   1      43.857  29.519  33.884  1.00  0.00     0.037 A 
ATOM     56  C   UNL A   1      38.014  31.302  31.570  1.00  0.00     0.049 A 
ATOM     57  C   UNL A   1      42.673  30.229  34.489  1.00  0.00     0.074 A 
ATOM     58  C   UNL A   1      36.971  31.900  32.254  1.00  0.00     0.029 A 
ATOM     59  N   UNL A   1      39.051  31.146  32.477  1.00  0.00    -0.354 N 
ATOM     60  N   UNL A   1      41.519  30.533  33.945  1.00  0.00    -0.248 NA
ATOM     61  C   UNL A   1      42.797  30.642  35.894  1.00  0.00     0.031 C 
ATOM     62  C   UNL A   1      37.394  32.147  33.565  1.00  0.00     0.029 A 
ATOM     63  C   UNL A   1      38.682  31.659  33.710  1.00  0.00     0.049 A 
ATOM     64  H   UNL A   1      39.922  30.733  32.275  1.00  0.00     0.167 HD
ATOM     65  C   UNL A   1      40.773  31.147  34.943  1.00  0.00     0.074 A 
ATOM     66  C   UNL A   1      41.598  31.156  36.133  1.00  0.00     0.031 C 
ATOM     67  C   UNL A   1      39.518  31.657  34.884  1.00  0.00     0.037 A 
BRANCH  54  68
ATOM     68  C   UNL A   1      36.889  31.179  29.313  1.00  0.00     0.064 A 
ATOM     69  C   UNL A   1      36.623  32.465  28.818  1.00  0.00     0.173 A 
ATOM     70  C   UNL A   1      36.015  30.142  28.955  1.00  0.00     0.173 A 
ATOM     71  F   UNL A   1      37.418  33.494  29.147  1.00  0.00    -0.203 F 
ATOM     72  C   UNL A   1      35.510  32.707  28.016  1.00  0.00     0.198 A 
ATOM     73  C   UNL A   1      34.919  30.383  28.132  1.00  0.00     0.198 A 
ATOM     74  F   UNL A   1      36.225  28.897  29.404  1.00  0.00    -0.203 F 
ATOM     75  F   UNL A   1      35.249  33.952  27.593  1.00  0.00    -0.200 F 
ATOM     76  C   UNL A   1      34.664  31.665  27.669  1.00  0.00     0.200 A 
ATOM     77  F   UNL A   1      34.105  29.374  27.791  1.00  0.00    -0.200 F 
ATOM     78  F   UNL A   1      33.594  31.898  26.896  1.00  0.00    -0.200 F 
ENDBRANCH  54  68
BRANCH  55  79
ATOM     79  C   UNL A   1      45.073  29.253  34.695  1.00  0.00     0.064 A 
ATOM     80  C   UNL A   1      45.229  28.048  35.393  1.00  0.00     0.173 A 
ATOM     81  C   UNL A   1      46.089  30.213  34.814  1.00  0.00     0.173 A 
ATOM     82  F   UNL A   1      44.270  27.112  35.334  1.00  0.00    -0.203 F 
ATOM     83  C   UNL A   1      46.344  27.821  36.197  1.00  0.00     0.198 A 
ATOM     84  C   UNL A   1      47.217  29.974  35.597  1.00  0.00     0.198 A 
ATOM     85  F   UNL A   1      45.985  31.384  34.170  1.00  0.00    -0.203 F 
ATOM     86  F   UNL A   1      46.443  26.680  36.894  1.00  0.00    -0.200 F 
ATOM     87  C   UNL A   1      47.340  28.781  36.294  1.00  0.00     0.200 A 
ATOM     88  F   UNL A   1      48.179  30.902  35.683  1.00  0.00    -0.200 F 
ATOM     89  F   UNL A   1      48.411  28.563  37.069  1.00  0.00    -0.200 F 
ENDBRANCH  55  79
BRANCH  67  90
ATOM     90  C   UNL A   1      38.953  32.242  36.146  1.00  0.00     0.064 A 
ATOM     91  C   UNL A   1      38.165  31.480  37.022  1.00  0.00     0.173 A 
ATOM     92  C   UNL A   1      39.225  33.573  36.496  1.00  0.00     0.173 A 
ATOM     93  F   UNL A   1      37.865  30.206  36.726  1.00  0.00    -0.203 F 
ATOM     94  C   UNL A   1      37.643  32.040  38.185  1.00  0.00     0.198 A 
ATOM     95  C   UNL A   1      38.727  34.121  37.676  1.00  0.00     0.198 A 
ATOM     96  F   UNL A   1      39.981  34.342  35.699  1.00  0.00    -0.203 F 
ATOM     97  F   UNL A   1      36.848  31.310  38.979  1.00  0.00    -0.200 F 
ATOM     98  C   UNL A   1      37.928  33.357  38.513  1.00  0.00     0.200 A 
ATOM     99  F   UNL A   1      39.015  35.389  37.998  1.00  0.00    -0.200 F 
ATOM    100  F   UNL A   1      37.427  33.894  39.635  1.00  0.00    -0.200 F 
ENDBRANCH  67  90
ENDBRANCH  41  42
ENDBRANCH  34  36
ENDBRANCH  33  34
ENDBRANCH  32  33
ENDBRANCH  31  32
ENDBRANCH  30  31
ENDBRANCH  29  30
ENDBRANCH  28  29
ENDBRANCH  27  28
ENDBRANCH   1  27
TORSDOF 25
ENDMDL
MODEL 2
REMARK VINA RESULT:      -8.6      3.776      9.881
REMARK SMILES CCc1cc(OC[C@@H]2C[N@@H+](CC)CCO2)c(C(=O)OCCOCCOCCOCCOC(=O)c2ccc(-c3c4nc(c(-c5c(F)c(F)c(F)c(F)c5F)c5ccc([nH]5)c(-c5c(F)c(F)c(F)c(F)c5F)c5nc(c(-c6c(F)c(F)c(F)c(F)c6F)c6ccc3[nH]6)C=C5)C=C4)cc2)s1
REMARK SMILES IDX 24 1 23 2 22 3 21 4 20 5 19 6 17 7 18 8 16 9 3 10 4 11 97 12
REMARK SMILES IDX 5 13 2 14 1 15 6 16 7 17 8 18 9 19 15 20 10 21 14 22 13 23
REMARK SMILES IDX 11 25 12 26 25 27 26 28 27 29 28 30 29 31 30 32 31 33 32 34
REMARK SMILES IDX 33 35 34 36 35 37 96 38 36 39 95 40 37 41 38 42 39 43 89 44
REMARK SMILES IDX 40 45 94 46 88 47 90 48 41 49 93 50 87 51 86 52 42 54 74 55
REMARK SMILES IDX 54 56 73 57 55 58 58 59 72 60 91 61 56 62 57 63 71 65 92 66
REMARK SMILES IDX 59 67 43 68 44 69 52 70 45 71 46 72 50 73 53 74 47 75 48 76
REMARK SMILES IDX 51 77 49 78 75 79 76 80 84 81 77 82 78 83 82 84 85 85 79 86
REMARK SMILES IDX 80 87 83 88 81 89 60 90 61 91 69 92 62 93 63 94 67 95 70 96
REMARK SMILES IDX 64 97 65 98 68 99 66 100
REMARK H PARENT 10 24 90 53 58 64
REMARK Flexibility Score: inf
ROOT
ATOM      1  C   UNL A   1      31.799  30.465  25.915  1.00  0.00     0.188 C 
ENDROOT
BRANCH   1   2
ATOM      2  C   UNL A   1      32.368  29.721  27.136  1.00  0.00     0.188 C 
BRANCH   2   3
ATOM      3  O   UNL A   1      33.464  28.857  26.842  1.00  0.00    -0.376 OA
BRANCH   3   4
ATOM      4  C   UNL A   1      33.116  27.578  26.326  1.00  0.00     0.202 C 
BRANCH   4   5
ATOM      5  C   UNL A   1      32.168  26.801  27.243  1.00  0.00     0.261 C 
BRANCH   5   6
ATOM      6  O   UNL A   1      30.878  26.576  26.666  1.00  0.00    -0.459 OA
BRANCH   6   7
ATOM      7  C   UNL A   1      30.584  25.329  26.216  1.00  0.00     0.352 C 
ATOM      8  O   UNL A   1      29.858  24.541  26.814  1.00  0.00    -0.245 OA
BRANCH   7   9
ATOM      9  C   UNL A   1      31.148  25.155  24.891  1.00  0.00     0.155 A 
ATOM     10  C   UNL A   1      31.639  25.387  22.476  1.00  0.00     0.009 A 
ATOM     11  C   UNL A   1      32.550  24.568  23.115  1.00  0.00     0.062 A 
ATOM     12  S   UNL A   1      30.450  25.973  23.560  1.00  0.00    -0.130 S 
ATOM     13  C   UNL A   1      32.230  24.390  24.491  1.00  0.00     0.145 A 
BRANCH  10  14
ATOM     14  C   UNL A   1      31.590  25.774  21.027  1.00  0.00     0.043 C 
ATOM     15  C   UNL A   1      32.947  25.609  20.360  1.00  0.00     0.010 C 
ENDBRANCH  10  14
BRANCH  13  16
ATOM     16  O   UNL A   1      32.820  23.568  25.391  1.00  0.00    -0.489 OA
BRANCH  16  17
ATOM     17  C   UNL A   1      34.062  23.993  25.939  1.00  0.00     0.267 C 
BRANCH  17  18
ATOM     18  C   UNL A   1      35.263  23.028  25.810  1.00  0.00     0.210 C 
ATOM     19  C   UNL A   1      36.531  23.607  25.150  1.00  0.00     0.298 C 
ATOM     20  O   UNL A   1      34.827  21.866  25.067  1.00  0.00    -0.363 OA
ATOM     21  N   UNL A   1      37.649  22.656  25.055  1.00  0.00    -0.331 N 
ATOM     22  C   UNL A   1      35.853  20.865  25.024  1.00  0.00     0.222 C 
ATOM     23  C   UNL A   1      37.193  21.391  24.480  1.00  0.00     0.291 C 
ATOM     24  H   UNL A   1      38.324  23.036  24.391  1.00  0.00     0.348 HD
BRANCH  21  25
ATOM     25  C   UNL A   1      38.504  22.574  26.242  1.00  0.00     0.258 C 
ATOM     26  C   UNL A   1      39.903  21.981  26.119  1.00  0.00     0.071 C 
ENDBRANCH  21  25
ENDBRANCH  17  18
ENDBRANCH  16  17
ENDBRANCH  13  16
ENDBRANCH   7   9
ENDBRANCH   6   7
ENDBRANCH   5   6
ENDBRANCH   4   5
ENDBRANCH   3   4
ENDBRANCH   2   3
ENDBRANCH   1   2
BRANCH   1  27
ATOM     27  O   UNL A   1      31.366  31.805  26.071  1.00  0.00    -0.377 OA
BRANCH  27  28
ATOM     28  C   UNL A   1      31.605  32.478  27.301  1.00  0.00     0.188 C 
BRANCH  28  29
ATOM     29  C   UNL A   1      32.583  33.669  27.382  1.00  0.00     0.188 C 
BRANCH  29  30
ATOM     30  O   UNL A   1      33.894  33.353  27.835  1.00  0.00    -0.376 OA
BRANCH  30  31
ATOM     31  C   UNL A   1      34.304  33.958  29.054  1.00  0.00     0.202 C 
BRANCH  31  32
ATOM     32  C   UNL A   1      33.380  35.082  29.535  1.00  0.00     0.261 C 
BRANCH  32  33
ATOM     33  O   UNL A   1      32.647  34.774  30.730  1.00  0.00    -0.460 OA
BRANCH  33  34
ATOM     34  C   UNL A   1      32.935  35.514  31.821  1.00  0.00     0.338 C 
ATOM     35  O   UNL A   1      32.267  36.405  32.314  1.00  0.00    -0.246 OA
BRANCH  34  36
ATOM     36  C   UNL A   1      34.142  34.950  32.448  1.00  0.00     0.060 A 
ATOM     37  C   UNL A   1      35.379  35.541  32.165  1.00  0.00     0.016 A 
ATOM     38  C   UNL A   1      34.053  33.835  33.285  1.00  0.00     0.016 A 
ATOM     39  C   UNL A   1      36.545  34.977  32.677  1.00  0.00     0.010 A 
ATOM     40  C   UNL A   1      35.224  33.262  33.783  1.00  0.00     0.010 A 
ATOM     41  C   UNL A   1      36.474  33.806  33.444  1.00  0.00    -0.014 A 
BRANCH  41  42
ATOM     42  C   UNL A   1      37.714  33.038  33.696  1.00  0.00     0.031 A 
ATOM     43  C   UNL A   1      38.465  33.304  34.972  1.00  0.00     0.074 A 
ATOM     44  C   UNL A   1      38.142  32.099  32.837  1.00  0.00     0.049 A 
ATOM     45  N   UNL A   1      39.546  32.731  35.437  1.00  0.00    -0.248 NA
ATOM     46  C   UNL A   1      37.920  34.360  35.841  1.00  0.00     0.031 C 
ATOM     47  C   UNL A   1      37.490  31.742  31.580  1.00  0.00     0.029 A 
ATOM     48  N   UNL A   1      39.235  31.273  32.901  1.00  0.00    -0.354 N 
ATOM     49  C   UNL A   1      39.801  33.349  36.654  1.00  0.00     0.074 A 
ATOM     50  C   UNL A   1      38.791  34.367  36.838  1.00  0.00     0.031 C 
ATOM     51  C   UNL A   1      38.200  30.766  30.986  1.00  0.00     0.029 A 
ATOM     52  C   UNL A   1      39.361  30.444  31.815  1.00  0.00     0.049 A 
ATOM     53  H   UNL A   1      39.868  31.274  33.655  1.00  0.00     0.167 HD
ATOM     54  C   UNL A   1      40.783  33.081  37.546  1.00  0.00     0.037 A 
ATOM     55  C   UNL A   1      40.312  29.534  31.529  1.00  0.00     0.037 A 
ATOM     56  C   UNL A   1      41.796  32.079  37.358  1.00  0.00     0.049 A 
ATOM     57  C   UNL A   1      41.428  29.294  32.513  1.00  0.00     0.074 A 
ATOM     58  C   UNL A   1      42.828  31.724  38.208  1.00  0.00     0.029 A 
ATOM     59  N   UNL A   1      41.909  31.278  36.233  1.00  0.00    -0.354 N 
ATOM     60  N   UNL A   1      41.638  29.848  33.684  1.00  0.00    -0.248 NA
ATOM     61  C   UNL A   1      42.434  28.290  32.139  1.00  0.00     0.031 C 
ATOM     62  C   UNL A   1      43.593  30.737  37.576  1.00  0.00     0.029 A 
ATOM     63  C   UNL A   1      43.009  30.444  36.354  1.00  0.00     0.049 A 
ATOM     64  H   UNL A   1      41.299  31.298  35.460  1.00  0.00     0.167 HD
ATOM     65  C   UNL A   1      42.780  29.245  34.194  1.00  0.00     0.074 A 
ATOM     66  C   UNL A   1      43.209  28.268  33.215  1.00  0.00     0.031 C 
ATOM     67  C   UNL A   1      43.418  29.476  35.368  1.00  0.00     0.037 A 
BRANCH  54  68
ATOM     68  C   UNL A   1      40.812  33.906  38.798  1.00  0.00     0.064 A 
ATOM     69  C   UNL A   1      41.615  35.053  38.902  1.00  0.00     0.173 A 
ATOM     70  C   UNL A   1      40.021  33.553  39.901  1.00  0.00     0.173 A 
ATOM     71  F   UNL A   1      42.403  35.421  37.882  1.00  0.00    -0.203 F 
ATOM     72  C   UNL A   1      41.643  35.801  40.076  1.00  0.00     0.198 A 
ATOM     73  C   UNL A   1      40.032  34.319  41.063  1.00  0.00     0.198 A 
ATOM     74  F   UNL A   1      39.239  32.465  39.851  1.00  0.00    -0.203 F 
ATOM     75  F   UNL A   1      42.452  36.865  40.171  1.00  0.00    -0.200 F 
ATOM     76  C   UNL A   1      40.847  35.438  41.153  1.00  0.00     0.200 A 
ATOM     77  F   UNL A   1      39.258  33.971  42.101  1.00  0.00    -0.200 F 
ATOM     78  F   UNL A   1      40.874  36.160  42.282  1.00  0.00    -0.200 F 
ENDBRANCH  54  68
BRANCH  55  79
ATOM     79  C   UNL A   1      40.251  28.770  30.255  1.00  0.00     0.064 A 
ATOM     80  C   UNL A   1      40.811  29.282  29.077  1.00  0.00     0.173 A 
ATOM     81  C   UNL A   1      39.603  27.529  30.186  1.00  0.00     0.173 A 
ATOM     82  F   UNL A   1      41.414  30.480  29.089  1.00  0.00    -0.203 F 
ATOM     83  C   UNL A   1      40.706  28.591  27.872  1.00  0.00     0.198 A 
ATOM     84  C   UNL A   1      39.523  26.825  28.985  1.00  0.00     0.198 A 
ATOM     85  F   UNL A   1      39.047  26.998  31.285  1.00  0.00    -0.203 F 
ATOM     86  F   UNL A   1      41.205  29.127  26.749  1.00  0.00    -0.200 F 
ATOM     87  C   UNL A   1      40.067  27.361  27.828  1.00  0.00     0.200 A 
ATOM     88  F   UNL A   1      38.910  25.634  28.948  1.00  0.00    -0.200 F 
ATOM     89  F   UNL A   1      39.965  26.698  26.668  1.00  0.00    -0.200 F 
ENDBRANCH  55  79
BRANCH  67  90
ATOM     90  C   UNL A   1      44.629  28.641  35.669  1.00  0.00     0.064 A 
ATOM     91  C   UNL A   1      45.924  29.082  35.358  1.00  0.00     0.173 A 
ATOM     92  C   UNL A   1      44.493  27.394  36.298  1.00  0.00     0.173 A 
ATOM     93  F   UNL A   1      46.106  30.261  34.744  1.00  0.00    -0.203 F 
ATOM     94  C   UNL A   1      47.036  28.292  35.638  1.00  0.00     0.198 A 
ATOM     95  C   UNL A   1      45.610  26.620  36.604  1.00  0.00     0.198 A 
ATOM     96  F   UNL A   1      43.279  26.929  36.625  1.00  0.00    -0.203 F 
ATOM     97  F   UNL A   1      48.258  28.710  35.284  1.00  0.00    -0.200 F 
ATOM     98  C   UNL A   1      46.878  27.065  36.265  1.00  0.00     0.200 A 
ATOM     99  F   UNL A   1      45.457  25.441  37.223  1.00  0.00    -0.200 F 
ATOM    100  F   UNL A   1      47.950  26.306  36.535  1.00  0.00    -0.200 F 
ENDBRANCH  67  90
ENDBRANCH  41  42
ENDBRANCH  34  36
ENDBRANCH  33  34
ENDBRANCH  32  33
ENDBRANCH  31  32
ENDBRANCH  30  31
ENDBRANCH  29  30
ENDBRANCH  28  29
ENDBRANCH  27  28
ENDBRANCH   1  27
TORSDOF 25
ENDMDL
MODEL 3
REMARK VINA RESULT:      -8.5      3.221      8.642
REMARK SMILES CCc1cc(OC[C@@H]2C[N@@H+](CC)CCO2)c(C(=O)OCCOCCOCCOCCOC(=O)c2ccc(-c3c4nc(c(-c5c(F)c(F)c(F)c(F)c5F)c5ccc([nH]5)c(-c5c(F)c(F)c(F)c(F)c5F)c5nc(c(-c6c(F)c(F)c(F)c(F)c6F)c6ccc3[nH]6)C=C5)C=C4)cc2)s1
REMARK SMILES IDX 24 1 23 2 22 3 21 4 20 5 19 6 17 7 18 8 16 9 3 10 4 11 97 12
REMARK SMILES IDX 5 13 2 14 1 15 6 16 7 17 8 18 9 19 15 20 10 21 14 22 13 23
REMARK SMILES IDX 11 25 12 26 25 27 26 28 27 29 28 30 29 31 30 32 31 33 32 34
REMARK SMILES IDX 33 35 34 36 35 37 96 38 36 39 95 40 37 41 38 42 39 43 89 44
REMARK SMILES IDX 40 45 94 46 88 47 90 48 41 49 93 50 87 51 86 52 42 54 74 55
REMARK SMILES IDX 54 56 73 57 55 58 58 59 72 60 91 61 56 62 57 63 71 65 92 66
REMARK SMILES IDX 59 67 43 68 44 69 52 70 45 71 46 72 50 73 53 74 47 75 48 76
REMARK SMILES IDX 51 77 49 78 75 79 76 80 84 81 77 82 78 83 82 84 85 85 79 86
REMARK SMILES IDX 80 87 83 88 81 89 60 90 61 91 69 92 62 93 63 94 67 95 70 96
REMARK SMILES IDX 64 97 65 98 68 99 66 100
REMARK H PARENT 10 24 90 53 58 64
REMARK Flexibility Score: inf
ROOT
ATOM      1  C   UNL A   1      36.818  23.249  25.620  1.00  0.00     0.188 C 
ENDROOT
BRANCH   1   2
ATOM      2  C   UNL A   1      36.972  23.327  24.090  1.00  0.00     0.188 C 
BRANCH   2   3
ATOM      3  O   UNL A   1      35.995  22.588  23.360  1.00  0.00    -0.376 OA
BRANCH   3   4
ATOM      4  C   UNL A   1      34.648  22.771  23.778  1.00  0.00     0.202 C 
BRANCH   4   5
ATOM      5  C   UNL A   1      33.754  23.341  22.675  1.00  0.00     0.261 C 
BRANCH   5   6
ATOM      6  O   UNL A   1      33.929  24.747  22.472  1.00  0.00    -0.459 OA
BRANCH   6   7
ATOM      7  C   UNL A   1      32.821  25.528  22.393  1.00  0.00     0.352 C 
ATOM      8  O   UNL A   1      31.851  25.269  21.686  1.00  0.00    -0.245 OA
BRANCH   7   9
ATOM      9  C   UNL A   1      32.927  26.605  23.360  1.00  0.00     0.155 A 
ATOM     10  C   UNL A   1      33.454  27.929  25.383  1.00  0.00     0.009 A 
ATOM     11  C   UNL A   1      32.955  28.716  24.364  1.00  0.00     0.062 A 
ATOM     12  S   UNL A   1      33.539  26.281  24.924  1.00  0.00    -0.130 S 
ATOM     13  C   UNL A   1      32.597  27.942  23.223  1.00  0.00     0.145 A 
BRANCH  10  14
ATOM     14  C   UNL A   1      33.888  28.348  26.757  1.00  0.00     0.043 C 
ATOM     15  C   UNL A   1      32.693  28.642  27.653  1.00  0.00     0.010 C 
ENDBRANCH  10  14
BRANCH  13  16
ATOM     16  O   UNL A   1      31.971  28.351  22.093  1.00  0.00    -0.489 OA
BRANCH  16  17
ATOM     17  C   UNL A   1      30.549  28.338  22.100  1.00  0.00     0.267 C 
BRANCH  17  18
ATOM     18  C   UNL A   1      29.826  29.697  22.236  1.00  0.00     0.210 C 
ATOM     19  C   UNL A   1      29.318  30.058  23.647  1.00  0.00     0.298 C 
ATOM     20  O   UNL A   1      28.715  29.710  21.312  1.00  0.00    -0.363 OA
ATOM     21  N   UNL A   1      28.645  31.362  23.731  1.00  0.00    -0.331 N 
ATOM     22  C   UNL A   1      28.078  30.995  21.286  1.00  0.00     0.222 C 
ATOM     23  C   UNL A   1      27.637  31.483  22.678  1.00  0.00     0.291 C 
ATOM     24  H   UNL A   1      28.131  31.390  24.612  1.00  0.00     0.348 HD
BRANCH  21  25
ATOM     25  C   UNL A   1      29.529  32.512  23.936  1.00  0.00     0.258 C 
ATOM     26  C   UNL A   1      29.211  33.835  23.251  1.00  0.00     0.071 C 
ENDBRANCH  21  25
ENDBRANCH  17  18
ENDBRANCH  16  17
ENDBRANCH  13  16
ENDBRANCH   7   9
ENDBRANCH   6   7
ENDBRANCH   5   6
ENDBRANCH   4   5
ENDBRANCH   3   4
ENDBRANCH   2   3
ENDBRANCH   1   2
BRANCH   1  27
ATOM     27  O   UNL A   1      37.648  24.058  26.434  1.00  0.00    -0.377 OA
BRANCH  27  28
ATOM     28  C   UNL A   1      38.992  23.660  26.675  1.00  0.00     0.188 C 
BRANCH  28  29
ATOM     29  C   UNL A   1      39.450  22.206  26.432  1.00  0.00     0.188 C 
BRANCH  29  30
ATOM     30  O   UNL A   1      40.590  21.793  27.174  1.00  0.00    -0.376 OA
BRANCH  30  31
ATOM     31  C   UNL A   1      41.555  21.020  26.472  1.00  0.00     0.202 C 
BRANCH  31  32
ATOM     32  C   UNL A   1      42.864  21.766  26.189  1.00  0.00     0.261 C 
BRANCH  32  33
ATOM     33  O   UNL A   1      42.990  23.022  26.875  1.00  0.00    -0.460 OA
BRANCH  33  34
ATOM     34  C   UNL A   1      42.891  24.134  26.116  1.00  0.00     0.338 C 
ATOM     35  O   UNL A   1      42.977  24.219  24.905  1.00  0.00    -0.246 OA
BRANCH  34  36
ATOM     36  C   UNL A   1      42.480  25.245  26.990  1.00  0.00     0.060 A 
ATOM     37  C   UNL A   1      42.852  26.547  26.634  1.00  0.00     0.016 A 
ATOM     38  C   UNL A   1      41.759  25.000  28.161  1.00  0.00     0.016 A 
ATOM     39  C   UNL A   1      42.548  27.607  27.484  1.00  0.00     0.010 A 
ATOM     40  C   UNL A   1      41.470  26.061  29.020  1.00  0.00     0.010 A 
ATOM     41  C   UNL A   1      41.904  27.360  28.704  1.00  0.00    -0.014 A 
BRANCH  41  42
ATOM     42  C   UNL A   1      41.888  28.422  29.735  1.00  0.00     0.031 A 
ATOM     43  C   UNL A   1      43.093  28.563  30.624  1.00  0.00     0.074 A 
ATOM     44  C   UNL A   1      40.852  29.267  29.853  1.00  0.00     0.049 A 
ATOM     45  N   UNL A   1      43.335  29.440  31.565  1.00  0.00    -0.248 NA
ATOM     46  C   UNL A   1      44.171  27.581  30.422  1.00  0.00     0.031 C 
ATOM     47  C   UNL A   1      39.640  29.240  29.038  1.00  0.00     0.029 A 
ATOM     48  N   UNL A   1      40.661  30.319  30.712  1.00  0.00    -0.354 N 
ATOM     49  C   UNL A   1      44.594  29.120  32.056  1.00  0.00     0.074 A 
ATOM     50  C   UNL A   1      45.048  27.948  31.343  1.00  0.00     0.031 C 
ATOM     51  C   UNL A   1      38.825  30.231  29.441  1.00  0.00     0.029 A 
ATOM     52  C   UNL A   1      39.454  30.950  30.548  1.00  0.00     0.049 A 
ATOM     53  H   UNL A   1      41.327  30.595  31.384  1.00  0.00     0.167 HD
ATOM     54  C   UNL A   1      45.314  29.758  33.009  1.00  0.00     0.037 A 
ATOM     55  C   UNL A   1      38.923  31.988  31.223  1.00  0.00     0.037 A 
ATOM     56  C   UNL A   1      44.859  30.915  33.729  1.00  0.00     0.049 A 
ATOM     57  C   UNL A   1      39.722  32.646  32.319  1.00  0.00     0.074 A 
ATOM     58  C   UNL A   1      45.517  31.640  34.706  1.00  0.00     0.029 A 
ATOM     59  N   UNL A   1      43.619  31.510  33.556  1.00  0.00    -0.354 N 
ATOM     60  N   UNL A   1      40.930  32.369  32.748  1.00  0.00    -0.248 NA
ATOM     61  C   UNL A   1      39.084  33.770  33.018  1.00  0.00     0.031 C 
ATOM     62  C   UNL A   1      44.657  32.648  35.156  1.00  0.00     0.029 A 
ATOM     63  C   UNL A   1      43.482  32.581  34.425  1.00  0.00     0.049 A 
ATOM     64  H   UNL A   1      42.935  31.215  32.911  1.00  0.00     0.167 HD
ATOM     65  C   UNL A   1      41.206  33.296  33.744  1.00  0.00     0.074 A 
ATOM     66  C   UNL A   1      40.046  34.157  33.845  1.00  0.00     0.031 C 
ATOM     67  C   UNL A   1      42.319  33.427  34.509  1.00  0.00     0.037 A 
BRANCH  54  68
ATOM     68  C   UNL A   1      46.665  29.195  33.335  1.00  0.00     0.064 A 
ATOM     69  C   UNL A   1      46.816  28.116  34.220  1.00  0.00     0.173 A 
ATOM     70  C   UNL A   1      47.821  29.732  32.749  1.00  0.00     0.173 A 
ATOM     71  F   UNL A   1      45.744  27.580  34.821  1.00  0.00    -0.203 F 
ATOM     72  C   UNL A   1      48.078  27.612  34.526  1.00  0.00     0.198 A 
ATOM     73  C   UNL A   1      49.078  29.209  33.036  1.00  0.00     0.198 A 
ATOM     74  F   UNL A   1      47.729  30.765  31.899  1.00  0.00    -0.203 F 
ATOM     75  F   UNL A   1      48.203  26.613  35.409  1.00  0.00    -0.200 F 
ATOM     76  C   UNL A   1      49.206  28.155  33.929  1.00  0.00     0.200 A 
ATOM     77  F   UNL A   1      50.167  29.729  32.454  1.00  0.00    -0.200 F 
ATOM     78  F   UNL A   1      50.421  27.669  34.222  1.00  0.00    -0.200 F 
ENDBRANCH  54  68
BRANCH  55  79
ATOM     79  C   UNL A   1      37.564  32.481  30.880  1.00  0.00     0.064 A 
ATOM     80  C   UNL A   1      37.349  33.288  29.754  1.00  0.00     0.173 A 
ATOM     81  C   UNL A   1      36.459  32.181  31.689  1.00  0.00     0.173 A 
ATOM     82  F   UNL A   1      38.381  33.626  28.967  1.00  0.00    -0.203 F 
ATOM     83  C   UNL A   1      36.084  33.794  29.463  1.00  0.00     0.198 A 
ATOM     84  C   UNL A   1      35.189  32.665  31.382  1.00  0.00     0.198 A 
ATOM     85  F   UNL A   1      36.613  31.416  32.780  1.00  0.00    -0.203 F 
ATOM     86  F   UNL A   1      35.916  34.606  28.409  1.00  0.00    -0.200 F 
ATOM     87  C   UNL A   1      35.004  33.478  30.274  1.00  0.00     0.200 A 
ATOM     88  F   UNL A   1      34.147  32.352  32.164  1.00  0.00    -0.200 F 
ATOM     89  F   UNL A   1      33.788  33.968  29.994  1.00  0.00    -0.200 F 
ENDBRANCH  55  79
BRANCH  67  90
ATOM     90  C   UNL A   1      42.345  34.555  35.499  1.00  0.00     0.064 A 
ATOM     91  C   UNL A   1      41.875  34.395  36.810  1.00  0.00     0.173 A 
ATOM     92  C   UNL A   1      42.870  35.806  35.137  1.00  0.00     0.173 A 
ATOM     93  F   UNL A   1      41.350  33.224  37.201  1.00  0.00    -0.203 F 
ATOM     94  C   UNL A   1      41.900  35.454  37.714  1.00  0.00     0.198 A 
ATOM     95  C   UNL A   1      42.921  36.854  36.052  1.00  0.00     0.198 A 
ATOM     96  F   UNL A   1      43.341  36.009  33.898  1.00  0.00    -0.203 F 
ATOM     97  F   UNL A   1      41.396  35.294  38.945  1.00  0.00    -0.200 F 
ATOM     98  C   UNL A   1      42.427  36.680  37.335  1.00  0.00     0.200 A 
ATOM     99  F   UNL A   1      43.444  38.033  35.690  1.00  0.00    -0.200 F 
ATOM    100  F   UNL A   1      42.453  37.698  38.207  1.00  0.00    -0.200 F 
ENDBRANCH  67  90
ENDBRANCH  41  42
ENDBRANCH  34  36
ENDBRANCH  33  34
ENDBRANCH  32  33
ENDBRANCH  31  32
ENDBRANCH  30  31
ENDBRANCH  29  30
ENDBRANCH  28  29
ENDBRANCH  27  28
ENDBRANCH   1  27
TORSDOF 25
ENDMDL
