MODEL 1
REMARK VINA RESULT:      -9.8      0.000      0.000
REMARK SMILES CC[C@@H](C)[C@H](NC(=O)N1CCn2c1nc1ccccc12)C(=O)N[C@H](C)C(=O)OCCOCCOCCOCCOC(=O)c1ccc(-c2c3nc(c(-c4c(F)c(F)c(F)c(F)c4F)c4ccc([nH]4)c(-c4c(F)c(F)c(F)c(F)c4F)c4nc(c(-c5c(F)c(F)c(F)c(F)c5F)c5ccc2[nH]5)C=C4)C=C3)cc1
REMARK SMILES IDX 33 1 32 2 31 3 30 4 29 5 28 6 26 7 27 8 24 9 25 10 23 11
REMARK SMILES IDX 21 12 22 13 5 15 3 16 4 17 2 18 1 19 6 20 7 21 8 23 9 24
REMARK SMILES IDX 10 25 13 26 11 27 12 28 14 29 20 30 15 31 19 32 16 33 18 34
REMARK SMILES IDX 17 35 34 36 35 37 36 38 37 39 38 40 39 41 40 42 41 43 42 44
REMARK SMILES IDX 43 45 44 46 105 47 45 48 104 49 46 50 47 51 48 52 98 53
REMARK SMILES IDX 49 54 103 55 97 56 99 57 50 58 102 59 96 60 95 61 51 63
REMARK SMILES IDX 83 64 63 65 82 66 64 67 67 68 81 69 100 70 65 71 66 72 80 74
REMARK SMILES IDX 101 75 68 76 52 77 53 78 61 79 54 80 55 81 59 82 62 83 56 84
REMARK SMILES IDX 57 85 60 86 58 87 84 88 85 89 93 90 86 91 87 92 91 93 94 94
REMARK SMILES IDX 88 95 89 96 92 97 90 98 69 99 70 100 78 101 71 102 72 103
REMARK SMILES IDX 76 104 79 105 73 106 74 107 77 108 75 109
REMARK H PARENT 23 14 6 22 99 62 67 73
REMARK Flexibility Score: inf
ROOT
ATOM      1  C   UNL A   1      44.118  22.655  26.951  1.00  0.00     0.188 C 
ENDROOT
BRANCH   1   2
ATOM      2  C   UNL A   1      43.806  21.835  25.696  1.00  0.00     0.188 C 
BRANCH   2   3
ATOM      3  O   UNL A   1      42.456  21.547  25.361  1.00  0.00    -0.376 OA
BRANCH   3   4
ATOM      4  C   UNL A   1      41.476  21.396  26.377  1.00  0.00     0.202 C 
BRANCH   4   5
ATOM      5  C   UNL A   1      40.167  22.194  26.337  1.00  0.00     0.261 C 
BRANCH   5   6
ATOM      6  O   UNL A   1      39.025  21.461  25.883  1.00  0.00    -0.462 OA
BRANCH   6   7
ATOM      7  C   UNL A   1      37.911  22.215  25.702  1.00  0.00     0.328 C 
ATOM      8  O   UNL A   1      37.858  23.432  25.870  1.00  0.00    -0.250 OA
BRANCH   7   9
ATOM      9  C   UNL A   1      36.669  21.386  25.429  1.00  0.00     0.189 C 
ATOM     10  C   UNL A   1      36.835  19.975  24.902  1.00  0.00     0.043 C 
BRANCH   9  11
ATOM     11  N   UNL A   1      35.737  21.778  26.494  1.00  0.00    -0.341 N 
ATOM     12  C   UNL A   1      34.708  22.637  26.668  1.00  0.00     0.243 C 
ATOM     13  O   UNL A   1      34.407  22.935  27.834  1.00  0.00    -0.273 OA
ATOM     14  H   UNL A   1      35.914  21.269  27.319  1.00  0.00     0.164 HD
BRANCH  12  15
ATOM     15  C   UNL A   1      33.756  22.986  25.544  1.00  0.00     0.176 C 
BRANCH  15  16
ATOM     16  C   UNL A   1      32.806  21.722  25.292  1.00  0.00     0.018 C 
ATOM     17  C   UNL A   1      33.156  20.931  23.998  1.00  0.00     0.010 C 
BRANCH  16  18
ATOM     18  C   UNL A   1      31.286  21.970  25.309  1.00  0.00     0.002 C 
ATOM     19  C   UNL A   1      30.843  23.019  26.305  1.00  0.00     0.004 C 
ENDBRANCH  16  18
ENDBRANCH  15  16
BRANCH  15  20
ATOM     20  N   UNL A   1      34.328  23.628  24.349  1.00  0.00    -0.326 N 
ATOM     21  C   UNL A   1      33.708  24.312  23.356  1.00  0.00     0.324 C 
ATOM     22  H   UNL A   1      35.305  23.548  24.257  1.00  0.00     0.166 HD
ATOM     23  O   UNL A   1      33.953  23.888  22.217  1.00  0.00    -0.248 OA
BRANCH  21  24
ATOM     24  N   UNL A   1      32.932  25.419  23.509  1.00  0.00    -0.262 N 
ATOM     25  C   UNL A   1      31.946  25.815  22.478  1.00  0.00     0.152 C 
ATOM     26  C   UNL A   1      32.989  26.432  24.426  1.00  0.00     0.214 A 
ATOM     27  C   UNL A   1      31.559  27.277  22.795  1.00  0.00     0.148 C 
ATOM     28  N   UNL A   1      32.173  27.473  24.088  1.00  0.00    -0.308 N 
ATOM     29  N   UNL A   1      33.656  26.734  25.484  1.00  0.00    -0.212 NA
ATOM     30  C   UNL A   1      32.260  28.465  25.012  1.00  0.00     0.070 A 
ATOM     31  C   UNL A   1      33.203  27.958  25.905  1.00  0.00     0.091 A 
ATOM     32  C   UNL A   1      31.672  29.717  25.202  1.00  0.00     0.028 A 
ATOM     33  C   UNL A   1      33.589  28.692  27.037  1.00  0.00     0.031 A 
ATOM     34  C   UNL A   1      32.061  30.435  26.349  1.00  0.00     0.002 A 
ATOM     35  C   UNL A   1      33.002  29.936  27.253  1.00  0.00     0.002 A 
ENDBRANCH  21  24
ENDBRANCH  15  20
ENDBRANCH  12  15
ENDBRANCH   9  11
ENDBRANCH   7   9
ENDBRANCH   6   7
ENDBRANCH   5   6
ENDBRANCH   4   5
ENDBRANCH   3   4
ENDBRANCH   2   3
ENDBRANCH   1   2
BRANCH   1  36
ATOM     36  O   UNL A   1      45.135  23.633  26.808  1.00  0.00    -0.377 OA
BRANCH  36  37
ATOM     37  C   UNL A   1      45.515  24.066  25.504  1.00  0.00     0.188 C 
BRANCH  37  38
ATOM     38  C   UNL A   1      45.200  25.503  25.078  1.00  0.00     0.188 C 
BRANCH  38  39
ATOM     39  O   UNL A   1      46.289  26.427  25.111  1.00  0.00    -0.376 OA
BRANCH  39  40
ATOM     40  C   UNL A   1      46.003  27.792  25.408  1.00  0.00     0.202 C 
BRANCH  40  41
ATOM     41  C   UNL A   1      47.195  28.579  25.952  1.00  0.00     0.261 C 
BRANCH  41  42
ATOM     42  O   UNL A   1      46.800  29.455  27.024  1.00  0.00    -0.460 OA
BRANCH  42  43
ATOM     43  C   UNL A   1      46.215  30.635  26.692  1.00  0.00     0.338 C 
ATOM     44  O   UNL A   1      46.454  31.350  25.754  1.00  0.00    -0.246 OA
BRANCH  43  45
ATOM     45  C   UNL A   1      45.071  30.808  27.614  1.00  0.00     0.060 A 
ATOM     46  C   UNL A   1      45.263  31.271  28.918  1.00  0.00     0.016 A 
ATOM     47  C   UNL A   1      43.806  30.403  27.184  1.00  0.00     0.016 A 
ATOM     48  C   UNL A   1      44.181  31.316  29.805  1.00  0.00     0.010 A 
ATOM     49  C   UNL A   1      42.740  30.414  28.084  1.00  0.00     0.010 A 
ATOM     50  C   UNL A   1      42.910  30.881  29.401  1.00  0.00    -0.014 A 
BRANCH  50  51
ATOM     51  C   UNL A   1      41.744  31.065  30.301  1.00  0.00     0.031 A 
ATOM     52  C   UNL A   1      41.759  30.184  31.511  1.00  0.00     0.074 A 
ATOM     53  C   UNL A   1      40.933  32.147  30.310  1.00  0.00     0.049 A 
ATOM     54  N   UNL A   1      42.379  30.489  32.616  1.00  0.00    -0.248 NA
ATOM     55  C   UNL A   1      41.323  28.792  31.439  1.00  0.00     0.031 C 
ATOM     56  C   UNL A   1      41.307  33.458  29.790  1.00  0.00     0.029 A 
ATOM     57  N   UNL A   1      39.739  32.395  30.941  1.00  0.00    -0.354 N 
ATOM     58  C   UNL A   1      42.449  29.334  33.373  1.00  0.00     0.074 A 
ATOM     59  C   UNL A   1      41.775  28.309  32.606  1.00  0.00     0.031 C 
ATOM     60  C   UNL A   1      40.543  34.407  30.367  1.00  0.00     0.029 A 
ATOM     61  C   UNL A   1      39.464  33.751  31.080  1.00  0.00     0.049 A 
ATOM     62  H   UNL A   1      39.139  31.685  31.263  1.00  0.00     0.167 HD
ATOM     63  C   UNL A   1      43.057  29.267  34.587  1.00  0.00     0.037 A 
ATOM     64  C   UNL A   1      38.707  34.355  32.034  1.00  0.00     0.037 A 
ATOM     65  C   UNL A   1      43.649  30.474  35.077  1.00  0.00     0.049 A 
ATOM     66  C   UNL A   1      39.414  33.956  33.300  1.00  0.00     0.074 A 
ATOM     67  C   UNL A   1      44.905  31.031  35.191  1.00  0.00     0.029 A 
ATOM     68  N   UNL A   1      42.815  31.411  35.634  1.00  0.00    -0.354 N 
ATOM     69  N   UNL A   1      40.455  34.572  33.800  1.00  0.00    -0.248 NA
ATOM     70  C   UNL A   1      39.192  32.609  33.820  1.00  0.00     0.031 C 
ATOM     71  C   UNL A   1      44.685  32.436  35.365  1.00  0.00     0.029 A 
ATOM     72  C   UNL A   1      43.308  32.644  35.297  1.00  0.00     0.049 A 
ATOM     73  H   UNL A   1      42.012  31.232  36.175  1.00  0.00     0.167 HD
ATOM     74  C   UNL A   1      41.168  33.593  34.496  1.00  0.00     0.074 A 
ATOM     75  C   UNL A   1      40.346  32.402  34.437  1.00  0.00     0.031 C 
ATOM     76  C   UNL A   1      42.451  33.752  34.936  1.00  0.00     0.037 A 
BRANCH  63  77
ATOM     77  C   UNL A   1      42.935  28.116  35.499  1.00  0.00     0.064 A 
ATOM     78  C   UNL A   1      43.963  27.161  35.469  1.00  0.00     0.173 A 
ATOM     79  C   UNL A   1      41.780  27.828  36.227  1.00  0.00     0.173 A 
ATOM     80  F   UNL A   1      45.085  27.408  34.772  1.00  0.00    -0.203 F 
ATOM     81  C   UNL A   1      43.822  25.936  36.103  1.00  0.00     0.198 A 
ATOM     82  C   UNL A   1      41.646  26.600  36.876  1.00  0.00     0.198 A 
ATOM     83  F   UNL A   1      40.770  28.710  36.275  1.00  0.00    -0.203 F 
ATOM     84  F   UNL A   1      44.799  25.023  36.010  1.00  0.00    -0.200 F 
ATOM     85  C   UNL A   1      42.660  25.651  36.799  1.00  0.00     0.200 A 
ATOM     86  F   UNL A   1      40.524  26.318  37.551  1.00  0.00    -0.200 F 
ATOM     87  F   UNL A   1      42.510  24.455  37.385  1.00  0.00    -0.200 F 
ENDBRANCH  63  77
BRANCH  64  88
ATOM     88  C   UNL A   1      37.243  34.205  31.774  1.00  0.00     0.064 A 
ATOM     89  C   UNL A   1      36.364  34.570  32.820  1.00  0.00     0.173 A 
ATOM     90  C   UNL A   1      36.642  33.811  30.573  1.00  0.00     0.173 A 
ATOM     91  F   UNL A   1      36.850  34.855  34.039  1.00  0.00    -0.203 F 
ATOM     92  C   UNL A   1      34.990  34.685  32.625  1.00  0.00     0.198 A 
ATOM     93  C   UNL A   1      35.264  33.941  30.372  1.00  0.00     0.198 A 
ATOM     94  F   UNL A   1      37.365  33.322  29.559  1.00  0.00    -0.203 F 
ATOM     95  F   UNL A   1      34.207  35.108  33.627  1.00  0.00    -0.200 F 
ATOM     96  C   UNL A   1      34.444  34.405  31.388  1.00  0.00     0.200 A 
ATOM     97  F   UNL A   1      34.738  33.652  29.173  1.00  0.00    -0.200 F 
ATOM     98  F   UNL A   1      33.134  34.584  31.172  1.00  0.00    -0.200 F 
ENDBRANCH  64  88
BRANCH  76  99
ATOM     99  C   UNL A   1      43.024  35.126  34.827  1.00  0.00     0.064 A 
ATOM    100  C   UNL A   1      43.426  35.633  33.584  1.00  0.00     0.173 A 
ATOM    101  C   UNL A   1      43.083  35.988  35.932  1.00  0.00     0.173 A 
ATOM    102  F   UNL A   1      43.341  34.869  32.483  1.00  0.00    -0.203 F 
ATOM    103  C   UNL A   1      43.859  36.949  33.450  1.00  0.00     0.198 A 
ATOM    104  C   UNL A   1      43.469  37.316  35.782  1.00  0.00     0.198 A 
ATOM    105  F   UNL A   1      42.711  35.571  37.153  1.00  0.00    -0.203 F 
ATOM    106  F   UNL A   1      44.210  37.419  32.244  1.00  0.00    -0.200 F 
ATOM    107  C   UNL A   1      43.869  37.794  34.547  1.00  0.00     0.200 A 
ATOM    108  F   UNL A   1      43.401  38.151  36.826  1.00  0.00    -0.200 F 
ATOM    109  F   UNL A   1      44.212  39.083  34.406  1.00  0.00    -0.200 F 
ENDBRANCH  76  99
ENDBRANCH  50  51
ENDBRANCH  43  45
ENDBRANCH  42  43
ENDBRANCH  41  42
ENDBRANCH  40  41
ENDBRANCH  39  40
ENDBRANCH  38  39
ENDBRANCH  37  38
ENDBRANCH  36  37
ENDBRANCH   1  36
TORSDOF 26
ENDMDL
MODEL 2
REMARK VINA RESULT:      -9.6      5.710     10.561
REMARK SMILES CC[C@@H](C)[C@H](NC(=O)N1CCn2c1nc1ccccc12)C(=O)N[C@H](C)C(=O)OCCOCCOCCOCCOC(=O)c1ccc(-c2c3nc(c(-c4c(F)c(F)c(F)c(F)c4F)c4ccc([nH]4)c(-c4c(F)c(F)c(F)c(F)c4F)c4nc(c(-c5c(F)c(F)c(F)c(F)c5F)c5ccc2[nH]5)C=C4)C=C3)cc1
REMARK SMILES IDX 33 1 32 2 31 3 30 4 29 5 28 6 26 7 27 8 24 9 25 10 23 11
REMARK SMILES IDX 21 12 22 13 5 15 3 16 4 17 2 18 1 19 6 20 7 21 8 23 9 24
REMARK SMILES IDX 10 25 13 26 11 27 12 28 14 29 20 30 15 31 19 32 16 33 18 34
REMARK SMILES IDX 17 35 34 36 35 37 36 38 37 39 38 40 39 41 40 42 41 43 42 44
REMARK SMILES IDX 43 45 44 46 105 47 45 48 104 49 46 50 47 51 48 52 98 53
REMARK SMILES IDX 49 54 103 55 97 56 99 57 50 58 102 59 96 60 95 61 51 63
REMARK SMILES IDX 83 64 63 65 82 66 64 67 67 68 81 69 100 70 65 71 66 72 80 74
REMARK SMILES IDX 101 75 68 76 52 77 53 78 61 79 54 80 55 81 59 82 62 83 56 84
REMARK SMILES IDX 57 85 60 86 58 87 84 88 85 89 93 90 86 91 87 92 91 93 94 94
REMARK SMILES IDX 88 95 89 96 92 97 90 98 69 99 70 100 78 101 71 102 72 103
REMARK SMILES IDX 76 104 79 105 73 106 74 107 77 108 75 109
REMARK H PARENT 23 14 6 22 99 62 67 73
REMARK Flexibility Score: inf
ROOT
ATOM      1  C   UNL A   1      39.469  23.418  27.276  1.00  0.00     0.188 C 
ENDROOT
BRANCH   1   2
ATOM      2  C   UNL A   1      39.320  22.674  25.946  1.00  0.00     0.188 C 
BRANCH   2   3
ATOM      3  O   UNL A   1      38.667  21.414  25.914  1.00  0.00    -0.376 OA
BRANCH   3   4
ATOM      4  C   UNL A   1      37.480  21.234  25.155  1.00  0.00     0.202 C 
BRANCH   4   5
ATOM      5  C   UNL A   1      36.989  22.318  24.187  1.00  0.00     0.261 C 
BRANCH   5   6
ATOM      6  O   UNL A   1      35.662  22.794  24.434  1.00  0.00    -0.462 OA
BRANCH   6   7
ATOM      7  C   UNL A   1      35.605  23.986  25.079  1.00  0.00     0.328 C 
ATOM      8  O   UNL A   1      36.520  24.461  25.750  1.00  0.00    -0.250 OA
BRANCH   7   9
ATOM      9  C   UNL A   1      34.226  24.620  25.039  1.00  0.00     0.189 C 
ATOM     10  C   UNL A   1      34.026  25.970  25.698  1.00  0.00     0.043 C 
BRANCH   9  11
ATOM     11  N   UNL A   1      33.699  24.246  23.721  1.00  0.00    -0.341 N 
ATOM     12  C   UNL A   1      32.558  23.744  23.197  1.00  0.00     0.243 C 
ATOM     13  O   UNL A   1      32.630  23.226  22.071  1.00  0.00    -0.273 OA
ATOM     14  H   UNL A   1      34.369  24.405  23.017  1.00  0.00     0.164 HD
BRANCH  12  15
ATOM     15  C   UNL A   1      31.199  24.061  23.782  1.00  0.00     0.176 C 
BRANCH  15  16
ATOM     16  C   UNL A   1      30.638  25.368  23.046  1.00  0.00     0.018 C 
ATOM     17  C   UNL A   1      31.756  26.354  22.596  1.00  0.00     0.010 C 
BRANCH  16  18
ATOM     18  C   UNL A   1      29.551  26.176  23.778  1.00  0.00     0.002 C 
ATOM     19  C   UNL A   1      29.456  27.621  23.342  1.00  0.00     0.004 C 
ENDBRANCH  16  18
ENDBRANCH  15  16
BRANCH  15  20
ATOM     20  N   UNL A   1      31.070  24.025  25.249  1.00  0.00    -0.326 N 
ATOM     21  C   UNL A   1      31.028  22.958  26.084  1.00  0.00     0.324 C 
ATOM     22  H   UNL A   1      31.003  24.904  25.686  1.00  0.00     0.166 HD
ATOM     23  O   UNL A   1      30.042  22.940  26.836  1.00  0.00    -0.248 OA
BRANCH  21  24
ATOM     24  N   UNL A   1      31.981  21.994  26.202  1.00  0.00    -0.262 N 
ATOM     25  C   UNL A   1      33.073  22.110  27.195  1.00  0.00     0.152 C 
ATOM     26  C   UNL A   1      32.263  20.914  25.413  1.00  0.00     0.214 A 
ATOM     27  C   UNL A   1      34.141  21.073  26.780  1.00  0.00     0.148 C 
ATOM     28  N   UNL A   1      33.448  20.326  25.755  1.00  0.00    -0.308 N 
ATOM     29  N   UNL A   1      31.778  20.328  24.375  1.00  0.00    -0.212 NA
ATOM     30  C   UNL A   1      33.704  19.265  24.947  1.00  0.00     0.070 A 
ATOM     31  C   UNL A   1      32.609  19.277  24.085  1.00  0.00     0.091 A 
ATOM     32  C   UNL A   1      34.714  18.309  24.834  1.00  0.00     0.028 A 
ATOM     33  C   UNL A   1      32.482  18.316  23.070  1.00  0.00     0.031 A 
ATOM     34  C   UNL A   1      34.566  17.344  23.818  1.00  0.00     0.002 A 
ATOM     35  C   UNL A   1      33.472  17.344  22.951  1.00  0.00     0.002 A 
ENDBRANCH  21  24
ENDBRANCH  15  20
ENDBRANCH  12  15
ENDBRANCH   9  11
ENDBRANCH   7   9
ENDBRANCH   6   7
ENDBRANCH   5   6
ENDBRANCH   4   5
ENDBRANCH   3   4
ENDBRANCH   2   3
ENDBRANCH   1   2
BRANCH   1  36
ATOM     36  O   UNL A   1      39.497  24.834  27.188  1.00  0.00    -0.377 OA
BRANCH  36  37
ATOM     37  C   UNL A   1      39.454  25.613  28.381  1.00  0.00     0.188 C 
BRANCH  37  38
ATOM     38  C   UNL A   1      39.389  27.139  28.268  1.00  0.00     0.188 C 
BRANCH  38  39
ATOM     39  O   UNL A   1      39.449  27.868  29.494  1.00  0.00    -0.376 OA
BRANCH  39  40
ATOM     40  C   UNL A   1      38.663  27.407  30.590  1.00  0.00     0.202 C 
BRANCH  40  41
ATOM     41  C   UNL A   1      38.545  28.405  31.742  1.00  0.00     0.261 C 
BRANCH  41  42
ATOM     42  O   UNL A   1      39.765  29.148  31.919  1.00  0.00    -0.460 OA
BRANCH  42  43
ATOM     43  C   UNL A   1      40.428  29.003  33.095  1.00  0.00     0.338 C 
ATOM     44  O   UNL A   1      40.029  29.223  34.211  1.00  0.00    -0.246 OA
BRANCH  43  45
ATOM     45  C   UNL A   1      41.707  28.333  32.775  1.00  0.00     0.060 A 
ATOM     46  C   UNL A   1      42.301  28.483  31.519  1.00  0.00     0.016 A 
ATOM     47  C   UNL A   1      42.258  27.468  33.721  1.00  0.00     0.016 A 
ATOM     48  C   UNL A   1      43.449  27.748  31.202  1.00  0.00     0.010 A 
ATOM     49  C   UNL A   1      43.380  26.709  33.386  1.00  0.00     0.010 A 
ATOM     50  C   UNL A   1      43.996  26.848  32.128  1.00  0.00    -0.014 A 
BRANCH  50  51
ATOM     51  C   UNL A   1      45.291  26.181  31.836  1.00  0.00     0.031 A 
ATOM     52  C   UNL A   1      45.252  25.255  30.662  1.00  0.00     0.074 A 
ATOM     53  C   UNL A   1      46.498  26.603  32.276  1.00  0.00     0.049 A 
ATOM     54  N   UNL A   1      45.429  25.645  29.431  1.00  0.00    -0.248 NA
ATOM     55  C   UNL A   1      44.726  23.898  30.786  1.00  0.00     0.031 C 
ATOM     56  C   UNL A   1      46.785  27.968  32.704  1.00  0.00     0.029 A 
ATOM     57  N   UNL A   1      47.742  26.022  32.244  1.00  0.00    -0.354 N 
ATOM     58  C   UNL A   1      45.011  24.610  28.614  1.00  0.00     0.074 A 
ATOM     59  C   UNL A   1      44.590  23.545  29.499  1.00  0.00     0.031 C 
ATOM     60  C   UNL A   1      48.108  28.204  32.601  1.00  0.00     0.029 A 
ATOM     61  C   UNL A   1      48.779  26.941  32.362  1.00  0.00     0.049 A 
ATOM     62  H   UNL A   1      47.885  25.053  32.147  1.00  0.00     0.167 HD
ATOM     63  C   UNL A   1      45.024  24.672  27.257  1.00  0.00     0.037 A 
ATOM     64  C   UNL A   1      50.047  26.832  31.885  1.00  0.00     0.037 A 
ATOM     65  C   UNL A   1      45.498  25.890  26.673  1.00  0.00     0.049 A 
ATOM     66  C   UNL A   1      49.819  26.672  30.407  1.00  0.00     0.074 A 
ATOM     67  C   UNL A   1      44.974  27.020  26.083  1.00  0.00     0.029 A 
ATOM     68  N   UNL A   1      46.857  26.081  26.617  1.00  0.00    -0.354 N 
ATOM     69  N   UNL A   1      49.635  27.659  29.568  1.00  0.00    -0.248 NA
ATOM     70  C   UNL A   1      49.403  25.362  29.911  1.00  0.00     0.031 C 
ATOM     71  C   UNL A   1      46.014  28.003  26.151  1.00  0.00     0.029 A 
ATOM     72  C   UNL A   1      47.086  27.416  26.821  1.00  0.00     0.049 A 
ATOM     73  H   UNL A   1      47.539  25.389  26.458  1.00  0.00     0.167 HD
ATOM     74  C   UNL A   1      48.839  27.138  28.547  1.00  0.00     0.074 A 
ATOM     75  C   UNL A   1      48.708  25.726  28.843  1.00  0.00     0.031 C 
ATOM     76  C   UNL A   1      48.194  27.901  27.616  1.00  0.00     0.037 A 
BRANCH  63  77
ATOM     77  C   UNL A   1      44.807  23.505  26.383  1.00  0.00     0.064 A 
ATOM     78  C   UNL A   1      43.508  22.977  26.329  1.00  0.00     0.173 A 
ATOM     79  C   UNL A   1      45.843  22.791  25.779  1.00  0.00     0.173 A 
ATOM     80  F   UNL A   1      42.491  23.639  26.907  1.00  0.00    -0.203 F 
ATOM     81  C   UNL A   1      43.258  21.748  25.735  1.00  0.00     0.198 A 
ATOM     82  C   UNL A   1      45.586  21.562  25.170  1.00  0.00     0.198 A 
ATOM     83  F   UNL A   1      47.099  23.257  25.815  1.00  0.00    -0.203 F 
ATOM     84  F   UNL A   1      42.017  21.244  25.749  1.00  0.00    -0.200 F 
ATOM     85  C   UNL A   1      44.299  21.036  25.165  1.00  0.00     0.200 A 
ATOM     86  F   UNL A   1      46.589  20.868  24.616  1.00  0.00    -0.200 F 
ATOM     87  F   UNL A   1      44.064  19.835  24.619  1.00  0.00    -0.200 F 
ENDBRANCH  63  77
BRANCH  64  88
ATOM     88  C   UNL A   1      50.897  25.942  32.733  1.00  0.00     0.064 A 
ATOM     89  C   UNL A   1      51.979  26.545  33.413  1.00  0.00     0.173 A 
ATOM     90  C   UNL A   1      50.690  24.581  32.987  1.00  0.00     0.173 A 
ATOM     91  F   UNL A   1      52.318  27.817  33.145  1.00  0.00    -0.203 F 
ATOM     92  C   UNL A   1      52.702  25.873  34.397  1.00  0.00     0.198 A 
ATOM     93  C   UNL A   1      51.404  23.911  33.985  1.00  0.00     0.198 A 
ATOM     94  F   UNL A   1      49.780  23.875  32.306  1.00  0.00    -0.203 F 
ATOM     95  F   UNL A   1      53.670  26.513  35.067  1.00  0.00    -0.200 F 
ATOM     96  C   UNL A   1      52.389  24.565  34.708  1.00  0.00     0.200 A 
ATOM     97  F   UNL A   1      51.106  22.636  34.272  1.00  0.00    -0.200 F 
ATOM     98  F   UNL A   1      53.029  23.936  35.703  1.00  0.00    -0.200 F 
ENDBRANCH  64  88
BRANCH  76  99
ATOM     99  C   UNL A   1      48.541  29.353  27.594  1.00  0.00     0.064 A 
ATOM    100  C   UNL A   1      47.835  30.264  28.392  1.00  0.00     0.173 A 
ATOM    101  C   UNL A   1      49.637  29.836  26.866  1.00  0.00     0.173 A 
ATOM    102  F   UNL A   1      46.808  29.846  29.150  1.00  0.00    -0.203 F 
ATOM    103  C   UNL A   1      48.216  31.602  28.465  1.00  0.00     0.198 A 
ATOM    104  C   UNL A   1      50.043  31.162  26.983  1.00  0.00     0.198 A 
ATOM    105  F   UNL A   1      50.361  29.020  26.084  1.00  0.00    -0.203 F 
ATOM    106  F   UNL A   1      47.543  32.447  29.258  1.00  0.00    -0.200 F 
ATOM    107  C   UNL A   1      49.328  32.047  27.770  1.00  0.00     0.200 A 
ATOM    108  F   UNL A   1      51.163  31.572  26.375  1.00  0.00    -0.200 F 
ATOM    109  F   UNL A   1      49.744  33.315  27.899  1.00  0.00    -0.200 F 
ENDBRANCH  76  99
ENDBRANCH  50  51
ENDBRANCH  43  45
ENDBRANCH  42  43
ENDBRANCH  41  42
ENDBRANCH  40  41
ENDBRANCH  39  40
ENDBRANCH  38  39
ENDBRANCH  37  38
ENDBRANCH  36  37
ENDBRANCH   1  36
TORSDOF 26
ENDMDL
MODEL 3
REMARK VINA RESULT:      -9.6      2.791      4.958
REMARK SMILES CC[C@@H](C)[C@H](NC(=O)N1CCn2c1nc1ccccc12)C(=O)N[C@H](C)C(=O)OCCOCCOCCOCCOC(=O)c1ccc(-c2c3nc(c(-c4c(F)c(F)c(F)c(F)c4F)c4ccc([nH]4)c(-c4c(F)c(F)c(F)c(F)c4F)c4nc(c(-c5c(F)c(F)c(F)c(F)c5F)c5ccc2[nH]5)C=C4)C=C3)cc1
REMARK SMILES IDX 33 1 32 2 31 3 30 4 29 5 28 6 26 7 27 8 24 9 25 10 23 11
REMARK SMILES IDX 21 12 22 13 5 15 3 16 4 17 2 18 1 19 6 20 7 21 8 23 9 24
REMARK SMILES IDX 10 25 13 26 11 27 12 28 14 29 20 30 15 31 19 32 16 33 18 34
REMARK SMILES IDX 17 35 34 36 35 37 36 38 37 39 38 40 39 41 40 42 41 43 42 44
REMARK SMILES IDX 43 45 44 46 105 47 45 48 104 49 46 50 47 51 48 52 98 53
REMARK SMILES IDX 49 54 103 55 97 56 99 57 50 58 102 59 96 60 95 61 51 63
REMARK SMILES IDX 83 64 63 65 82 66 64 67 67 68 81 69 100 70 65 71 66 72 80 74
REMARK SMILES IDX 101 75 68 76 52 77 53 78 61 79 54 80 55 81 59 82 62 83 56 84
REMARK SMILES IDX 57 85 60 86 58 87 84 88 85 89 93 90 86 91 87 92 91 93 94 94
REMARK SMILES IDX 88 95 89 96 92 97 90 98 69 99 70 100 78 101 71 102 72 103
REMARK SMILES IDX 76 104 79 105 73 106 74 107 77 108 75 109
REMARK H PARENT 23 14 6 22 99 62 67 73
REMARK Flexibility Score: inf
ROOT
ATOM      1  C   UNL A   1      43.456  24.210  28.635  1.00  0.00     0.188 C 
ENDROOT
BRANCH   1   2
ATOM      2  C   UNL A   1      42.958  22.957  27.910  1.00  0.00     0.188 C 
BRANCH   2   3
ATOM      3  O   UNL A   1      41.850  22.237  28.429  1.00  0.00    -0.376 OA
BRANCH   3   4
ATOM      4  C   UNL A   1      41.000  21.497  27.565  1.00  0.00     0.202 C 
BRANCH   4   5
ATOM      5  C   UNL A   1      40.104  22.204  26.540  1.00  0.00     0.261 C 
BRANCH   5   6
ATOM      6  O   UNL A   1      38.952  21.461  26.129  1.00  0.00    -0.462 OA
BRANCH   6   7
ATOM      7  C   UNL A   1      37.885  22.225  25.787  1.00  0.00     0.328 C 
ATOM      8  O   UNL A   1      37.848  23.451  25.877  1.00  0.00    -0.250 OA
BRANCH   7   9
ATOM      9  C   UNL A   1      36.655  21.408  25.435  1.00  0.00     0.189 C 
ATOM     10  C   UNL A   1      36.843  20.038  24.817  1.00  0.00     0.043 C 
BRANCH   9  11
ATOM     11  N   UNL A   1      35.701  21.719  26.508  1.00  0.00    -0.341 N 
ATOM     12  C   UNL A   1      34.685  22.582  26.734  1.00  0.00     0.243 C 
ATOM     13  O   UNL A   1      34.356  22.775  27.915  1.00  0.00    -0.273 OA
ATOM     14  H   UNL A   1      35.842  21.130  27.284  1.00  0.00     0.164 HD
BRANCH  12  15
ATOM     15  C   UNL A   1      33.774  23.059  25.623  1.00  0.00     0.176 C 
BRANCH  15  16
ATOM     16  C   UNL A   1      32.561  22.021  25.501  1.00  0.00     0.018 C 
ATOM     17  C   UNL A   1      32.809  20.898  24.452  1.00  0.00     0.010 C 
BRANCH  16  18
ATOM     18  C   UNL A   1      31.157  22.605  25.258  1.00  0.00     0.002 C 
ATOM     19  C   UNL A   1      30.301  22.693  26.502  1.00  0.00     0.004 C 
ENDBRANCH  16  18
ENDBRANCH  15  16
BRANCH  15  20
ATOM     20  N   UNL A   1      34.409  23.481  24.363  1.00  0.00    -0.326 N 
ATOM     21  C   UNL A   1      33.839  23.928  23.218  1.00  0.00     0.324 C 
ATOM     22  H   UNL A   1      35.392  23.430  24.352  1.00  0.00     0.166 HD
ATOM     23  O   UNL A   1      34.179  23.302  22.203  1.00  0.00    -0.248 OA
BRANCH  21  24
ATOM     24  N   UNL A   1      33.019  25.007  23.098  1.00  0.00    -0.262 N 
ATOM     25  C   UNL A   1      32.342  25.320  21.819  1.00  0.00     0.152 C 
ATOM     26  C   UNL A   1      32.793  26.057  23.944  1.00  0.00     0.214 A 
ATOM     27  C   UNL A   1      31.838  26.776  21.947  1.00  0.00     0.148 C 
ATOM     28  N   UNL A   1      32.069  27.049  23.347  1.00  0.00    -0.308 N 
ATOM     29  N   UNL A   1      33.136  26.429  25.128  1.00  0.00    -0.212 NA
ATOM     30  C   UNL A   1      31.871  28.079  24.209  1.00  0.00     0.070 A 
ATOM     31  C   UNL A   1      32.548  27.648  25.349  1.00  0.00     0.091 A 
ATOM     32  C   UNL A   1      31.216  29.311  24.169  1.00  0.00     0.028 A 
ATOM     33  C   UNL A   1      32.587  28.442  26.505  1.00  0.00     0.031 A 
ATOM     34  C   UNL A   1      31.255  30.091  25.342  1.00  0.00     0.002 A 
ATOM     35  C   UNL A   1      31.927  29.668  26.491  1.00  0.00     0.002 A 
ENDBRANCH  21  24
ENDBRANCH  15  20
ENDBRANCH  12  15
ENDBRANCH   9  11
ENDBRANCH   7   9
ENDBRANCH   6   7
ENDBRANCH   5   6
ENDBRANCH   4   5
ENDBRANCH   3   4
ENDBRANCH   2   3
ENDBRANCH   1   2
BRANCH   1  36
ATOM     36  O   UNL A   1      44.558  24.871  28.033  1.00  0.00    -0.377 OA
BRANCH  36  37
ATOM     37  C   UNL A   1      45.096  26.039  28.646  1.00  0.00     0.188 C 
BRANCH  37  38
ATOM     38  C   UNL A   1      46.280  25.893  29.608  1.00  0.00     0.188 C 
BRANCH  38  39
ATOM     39  O   UNL A   1      45.963  25.536  30.954  1.00  0.00    -0.376 OA
BRANCH  39  40
ATOM     40  C   UNL A   1      46.885  25.899  31.980  1.00  0.00     0.202 C 
BRANCH  40  41
ATOM     41  C   UNL A   1      46.568  25.298  33.349  1.00  0.00     0.261 C 
BRANCH  41  42
ATOM     42  O   UNL A   1      45.676  26.141  34.099  1.00  0.00    -0.460 OA
BRANCH  42  43
ATOM     43  C   UNL A   1      44.456  25.639  34.423  1.00  0.00     0.338 C 
ATOM     44  O   UNL A   1      44.197  24.605  34.984  1.00  0.00    -0.246 OA
BRANCH  43  45
ATOM     45  C   UNL A   1      43.472  26.702  34.120  1.00  0.00     0.060 A 
ATOM     46  C   UNL A   1      42.174  26.644  34.632  1.00  0.00     0.016 A 
ATOM     47  C   UNL A   1      43.839  27.712  33.229  1.00  0.00     0.016 A 
ATOM     48  C   UNL A   1      41.229  27.599  34.237  1.00  0.00     0.010 A 
ATOM     49  C   UNL A   1      42.884  28.637  32.809  1.00  0.00     0.010 A 
ATOM     50  C   UNL A   1      41.571  28.600  33.316  1.00  0.00    -0.014 A 
BRANCH  50  51
ATOM     51  C   UNL A   1      40.606  29.689  33.013  1.00  0.00     0.031 A 
ATOM     52  C   UNL A   1      40.514  30.738  34.076  1.00  0.00     0.074 A 
ATOM     53  C   UNL A   1      40.129  29.983  31.783  1.00  0.00     0.049 A 
ATOM     54  N   UNL A   1      41.312  31.766  34.144  1.00  0.00    -0.248 NA
ATOM     55  C   UNL A   1      39.708  30.530  35.276  1.00  0.00     0.031 C 
ATOM     56  C   UNL A   1      40.787  29.610  30.535  1.00  0.00     0.029 A 
ATOM     57  N   UNL A   1      39.126  30.821  31.363  1.00  0.00    -0.354 N 
ATOM     58  C   UNL A   1      41.147  32.324  35.399  1.00  0.00     0.074 A 
ATOM     59  C   UNL A   1      40.137  31.528  36.063  1.00  0.00     0.031 C 
ATOM     60  C   UNL A   1      40.381  30.432  29.547  1.00  0.00     0.029 A 
ATOM     61  C   UNL A   1      39.250  31.200  30.031  1.00  0.00     0.049 A 
ATOM     62  H   UNL A   1      38.394  31.125  31.946  1.00  0.00     0.167 HD
ATOM     63  C   UNL A   1      41.843  33.405  35.838  1.00  0.00     0.037 A 
ATOM     64  C   UNL A   1      38.798  32.339  29.442  1.00  0.00     0.037 A 
ATOM     65  C   UNL A   1      42.794  33.970  34.930  1.00  0.00     0.049 A 
ATOM     66  C   UNL A   1      39.504  33.407  30.230  1.00  0.00     0.074 A 
ATOM     67  C   UNL A   1      44.159  33.968  34.737  1.00  0.00     0.029 A 
ATOM     68  N   UNL A   1      42.315  34.782  33.931  1.00  0.00    -0.354 N 
ATOM     69  N   UNL A   1      40.722  33.824  29.999  1.00  0.00    -0.248 NA
ATOM     70  C   UNL A   1      38.981  33.750  31.551  1.00  0.00     0.031 C 
ATOM     71  C   UNL A   1      44.353  34.379  33.378  1.00  0.00     0.029 A 
ATOM     72  C   UNL A   1      43.087  34.558  32.822  1.00  0.00     0.049 A 
ATOM     73  H   UNL A   1      41.559  35.409  34.000  1.00  0.00     0.167 HD
ATOM     74  C   UNL A   1      41.213  34.248  31.235  1.00  0.00     0.074 A 
ATOM     75  C   UNL A   1      40.095  34.142  32.151  1.00  0.00     0.031 C 
ATOM     76  C   UNL A   1      42.531  34.502  31.487  1.00  0.00     0.037 A 
BRANCH  63  77
ATOM     77  C   UNL A   1      41.513  34.146  37.069  1.00  0.00     0.064 A 
ATOM     78  C   UNL A   1      42.176  33.764  38.245  1.00  0.00     0.173 A 
ATOM     79  C   UNL A   1      40.452  35.047  37.164  1.00  0.00     0.173 A 
ATOM     80  F   UNL A   1      43.198  32.892  38.185  1.00  0.00    -0.203 F 
ATOM     81  C   UNL A   1      41.762  34.229  39.485  1.00  0.00     0.198 A 
ATOM     82  C   UNL A   1      40.047  35.524  38.412  1.00  0.00     0.198 A 
ATOM     83  F   UNL A   1      39.787  35.431  36.066  1.00  0.00    -0.203 F 
ATOM     84  F   UNL A   1      42.381  33.802  40.594  1.00  0.00    -0.200 F 
ATOM     85  C   UNL A   1      40.690  35.101  39.570  1.00  0.00     0.200 A 
ATOM     86  F   UNL A   1      39.010  36.369  38.500  1.00  0.00    -0.200 F 
ATOM     87  F   UNL A   1      40.269  35.525  40.768  1.00  0.00    -0.200 F 
ENDBRANCH  63  77
BRANCH  64  88
ATOM     88  C   UNL A   1      37.329  32.291  29.169  1.00  0.00     0.064 A 
ATOM     89  C   UNL A   1      36.670  33.526  28.977  1.00  0.00     0.173 A 
ATOM     90  C   UNL A   1      36.545  31.143  29.008  1.00  0.00     0.173 A 
ATOM     91  F   UNL A   1      37.317  34.678  29.219  1.00  0.00    -0.203 F 
ATOM     92  C   UNL A   1      35.363  33.602  28.501  1.00  0.00     0.198 A 
ATOM     93  C   UNL A   1      35.238  31.217  28.516  1.00  0.00     0.198 A 
ATOM     94  F   UNL A   1      37.024  29.925  29.289  1.00  0.00    -0.203 F 
ATOM     95  F   UNL A   1      34.808  34.799  28.263  1.00  0.00    -0.200 F 
ATOM     96  C   UNL A   1      34.659  32.444  28.236  1.00  0.00     0.200 A 
ATOM     97  F   UNL A   1      34.554  30.090  28.275  1.00  0.00    -0.200 F 
ATOM     98  F   UNL A   1      33.428  32.508  27.709  1.00  0.00    -0.200 F 
ENDBRANCH  64  88
BRANCH  76  99
ATOM     99  C   UNL A   1      43.442  34.510  30.305  1.00  0.00     0.064 A 
ATOM    100  C   UNL A   1      43.782  35.716  29.678  1.00  0.00     0.173 A 
ATOM    101  C   UNL A   1      44.066  33.339  29.849  1.00  0.00     0.173 A 
ATOM    102  F   UNL A   1      43.255  36.874  30.108  1.00  0.00    -0.203 F 
ATOM    103  C   UNL A   1      44.715  35.751  28.645  1.00  0.00     0.198 A 
ATOM    104  C   UNL A   1      45.033  33.389  28.851  1.00  0.00     0.198 A 
ATOM    105  F   UNL A   1      43.790  32.149  30.405  1.00  0.00    -0.203 F 
ATOM    106  F   UNL A   1      45.045  36.922  28.081  1.00  0.00    -0.200 F 
ATOM    107  C   UNL A   1      45.350  34.589  28.240  1.00  0.00     0.200 A 
ATOM    108  F   UNL A   1      45.703  32.279  28.516  1.00  0.00    -0.200 F 
ATOM    109  F   UNL A   1      46.304  34.631  27.299  1.00  0.00    -0.200 F 
ENDBRANCH  76  99
ENDBRANCH  50  51
ENDBRANCH  43  45
ENDBRANCH  42  43
ENDBRANCH  41  42
ENDBRANCH  40  41
ENDBRANCH  39  40
ENDBRANCH  38  39
ENDBRANCH  37  38
ENDBRANCH  36  37
ENDBRANCH   1  36
TORSDOF 26
ENDMDL
