MODEL 1
REMARK VINA RESULT:     -11.5      0.000      0.000
REMARK SMILES C[C@@H]1Cc2ccccc2N1c1ccc(F)cc1C(=O)OCCOCCOCCOCCOC(=O)c1ccc(-c2c3nc(c(-c4c(F)c(F)c(F)c(F)c4F)c4ccc([nH]4)c(-c4c(F)c(F)c(F)c(F)c4F)c4nc(c(-c5c(F)c(F)c(F)c(F)c5F)c5ccc2[nH]5)C=C4)C=C3)cc1
REMARK SMILES IDX 27 1 26 2 25 3 24 4 23 5 22 6 21 7 20 8 18 9 19 10 17 11
REMARK SMILES IDX 11 12 12 13 13 14 16 15 14 16 15 17 10 18 1 19 2 20 3 21
REMARK SMILES IDX 4 22 9 23 5 24 8 25 6 26 7 27 28 28 29 29 30 30 31 31 32 32
REMARK SMILES IDX 33 33 34 34 35 35 36 36 97 37 37 38 96 39 38 40 39 41 40 42
REMARK SMILES IDX 90 43 41 44 95 45 89 46 91 47 42 48 94 49 88 50 87 51 43 53
REMARK SMILES IDX 75 54 55 55 74 56 56 57 59 58 73 59 92 60 57 61 58 62 72 64
REMARK SMILES IDX 93 65 60 66 44 67 45 68 53 69 46 70 47 71 51 72 54 73 48 74
REMARK SMILES IDX 49 75 52 76 50 77 76 78 77 79 85 80 78 81 79 82 83 83 86 84
REMARK SMILES IDX 80 85 81 86 84 87 82 88 61 89 62 90 70 91 63 92 64 93 68 94
REMARK SMILES IDX 71 95 65 96 66 97 69 98 67 99
REMARK H PARENT 91 52 59 63
REMARK Flexibility Score: inf
ROOT
ATOM      1  C   UNL A   1      44.119  18.575  25.460  1.00  0.00     0.188 C 
ENDROOT
BRANCH   1   2
ATOM      2  O   UNL A   1      42.740  18.530  25.796  1.00  0.00    -0.377 OA
BRANCH   2   3
ATOM      3  C   UNL A   1      42.125  19.798  25.971  1.00  0.00     0.188 C 
BRANCH   3   4
ATOM      4  C   UNL A   1      41.420  20.012  27.317  1.00  0.00     0.188 C 
BRANCH   4   5
ATOM      5  O   UNL A   1      40.141  20.634  27.182  1.00  0.00    -0.376 OA
BRANCH   5   6
ATOM      6  C   UNL A   1      39.935  21.400  25.999  1.00  0.00     0.202 C 
BRANCH   6   7
ATOM      7  C   UNL A   1      38.558  22.060  25.971  1.00  0.00     0.261 C 
BRANCH   7   8
ATOM      8  O   UNL A   1      37.512  21.138  25.643  1.00  0.00    -0.460 OA
BRANCH   8   9
ATOM      9  C   UNL A   1      36.617  21.523  24.714  1.00  0.00     0.340 C 
ATOM     10  O   UNL A   1      36.790  22.416  23.897  1.00  0.00    -0.246 OA
BRANCH   9  11
ATOM     11  C   UNL A   1      35.434  20.621  24.697  1.00  0.00     0.086 A 
ATOM     12  C   UNL A   1      34.079  21.024  24.804  1.00  0.00     0.056 A 
ATOM     13  C   UNL A   1      33.095  20.008  24.740  1.00  0.00     0.030 A 
ATOM     14  C   UNL A   1      33.430  18.654  24.688  1.00  0.00     0.041 A 
ATOM     15  C   UNL A   1      35.760  19.251  24.642  1.00  0.00     0.057 A 
ATOM     16  C   UNL A   1      34.763  18.288  24.666  1.00  0.00     0.124 A 
ATOM     17  F   UNL A   1      35.095  16.991  24.681  1.00  0.00    -0.207 F 
BRANCH  12  18
ATOM     18  N   UNL A   1      33.665  22.337  25.093  1.00  0.00    -0.337 N 
ATOM     19  C   UNL A   1      33.683  22.455  27.638  1.00  0.00     0.032 C 
ATOM     20  C   UNL A   1      34.135  23.056  26.316  1.00  0.00     0.089 C 
ATOM     21  C   UNL A   1      33.606  24.513  26.204  1.00  0.00     0.063 C 
ATOM     22  C   UNL A   1      33.485  24.658  24.729  1.00  0.00    -0.022 A 
ATOM     23  C   UNL A   1      33.495  23.393  24.140  1.00  0.00     0.045 A 
ATOM     24  C   UNL A   1      33.340  25.819  23.983  1.00  0.00     0.006 A 
ATOM     25  C   UNL A   1      33.354  23.279  22.762  1.00  0.00     0.026 A 
ATOM     26  C   UNL A   1      33.236  25.703  22.597  1.00  0.00     0.000 A 
ATOM     27  C   UNL A   1      33.244  24.440  21.989  1.00  0.00     0.002 A 
ENDBRANCH  12  18
ENDBRANCH   9  11
ENDBRANCH   8   9
ENDBRANCH   7   8
ENDBRANCH   6   7
ENDBRANCH   5   6
ENDBRANCH   4   5
ENDBRANCH   3   4
ENDBRANCH   2   3
ENDBRANCH   1   2
BRANCH   1  28
ATOM     28  C   UNL A   1      44.490  19.642  24.407  1.00  0.00     0.188 C 
BRANCH  28  29
ATOM     29  O   UNL A   1      45.042  20.916  24.741  1.00  0.00    -0.376 OA
BRANCH  29  30
ATOM     30  C   UNL A   1      44.504  22.104  24.189  1.00  0.00     0.202 C 
BRANCH  30  31
ATOM     31  C   UNL A   1      43.435  22.795  25.048  1.00  0.00     0.261 C 
BRANCH  31  32
ATOM     32  O   UNL A   1      43.214  24.175  24.732  1.00  0.00    -0.460 OA
BRANCH  32  33
ATOM     33  C   UNL A   1      44.035  25.050  25.362  1.00  0.00     0.338 C 
ATOM     34  O   UNL A   1      45.220  25.243  25.153  1.00  0.00    -0.246 OA
BRANCH  33  35
ATOM     35  C   UNL A   1      43.241  25.856  26.315  1.00  0.00     0.060 A 
ATOM     36  C   UNL A   1      42.373  25.252  27.230  1.00  0.00     0.016 A 
ATOM     37  C   UNL A   1      43.396  27.248  26.301  1.00  0.00     0.016 A 
ATOM     38  C   UNL A   1      41.704  26.039  28.169  1.00  0.00     0.010 A 
ATOM     39  C   UNL A   1      42.714  28.037  27.229  1.00  0.00     0.010 A 
ATOM     40  C   UNL A   1      41.894  27.433  28.191  1.00  0.00    -0.014 A 
BRANCH  40  41
ATOM     41  C   UNL A   1      41.418  28.218  29.353  1.00  0.00     0.031 A 
ATOM     42  C   UNL A   1      40.213  29.097  29.282  1.00  0.00     0.074 A 
ATOM     43  C   UNL A   1      42.128  28.124  30.494  1.00  0.00     0.049 A 
ATOM     44  N   UNL A   1      39.619  29.748  30.250  1.00  0.00    -0.248 NA
ATOM     45  C   UNL A   1      39.597  29.280  27.960  1.00  0.00     0.031 C 
ATOM     46  C   UNL A   1      43.350  27.333  30.653  1.00  0.00     0.029 A 
ATOM     47  N   UNL A   1      41.928  28.683  31.728  1.00  0.00    -0.354 N 
ATOM     48  C   UNL A   1      38.544  30.400  29.665  1.00  0.00     0.074 A 
ATOM     49  C   UNL A   1      38.596  30.106  28.246  1.00  0.00     0.031 C 
ATOM     50  C   UNL A   1      43.778  27.437  31.918  1.00  0.00     0.029 A 
ATOM     51  C   UNL A   1      42.867  28.306  32.656  1.00  0.00     0.049 A 
ATOM     52  H   UNL A   1      41.184  29.295  31.930  1.00  0.00     0.167 HD
ATOM     53  C   UNL A   1      37.595  31.154  30.270  1.00  0.00     0.037 A 
ATOM     54  C   UNL A   1      42.973  28.613  33.961  1.00  0.00     0.037 A 
ATOM     55  C   UNL A   1      37.569  31.452  31.681  1.00  0.00     0.049 A 
ATOM     56  C   UNL A   1      41.923  29.476  34.598  1.00  0.00     0.074 A 
ATOM     57  C   UNL A   1      36.611  32.150  32.397  1.00  0.00     0.029 A 
ATOM     58  N   UNL A   1      38.555  31.088  32.587  1.00  0.00    -0.354 N 
ATOM     59  N   UNL A   1      40.846  29.994  34.060  1.00  0.00    -0.248 NA
ATOM     60  C   UNL A   1      42.097  29.791  36.022  1.00  0.00     0.031 C 
ATOM     61  C   UNL A   1      37.041  32.251  33.724  1.00  0.00     0.029 A 
ATOM     62  C   UNL A   1      38.246  31.577  33.847  1.00  0.00     0.049 A 
ATOM     63  H   UNL A   1      39.357  30.561  32.367  1.00  0.00     0.167 HD
ATOM     64  C   UNL A   1      40.206  30.684  35.079  1.00  0.00     0.074 A 
ATOM     65  C   UNL A   1      41.006  30.502  36.273  1.00  0.00     0.031 C 
ATOM     66  C   UNL A   1      39.058  31.402  35.025  1.00  0.00     0.037 A 
BRANCH  53  67
ATOM     67  C   UNL A   1      36.483  31.698  29.422  1.00  0.00     0.064 A 
ATOM     68  C   UNL A   1      35.455  30.866  28.955  1.00  0.00     0.173 A 
ATOM     69  C   UNL A   1      36.387  33.072  29.156  1.00  0.00     0.173 A 
ATOM     70  F   UNL A   1      35.502  29.543  29.178  1.00  0.00    -0.203 F 
ATOM     71  C   UNL A   1      34.377  31.388  28.244  1.00  0.00     0.198 A 
ATOM     72  C   UNL A   1      35.297  33.594  28.464  1.00  0.00     0.198 A 
ATOM     73  F   UNL A   1      37.339  33.913  29.588  1.00  0.00    -0.203 F 
ATOM     74  F   UNL A   1      33.420  30.569  27.786  1.00  0.00    -0.200 F 
ATOM     75  C   UNL A   1      34.294  32.751  28.008  1.00  0.00     0.200 A 
ATOM     76  F   UNL A   1      35.211  34.913  28.246  1.00  0.00    -0.200 F 
ATOM     77  F   UNL A   1      33.247  33.253  27.337  1.00  0.00    -0.200 F 
ENDBRANCH  53  67
BRANCH  54  78
ATOM     78  C   UNL A   1      44.088  28.040  34.754  1.00  0.00     0.064 A 
ATOM     79  C   UNL A   1      44.004  26.738  35.267  1.00  0.00     0.173 A 
ATOM     80  C   UNL A   1      45.274  28.756  34.971  1.00  0.00     0.173 A 
ATOM     81  F   UNL A   1      42.884  26.022  35.094  1.00  0.00    -0.203 F 
ATOM     82  C   UNL A   1      45.065  26.177  35.974  1.00  0.00     0.198 A 
ATOM     83  C   UNL A   1      46.341  28.185  35.657  1.00  0.00     0.198 A 
ATOM     84  F   UNL A   1      45.402  30.002  34.491  1.00  0.00    -0.203 F 
ATOM     85  F   UNL A   1      44.952  24.939  36.473  1.00  0.00    -0.200 F 
ATOM     86  C   UNL A   1      46.236  26.897  36.161  1.00  0.00     0.200 A 
ATOM     87  F   UNL A   1      47.476  28.878  35.825  1.00  0.00    -0.200 F 
ATOM     88  F   UNL A   1      47.260  26.351  36.829  1.00  0.00    -0.200 F 
ENDBRANCH  54  78
BRANCH  66  89
ATOM     89  C   UNL A   1      38.597  32.059  36.292  1.00  0.00     0.064 A 
ATOM     90  C   UNL A   1      37.866  31.348  37.255  1.00  0.00     0.173 A 
ATOM     91  C   UNL A   1      38.945  33.388  36.576  1.00  0.00     0.173 A 
ATOM     92  F   UNL A   1      37.496  30.081  37.020  1.00  0.00    -0.203 F 
ATOM     93  C   UNL A   1      37.492  31.948  38.454  1.00  0.00     0.198 A 
ATOM     94  C   UNL A   1      38.591  33.976  37.787  1.00  0.00     0.198 A 
ATOM     95  F   UNL A   1      39.646  34.109  35.688  1.00  0.00    -0.203 F 
ATOM     96  F   UNL A   1      36.769  31.260  39.348  1.00  0.00    -0.200 F 
ATOM     97  C   UNL A   1      37.863  33.257  38.723  1.00  0.00     0.200 A 
ATOM     98  F   UNL A   1      38.960  35.237  38.050  1.00  0.00    -0.200 F 
ATOM     99  F   UNL A   1      37.517  33.827  39.886  1.00  0.00    -0.200 F 
ENDBRANCH  66  89
ENDBRANCH  40  41
ENDBRANCH  33  35
ENDBRANCH  32  33
ENDBRANCH  31  32
ENDBRANCH  30  31
ENDBRANCH  29  30
ENDBRANCH  28  29
ENDBRANCH   1  28
TORSDOF 21
ENDMDL
MODEL 2
REMARK VINA RESULT:     -11.3      3.679      8.927
REMARK SMILES C[C@@H]1Cc2ccccc2N1c1ccc(F)cc1C(=O)OCCOCCOCCOCCOC(=O)c1ccc(-c2c3nc(c(-c4c(F)c(F)c(F)c(F)c4F)c4ccc([nH]4)c(-c4c(F)c(F)c(F)c(F)c4F)c4nc(c(-c5c(F)c(F)c(F)c(F)c5F)c5ccc2[nH]5)C=C4)C=C3)cc1
REMARK SMILES IDX 27 1 26 2 25 3 24 4 23 5 22 6 21 7 20 8 18 9 19 10 17 11
REMARK SMILES IDX 11 12 12 13 13 14 16 15 14 16 15 17 10 18 1 19 2 20 3 21
REMARK SMILES IDX 4 22 9 23 5 24 8 25 6 26 7 27 28 28 29 29 30 30 31 31 32 32
REMARK SMILES IDX 33 33 34 34 35 35 36 36 97 37 37 38 96 39 38 40 39 41 40 42
REMARK SMILES IDX 90 43 41 44 95 45 89 46 91 47 42 48 94 49 88 50 87 51 43 53
REMARK SMILES IDX 75 54 55 55 74 56 56 57 59 58 73 59 92 60 57 61 58 62 72 64
REMARK SMILES IDX 93 65 60 66 44 67 45 68 53 69 46 70 47 71 51 72 54 73 48 74
REMARK SMILES IDX 49 75 52 76 50 77 76 78 77 79 85 80 78 81 79 82 83 83 86 84
REMARK SMILES IDX 80 85 81 86 84 87 82 88 61 89 62 90 70 91 63 92 64 93 68 94
REMARK SMILES IDX 71 95 65 96 66 97 69 98 67 99
REMARK H PARENT 91 52 59 63
REMARK Flexibility Score: inf
ROOT
ATOM      1  C   UNL A   1      32.032  29.061  24.974  1.00  0.00     0.188 C 
ENDROOT
BRANCH   1   2
ATOM      2  O   UNL A   1      31.518  27.747  25.143  1.00  0.00    -0.377 OA
BRANCH   2   3
ATOM      3  C   UNL A   1      30.566  27.347  24.169  1.00  0.00     0.188 C 
BRANCH   3   4
ATOM      4  C   UNL A   1      29.765  26.082  24.507  1.00  0.00     0.188 C 
BRANCH   4   5
ATOM      5  O   UNL A   1      30.559  25.071  25.130  1.00  0.00    -0.376 OA
BRANCH   5   6
ATOM      6  C   UNL A   1      30.193  24.715  26.460  1.00  0.00     0.202 C 
BRANCH   6   7
ATOM      7  C   UNL A   1      30.646  23.303  26.825  1.00  0.00     0.261 C 
BRANCH   7   8
ATOM      8  O   UNL A   1      31.808  22.891  26.094  1.00  0.00    -0.460 OA
BRANCH   8   9
ATOM      9  C   UNL A   1      32.935  22.671  26.796  1.00  0.00     0.340 C 
ATOM     10  O   UNL A   1      32.978  22.296  27.959  1.00  0.00    -0.246 OA
BRANCH   9  11
ATOM     11  C   UNL A   1      34.142  22.794  25.934  1.00  0.00     0.086 A 
ATOM     12  C   UNL A   1      34.264  22.322  24.603  1.00  0.00     0.056 A 
ATOM     13  C   UNL A   1      35.494  22.561  23.943  1.00  0.00     0.030 A 
ATOM     14  C   UNL A   1      36.586  23.134  24.596  1.00  0.00     0.041 A 
ATOM     15  C   UNL A   1      35.251  23.373  26.583  1.00  0.00     0.057 A 
ATOM     16  C   UNL A   1      36.461  23.511  25.920  1.00  0.00     0.124 A 
ATOM     17  F   UNL A   1      37.522  24.000  26.574  1.00  0.00    -0.207 F 
BRANCH  12  18
ATOM     18  N   UNL A   1      33.300  21.531  23.952  1.00  0.00    -0.337 N 
ATOM     19  C   UNL A   1      31.847  23.212  22.707  1.00  0.00     0.032 C 
ATOM     20  C   UNL A   1      32.691  21.948  22.653  1.00  0.00     0.089 C 
ATOM     21  C   UNL A   1      31.812  20.760  22.175  1.00  0.00     0.063 C 
ATOM     22  C   UNL A   1      32.491  19.617  22.840  1.00  0.00    -0.022 A 
ATOM     23  C   UNL A   1      33.308  20.101  23.864  1.00  0.00     0.045 A 
ATOM     24  C   UNL A   1      32.362  18.262  22.578  1.00  0.00     0.006 A 
ATOM     25  C   UNL A   1      34.017  19.204  24.654  1.00  0.00     0.026 A 
ATOM     26  C   UNL A   1      33.104  17.367  23.349  1.00  0.00     0.000 A 
ATOM     27  C   UNL A   1      33.928  17.835  24.381  1.00  0.00     0.002 A 
ENDBRANCH  12  18
ENDBRANCH   9  11
ENDBRANCH   8   9
ENDBRANCH   7   8
ENDBRANCH   6   7
ENDBRANCH   5   6
ENDBRANCH   4   5
ENDBRANCH   3   4
ENDBRANCH   2   3
ENDBRANCH   1   2
BRANCH   1  28
ATOM     28  C   UNL A   1      30.965  30.131  24.657  1.00  0.00     0.188 C 
BRANCH  28  29
ATOM     29  O   UNL A   1      30.807  31.331  25.416  1.00  0.00    -0.376 OA
BRANCH  29  30
ATOM     30  C   UNL A   1      31.621  31.584  26.547  1.00  0.00     0.202 C 
BRANCH  30  31
ATOM     31  C   UNL A   1      31.886  33.066  26.842  1.00  0.00     0.261 C 
BRANCH  31  32
ATOM     32  O   UNL A   1      32.608  33.316  28.054  1.00  0.00    -0.460 OA
BRANCH  32  33
ATOM     33  C   UNL A   1      33.750  34.032  27.908  1.00  0.00     0.338 C 
ATOM     34  O   UNL A   1      33.860  35.197  27.567  1.00  0.00    -0.246 OA
BRANCH  33  35
ATOM     35  C   UNL A   1      34.897  33.204  28.339  1.00  0.00     0.060 A 
ATOM     36  C   UNL A   1      36.198  33.717  28.352  1.00  0.00     0.016 A 
ATOM     37  C   UNL A   1      34.650  31.892  28.764  1.00  0.00     0.016 A 
ATOM     38  C   UNL A   1      37.243  32.932  28.843  1.00  0.00     0.010 A 
ATOM     39  C   UNL A   1      35.697  31.102  29.240  1.00  0.00     0.010 A 
ATOM     40  C   UNL A   1      36.992  31.632  29.317  1.00  0.00    -0.014 A 
BRANCH  40  41
ATOM     41  C   UNL A   1      38.034  30.923  30.094  1.00  0.00     0.031 A 
ATOM     42  C   UNL A   1      38.923  29.891  29.481  1.00  0.00     0.074 A 
ATOM     43  C   UNL A   1      38.148  31.233  31.400  1.00  0.00     0.049 A 
ATOM     44  N   UNL A   1      39.950  29.277  30.013  1.00  0.00    -0.248 NA
ATOM     45  C   UNL A   1      38.622  29.486  28.101  1.00  0.00     0.031 C 
ATOM     46  C   UNL A   1      37.295  32.189  32.107  1.00  0.00     0.029 A 
ATOM     47  N   UNL A   1      39.021  30.790  32.358  1.00  0.00    -0.354 N 
ATOM     48  C   UNL A   1      40.437  28.430  29.029  1.00  0.00     0.074 A 
ATOM     49  C   UNL A   1      39.562  28.572  27.882  1.00  0.00     0.031 C 
ATOM     50  C   UNL A   1      37.701  32.280  33.381  1.00  0.00     0.029 A 
ATOM     51  C   UNL A   1      38.836  31.385  33.582  1.00  0.00     0.049 A 
ATOM     52  H   UNL A   1      39.713  30.111  32.187  1.00  0.00     0.167 HD
ATOM     53  C   UNL A   1      41.528  27.628  29.083  1.00  0.00     0.037 A 
ATOM     54  C   UNL A   1      39.516  31.239  34.733  1.00  0.00     0.037 A 
ATOM     55  C   UNL A   1      42.377  27.485  30.240  1.00  0.00     0.049 A 
ATOM     56  C   UNL A   1      40.702  30.320  34.771  1.00  0.00     0.074 A 
ATOM     57  C   UNL A   1      43.544  26.750  30.367  1.00  0.00     0.029 A 
ATOM     58  N   UNL A   1      42.140  28.071  31.475  1.00  0.00    -0.354 N 
ATOM     59  N   UNL A   1      41.225  29.610  33.801  1.00  0.00    -0.248 NA
ATOM     60  C   UNL A   1      41.398  30.188  36.057  1.00  0.00     0.031 C 
ATOM     61  C   UNL A   1      43.985  26.852  31.691  1.00  0.00     0.029 A 
ATOM     62  C   UNL A   1      43.119  27.686  32.379  1.00  0.00     0.049 A 
ATOM     63  H   UNL A   1      41.387  28.672  31.679  1.00  0.00     0.167 HD
ATOM     64  C   UNL A   1      42.317  28.958  34.353  1.00  0.00     0.074 A 
ATOM     65  C   UNL A   1      42.393  29.371  35.739  1.00  0.00     0.031 C 
ATOM     66  C   UNL A   1      43.176  28.094  33.761  1.00  0.00     0.037 A 
BRANCH  53  67
ATOM     67  C   UNL A   1      41.893  26.855  27.850  1.00  0.00     0.064 A 
ATOM     68  C   UNL A   1      42.847  27.342  26.945  1.00  0.00     0.173 A 
ATOM     69  C   UNL A   1      41.362  25.576  27.620  1.00  0.00     0.173 A 
ATOM     70  F   UNL A   1      43.381  28.561  27.116  1.00  0.00    -0.203 F 
ATOM     71  C   UNL A   1      43.250  26.582  25.850  1.00  0.00     0.198 A 
ATOM     72  C   UNL A   1      41.784  24.810  26.536  1.00  0.00     0.198 A 
ATOM     73  F   UNL A   1      40.454  25.059  28.460  1.00  0.00    -0.203 F 
ATOM     74  F   UNL A   1      44.144  27.080  24.984  1.00  0.00    -0.200 F 
ATOM     75  C   UNL A   1      42.726  25.314  25.651  1.00  0.00     0.200 A 
ATOM     76  F   UNL A   1      41.286  23.580  26.352  1.00  0.00    -0.200 F 
ATOM     77  F   UNL A   1      43.127  24.578  24.605  1.00  0.00    -0.200 F 
ENDBRANCH  53  67
BRANCH  54  78
ATOM     78  C   UNL A   1      39.116  32.036  35.918  1.00  0.00     0.064 A 
ATOM     79  C   UNL A   1      38.250  31.499  36.881  1.00  0.00     0.173 A 
ATOM     80  C   UNL A   1      39.628  33.322  36.140  1.00  0.00     0.173 A 
ATOM     81  F   UNL A   1      37.727  30.277  36.702  1.00  0.00    -0.203 F 
ATOM     82  C   UNL A   1      37.906  32.223  38.019  1.00  0.00     0.198 A 
ATOM     83  C   UNL A   1      39.302  34.035  37.290  1.00  0.00     0.198 A 
ATOM     84  F   UNL A   1      40.467  33.873  35.251  1.00  0.00    -0.203 F 
ATOM     85  F   UNL A   1      37.059  31.697  38.913  1.00  0.00    -0.200 F 
ATOM     86  C   UNL A   1      38.438  33.487  38.228  1.00  0.00     0.200 A 
ATOM     87  F   UNL A   1      39.828  35.250  37.496  1.00  0.00    -0.200 F 
ATOM     88  F   UNL A   1      38.118  34.177  39.330  1.00  0.00    -0.200 F 
ENDBRANCH  54  78
BRANCH  66  89
ATOM     89  C   UNL A   1      44.274  27.524  34.609  1.00  0.00     0.064 A 
ATOM     90  C   UNL A   1      44.130  26.282  35.245  1.00  0.00     0.173 A 
ATOM     91  C   UNL A   1      45.501  28.190  34.733  1.00  0.00     0.173 A 
ATOM     92  F   UNL A   1      42.968  25.616  35.169  1.00  0.00    -0.203 F 
ATOM     93  C   UNL A   1      45.175  25.732  35.983  1.00  0.00     0.198 A 
ATOM     94  C   UNL A   1      46.552  27.626  35.451  1.00  0.00     0.198 A 
ATOM     95  F   UNL A   1      45.688  29.380  34.140  1.00  0.00    -0.203 F 
ATOM     96  F   UNL A   1      45.007  24.558  36.606  1.00  0.00    -0.200 F 
ATOM     97  C   UNL A   1      46.387  26.399  36.077  1.00  0.00     0.200 A 
ATOM     98  F   UNL A   1      47.727  28.266  35.530  1.00  0.00    -0.200 F 
ATOM     99  F   UNL A   1      47.397  25.860  36.772  1.00  0.00    -0.200 F 
ENDBRANCH  66  89
ENDBRANCH  40  41
ENDBRANCH  33  35
ENDBRANCH  32  33
ENDBRANCH  31  32
ENDBRANCH  30  31
ENDBRANCH  29  30
ENDBRANCH  28  29
ENDBRANCH   1  28
TORSDOF 21
ENDMDL
MODEL 3
REMARK VINA RESULT:     -11.3      4.800      7.835
REMARK SMILES C[C@@H]1Cc2ccccc2N1c1ccc(F)cc1C(=O)OCCOCCOCCOCCOC(=O)c1ccc(-c2c3nc(c(-c4c(F)c(F)c(F)c(F)c4F)c4ccc([nH]4)c(-c4c(F)c(F)c(F)c(F)c4F)c4nc(c(-c5c(F)c(F)c(F)c(F)c5F)c5ccc2[nH]5)C=C4)C=C3)cc1
REMARK SMILES IDX 27 1 26 2 25 3 24 4 23 5 22 6 21 7 20 8 18 9 19 10 17 11
REMARK SMILES IDX 11 12 12 13 13 14 16 15 14 16 15 17 10 18 1 19 2 20 3 21
REMARK SMILES IDX 4 22 9 23 5 24 8 25 6 26 7 27 28 28 29 29 30 30 31 31 32 32
REMARK SMILES IDX 33 33 34 34 35 35 36 36 97 37 37 38 96 39 38 40 39 41 40 42
REMARK SMILES IDX 90 43 41 44 95 45 89 46 91 47 42 48 94 49 88 50 87 51 43 53
REMARK SMILES IDX 75 54 55 55 74 56 56 57 59 58 73 59 92 60 57 61 58 62 72 64
REMARK SMILES IDX 93 65 60 66 44 67 45 68 53 69 46 70 47 71 51 72 54 73 48 74
REMARK SMILES IDX 49 75 52 76 50 77 76 78 77 79 85 80 78 81 79 82 83 83 86 84
REMARK SMILES IDX 80 85 81 86 84 87 82 88 61 89 62 90 70 91 63 92 64 93 68 94
REMARK SMILES IDX 71 95 65 96 66 97 69 98 67 99
REMARK H PARENT 91 52 59 63
REMARK Flexibility Score: inf
ROOT
ATOM      1  C   UNL A   1      36.465  22.361  23.999  1.00  0.00     0.188 C 
ENDROOT
BRANCH   1   2
ATOM      2  O   UNL A   1      35.116  21.930  24.096  1.00  0.00    -0.377 OA
BRANCH   2   3
ATOM      3  C   UNL A   1      34.887  20.878  25.022  1.00  0.00     0.188 C 
BRANCH   3   4
ATOM      4  C   UNL A   1      33.450  20.755  25.543  1.00  0.00     0.188 C 
BRANCH   4   5
ATOM      5  O   UNL A   1      33.305  21.213  26.888  1.00  0.00    -0.376 OA
BRANCH   5   6
ATOM      6  C   UNL A   1      33.135  22.617  27.060  1.00  0.00     0.202 C 
BRANCH   6   7
ATOM      7  C   UNL A   1      31.669  23.005  27.238  1.00  0.00     0.261 C 
BRANCH   7   8
ATOM      8  O   UNL A   1      31.078  23.495  26.028  1.00  0.00    -0.460 OA
BRANCH   8   9
ATOM      9  C   UNL A   1      31.224  24.806  25.755  1.00  0.00     0.340 C 
ATOM     10  O   UNL A   1      30.953  25.719  26.522  1.00  0.00    -0.246 OA
BRANCH   9  11
ATOM     11  C   UNL A   1      31.907  25.014  24.450  1.00  0.00     0.086 A 
ATOM     12  C   UNL A   1      32.232  26.267  23.872  1.00  0.00     0.056 A 
ATOM     13  C   UNL A   1      32.908  26.249  22.628  1.00  0.00     0.030 A 
ATOM     14  C   UNL A   1      33.150  25.063  21.933  1.00  0.00     0.041 A 
ATOM     15  C   UNL A   1      32.157  23.822  23.740  1.00  0.00     0.057 A 
ATOM     16  C   UNL A   1      32.747  23.861  22.486  1.00  0.00     0.124 A 
ATOM     17  F   UNL A   1      32.916  22.725  21.798  1.00  0.00    -0.207 F 
BRANCH  12  18
ATOM     18  N   UNL A   1      31.819  27.508  24.390  1.00  0.00    -0.337 N 
ATOM     19  C   UNL A   1      33.693  28.180  25.979  1.00  0.00     0.032 C 
ATOM     20  C   UNL A   1      32.805  28.553  24.801  1.00  0.00     0.089 C 
ATOM     21  C   UNL A   1      31.982  29.822  25.157  1.00  0.00     0.063 C 
ATOM     22  C   UNL A   1      30.768  29.615  24.325  1.00  0.00    -0.022 A 
ATOM     23  C   UNL A   1      30.701  28.277  23.932  1.00  0.00     0.045 A 
ATOM     24  C   UNL A   1      29.789  30.536  23.980  1.00  0.00     0.006 A 
ATOM     25  C   UNL A   1      29.622  27.841  23.173  1.00  0.00     0.026 A 
ATOM     26  C   UNL A   1      28.726  30.102  23.186  1.00  0.00     0.000 A 
ATOM     27  C   UNL A   1      28.644  28.762  22.784  1.00  0.00     0.002 A 
ENDBRANCH  12  18
ENDBRANCH   9  11
ENDBRANCH   8   9
ENDBRANCH   7   8
ENDBRANCH   6   7
ENDBRANCH   5   6
ENDBRANCH   4   5
ENDBRANCH   3   4
ENDBRANCH   2   3
ENDBRANCH   1   2
BRANCH   1  28
ATOM     28  C   UNL A   1      37.279  22.220  25.303  1.00  0.00     0.188 C 
BRANCH  28  29
ATOM     29  O   UNL A   1      38.485  21.460  25.397  1.00  0.00    -0.376 OA
BRANCH  29  30
ATOM     30  C   UNL A   1      38.478  20.061  25.178  1.00  0.00     0.202 C 
BRANCH  30  31
ATOM     31  C   UNL A   1      39.670  19.301  25.775  1.00  0.00     0.261 C 
BRANCH  31  32
ATOM     32  O   UNL A   1      40.877  20.066  25.876  1.00  0.00    -0.460 OA
BRANCH  32  33
ATOM     33  C   UNL A   1      41.357  20.223  27.134  1.00  0.00     0.338 C 
ATOM     34  O   UNL A   1      41.726  19.353  27.904  1.00  0.00    -0.246 OA
BRANCH  33  35
ATOM     35  C   UNL A   1      41.479  21.667  27.429  1.00  0.00     0.060 A 
ATOM     36  C   UNL A   1      42.149  22.121  28.569  1.00  0.00     0.016 A 
ATOM     37  C   UNL A   1      40.929  22.581  26.521  1.00  0.00     0.016 A 
ATOM     38  C   UNL A   1      42.315  23.493  28.770  1.00  0.00     0.010 A 
ATOM     39  C   UNL A   1      41.081  23.952  26.730  1.00  0.00     0.010 A 
ATOM     40  C   UNL A   1      41.808  24.414  27.836  1.00  0.00    -0.014 A 
BRANCH  40  41
ATOM     41  C   UNL A   1      42.233  25.831  27.900  1.00  0.00     0.031 A 
ATOM     42  C   UNL A   1      41.408  26.881  28.568  1.00  0.00     0.074 A 
ATOM     43  C   UNL A   1      43.402  26.152  27.313  1.00  0.00     0.049 A 
ATOM     44  N   UNL A   1      41.711  28.134  28.798  1.00  0.00    -0.248 NA
ATOM     45  C   UNL A   1      40.070  26.487  29.029  1.00  0.00     0.031 C 
ATOM     46  C   UNL A   1      44.258  25.210  26.590  1.00  0.00     0.029 A 
ATOM     47  N   UNL A   1      44.074  27.343  27.236  1.00  0.00    -0.354 N 
ATOM     48  C   UNL A   1      40.616  28.676  29.454  1.00  0.00     0.074 A 
ATOM     49  C   UNL A   1      39.618  27.627  29.541  1.00  0.00     0.031 C 
ATOM     50  C   UNL A   1      45.354  25.852  26.163  1.00  0.00     0.029 A 
ATOM     51  C   UNL A   1      45.274  27.250  26.575  1.00  0.00     0.049 A 
ATOM     52  H   UNL A   1      43.731  28.183  27.616  1.00  0.00     0.167 HD
ATOM     53  C   UNL A   1      40.475  29.928  29.952  1.00  0.00     0.037 A 
ATOM     54  C   UNL A   1      46.214  28.183  26.342  1.00  0.00     0.037 A 
ATOM     55  C   UNL A   1      41.471  30.965  29.840  1.00  0.00     0.049 A 
ATOM     56  C   UNL A   1      46.018  29.571  26.880  1.00  0.00     0.074 A 
ATOM     57  C   UNL A   1      41.449  32.243  30.373  1.00  0.00     0.029 A 
ATOM     58  N   UNL A   1      42.659  30.851  29.131  1.00  0.00    -0.354 N 
ATOM     59  N   UNL A   1      45.028  30.043  27.599  1.00  0.00    -0.248 NA
ATOM     60  C   UNL A   1      47.068  30.552  26.583  1.00  0.00     0.031 C 
ATOM     61  C   UNL A   1      42.598  32.917  29.945  1.00  0.00     0.029 A 
ATOM     62  C   UNL A   1      43.360  32.046  29.183  1.00  0.00     0.049 A 
ATOM     63  H   UNL A   1      42.960  30.040  28.661  1.00  0.00     0.167 HD
ATOM     64  C   UNL A   1      45.341  31.369  27.853  1.00  0.00     0.074 A 
ATOM     65  C   UNL A   1      46.623  31.623  27.226  1.00  0.00     0.031 C 
ATOM     66  C   UNL A   1      44.628  32.291  28.543  1.00  0.00     0.037 A 
BRANCH  53  67
ATOM     67  C   UNL A   1      39.210  30.253  30.690  1.00  0.00     0.064 A 
ATOM     68  C   UNL A   1      39.106  30.048  32.074  1.00  0.00     0.173 A 
ATOM     69  C   UNL A   1      38.131  30.864  30.033  1.00  0.00     0.173 A 
ATOM     70  F   UNL A   1      40.107  29.462  32.748  1.00  0.00    -0.203 F 
ATOM     71  C   UNL A   1      37.964  30.433  32.771  1.00  0.00     0.198 A 
ATOM     72  C   UNL A   1      37.000  31.268  30.738  1.00  0.00     0.198 A 
ATOM     73  F   UNL A   1      38.184  31.091  28.713  1.00  0.00    -0.203 F 
ATOM     74  F   UNL A   1      37.877  30.204  34.089  1.00  0.00    -0.200 F 
ATOM     75  C   UNL A   1      36.917  31.051  32.106  1.00  0.00     0.200 A 
ATOM     76  F   UNL A   1      35.994  31.876  30.096  1.00  0.00    -0.200 F 
ATOM     77  F   UNL A   1      35.825  31.436  32.782  1.00  0.00    -0.200 F 
ENDBRANCH  53  67
BRANCH  54  78
ATOM     78  C   UNL A   1      47.449  27.804  25.614  1.00  0.00     0.064 A 
ATOM     79  C   UNL A   1      48.595  27.400  26.314  1.00  0.00     0.173 A 
ATOM     80  C   UNL A   1      47.497  27.787  24.213  1.00  0.00     0.173 A 
ATOM     81  F   UNL A   1      48.598  27.413  27.655  1.00  0.00    -0.203 F 
ATOM     82  C   UNL A   1      49.744  26.999  25.638  1.00  0.00     0.198 A 
ATOM     83  C   UNL A   1      48.638  27.364  23.539  1.00  0.00     0.198 A 
ATOM     84  F   UNL A   1      46.422  28.157  23.501  1.00  0.00    -0.203 F 
ATOM     85  F   UNL A   1      50.833  26.639  26.329  1.00  0.00    -0.200 F 
ATOM     86  C   UNL A   1      49.763  26.973  24.251  1.00  0.00     0.200 A 
ATOM     87  F   UNL A   1      48.649  27.327  22.199  1.00  0.00    -0.200 F 
ATOM     88  F   UNL A   1      50.864  26.574  23.601  1.00  0.00    -0.200 F 
ENDBRANCH  54  78
BRANCH  66  89
ATOM     89  C   UNL A   1      45.208  33.670  28.653  1.00  0.00     0.064 A 
ATOM     90  C   UNL A   1      44.868  34.676  27.737  1.00  0.00     0.173 A 
ATOM     91  C   UNL A   1      46.056  34.007  29.717  1.00  0.00     0.173 A 
ATOM     92  F   UNL A   1      44.074  34.397  26.693  1.00  0.00    -0.203 F 
ATOM     93  C   UNL A   1      45.364  35.969  27.879  1.00  0.00     0.198 A 
ATOM     94  C   UNL A   1      46.530  35.307  29.871  1.00  0.00     0.198 A 
ATOM     95  F   UNL A   1      46.408  33.079  30.621  1.00  0.00    -0.203 F 
ATOM     96  F   UNL A   1      45.049  36.909  26.977  1.00  0.00    -0.200 F 
ATOM     97  C   UNL A   1      46.186  36.285  28.950  1.00  0.00     0.200 A 
ATOM     98  F   UNL A   1      47.314  35.613  30.913  1.00  0.00    -0.200 F 
ATOM     99  F   UNL A   1      46.648  37.534  29.096  1.00  0.00    -0.200 F 
ENDBRANCH  66  89
ENDBRANCH  40  41
ENDBRANCH  33  35
ENDBRANCH  32  33
ENDBRANCH  31  32
ENDBRANCH  30  31
ENDBRANCH  29  30
ENDBRANCH  28  29
ENDBRANCH   1  28
TORSDOF 21
ENDMDL
