MODEL 1
REMARK VINA RESULT:     -12.4      0.000      0.000
REMARK SMILES O=C(OCCOCCOCCOCCOC(=O)c1ccc(-c2c3nc(c(-c4c(F)c(F)c(F)c(F)c4F)c4ccc([nH]4)c(-c4c(F)c(F)c(F)c(F)c4F)c4nc(c(-c5c(F)c(F)c(F)c(F)c5F)c5ccc2[nH]5)C=C4)C=C3)cc1)C1=Cc2c(Cl)cc(Cl)cc2O[C@@H]1C(F)(F)F
REMARK SMILES IDX 10 1 9 2 8 3 7 4 6 5 5 6 4 7 3 8 2 9 1 10 81 11 82 12 92 13
REMARK SMILES IDX 83 14 91 15 84 16 90 17 85 18 86 19 89 20 87 21 88 22 93 23
REMARK SMILES IDX 94 24 95 25 96 26 11 27 12 28 13 29 14 30 15 31 16 32 17 33
REMARK SMILES IDX 18 34 19 35 80 36 20 37 79 38 21 39 22 40 23 41 73 42 24 43
REMARK SMILES IDX 78 44 72 45 74 46 25 47 77 48 71 49 70 50 26 52 58 53 38 54
REMARK SMILES IDX 57 55 39 56 42 57 56 58 75 59 40 60 41 61 55 63 76 64 43 65
REMARK SMILES IDX 27 66 28 67 36 68 29 69 30 70 34 71 37 72 31 73 32 74 35 75
REMARK SMILES IDX 33 76 59 77 60 78 68 79 61 80 62 81 66 82 69 83 63 84 64 85
REMARK SMILES IDX 67 86 65 87 44 88 45 89 53 90 46 91 47 92 51 93 54 94 48 95
REMARK SMILES IDX 49 96 52 97 50 98
REMARK H PARENT 74 51 42 62
REMARK Flexibility Score: inf
ROOT
ATOM      1  C   UNL A   1      42.475  18.735  25.842  1.00  0.00     0.188 C 
ENDROOT
BRANCH   1   2
ATOM      2  O   UNL A   1      41.548  19.702  25.395  1.00  0.00    -0.377 OA
BRANCH   2   3
ATOM      3  C   UNL A   1      40.656  20.122  26.414  1.00  0.00     0.188 C 
BRANCH   3   4
ATOM      4  C   UNL A   1      40.319  21.628  26.410  1.00  0.00     0.188 C 
BRANCH   4   5
ATOM      5  O   UNL A   1      38.913  21.968  26.444  1.00  0.00    -0.376 OA
BRANCH   5   6
ATOM      6  C   UNL A   1      38.110  23.278  26.028  1.00  0.00     0.202 C 
BRANCH   6   7
ATOM      7  C   UNL A   1      36.414  23.538  24.707  1.00  0.00     0.261 C 
BRANCH   7   8
ATOM      8  O   UNL A   1      34.930  23.707  25.153  1.00  0.00    -0.460 OA
BRANCH   8   9
ATOM      9  C   UNL A   1      34.176  24.351  24.256  1.00  0.00     0.338 C 
ATOM     10  O   UNL A   1      34.373  24.615  23.098  1.00  0.00    -0.246 OA
BRANCH   9  11
ATOM     11  C   UNL A   1      33.233  24.844  25.218  1.00  0.00     0.087 C 
ATOM     12  C   UNL A   1      33.203  26.342  25.165  1.00  0.00     0.029 C 
ATOM     13  C   UNL A   1      31.737  23.694  24.741  1.00  0.00     0.316 C 
ATOM     14  C   UNL A   1      31.805  27.309  24.485  1.00  0.00     0.036 A 
ATOM     15  O   UNL A   1      30.291  24.700  23.969  1.00  0.00    -0.475 OA
ATOM     16  C   UNL A   1      31.840  28.678  24.376  1.00  0.00     0.053 A 
ATOM     17  C   UNL A   1      30.394  26.514  23.877  1.00  0.00     0.130 A 
ATOM     18  Cl  UNL A   1      33.172  29.628  24.882  1.00  0.00    -0.083 Cl
ATOM     19  C   UNL A   1      30.703  29.285  23.805  1.00  0.00     0.042 A 
ATOM     20  C   UNL A   1      29.338  27.177  23.311  1.00  0.00     0.067 A 
ATOM     21  C   UNL A   1      29.527  28.577  23.316  1.00  0.00     0.046 A 
ATOM     22  Cl  UNL A   1      28.242  29.567  22.697  1.00  0.00    -0.084 Cl
BRANCH  13  23
ATOM     23  C   UNL A   1      31.655  22.664  25.945  1.00  0.00     0.430 C 
ATOM     24  F   UNL A   1      32.682  21.793  26.010  1.00  0.00    -0.167 F 
ATOM     25  F   UNL A   1      31.723  23.384  27.101  1.00  0.00    -0.167 F 
ATOM     26  F   UNL A   1      30.504  21.967  26.025  1.00  0.00    -0.167 F 
ENDBRANCH  13  23
ENDBRANCH   9  11
ENDBRANCH   8   9
ENDBRANCH   7   8
ENDBRANCH   6   7
ENDBRANCH   5   6
ENDBRANCH   4   5
ENDBRANCH   3   4
ENDBRANCH   2   3
ENDBRANCH   1   2
BRANCH   1  27
ATOM     27  C   UNL A   1      43.913  18.921  25.342  1.00  0.00     0.188 C 
BRANCH  27  28
ATOM     28  O   UNL A   1      44.198  19.775  24.246  1.00  0.00    -0.376 OA
BRANCH  28  29
ATOM     29  C   UNL A   1      44.863  21.017  24.448  1.00  0.00     0.202 C 
BRANCH  29  30
ATOM     30  C   UNL A   1      44.555  21.860  25.693  1.00  0.00     0.261 C 
BRANCH  30  31
ATOM     31  O   UNL A   1      43.534  22.847  25.486  1.00  0.00    -0.460 OA
BRANCH  31  32
ATOM     32  C   UNL A   1      43.972  24.109  25.283  1.00  0.00     0.338 C 
ATOM     33  O   UNL A   1      44.802  24.485  24.473  1.00  0.00    -0.246 OA
BRANCH  32  34
ATOM     34  C   UNL A   1      43.150  25.049  26.071  1.00  0.00     0.060 A 
ATOM     35  C   UNL A   1      43.325  26.424  25.846  1.00  0.00     0.016 A 
ATOM     36  C   UNL A   1      42.249  24.597  27.036  1.00  0.00     0.016 A 
ATOM     37  C   UNL A   1      42.634  27.356  26.616  1.00  0.00     0.010 A 
ATOM     38  C   UNL A   1      41.589  25.530  27.838  1.00  0.00     0.010 A 
ATOM     39  C   UNL A   1      41.818  26.907  27.658  1.00  0.00    -0.014 A 
BRANCH  39  40
ATOM     40  C   UNL A   1      41.443  27.840  28.743  1.00  0.00     0.031 A 
ATOM     41  C   UNL A   1      42.237  27.771  30.015  1.00  0.00     0.074 A 
ATOM     42  C   UNL A   1      40.416  28.695  28.620  1.00  0.00     0.049 A 
ATOM     43  N   UNL A   1      42.027  28.357  31.164  1.00  0.00    -0.248 NA
ATOM     44  C   UNL A   1      43.428  26.905  29.988  1.00  0.00     0.031 C 
ATOM     45  C   UNL A   1      39.613  28.883  27.417  1.00  0.00     0.029 A 
ATOM     46  N   UNL A   1      39.858  29.544  29.541  1.00  0.00    -0.354 N 
ATOM     47  C   UNL A   1      43.044  27.912  32.000  1.00  0.00     0.074 A 
ATOM     48  C   UNL A   1      43.860  26.998  31.234  1.00  0.00     0.031 C 
ATOM     49  C   UNL A   1      38.632  29.763  27.685  1.00  0.00     0.029 A 
ATOM     50  C   UNL A   1      38.719  30.162  29.090  1.00  0.00     0.049 A 
ATOM     51  H   UNL A   1      40.237  29.695  30.438  1.00  0.00     0.167 HD
ATOM     52  C   UNL A   1      43.269  28.233  33.295  1.00  0.00     0.037 A 
ATOM     53  C   UNL A   1      37.828  30.921  29.756  1.00  0.00     0.037 A 
ATOM     54  C   UNL A   1      42.444  29.136  34.047  1.00  0.00     0.049 A 
ATOM     55  C   UNL A   1      38.057  31.219  31.216  1.00  0.00     0.074 A 
ATOM     56  C   UNL A   1      42.594  29.557  35.355  1.00  0.00     0.029 A 
ATOM     57  N   UNL A   1      41.298  29.746  33.556  1.00  0.00    -0.354 N 
ATOM     58  N   UNL A   1      39.031  30.819  31.999  1.00  0.00    -0.248 NA
ATOM     59  C   UNL A   1      37.065  32.073  31.885  1.00  0.00     0.031 C 
ATOM     60  C   UNL A   1      41.506  30.375  35.674  1.00  0.00     0.029 A 
ATOM     61  C   UNL A   1      40.712  30.515  34.546  1.00  0.00     0.049 A 
ATOM     62  H   UNL A   1      40.954  29.647  32.639  1.00  0.00     0.167 HD
ATOM     63  C   UNL A   1      38.786  31.393  33.241  1.00  0.00     0.074 A 
ATOM     64  C   UNL A   1      37.572  32.170  33.107  1.00  0.00     0.031 C 
ATOM     65  C   UNL A   1      39.506  31.290  34.387  1.00  0.00     0.037 A 
BRANCH  52  66
ATOM     66  C   UNL A   1      44.418  27.555  33.979  1.00  0.00     0.064 A 
ATOM     67  C   UNL A   1      45.727  28.057  33.913  1.00  0.00     0.173 A 
ATOM     68  C   UNL A   1      44.207  26.368  34.698  1.00  0.00     0.173 A 
ATOM     69  F   UNL A   1      45.987  29.176  33.221  1.00  0.00    -0.203 F 
ATOM     70  C   UNL A   1      46.787  27.376  34.507  1.00  0.00     0.198 A 
ATOM     71  C   UNL A   1      45.263  25.708  35.320  1.00  0.00     0.198 A 
ATOM     72  F   UNL A   1      42.976  25.844  34.792  1.00  0.00    -0.203 F 
ATOM     73  F   UNL A   1      48.038  27.839  34.375  1.00  0.00    -0.200 F 
ATOM     74  C   UNL A   1      46.554  26.205  35.214  1.00  0.00     0.200 A 
ATOM     75  F   UNL A   1      45.034  24.582  36.010  1.00  0.00    -0.200 F 
ATOM     76  F   UNL A   1      47.574  25.550  35.783  1.00  0.00    -0.200 F 
ENDBRANCH  52  66
BRANCH  53  77
ATOM     77  C   UNL A   1      36.619  31.417  29.048  1.00  0.00     0.064 A 
ATOM     78  C   UNL A   1      35.541  30.568  28.769  1.00  0.00     0.173 A 
ATOM     79  C   UNL A   1      36.509  32.761  28.659  1.00  0.00     0.173 A 
ATOM     80  F   UNL A   1      35.608  29.270  29.099  1.00  0.00    -0.203 F 
ATOM     81  C   UNL A   1      34.401  31.043  28.123  1.00  0.00     0.198 A 
ATOM     82  C   UNL A   1      35.359  33.241  28.038  1.00  0.00     0.198 A 
ATOM     83  F   UNL A   1      37.514  33.615  28.903  1.00  0.00    -0.203 F 
ATOM     84  F   UNL A   1      33.395  30.204  27.841  1.00  0.00    -0.200 F 
ATOM     85  C   UNL A   1      34.306  32.380  27.767  1.00  0.00     0.200 A 
ATOM     86  F   UNL A   1      35.268  34.536  27.709  1.00  0.00    -0.200 F 
ATOM     87  F   UNL A   1      33.203  32.839  27.161  1.00  0.00    -0.200 F 
ENDBRANCH  53  77
BRANCH  65  88
ATOM     88  C   UNL A   1      39.033  32.066  35.581  1.00  0.00     0.064 A 
ATOM     89  C   UNL A   1      38.267  31.471  36.592  1.00  0.00     0.173 A 
ATOM     90  C   UNL A   1      39.430  33.401  35.755  1.00  0.00     0.173 A 
ATOM     91  F   UNL A   1      37.851  30.201  36.467  1.00  0.00    -0.203 F 
ATOM     92  C   UNL A   1      37.907  32.187  37.731  1.00  0.00     0.198 A 
ATOM     93  C   UNL A   1      39.094  34.106  36.907  1.00  0.00     0.198 A 
ATOM     94  F   UNL A   1      40.172  34.013  34.819  1.00  0.00    -0.203 F 
ATOM     95  F   UNL A   1      37.149  31.609  38.673  1.00  0.00    -0.200 F 
ATOM     96  C   UNL A   1      38.329  33.499  37.892  1.00  0.00     0.200 A 
ATOM     97  F   UNL A   1      39.518  35.365  37.068  1.00  0.00    -0.200 F 
ATOM     98  F   UNL A   1      38.000  34.180  38.999  1.00  0.00    -0.200 F 
ENDBRANCH  65  88
ENDBRANCH  39  40
ENDBRANCH  32  34
ENDBRANCH  31  32
ENDBRANCH  30  31
ENDBRANCH  29  30
ENDBRANCH  28  29
ENDBRANCH  27  28
ENDBRANCH   1  27
TORSDOF 21
ENDMDL
MODEL 2
REMARK VINA RESULT:     -11.9      1.224      2.186
REMARK SMILES O=C(OCCOCCOCCOCCOC(=O)c1ccc(-c2c3nc(c(-c4c(F)c(F)c(F)c(F)c4F)c4ccc([nH]4)c(-c4c(F)c(F)c(F)c(F)c4F)c4nc(c(-c5c(F)c(F)c(F)c(F)c5F)c5ccc2[nH]5)C=C4)C=C3)cc1)C1=Cc2c(Cl)cc(Cl)cc2O[C@@H]1C(F)(F)F
REMARK SMILES IDX 10 1 9 2 8 3 7 4 6 5 5 6 4 7 3 8 2 9 1 10 81 11 82 12 92 13
REMARK SMILES IDX 83 14 91 15 84 16 90 17 85 18 86 19 89 20 87 21 88 22 93 23
REMARK SMILES IDX 94 24 95 25 96 26 11 27 12 28 13 29 14 30 15 31 16 32 17 33
REMARK SMILES IDX 18 34 19 35 80 36 20 37 79 38 21 39 22 40 23 41 73 42 24 43
REMARK SMILES IDX 78 44 72 45 74 46 25 47 77 48 71 49 70 50 26 52 58 53 38 54
REMARK SMILES IDX 57 55 39 56 42 57 56 58 75 59 40 60 41 61 55 63 76 64 43 65
REMARK SMILES IDX 27 66 28 67 36 68 29 69 30 70 34 71 37 72 31 73 32 74 35 75
REMARK SMILES IDX 33 76 59 77 60 78 68 79 61 80 62 81 66 82 69 83 63 84 64 85
REMARK SMILES IDX 67 86 65 87 44 88 45 89 53 90 46 91 47 92 51 93 54 94 48 95
REMARK SMILES IDX 49 96 52 97 50 98
REMARK H PARENT 74 51 42 62
REMARK Flexibility Score: inf
ROOT
ATOM      1  C   UNL A   1      43.566  20.117  25.462  1.00  0.00     0.188 C 
ENDROOT
BRANCH   1   2
ATOM      2  O   UNL A   1      42.516  19.181  25.335  1.00  0.00    -0.377 OA
BRANCH   2   3
ATOM      3  C   UNL A   1      41.916  18.855  26.578  1.00  0.00     0.188 C 
BRANCH   3   4
ATOM      4  C   UNL A   1      41.410  20.060  27.398  1.00  0.00     0.188 C 
BRANCH   4   5
ATOM      5  O   UNL A   1      40.110  20.580  27.032  1.00  0.00    -0.376 OA
BRANCH   5   6
ATOM      6  C   UNL A   1      39.635  21.612  25.917  1.00  0.00     0.202 C 
BRANCH   6   7
ATOM      7  C   UNL A   1      37.708  21.882  24.968  1.00  0.00     0.261 C 
BRANCH   7   8
ATOM      8  O   UNL A   1      36.424  22.436  25.657  1.00  0.00    -0.460 OA
BRANCH   8   9
ATOM      9  C   UNL A   1      35.628  23.118  24.828  1.00  0.00     0.338 C 
ATOM     10  O   UNL A   1      35.884  23.882  23.933  1.00  0.00    -0.246 OA
BRANCH   9  11
ATOM     11  C   UNL A   1      34.424  22.848  25.561  1.00  0.00     0.087 C 
ATOM     12  C   UNL A   1      33.853  24.137  26.072  1.00  0.00     0.029 C 
ATOM     13  C   UNL A   1      33.560  21.704  24.245  1.00  0.00     0.316 C 
ATOM     14  C   UNL A   1      32.329  24.907  25.412  1.00  0.00     0.036 A 
ATOM     15  O   UNL A   1      31.993  22.539  23.505  1.00  0.00    -0.475 OA
ATOM     16  C   UNL A   1      31.874  26.128  25.846  1.00  0.00     0.053 A 
ATOM     17  C   UNL A   1      31.433  24.147  24.143  1.00  0.00     0.130 A 
ATOM     18  Cl  UNL A   1      32.657  27.047  27.061  1.00  0.00    -0.083 Cl
ATOM     19  C   UNL A   1      30.703  26.611  25.226  1.00  0.00     0.042 A 
ATOM     20  C   UNL A   1      30.315  24.696  23.573  1.00  0.00     0.067 A 
ATOM     21  C   UNL A   1      29.970  25.931  24.167  1.00  0.00     0.046 A 
ATOM     22  Cl  UNL A   1      28.532  26.722  23.604  1.00  0.00    -0.084 Cl
BRANCH  13  23
ATOM     23  C   UNL A   1      33.667  20.254  24.879  1.00  0.00     0.430 C 
ATOM     24  F   UNL A   1      32.997  20.096  26.038  1.00  0.00    -0.167 F 
ATOM     25  F   UNL A   1      33.080  19.385  24.007  1.00  0.00    -0.167 F 
ATOM     26  F   UNL A   1      34.923  19.795  25.051  1.00  0.00    -0.167 F 
ENDBRANCH  13  23
ENDBRANCH   9  11
ENDBRANCH   8   9
ENDBRANCH   7   8
ENDBRANCH   6   7
ENDBRANCH   5   6
ENDBRANCH   4   5
ENDBRANCH   3   4
ENDBRANCH   2   3
ENDBRANCH   1   2
BRANCH   1  27
ATOM     27  C   UNL A   1      44.767  19.887  24.535  1.00  0.00     0.188 C 
BRANCH  27  28
ATOM     28  O   UNL A   1      46.072  20.288  24.920  1.00  0.00    -0.376 OA
BRANCH  28  29
ATOM     29  C   UNL A   1      46.332  21.632  25.311  1.00  0.00     0.202 C 
BRANCH  29  30
ATOM     30  C   UNL A   1      45.622  22.790  24.596  1.00  0.00     0.261 C 
BRANCH  30  31
ATOM     31  O   UNL A   1      44.710  23.515  25.434  1.00  0.00    -0.460 OA
BRANCH  31  32
ATOM     32  C   UNL A   1      43.476  23.715  24.921  1.00  0.00     0.338 C 
ATOM     33  O   UNL A   1      42.924  23.072  24.045  1.00  0.00    -0.246 OA
BRANCH  32  34
ATOM     34  C   UNL A   1      42.771  24.740  25.716  1.00  0.00     0.060 A 
ATOM     35  C   UNL A   1      43.157  26.080  25.553  1.00  0.00     0.016 A 
ATOM     36  C   UNL A   1      41.774  24.395  26.629  1.00  0.00     0.016 A 
ATOM     37  C   UNL A   1      42.580  27.078  26.335  1.00  0.00     0.010 A 
ATOM     38  C   UNL A   1      41.226  25.387  27.444  1.00  0.00     0.010 A 
ATOM     39  C   UNL A   1      41.664  26.720  27.328  1.00  0.00    -0.014 A 
BRANCH  39  40
ATOM     40  C   UNL A   1      41.387  27.661  28.435  1.00  0.00     0.031 A 
ATOM     41  C   UNL A   1      42.257  27.563  29.655  1.00  0.00     0.074 A 
ATOM     42  C   UNL A   1      40.380  28.547  28.379  1.00  0.00     0.049 A 
ATOM     43  N   UNL A   1      42.138  28.152  30.816  1.00  0.00    -0.248 NA
ATOM     44  C   UNL A   1      43.417  26.662  29.552  1.00  0.00     0.031 C 
ATOM     45  C   UNL A   1      39.509  28.762  27.229  1.00  0.00     0.029 A 
ATOM     46  N   UNL A   1      39.908  29.410  29.335  1.00  0.00    -0.354 N 
ATOM     47  C   UNL A   1      43.191  27.674  31.585  1.00  0.00     0.074 A 
ATOM     48  C   UNL A   1      43.929  26.737  30.769  1.00  0.00     0.031 C 
ATOM     49  C   UNL A   1      38.575  29.671  27.560  1.00  0.00     0.029 A 
ATOM     50  C   UNL A   1      38.762  30.063  28.957  1.00  0.00     0.049 A 
ATOM     51  H   UNL A   1      40.347  29.546  30.206  1.00  0.00     0.167 HD
ATOM     52  C   UNL A   1      43.507  27.983  32.863  1.00  0.00     0.037 A 
ATOM     53  C   UNL A   1      37.939  30.847  29.679  1.00  0.00     0.037 A 
ATOM     54  C   UNL A   1      42.760  28.909  33.668  1.00  0.00     0.049 A 
ATOM     55  C   UNL A   1      38.269  31.133  31.121  1.00  0.00     0.074 A 
ATOM     56  C   UNL A   1      43.005  29.320  34.964  1.00  0.00     0.029 A 
ATOM     57  N   UNL A   1      41.603  29.555  33.250  1.00  0.00    -0.354 N 
ATOM     58  N   UNL A   1      39.277  30.701  31.841  1.00  0.00    -0.248 NA
ATOM     59  C   UNL A   1      37.347  32.015  31.853  1.00  0.00     0.031 C 
ATOM     60  C   UNL A   1      41.964  30.171  35.352  1.00  0.00     0.029 A 
ATOM     61  C   UNL A   1      41.106  30.338  34.277  1.00  0.00     0.049 A 
ATOM     62  H   UNL A   1      41.199  29.469  32.357  1.00  0.00     0.167 HD
ATOM     63  C   UNL A   1      39.129  31.278  33.097  1.00  0.00     0.074 A 
ATOM     64  C   UNL A   1      37.933  32.092  33.041  1.00  0.00     0.031 C 
ATOM     65  C   UNL A   1      39.916  31.149  34.195  1.00  0.00     0.037 A 
BRANCH  52  66
ATOM     66  C   UNL A   1      44.676  27.268  33.473  1.00  0.00     0.064 A 
ATOM     67  C   UNL A   1      45.987  27.758  33.369  1.00  0.00     0.173 A 
ATOM     68  C   UNL A   1      44.481  26.059  34.157  1.00  0.00     0.173 A 
ATOM     69  F   UNL A   1      46.231  28.899  32.707  1.00  0.00    -0.203 F 
ATOM     70  C   UNL A   1      47.063  27.044  33.892  1.00  0.00     0.198 A 
ATOM     71  C   UNL A   1      45.554  25.364  34.709  1.00  0.00     0.198 A 
ATOM     72  F   UNL A   1      43.249  25.544  34.285  1.00  0.00    -0.203 F 
ATOM     73  F   UNL A   1      48.312  27.499  33.723  1.00  0.00    -0.200 F 
ATOM     74  C   UNL A   1      46.845  25.852  34.566  1.00  0.00     0.200 A 
ATOM     75  F   UNL A   1      45.341  24.217  35.367  1.00  0.00    -0.200 F 
ATOM     76  F   UNL A   1      47.881  25.165  35.067  1.00  0.00    -0.200 F 
ENDBRANCH  52  66
BRANCH  53  77
ATOM     77  C   UNL A   1      36.703  31.382  29.049  1.00  0.00     0.064 A 
ATOM     78  C   UNL A   1      36.583  32.738  28.721  1.00  0.00     0.173 A 
ATOM     79  C   UNL A   1      35.625  30.537  28.742  1.00  0.00     0.173 A 
ATOM     80  F   UNL A   1      37.576  33.589  29.017  1.00  0.00    -0.203 F 
ATOM     81  C   UNL A   1      35.429  33.230  28.113  1.00  0.00     0.198 A 
ATOM     82  C   UNL A   1      34.484  31.025  28.111  1.00  0.00     0.198 A 
ATOM     83  F   UNL A   1      35.690  29.230  29.037  1.00  0.00    -0.203 F 
ATOM     84  F   UNL A   1      35.327  34.537  27.835  1.00  0.00    -0.200 F 
ATOM     85  C   UNL A   1      34.385  32.373  27.799  1.00  0.00     0.200 A 
ATOM     86  F   UNL A   1      33.484  30.190  27.798  1.00  0.00    -0.200 F 
ATOM     87  F   UNL A   1      33.284  32.845  27.200  1.00  0.00    -0.200 F 
ENDBRANCH  53  77
BRANCH  65  88
ATOM     88  C   UNL A   1      39.542  31.936  35.417  1.00  0.00     0.064 A 
ATOM     89  C   UNL A   1      40.020  33.235  35.634  1.00  0.00     0.173 A 
ATOM     90  C   UNL A   1      38.621  31.411  36.337  1.00  0.00     0.173 A 
ATOM     91  F   UNL A   1      40.911  33.778  34.790  1.00  0.00    -0.203 F 
ATOM     92  C   UNL A   1      39.596  33.978  36.733  1.00  0.00     0.198 A 
ATOM     93  C   UNL A   1      38.177  32.166  37.419  1.00  0.00     0.198 A 
ATOM     94  F   UNL A   1      38.128  30.175  36.169  1.00  0.00    -0.203 F 
ATOM     95  F   UNL A   1      40.087  35.208  36.938  1.00  0.00    -0.200 F 
ATOM     96  C   UNL A   1      38.668  33.448  37.617  1.00  0.00     0.200 A 
ATOM     97  F   UNL A   1      37.268  31.658  38.261  1.00  0.00    -0.200 F 
ATOM     98  F   UNL A   1      38.246  34.172  38.663  1.00  0.00    -0.200 F 
ENDBRANCH  65  88
ENDBRANCH  39  40
ENDBRANCH  32  34
ENDBRANCH  31  32
ENDBRANCH  30  31
ENDBRANCH  29  30
ENDBRANCH  28  29
ENDBRANCH  27  28
ENDBRANCH   1  27
TORSDOF 21
ENDMDL
MODEL 3
REMARK VINA RESULT:     -11.4      4.591      9.227
REMARK SMILES O=C(OCCOCCOCCOCCOC(=O)c1ccc(-c2c3nc(c(-c4c(F)c(F)c(F)c(F)c4F)c4ccc([nH]4)c(-c4c(F)c(F)c(F)c(F)c4F)c4nc(c(-c5c(F)c(F)c(F)c(F)c5F)c5ccc2[nH]5)C=C4)C=C3)cc1)C1=Cc2c(Cl)cc(Cl)cc2O[C@@H]1C(F)(F)F
REMARK SMILES IDX 10 1 9 2 8 3 7 4 6 5 5 6 4 7 3 8 2 9 1 10 81 11 82 12 92 13
REMARK SMILES IDX 83 14 91 15 84 16 90 17 85 18 86 19 89 20 87 21 88 22 93 23
REMARK SMILES IDX 94 24 95 25 96 26 11 27 12 28 13 29 14 30 15 31 16 32 17 33
REMARK SMILES IDX 18 34 19 35 80 36 20 37 79 38 21 39 22 40 23 41 73 42 24 43
REMARK SMILES IDX 78 44 72 45 74 46 25 47 77 48 71 49 70 50 26 52 58 53 38 54
REMARK SMILES IDX 57 55 39 56 42 57 56 58 75 59 40 60 41 61 55 63 76 64 43 65
REMARK SMILES IDX 27 66 28 67 36 68 29 69 30 70 34 71 37 72 31 73 32 74 35 75
REMARK SMILES IDX 33 76 59 77 60 78 68 79 61 80 62 81 66 82 69 83 63 84 64 85
REMARK SMILES IDX 67 86 65 87 44 88 45 89 53 90 46 91 47 92 51 93 54 94 48 95
REMARK SMILES IDX 49 96 52 97 50 98
REMARK H PARENT 74 51 42 62
REMARK Flexibility Score: inf
ROOT
ATOM      1  C   UNL A   1      33.989  18.018  24.306  1.00  0.00     0.188 C 
ENDROOT
BRANCH   1   2
ATOM      2  O   UNL A   1      33.209  18.926  25.055  1.00  0.00    -0.377 OA
BRANCH   2   3
ATOM      3  C   UNL A   1      32.507  19.851  24.241  1.00  0.00     0.188 C 
BRANCH   3   4
ATOM      4  C   UNL A   1      33.148  21.250  24.137  1.00  0.00     0.188 C 
BRANCH   4   5
ATOM      5  O   UNL A   1      32.687  22.084  23.049  1.00  0.00    -0.376 OA
BRANCH   5   6
ATOM      6  C   UNL A   1      33.276  23.401  22.375  1.00  0.00     0.202 C 
BRANCH   6   7
ATOM      7  C   UNL A   1      34.026  25.230  23.260  1.00  0.00     0.261 C 
BRANCH   7   8
ATOM      8  O   UNL A   1      33.540  25.858  24.601  1.00  0.00    -0.460 OA
BRANCH   8   9
ATOM      9  C   UNL A   1      33.573  25.004  25.630  1.00  0.00     0.338 C 
ATOM     10  O   UNL A   1      34.253  24.031  25.830  1.00  0.00    -0.246 OA
BRANCH   9  11
ATOM     11  C   UNL A   1      32.358  25.480  26.226  1.00  0.00     0.087 C 
ATOM     12  C   UNL A   1      32.302  26.975  26.116  1.00  0.00     0.029 C 
ATOM     13  C   UNL A   1      31.128  24.263  25.335  1.00  0.00     0.316 C 
ATOM     14  C   UNL A   1      31.165  27.871  24.996  1.00  0.00     0.036 A 
ATOM     15  O   UNL A   1      29.975  25.195  24.111  1.00  0.00    -0.475 OA
ATOM     16  C   UNL A   1      31.192  29.238  24.859  1.00  0.00     0.053 A 
ATOM     17  C   UNL A   1      30.046  27.009  23.997  1.00  0.00     0.130 A 
ATOM     18  Cl  UNL A   1      32.263  30.250  25.731  1.00  0.00    -0.083 Cl
ATOM     19  C   UNL A   1      30.278  29.788  23.937  1.00  0.00     0.042 A 
ATOM     20  C   UNL A   1      29.206  27.618  23.104  1.00  0.00     0.067 A 
ATOM     21  C   UNL A   1      29.342  29.024  23.123  1.00  0.00     0.046 A 
ATOM     22  Cl  UNL A   1      28.292  29.950  22.096  1.00  0.00    -0.084 Cl
BRANCH  13  23
ATOM     23  C   UNL A   1      30.698  23.256  26.484  1.00  0.00     0.430 C 
ATOM     24  F   UNL A   1      31.562  23.178  27.515  1.00  0.00    -0.167 F 
ATOM     25  F   UNL A   1      29.539  23.729  27.024  1.00  0.00    -0.167 F 
ATOM     26  F   UNL A   1      30.416  22.004  26.072  1.00  0.00    -0.167 F 
ENDBRANCH  13  23
ENDBRANCH   9  11
ENDBRANCH   8   9
ENDBRANCH   7   8
ENDBRANCH   6   7
ENDBRANCH   5   6
ENDBRANCH   4   5
ENDBRANCH   3   4
ENDBRANCH   2   3
ENDBRANCH   1   2
BRANCH   1  27
ATOM     27  C   UNL A   1      35.489  18.017  24.629  1.00  0.00     0.188 C 
BRANCH  27  28
ATOM     28  O   UNL A   1      36.225  19.228  24.672  1.00  0.00    -0.376 OA
BRANCH  28  29
ATOM     29  C   UNL A   1      37.610  19.224  25.002  1.00  0.00     0.202 C 
BRANCH  29  30
ATOM     30  C   UNL A   1      38.363  20.550  25.174  1.00  0.00     0.261 C 
BRANCH  30  31
ATOM     31  O   UNL A   1      39.206  20.589  26.335  1.00  0.00    -0.460 OA
BRANCH  31  32
ATOM     32  C   UNL A   1      40.448  20.083  26.175  1.00  0.00     0.338 C 
ATOM     33  O   UNL A   1      40.750  18.980  25.751  1.00  0.00    -0.246 OA
BRANCH  32  34
ATOM     34  C   UNL A   1      41.448  21.143  26.411  1.00  0.00     0.060 A 
ATOM     35  C   UNL A   1      41.908  21.333  27.724  1.00  0.00     0.016 A 
ATOM     36  C   UNL A   1      41.905  21.958  25.375  1.00  0.00     0.016 A 
ATOM     37  C   UNL A   1      42.790  22.370  28.017  1.00  0.00     0.010 A 
ATOM     38  C   UNL A   1      42.756  23.023  25.673  1.00  0.00     0.010 A 
ATOM     39  C   UNL A   1      43.160  23.256  27.001  1.00  0.00    -0.014 A 
BRANCH  39  40
ATOM     40  C   UNL A   1      43.710  24.582  27.357  1.00  0.00     0.031 A 
ATOM     41  C   UNL A   1      42.742  25.618  27.854  1.00  0.00     0.074 A 
ATOM     42  C   UNL A   1      45.013  24.872  27.215  1.00  0.00     0.049 A 
ATOM     43  N   UNL A   1      42.926  26.890  28.087  1.00  0.00    -0.248 NA
ATOM     44  C   UNL A   1      41.369  25.150  28.109  1.00  0.00     0.031 C 
ATOM     45  C   UNL A   1      46.045  23.932  26.792  1.00  0.00     0.029 A 
ATOM     46  N   UNL A   1      45.678  26.060  27.384  1.00  0.00    -0.354 N 
ATOM     47  C   UNL A   1      41.690  27.377  28.491  1.00  0.00     0.074 A 
ATOM     48  C   UNL A   1      40.761  26.271  28.459  1.00  0.00     0.031 C 
ATOM     49  C   UNL A   1      47.214  24.590  26.693  1.00  0.00     0.029 A 
ATOM     50  C   UNL A   1      46.994  26.004  27.004  1.00  0.00     0.049 A 
ATOM     51  H   UNL A   1      45.251  26.872  27.743  1.00  0.00     0.167 HD
ATOM     52  C   UNL A   1      41.360  28.639  28.849  1.00  0.00     0.037 A 
ATOM     53  C   UNL A   1      47.898  26.993  26.877  1.00  0.00     0.037 A 
ATOM     54  C   UNL A   1      42.291  29.732  28.868  1.00  0.00     0.049 A 
ATOM     55  C   UNL A   1      47.499  28.406  27.219  1.00  0.00     0.074 A 
ATOM     56  C   UNL A   1      42.074  31.045  29.241  1.00  0.00     0.029 A 
ATOM     57  N   UNL A   1      43.620  29.638  28.477  1.00  0.00    -0.354 N 
ATOM     58  N   UNL A   1      46.338  28.863  27.625  1.00  0.00    -0.248 NA
ATOM     59  C   UNL A   1      48.534  29.442  27.085  1.00  0.00     0.031 C 
ATOM     60  C   UNL A   1      43.257  31.759  29.020  1.00  0.00     0.029 A 
ATOM     61  C   UNL A   1      44.227  30.878  28.570  1.00  0.00     0.049 A 
ATOM     62  H   UNL A   1      44.064  28.811  28.180  1.00  0.00     0.167 HD
ATOM     63  C   UNL A   1      46.508  30.228  27.822  1.00  0.00     0.074 A 
ATOM     64  C   UNL A   1      47.886  30.526  27.491  1.00  0.00     0.031 C 
ATOM     65  C   UNL A   1      45.606  31.149  28.244  1.00  0.00     0.037 A 
BRANCH  52  66
ATOM     66  C   UNL A   1      39.923  28.901  29.190  1.00  0.00     0.064 A 
ATOM     67  C   UNL A   1      39.434  28.780  30.500  1.00  0.00     0.173 A 
ATOM     68  C   UNL A   1      39.015  29.261  28.182  1.00  0.00     0.173 A 
ATOM     69  F   UNL A   1      40.255  28.418  31.497  1.00  0.00    -0.203 F 
ATOM     70  C   UNL A   1      38.082  28.970  30.781  1.00  0.00     0.198 A 
ATOM     71  C   UNL A   1      37.672  29.484  28.471  1.00  0.00     0.198 A 
ATOM     72  F   UNL A   1      39.429  29.389  26.913  1.00  0.00    -0.203 F 
ATOM     73  F   UNL A   1      37.626  28.785  32.027  1.00  0.00    -0.200 F 
ATOM     74  C   UNL A   1      37.204  29.327  29.768  1.00  0.00     0.200 A 
ATOM     75  F   UNL A   1      36.827  29.836  27.493  1.00  0.00    -0.200 F 
ATOM     76  F   UNL A   1      35.904  29.507  30.039  1.00  0.00    -0.200 F 
ENDBRANCH  52  66
BRANCH  53  77
ATOM     77  C   UNL A   1      49.258  26.679  26.366  1.00  0.00     0.064 A 
ATOM     78  C   UNL A   1      49.582  26.840  25.013  1.00  0.00     0.173 A 
ATOM     79  C   UNL A   1      50.269  26.232  27.231  1.00  0.00     0.173 A 
ATOM     80  F   UNL A   1      48.643  27.242  24.144  1.00  0.00    -0.203 F 
ATOM     81  C   UNL A   1      50.865  26.563  24.543  1.00  0.00     0.198 A 
ATOM     82  C   UNL A   1      51.558  25.980  26.766  1.00  0.00     0.198 A 
ATOM     83  F   UNL A   1      50.010  26.060  28.536  1.00  0.00    -0.203 F 
ATOM     84  F   UNL A   1      51.142  26.698  23.240  1.00  0.00    -0.200 F 
ATOM     85  C   UNL A   1      51.853  26.143  25.421  1.00  0.00     0.200 A 
ATOM     86  F   UNL A   1      52.512  25.588  27.620  1.00  0.00    -0.200 F 
ATOM     87  F   UNL A   1      53.090  25.892  24.970  1.00  0.00    -0.200 F 
ENDBRANCH  53  77
BRANCH  65  88
ATOM     88  C   UNL A   1      46.081  32.562  28.418  1.00  0.00     0.064 A 
ATOM     89  C   UNL A   1      46.623  33.015  29.628  1.00  0.00     0.173 A 
ATOM     90  C   UNL A   1      46.075  33.446  27.327  1.00  0.00     0.173 A 
ATOM     91  F   UNL A   1      46.641  32.213  30.703  1.00  0.00    -0.203 F 
ATOM     92  C   UNL A   1      47.134  34.306  29.743  1.00  0.00     0.198 A 
ATOM     93  C   UNL A   1      46.612  34.725  27.437  1.00  0.00     0.198 A 
ATOM     94  F   UNL A   1      45.575  33.057  26.145  1.00  0.00    -0.203 F 
ATOM     95  F   UNL A   1      47.621  34.730  30.917  1.00  0.00    -0.200 F 
ATOM     96  C   UNL A   1      47.137  35.155  28.646  1.00  0.00     0.200 A 
ATOM     97  F   UNL A   1      46.630  35.536  26.371  1.00  0.00    -0.200 F 
ATOM     98  F   UNL A   1      47.648  36.390  28.753  1.00  0.00    -0.200 F 
ENDBRANCH  65  88
ENDBRANCH  39  40
ENDBRANCH  32  34
ENDBRANCH  31  32
ENDBRANCH  30  31
ENDBRANCH  29  30
ENDBRANCH  28  29
ENDBRANCH  27  28
ENDBRANCH   1  27
TORSDOF 21
ENDMDL
