MODEL 1
REMARK VINA RESULT:     -10.4      0.000      0.000
REMARK SMILES O=C(OCCOCCOCCOCCOC(=O)c1nn(Cc2ccc(F)cc2)c2ccccc12)c1ccc(-c2c3nc(c(-c4c(F)c(F)c(F)c(F)c4F)c4ccc([nH]4)c(-c4c(F)c(F)c(F)c(F)c4F)c4nc(c(-c5c(F)c(F)c(F)c(F)c5F)c5ccc2[nH]5)C=C4)C=C3)cc1
REMARK SMILES IDX 9 1 8 2 7 3 6 4 5 5 4 6 3 7 2 8 1 9 35 10 36 11 97 12 37 13
REMARK SMILES IDX 96 14 38 15 39 16 40 17 90 18 41 19 95 20 89 21 91 22 42 23
REMARK SMILES IDX 94 24 88 25 87 26 43 28 75 29 55 30 74 31 56 32 59 33 73 34
REMARK SMILES IDX 92 35 57 36 58 37 72 39 93 40 60 41 44 42 45 43 53 44 46 45
REMARK SMILES IDX 47 46 51 47 54 48 48 49 49 50 52 51 50 52 76 53 77 54 85 55
REMARK SMILES IDX 78 56 79 57 83 58 86 59 80 60 81 61 84 62 82 63 61 64 62 65
REMARK SMILES IDX 70 66 63 67 64 68 68 69 71 70 65 71 66 72 69 73 67 74 10 75
REMARK SMILES IDX 11 76 12 77 13 78 14 79 15 80 16 81 17 82 18 83 19 84 34 85
REMARK SMILES IDX 20 86 29 87 33 88 30 89 32 90 31 91 21 92 22 93 23 94 28 95
REMARK SMILES IDX 24 96 27 97 25 98 26 99
REMARK H PARENT 91 27 59 38
REMARK Flexibility Score: inf
ROOT
ATOM      1  O   UNL A   1      35.640  23.744  25.980  1.00  0.00    -0.377 OA
ENDROOT
BRANCH   1   2
ATOM      2  C   UNL A   1      36.053  23.987  24.633  1.00  0.00     0.188 C 
BRANCH   2   3
ATOM      3  C   UNL A   1      36.079  22.739  23.753  1.00  0.00     0.188 C 
BRANCH   3   4
ATOM      4  O   UNL A   1      37.308  22.052  23.913  1.00  0.00    -0.376 OA
BRANCH   4   5
ATOM      5  C   UNL A   1      37.313  20.954  24.807  1.00  0.00     0.202 C 
BRANCH   5   6
ATOM      6  C   UNL A   1      38.615  20.963  25.602  1.00  0.00     0.261 C 
BRANCH   6   7
ATOM      7  O   UNL A   1      38.825  22.253  26.218  1.00  0.00    -0.460 OA
BRANCH   7   8
ATOM      8  C   UNL A   1      39.869  22.328  27.092  1.00  0.00     0.338 C 
ATOM      9  O   UNL A   1      40.460  21.373  27.564  1.00  0.00    -0.246 OA
BRANCH   8  10
ATOM     10  C   UNL A   1      40.092  23.760  27.467  1.00  0.00     0.060 A 
ATOM     11  C   UNL A   1      39.172  24.753  27.095  1.00  0.00     0.016 A 
ATOM     12  C   UNL A   1      41.306  24.142  28.046  1.00  0.00     0.016 A 
ATOM     13  C   UNL A   1      39.482  26.117  27.281  1.00  0.00     0.010 A 
ATOM     14  C   UNL A   1      41.649  25.484  28.139  1.00  0.00     0.010 A 
ATOM     15  C   UNL A   1      40.742  26.490  27.767  1.00  0.00    -0.014 A 
BRANCH  15  16
ATOM     16  C   UNL A   1      41.083  27.815  28.310  1.00  0.00     0.031 A 
ATOM     17  C   UNL A   1      42.350  28.279  27.753  1.00  0.00     0.074 A 
ATOM     18  C   UNL A   1      40.579  28.606  29.287  1.00  0.00     0.049 A 
ATOM     19  N   UNL A   1      43.434  28.203  28.452  1.00  0.00    -0.248 NA
ATOM     20  C   UNL A   1      42.535  28.670  26.357  1.00  0.00     0.031 C 
ATOM     21  C   UNL A   1      39.808  28.209  30.433  1.00  0.00     0.029 A 
ATOM     22  N   UNL A   1      40.579  29.993  29.416  1.00  0.00    -0.354 N 
ATOM     23  C   UNL A   1      44.341  28.915  27.721  1.00  0.00     0.074 A 
ATOM     24  C   UNL A   1      43.843  28.950  26.364  1.00  0.00     0.031 C 
ATOM     25  C   UNL A   1      39.136  29.249  30.955  1.00  0.00     0.029 A 
ATOM     26  C   UNL A   1      39.531  30.448  30.236  1.00  0.00     0.049 A 
ATOM     27  H   UNL A   1      41.234  30.586  28.983  1.00  0.00     0.167 HD
ATOM     28  C   UNL A   1      45.135  29.784  28.392  1.00  0.00     0.037 A 
ATOM     29  C   UNL A   1      39.368  31.630  30.873  1.00  0.00     0.037 A 
ATOM     30  C   UNL A   1      45.192  29.539  29.813  1.00  0.00     0.049 A 
ATOM     31  C   UNL A   1      40.600  31.856  31.661  1.00  0.00     0.074 A 
ATOM     32  C   UNL A   1      45.814  28.613  30.624  1.00  0.00     0.029 A 
ATOM     33  N   UNL A   1      44.186  30.096  30.563  1.00  0.00    -0.354 N 
ATOM     34  N   UNL A   1      41.000  31.140  32.678  1.00  0.00    -0.248 NA
ATOM     35  C   UNL A   1      41.598  32.739  31.069  1.00  0.00     0.031 C 
ATOM     36  C   UNL A   1      45.186  28.673  31.902  1.00  0.00     0.029 A 
ATOM     37  C   UNL A   1      44.194  29.643  31.865  1.00  0.00     0.049 A 
ATOM     38  H   UNL A   1      43.535  30.746  30.212  1.00  0.00     0.167 HD
ATOM     39  C   UNL A   1      42.374  31.137  32.535  1.00  0.00     0.074 A 
ATOM     40  C   UNL A   1      42.689  32.254  31.656  1.00  0.00     0.031 C 
ATOM     41  C   UNL A   1      43.121  30.022  32.769  1.00  0.00     0.037 A 
BRANCH  28  42
ATOM     42  C   UNL A   1      45.469  31.099  27.786  1.00  0.00     0.064 A 
ATOM     43  C   UNL A   1      44.481  32.070  27.615  1.00  0.00     0.173 A 
ATOM     44  C   UNL A   1      46.732  31.360  27.208  1.00  0.00     0.173 A 
ATOM     45  F   UNL A   1      43.234  31.853  28.053  1.00  0.00    -0.203 F 
ATOM     46  C   UNL A   1      44.762  33.266  26.954  1.00  0.00     0.198 A 
ATOM     47  C   UNL A   1      47.029  32.577  26.615  1.00  0.00     0.198 A 
ATOM     48  F   UNL A   1      47.678  30.410  27.140  1.00  0.00    -0.203 F 
ATOM     49  F   UNL A   1      43.783  34.158  26.751  1.00  0.00    -0.200 F 
ATOM     50  C   UNL A   1      46.040  33.530  26.480  1.00  0.00     0.200 A 
ATOM     51  F   UNL A   1      48.262  32.799  26.138  1.00  0.00    -0.200 F 
ATOM     52  F   UNL A   1      46.307  34.683  25.855  1.00  0.00    -0.200 F 
ENDBRANCH  28  42
BRANCH  29  53
ATOM     53  C   UNL A   1      38.092  32.363  31.044  1.00  0.00     0.064 A 
ATOM     54  C   UNL A   1      37.544  33.138  30.010  1.00  0.00     0.173 A 
ATOM     55  C   UNL A   1      37.266  32.139  32.165  1.00  0.00     0.173 A 
ATOM     56  F   UNL A   1      38.253  33.390  28.900  1.00  0.00    -0.203 F 
ATOM     57  C   UNL A   1      36.230  33.614  30.068  1.00  0.00     0.198 A 
ATOM     58  C   UNL A   1      35.955  32.620  32.223  1.00  0.00     0.198 A 
ATOM     59  F   UNL A   1      37.693  31.384  33.188  1.00  0.00    -0.203 F 
ATOM     60  F   UNL A   1      35.722  34.293  29.030  1.00  0.00    -0.200 F 
ATOM     61  C   UNL A   1      35.431  33.341  31.165  1.00  0.00     0.200 A 
ATOM     62  F   UNL A   1      35.182  32.334  33.282  1.00  0.00    -0.200 F 
ATOM     63  F   UNL A   1      34.151  33.738  31.187  1.00  0.00    -0.200 F 
ENDBRANCH  29  53
BRANCH  41  64
ATOM     64  C   UNL A   1      42.786  29.146  33.938  1.00  0.00     0.064 A 
ATOM     65  C   UNL A   1      42.028  27.969  33.898  1.00  0.00     0.173 A 
ATOM     66  C   UNL A   1      43.337  29.503  35.181  1.00  0.00     0.173 A 
ATOM     67  F   UNL A   1      41.480  27.530  32.762  1.00  0.00    -0.203 F 
ATOM     68  C   UNL A   1      41.844  27.183  35.039  1.00  0.00     0.198 A 
ATOM     69  C   UNL A   1      43.174  28.708  36.313  1.00  0.00     0.198 A 
ATOM     70  F   UNL A   1      44.068  30.623  35.297  1.00  0.00    -0.203 F 
ATOM     71  F   UNL A   1      41.120  26.056  34.963  1.00  0.00    -0.200 F 
ATOM     72  C   UNL A   1      42.427  27.546  36.242  1.00  0.00     0.200 A 
ATOM     73  F   UNL A   1      43.759  29.059  37.466  1.00  0.00    -0.200 F 
ATOM     74  F   UNL A   1      42.280  26.770  37.325  1.00  0.00    -0.200 F 
ENDBRANCH  41  64
ENDBRANCH  15  16
ENDBRANCH   8  10
ENDBRANCH   7   8
ENDBRANCH   6   7
ENDBRANCH   5   6
ENDBRANCH   4   5
ENDBRANCH   3   4
ENDBRANCH   2   3
ENDBRANCH   1   2
BRANCH   1  75
ATOM     75  C   UNL A   1      34.241  23.553  26.217  1.00  0.00     0.188 C 
BRANCH  75  76
ATOM     76  C   UNL A   1      33.861  22.572  27.325  1.00  0.00     0.188 C 
BRANCH  76  77
ATOM     77  O   UNL A   1      32.534  22.798  27.772  1.00  0.00    -0.376 OA
BRANCH  77  78
ATOM     78  C   UNL A   1      31.547  22.606  26.798  1.00  0.00     0.202 C 
BRANCH  78  79
ATOM     79  C   UNL A   1      30.412  23.628  26.877  1.00  0.00     0.261 C 
BRANCH  79  80
ATOM     80  O   UNL A   1      29.907  24.386  25.749  1.00  0.00    -0.458 OA
BRANCH  80  81
ATOM     81  C   UNL A   1      30.536  24.671  24.583  1.00  0.00     0.359 C 
ATOM     82  O   UNL A   1      30.841  23.875  23.720  1.00  0.00    -0.244 OA
BRANCH  81  83
ATOM     83  C   UNL A   1      30.768  26.098  24.393  1.00  0.00     0.178 A 
ATOM     84  N   UNL A   1      31.961  26.642  24.698  1.00  0.00    -0.164 NA
ATOM     85  C   UNL A   1      29.856  27.075  23.923  1.00  0.00     0.035 A 
ATOM     86  N   UNL A   1      31.849  27.920  24.300  1.00  0.00    -0.260 N 
ATOM     87  C   UNL A   1      30.569  28.273  23.945  1.00  0.00     0.070 A 
ATOM     88  C   UNL A   1      28.514  27.073  23.502  1.00  0.00     0.013 A 
ATOM     89  C   UNL A   1      29.979  29.492  23.589  1.00  0.00     0.028 A 
ATOM     90  C   UNL A   1      27.923  28.277  23.119  1.00  0.00     0.001 A 
ATOM     91  C   UNL A   1      28.643  29.468  23.173  1.00  0.00     0.002 A 
BRANCH  86  92
ATOM     92  C   UNL A   1      33.064  28.719  24.196  1.00  0.00     0.180 C 
BRANCH  92  93
ATOM     93  C   UNL A   1      33.406  29.345  25.532  1.00  0.00    -0.026 A 
ATOM     94  C   UNL A   1      32.625  30.395  26.045  1.00  0.00     0.008 A 
ATOM     95  C   UNL A   1      34.541  28.932  26.253  1.00  0.00     0.008 A 
ATOM     96  C   UNL A   1      32.975  31.028  27.236  1.00  0.00     0.039 A 
ATOM     97  C   UNL A   1      34.879  29.559  27.457  1.00  0.00     0.039 A 
ATOM     98  C   UNL A   1      34.097  30.604  27.932  1.00  0.00     0.123 A 
ATOM     99  F   UNL A   1      34.432  31.215  29.076  1.00  0.00    -0.207 F 
ENDBRANCH  92  93
ENDBRANCH  86  92
ENDBRANCH  81  83
ENDBRANCH  80  81
ENDBRANCH  79  80
ENDBRANCH  78  79
ENDBRANCH  77  78
ENDBRANCH  76  77
ENDBRANCH  75  76
ENDBRANCH   1  75
TORSDOF 22
ENDMDL
MODEL 2
REMARK VINA RESULT:      -9.9      4.957      9.154
REMARK SMILES O=C(OCCOCCOCCOCCOC(=O)c1nn(Cc2ccc(F)cc2)c2ccccc12)c1ccc(-c2c3nc(c(-c4c(F)c(F)c(F)c(F)c4F)c4ccc([nH]4)c(-c4c(F)c(F)c(F)c(F)c4F)c4nc(c(-c5c(F)c(F)c(F)c(F)c5F)c5ccc2[nH]5)C=C4)C=C3)cc1
REMARK SMILES IDX 9 1 8 2 7 3 6 4 5 5 4 6 3 7 2 8 1 9 35 10 36 11 97 12 37 13
REMARK SMILES IDX 96 14 38 15 39 16 40 17 90 18 41 19 95 20 89 21 91 22 42 23
REMARK SMILES IDX 94 24 88 25 87 26 43 28 75 29 55 30 74 31 56 32 59 33 73 34
REMARK SMILES IDX 92 35 57 36 58 37 72 39 93 40 60 41 44 42 45 43 53 44 46 45
REMARK SMILES IDX 47 46 51 47 54 48 48 49 49 50 52 51 50 52 76 53 77 54 85 55
REMARK SMILES IDX 78 56 79 57 83 58 86 59 80 60 81 61 84 62 82 63 61 64 62 65
REMARK SMILES IDX 70 66 63 67 64 68 68 69 71 70 65 71 66 72 69 73 67 74 10 75
REMARK SMILES IDX 11 76 12 77 13 78 14 79 15 80 16 81 17 82 18 83 19 84 34 85
REMARK SMILES IDX 20 86 29 87 33 88 30 89 32 90 31 91 21 92 22 93 23 94 28 95
REMARK SMILES IDX 24 96 27 97 25 98 26 99
REMARK H PARENT 91 27 59 38
REMARK Flexibility Score: inf
ROOT
ATOM      1  O   UNL A   1      44.200  21.214  24.660  1.00  0.00    -0.377 OA
ENDROOT
BRANCH   1   2
ATOM      2  C   UNL A   1      44.431  22.398  25.427  1.00  0.00     0.188 C 
BRANCH   2   3
ATOM      3  C   UNL A   1      44.117  23.696  24.685  1.00  0.00     0.188 C 
BRANCH   3   4
ATOM      4  O   UNL A   1      45.271  24.516  24.624  1.00  0.00    -0.376 OA
BRANCH   4   5
ATOM      5  C   UNL A   1      45.403  25.507  25.627  1.00  0.00     0.202 C 
BRANCH   5   6
ATOM      6  C   UNL A   1      45.940  26.788  24.997  1.00  0.00     0.261 C 
BRANCH   6   7
ATOM      7  O   UNL A   1      45.003  27.874  25.177  1.00  0.00    -0.460 OA
BRANCH   7   8
ATOM      8  C   UNL A   1      45.541  29.055  25.593  1.00  0.00     0.338 C 
ATOM      9  O   UNL A   1      46.418  29.671  25.015  1.00  0.00    -0.246 OA
BRANCH   8  10
ATOM     10  C   UNL A   1      44.966  29.411  26.930  1.00  0.00     0.060 A 
ATOM     11  C   UNL A   1      43.713  30.036  27.031  1.00  0.00     0.016 A 
ATOM     12  C   UNL A   1      45.751  29.275  28.079  1.00  0.00     0.016 A 
ATOM     13  C   UNL A   1      43.267  30.541  28.270  1.00  0.00     0.010 A 
ATOM     14  C   UNL A   1      45.354  29.857  29.275  1.00  0.00     0.010 A 
ATOM     15  C   UNL A   1      44.105  30.490  29.392  1.00  0.00    -0.014 A 
BRANCH  15  16
ATOM     16  C   UNL A   1      43.668  30.669  30.786  1.00  0.00     0.031 A 
ATOM     17  C   UNL A   1      43.654  29.385  31.480  1.00  0.00     0.074 A 
ATOM     18  C   UNL A   1      43.152  31.696  31.501  1.00  0.00     0.049 A 
ATOM     19  N   UNL A   1      42.537  28.762  31.674  1.00  0.00    -0.248 NA
ATOM     20  C   UNL A   1      44.856  28.629  31.827  1.00  0.00     0.031 C 
ATOM     21  C   UNL A   1      42.433  32.840  31.010  1.00  0.00     0.029 A 
ATOM     22  N   UNL A   1      43.243  31.985  32.861  1.00  0.00    -0.354 N 
ATOM     23  C   UNL A   1      42.876  27.749  32.524  1.00  0.00     0.074 A 
ATOM     24  C   UNL A   1      44.300  27.546  32.379  1.00  0.00     0.031 C 
ATOM     25  C   UNL A   1      42.431  33.839  31.908  1.00  0.00     0.029 A 
ATOM     26  C   UNL A   1      43.061  33.354  33.124  1.00  0.00     0.049 A 
ATOM     27  H   UNL A   1      43.414  31.310  33.556  1.00  0.00     0.167 HD
ATOM     28  C   UNL A   1      42.055  27.521  33.577  1.00  0.00     0.037 A 
ATOM     29  C   UNL A   1      42.748  33.990  34.277  1.00  0.00     0.037 A 
ATOM     30  C   UNL A   1      40.742  28.102  33.425  1.00  0.00     0.049 A 
ATOM     31  C   UNL A   1      41.531  33.332  34.802  1.00  0.00     0.074 A 
ATOM     32  C   UNL A   1      39.611  27.794  32.698  1.00  0.00     0.029 A 
ATOM     33  N   UNL A   1      40.618  29.419  33.794  1.00  0.00    -0.354 N 
ATOM     34  N   UNL A   1      40.350  33.348  34.243  1.00  0.00    -0.248 NA
ATOM     35  C   UNL A   1      41.731  32.333  35.845  1.00  0.00     0.031 C 
ATOM     36  C   UNL A   1      38.780  28.951  32.691  1.00  0.00     0.029 A 
ATOM     37  C   UNL A   1      39.403  29.953  33.423  1.00  0.00     0.049 A 
ATOM     38  H   UNL A   1      41.317  29.924  34.270  1.00  0.00     0.167 HD
ATOM     39  C   UNL A   1      39.855  32.090  34.527  1.00  0.00     0.074 A 
ATOM     40  C   UNL A   1      40.650  31.585  35.636  1.00  0.00     0.031 C 
ATOM     41  C   UNL A   1      39.148  31.371  33.611  1.00  0.00     0.037 A 
BRANCH  28  42
ATOM     42  C   UNL A   1      42.630  27.161  34.899  1.00  0.00     0.064 A 
ATOM     43  C   UNL A   1      42.366  25.916  35.470  1.00  0.00     0.173 A 
ATOM     44  C   UNL A   1      43.313  28.103  35.701  1.00  0.00     0.173 A 
ATOM     45  F   UNL A   1      41.643  25.005  34.804  1.00  0.00    -0.203 F 
ATOM     46  C   UNL A   1      42.815  25.609  36.754  1.00  0.00     0.198 A 
ATOM     47  C   UNL A   1      43.820  27.773  36.948  1.00  0.00     0.198 A 
ATOM     48  F   UNL A   1      43.433  29.386  35.323  1.00  0.00    -0.203 F 
ATOM     49  F   UNL A   1      42.500  24.429  37.303  1.00  0.00    -0.200 F 
ATOM     50  C   UNL A   1      43.565  26.525  37.480  1.00  0.00     0.200 A 
ATOM     51  F   UNL A   1      44.515  28.683  37.644  1.00  0.00    -0.200 F 
ATOM     52  F   UNL A   1      44.003  26.222  38.708  1.00  0.00    -0.200 F 
ENDBRANCH  28  42
BRANCH  29  53
ATOM     53  C   UNL A   1      43.282  35.296  34.728  1.00  0.00     0.064 A 
ATOM     54  C   UNL A   1      44.358  35.382  35.624  1.00  0.00     0.173 A 
ATOM     55  C   UNL A   1      42.882  36.500  34.111  1.00  0.00     0.173 A 
ATOM     56  F   UNL A   1      44.814  34.284  36.245  1.00  0.00    -0.203 F 
ATOM     57  C   UNL A   1      45.031  36.587  35.850  1.00  0.00     0.198 A 
ATOM     58  C   UNL A   1      43.552  37.705  34.342  1.00  0.00     0.198 A 
ATOM     59  F   UNL A   1      41.884  36.511  33.216  1.00  0.00    -0.203 F 
ATOM     60  F   UNL A   1      46.096  36.612  36.663  1.00  0.00    -0.200 F 
ATOM     61  C   UNL A   1      44.639  37.743  35.196  1.00  0.00     0.200 A 
ATOM     62  F   UNL A   1      43.178  38.816  33.690  1.00  0.00    -0.200 F 
ATOM     63  F   UNL A   1      45.329  38.881  35.360  1.00  0.00    -0.200 F 
ENDBRANCH  29  53
BRANCH  41  64
ATOM     64  C   UNL A   1      38.142  32.069  32.748  1.00  0.00     0.064 A 
ATOM     65  C   UNL A   1      38.240  32.274  31.365  1.00  0.00     0.173 A 
ATOM     66  C   UNL A   1      36.958  32.502  33.370  1.00  0.00     0.173 A 
ATOM     67  F   UNL A   1      39.313  31.878  30.676  1.00  0.00    -0.203 F 
ATOM     68  C   UNL A   1      37.202  32.868  30.642  1.00  0.00     0.198 A 
ATOM     69  C   UNL A   1      35.914  33.073  32.646  1.00  0.00     0.198 A 
ATOM     70  F   UNL A   1      36.797  32.346  34.694  1.00  0.00    -0.203 F 
ATOM     71  F   UNL A   1      37.325  33.041  29.317  1.00  0.00    -0.200 F 
ATOM     72  C   UNL A   1      36.035  33.255  31.280  1.00  0.00     0.200 A 
ATOM     73  F   UNL A   1      34.783  33.426  33.271  1.00  0.00    -0.200 F 
ATOM     74  F   UNL A   1      35.027  33.791  30.578  1.00  0.00    -0.200 F 
ENDBRANCH  41  64
ENDBRANCH  15  16
ENDBRANCH   8  10
ENDBRANCH   7   8
ENDBRANCH   6   7
ENDBRANCH   5   6
ENDBRANCH   4   5
ENDBRANCH   3   4
ENDBRANCH   2   3
ENDBRANCH   1   2
BRANCH   1  75
ATOM     75  C   UNL A   1      44.514  19.959  25.274  1.00  0.00     0.188 C 
BRANCH  75  76
ATOM     76  C   UNL A   1      43.405  18.907  25.290  1.00  0.00     0.188 C 
BRANCH  76  77
ATOM     77  O   UNL A   1      43.088  18.523  26.618  1.00  0.00    -0.376 OA
BRANCH  77  78
ATOM     78  C   UNL A   1      42.278  19.430  27.312  1.00  0.00     0.202 C 
BRANCH  78  79
ATOM     79  C   UNL A   1      41.210  20.082  26.435  1.00  0.00     0.261 C 
BRANCH  79  80
ATOM     80  O   UNL A   1      41.194  21.482  26.060  1.00  0.00    -0.458 OA
BRANCH  80  81
ATOM     81  C   UNL A   1      40.434  22.479  26.577  1.00  0.00     0.359 C 
ATOM     82  O   UNL A   1      39.238  22.439  26.772  1.00  0.00    -0.244 OA
BRANCH  81  83
ATOM     83  C   UNL A   1      41.214  23.646  26.972  1.00  0.00     0.178 A 
ATOM     84  N   UNL A   1      41.101  24.804  26.296  1.00  0.00    -0.164 NA
ATOM     85  C   UNL A   1      42.159  23.748  28.023  1.00  0.00     0.035 A 
ATOM     86  N   UNL A   1      41.861  25.665  26.992  1.00  0.00    -0.260 N 
ATOM     87  C   UNL A   1      42.622  25.061  27.964  1.00  0.00     0.070 A 
ATOM     88  C   UNL A   1      42.675  22.872  28.995  1.00  0.00     0.013 A 
ATOM     89  C   UNL A   1      43.618  25.535  28.827  1.00  0.00     0.028 A 
ATOM     90  C   UNL A   1      43.647  23.340  29.880  1.00  0.00     0.001 A 
ATOM     91  C   UNL A   1      44.117  24.647  29.788  1.00  0.00     0.002 A 
BRANCH  86  92
ATOM     92  C   UNL A   1      41.718  27.090  26.717  1.00  0.00     0.180 C 
BRANCH  92  93
ATOM     93  C   UNL A   1      40.580  27.677  27.527  1.00  0.00    -0.026 A 
ATOM     94  C   UNL A   1      39.992  26.935  28.566  1.00  0.00     0.008 A 
ATOM     95  C   UNL A   1      40.053  28.943  27.218  1.00  0.00     0.008 A 
ATOM     96  C   UNL A   1      38.896  27.434  29.267  1.00  0.00     0.039 A 
ATOM     97  C   UNL A   1      38.963  29.448  27.935  1.00  0.00     0.039 A 
ATOM     98  C   UNL A   1      38.392  28.686  28.947  1.00  0.00     0.123 A 
ATOM     99  F   UNL A   1      37.338  29.163  29.622  1.00  0.00    -0.207 F 
ENDBRANCH  92  93
ENDBRANCH  86  92
ENDBRANCH  81  83
ENDBRANCH  80  81
ENDBRANCH  79  80
ENDBRANCH  78  79
ENDBRANCH  77  78
ENDBRANCH  76  77
ENDBRANCH  75  76
ENDBRANCH   1  75
TORSDOF 22
ENDMDL
MODEL 3
REMARK VINA RESULT:      -9.8      2.165      7.279
REMARK SMILES O=C(OCCOCCOCCOCCOC(=O)c1nn(Cc2ccc(F)cc2)c2ccccc12)c1ccc(-c2c3nc(c(-c4c(F)c(F)c(F)c(F)c4F)c4ccc([nH]4)c(-c4c(F)c(F)c(F)c(F)c4F)c4nc(c(-c5c(F)c(F)c(F)c(F)c5F)c5ccc2[nH]5)C=C4)C=C3)cc1
REMARK SMILES IDX 9 1 8 2 7 3 6 4 5 5 4 6 3 7 2 8 1 9 35 10 36 11 97 12 37 13
REMARK SMILES IDX 96 14 38 15 39 16 40 17 90 18 41 19 95 20 89 21 91 22 42 23
REMARK SMILES IDX 94 24 88 25 87 26 43 28 75 29 55 30 74 31 56 32 59 33 73 34
REMARK SMILES IDX 92 35 57 36 58 37 72 39 93 40 60 41 44 42 45 43 53 44 46 45
REMARK SMILES IDX 47 46 51 47 54 48 48 49 49 50 52 51 50 52 76 53 77 54 85 55
REMARK SMILES IDX 78 56 79 57 83 58 86 59 80 60 81 61 84 62 82 63 61 64 62 65
REMARK SMILES IDX 70 66 63 67 64 68 68 69 71 70 65 71 66 72 69 73 67 74 10 75
REMARK SMILES IDX 11 76 12 77 13 78 14 79 15 80 16 81 17 82 18 83 19 84 34 85
REMARK SMILES IDX 20 86 29 87 33 88 30 89 32 90 31 91 21 92 22 93 23 94 28 95
REMARK SMILES IDX 24 96 27 97 25 98 26 99
REMARK H PARENT 91 27 59 38
REMARK Flexibility Score: inf
ROOT
ATOM      1  O   UNL A   1      33.834  20.789  26.491  1.00  0.00    -0.377 OA
ENDROOT
BRANCH   1   2
ATOM      2  C   UNL A   1      33.805  22.123  27.001  1.00  0.00     0.188 C 
BRANCH   2   3
ATOM      3  C   UNL A   1      34.617  23.124  26.180  1.00  0.00     0.188 C 
BRANCH   3   4
ATOM      4  O   UNL A   1      35.964  23.141  26.622  1.00  0.00    -0.376 OA
BRANCH   4   5
ATOM      5  C   UNL A   1      36.949  22.758  25.679  1.00  0.00     0.202 C 
BRANCH   5   6
ATOM      6  C   UNL A   1      38.000  23.858  25.580  1.00  0.00     0.261 C 
BRANCH   6   7
ATOM      7  O   UNL A   1      38.365  24.333  26.896  1.00  0.00    -0.460 OA
BRANCH   7   8
ATOM      8  C   UNL A   1      39.669  24.694  27.054  1.00  0.00     0.338 C 
ATOM      9  O   UNL A   1      40.627  24.067  26.638  1.00  0.00    -0.246 OA
BRANCH   8  10
ATOM     10  C   UNL A   1      39.739  25.915  27.917  1.00  0.00     0.060 A 
ATOM     11  C   UNL A   1      38.840  26.978  27.733  1.00  0.00     0.016 A 
ATOM     12  C   UNL A   1      40.810  26.077  28.801  1.00  0.00     0.016 A 
ATOM     13  C   UNL A   1      39.032  28.199  28.414  1.00  0.00     0.010 A 
ATOM     14  C   UNL A   1      41.051  27.309  29.395  1.00  0.00     0.010 A 
ATOM     15  C   UNL A   1      40.164  28.384  29.219  1.00  0.00    -0.014 A 
BRANCH  15  16
ATOM     16  C   UNL A   1      40.326  29.447  30.223  1.00  0.00     0.031 A 
ATOM     17  C   UNL A   1      39.044  30.093  30.486  1.00  0.00     0.074 A 
ATOM     18  C   UNL A   1      41.384  30.040  30.826  1.00  0.00     0.049 A 
ATOM     19  N   UNL A   1      38.773  31.242  29.958  1.00  0.00    -0.248 NA
ATOM     20  C   UNL A   1      37.928  29.446  31.175  1.00  0.00     0.031 C 
ATOM     21  C   UNL A   1      42.735  30.132  30.345  1.00  0.00     0.029 A 
ATOM     22  N   UNL A   1      41.493  30.629  32.083  1.00  0.00    -0.354 N 
ATOM     23  C   UNL A   1      37.625  31.625  30.589  1.00  0.00     0.074 A 
ATOM     24  C   UNL A   1      37.015  30.420  31.107  1.00  0.00     0.031 C 
ATOM     25  C   UNL A   1      43.592  30.406  31.342  1.00  0.00     0.029 A 
ATOM     26  C   UNL A   1      42.819  30.635  32.551  1.00  0.00     0.049 A 
ATOM     27  H   UNL A   1      40.732  30.997  32.586  1.00  0.00     0.167 HD
ATOM     28  C   UNL A   1      37.552  32.906  31.022  1.00  0.00     0.037 A 
ATOM     29  C   UNL A   1      43.402  31.374  33.523  1.00  0.00     0.037 A 
ATOM     30  C   UNL A   1      38.516  33.784  30.402  1.00  0.00     0.049 A 
ATOM     31  C   UNL A   1      43.094  32.789  33.216  1.00  0.00     0.074 A 
ATOM     32  C   UNL A   1      38.640  34.389  29.169  1.00  0.00     0.029 A 
ATOM     33  N   UNL A   1      39.764  33.810  30.973  1.00  0.00    -0.354 N 
ATOM     34  N   UNL A   1      43.524  33.458  32.180  1.00  0.00    -0.248 NA
ATOM     35  C   UNL A   1      41.982  33.386  33.947  1.00  0.00     0.031 C 
ATOM     36  C   UNL A   1      39.990  34.829  29.043  1.00  0.00     0.029 A 
ATOM     37  C   UNL A   1      40.676  34.501  30.204  1.00  0.00     0.049 A 
ATOM     38  H   UNL A   1      39.983  33.385  31.835  1.00  0.00     0.167 HD
ATOM     39  C   UNL A   1      42.453  34.275  31.872  1.00  0.00     0.074 A 
ATOM     40  C   UNL A   1      41.622  34.317  33.066  1.00  0.00     0.031 C 
ATOM     41  C   UNL A   1      42.078  34.518  30.585  1.00  0.00     0.037 A 
BRANCH  28  42
ATOM     42  C   UNL A   1      36.904  33.211  32.324  1.00  0.00     0.064 A 
ATOM     43  C   UNL A   1      35.767  34.020  32.376  1.00  0.00     0.173 A 
ATOM     44  C   UNL A   1      37.491  32.850  33.557  1.00  0.00     0.173 A 
ATOM     45  F   UNL A   1      35.210  34.479  31.247  1.00  0.00    -0.203 F 
ATOM     46  C   UNL A   1      35.214  34.396  33.600  1.00  0.00     0.198 A 
ATOM     47  C   UNL A   1      36.900  33.165  34.771  1.00  0.00     0.198 A 
ATOM     48  F   UNL A   1      38.692  32.252  33.610  1.00  0.00    -0.203 F 
ATOM     49  F   UNL A   1      34.158  35.220  33.626  1.00  0.00    -0.200 F 
ATOM     50  C   UNL A   1      35.763  33.946  34.793  1.00  0.00     0.200 A 
ATOM     51  F   UNL A   1      37.463  32.745  35.912  1.00  0.00    -0.200 F 
ATOM     52  F   UNL A   1      35.221  34.301  35.965  1.00  0.00    -0.200 F 
ENDBRANCH  28  42
BRANCH  29  53
ATOM     53  C   UNL A   1      44.431  30.906  34.479  1.00  0.00     0.064 A 
ATOM     54  C   UNL A   1      44.092  30.442  35.759  1.00  0.00     0.173 A 
ATOM     55  C   UNL A   1      45.766  30.699  34.071  1.00  0.00     0.173 A 
ATOM     56  F   UNL A   1      42.842  30.583  36.224  1.00  0.00    -0.203 F 
ATOM     57  C   UNL A   1      45.014  29.762  36.561  1.00  0.00     0.198 A 
ATOM     58  C   UNL A   1      46.688  30.024  34.876  1.00  0.00     0.198 A 
ATOM     59  F   UNL A   1      46.174  31.080  32.852  1.00  0.00    -0.203 F 
ATOM     60  F   UNL A   1      44.630  29.275  37.750  1.00  0.00    -0.200 F 
ATOM     61  C   UNL A   1      46.305  29.538  36.113  1.00  0.00     0.200 A 
ATOM     62  F   UNL A   1      47.930  29.795  34.426  1.00  0.00    -0.200 F 
ATOM     63  F   UNL A   1      47.165  28.825  36.854  1.00  0.00    -0.200 F 
ENDBRANCH  29  53
BRANCH  41  64
ATOM     64  C   UNL A   1      43.131  34.740  29.543  1.00  0.00     0.064 A 
ATOM     65  C   UNL A   1      43.588  33.795  28.614  1.00  0.00     0.173 A 
ATOM     66  C   UNL A   1      43.668  36.036  29.444  1.00  0.00     0.173 A 
ATOM     67  F   UNL A   1      43.124  32.543  28.607  1.00  0.00    -0.203 F 
ATOM     68  C   UNL A   1      44.520  34.135  27.629  1.00  0.00     0.198 A 
ATOM     69  C   UNL A   1      44.579  36.380  28.449  1.00  0.00     0.198 A 
ATOM     70  F   UNL A   1      43.284  36.990  30.307  1.00  0.00    -0.203 F 
ATOM     71  F   UNL A   1      44.927  33.208  26.749  1.00  0.00    -0.200 F 
ATOM     72  C   UNL A   1      45.005  35.429  27.539  1.00  0.00     0.200 A 
ATOM     73  F   UNL A   1      45.027  37.640  28.361  1.00  0.00    -0.200 F 
ATOM     74  F   UNL A   1      45.871  35.760  26.571  1.00  0.00    -0.200 F 
ENDBRANCH  41  64
ENDBRANCH  15  16
ENDBRANCH   8  10
ENDBRANCH   7   8
ENDBRANCH   6   7
ENDBRANCH   5   6
ENDBRANCH   4   5
ENDBRANCH   3   4
ENDBRANCH   2   3
ENDBRANCH   1   2
BRANCH   1  75
ATOM     75  C   UNL A   1      33.914  20.626  25.071  1.00  0.00     0.188 C 
BRANCH  75  76
ATOM     76  C   UNL A   1      32.588  20.520  24.317  1.00  0.00     0.188 C 
BRANCH  76  77
ATOM     77  O   UNL A   1      32.544  21.433  23.233  1.00  0.00    -0.376 OA
BRANCH  77  78
ATOM     78  C   UNL A   1      31.427  22.277  23.223  1.00  0.00     0.202 C 
BRANCH  78  79
ATOM     79  C   UNL A   1      31.594  23.513  24.108  1.00  0.00     0.261 C 
BRANCH  79  80
ATOM     80  O   UNL A   1      31.008  23.668  25.425  1.00  0.00    -0.458 OA
BRANCH  80  81
ATOM     81  C   UNL A   1      30.425  24.770  25.958  1.00  0.00     0.359 C 
ATOM     82  O   UNL A   1      29.597  24.783  26.844  1.00  0.00    -0.244 OA
BRANCH  81  83
ATOM     83  C   UNL A   1      30.948  26.015  25.410  1.00  0.00     0.178 A 
ATOM     84  N   UNL A   1      32.159  26.469  25.783  1.00  0.00    -0.164 NA
ATOM     85  C   UNL A   1      30.322  26.896  24.494  1.00  0.00     0.035 A 
ATOM     86  N   UNL A   1      32.354  27.552  25.013  1.00  0.00    -0.260 N 
ATOM     87  C   UNL A   1      31.236  27.933  24.311  1.00  0.00     0.070 A 
ATOM     88  C   UNL A   1      29.087  26.932  23.823  1.00  0.00     0.013 A 
ATOM     89  C   UNL A   1      30.950  29.037  23.498  1.00  0.00     0.028 A 
ATOM     90  C   UNL A   1      28.801  28.012  22.988  1.00  0.00     0.001 A 
ATOM     91  C   UNL A   1      29.715  29.052  22.838  1.00  0.00     0.002 A 
BRANCH  86  92
ATOM     92  C   UNL A   1      33.699  28.110  24.934  1.00  0.00     0.180 C 
BRANCH  92  93
ATOM     93  C   UNL A   1      33.915  29.136  26.027  1.00  0.00    -0.026 A 
ATOM     94  C   UNL A   1      35.020  29.032  26.889  1.00  0.00     0.008 A 
ATOM     95  C   UNL A   1      32.987  30.170  26.240  1.00  0.00     0.008 A 
ATOM     96  C   UNL A   1      35.187  29.925  27.946  1.00  0.00     0.039 A 
ATOM     97  C   UNL A   1      33.167  31.075  27.291  1.00  0.00     0.039 A 
ATOM     98  C   UNL A   1      34.260  30.939  28.137  1.00  0.00     0.123 A 
ATOM     99  F   UNL A   1      34.423  31.796  29.154  1.00  0.00    -0.207 F 
ENDBRANCH  92  93
ENDBRANCH  86  92
ENDBRANCH  81  83
ENDBRANCH  80  81
ENDBRANCH  79  80
ENDBRANCH  78  79
ENDBRANCH  77  78
ENDBRANCH  76  77
ENDBRANCH  75  76
ENDBRANCH   1  75
TORSDOF 22
ENDMDL
