MODEL 1
REMARK VINA RESULT:     -10.4      0.000      0.000
REMARK SMILES CC(C)[C@H]1CC[C@@H](C)C/C1=C(\F)C(=O)OCCOCCOCCOCCOC(=O)c1ccc(-c2c3nc(c(-c4c(F)c(F)c(F)c(F)c4F)c4ccc([nH]4)c(-c4c(F)c(F)c(F)c(F)c4F)c4nc(c(-c5c(F)c(F)c(F)c(F)c5F)c5ccc2[nH]5)C=C4)C=C3)cc1
REMARK SMILES IDX 22 1 21 2 20 3 19 4 18 5 17 6 16 7 15 8 13 9 14 10 11 11
REMARK SMILES IDX 4 12 5 13 10 14 6 15 9 16 7 17 12 18 8 19 2 20 1 21 3 22
REMARK SMILES IDX 23 23 24 24 25 25 26 26 27 27 28 28 29 29 30 30 31 31 92 32
REMARK SMILES IDX 32 33 91 34 33 35 34 36 35 37 85 38 36 39 90 40 84 41 86 42
REMARK SMILES IDX 37 43 89 44 83 45 82 46 38 48 70 49 50 50 69 51 51 52 54 53
REMARK SMILES IDX 68 54 87 55 52 56 53 57 67 59 88 60 55 61 39 62 40 63 48 64
REMARK SMILES IDX 41 65 42 66 46 67 49 68 43 69 44 70 47 71 45 72 71 73 72 74
REMARK SMILES IDX 80 75 73 76 74 77 78 78 81 79 75 80 76 81 79 82 77 83 56 84
REMARK SMILES IDX 57 85 65 86 58 87 59 88 63 89 66 90 60 91 61 92 64 93 62 94
REMARK H PARENT 86 47 54 58
REMARK Flexibility Score: inf
ROOT
ATOM      1  C   UNL A   1      34.447  29.501  27.362  1.00  0.00     0.188 C 
ENDROOT
BRANCH   1   2
ATOM      2  O   UNL A   1      34.336  28.894  26.086  1.00  0.00    -0.377 OA
BRANCH   2   3
ATOM      3  C   UNL A   1      33.211  28.049  25.871  1.00  0.00     0.188 C 
BRANCH   3   4
ATOM      4  C   UNL A   1      32.267  28.323  24.694  1.00  0.00     0.188 C 
BRANCH   4   5
ATOM      5  O   UNL A   1      31.044  27.591  24.801  1.00  0.00    -0.376 OA
BRANCH   5   6
ATOM      6  C   UNL A   1      31.043  26.698  25.916  1.00  0.00     0.202 C 
BRANCH   6   7
ATOM      7  C   UNL A   1      30.487  25.327  25.516  1.00  0.00     0.261 C 
BRANCH   7   8
ATOM      8  O   UNL A   1      31.506  24.323  25.333  1.00  0.00    -0.458 OA
BRANCH   8   9
ATOM      9  C   UNL A   1      32.055  23.757  26.444  1.00  0.00     0.367 C 
ATOM     10  O   UNL A   1      31.425  23.366  27.411  1.00  0.00    -0.243 OA
BRANCH   9  11
ATOM     11  C   UNL A   1      33.536  23.722  26.244  1.00  0.00     0.207 C 
ATOM     12  C   UNL A   1      34.286  21.195  25.868  1.00  0.00     0.021 C 
ATOM     13  C   UNL A   1      35.295  20.633  24.821  1.00  0.00     0.009 C 
ATOM     14  C   UNL A   1      34.440  22.730  26.044  1.00  0.00    -0.023 C 
ATOM     15  C   UNL A   1      36.729  21.100  25.019  1.00  0.00     0.004 C 
ATOM     16  C   UNL A   1      35.911  23.174  26.123  1.00  0.00     0.038 C 
ATOM     17  C   UNL A   1      36.829  22.620  25.029  1.00  0.00    -0.010 C 
ATOM     18  F   UNL A   1      34.030  24.990  26.317  1.00  0.00    -0.199 F 
ATOM     19  C   UNL A   1      36.539  23.237  23.658  1.00  0.00     0.008 C 
BRANCH  12  20
ATOM     20  C   UNL A   1      32.880  20.592  25.557  1.00  0.00    -0.010 C 
ATOM     21  C   UNL A   1      32.381  20.919  24.148  1.00  0.00     0.008 C 
ATOM     22  C   UNL A   1      32.826  19.067  25.739  1.00  0.00     0.008 C 
ENDBRANCH  12  20
ENDBRANCH   9  11
ENDBRANCH   8   9
ENDBRANCH   7   8
ENDBRANCH   6   7
ENDBRANCH   5   6
ENDBRANCH   4   5
ENDBRANCH   3   4
ENDBRANCH   2   3
ENDBRANCH   1   2
BRANCH   1  23
ATOM     23  C   UNL A   1      33.815  30.901  27.447  1.00  0.00     0.188 C 
BRANCH  23  24
ATOM     24  O   UNL A   1      32.430  30.890  27.100  1.00  0.00    -0.376 OA
BRANCH  24  25
ATOM     25  C   UNL A   1      31.791  32.154  26.975  1.00  0.00     0.202 C 
BRANCH  25  26
ATOM     26  C   UNL A   1      32.641  33.410  27.225  1.00  0.00     0.261 C 
BRANCH  26  27
ATOM     27  O   UNL A   1      32.321  34.170  28.398  1.00  0.00    -0.460 OA
BRANCH  27  28
ATOM     28  C   UNL A   1      33.134  35.181  28.771  1.00  0.00     0.338 C 
ATOM     29  O   UNL A   1      32.883  36.371  28.780  1.00  0.00    -0.246 OA
BRANCH  28  30
ATOM     30  C   UNL A   1      34.307  34.538  29.417  1.00  0.00     0.060 A 
ATOM     31  C   UNL A   1      34.086  33.544  30.379  1.00  0.00     0.016 A 
ATOM     32  C   UNL A   1      35.601  34.789  28.945  1.00  0.00     0.016 A 
ATOM     33  C   UNL A   1      35.158  32.783  30.854  1.00  0.00     0.010 A 
ATOM     34  C   UNL A   1      36.677  34.050  29.443  1.00  0.00     0.010 A 
ATOM     35  C   UNL A   1      36.461  33.054  30.410  1.00  0.00    -0.014 A 
BRANCH  35  36
ATOM     36  C   UNL A   1      37.622  32.484  31.132  1.00  0.00     0.031 A 
ATOM     37  C   UNL A   1      38.333  31.333  30.479  1.00  0.00     0.074 A 
ATOM     38  C   UNL A   1      38.021  32.941  32.332  1.00  0.00     0.049 A 
ATOM     39  N   UNL A   1      39.344  30.623  30.907  1.00  0.00    -0.248 NA
ATOM     40  C   UNL A   1      37.829  30.928  29.155  1.00  0.00     0.031 C 
ATOM     41  C   UNL A   1      37.427  34.062  33.055  1.00  0.00     0.029 A 
ATOM     42  N   UNL A   1      39.023  32.496  33.160  1.00  0.00    -0.354 N 
ATOM     43  C   UNL A   1      39.601  29.700  29.904  1.00  0.00     0.074 A 
ATOM     44  C   UNL A   1      38.628  29.917  28.857  1.00  0.00     0.031 C 
ATOM     45  C   UNL A   1      38.065  34.206  34.233  1.00  0.00     0.029 A 
ATOM     46  C   UNL A   1      39.092  33.171  34.355  1.00  0.00     0.049 A 
ATOM     47  H   UNL A   1      39.635  31.763  32.921  1.00  0.00     0.167 HD
ATOM     48  C   UNL A   1      40.567  28.756  29.855  1.00  0.00     0.037 A 
ATOM     49  C   UNL A   1      39.881  32.955  35.427  1.00  0.00     0.037 A 
ATOM     50  C   UNL A   1      41.509  28.514  30.910  1.00  0.00     0.049 A 
ATOM     51  C   UNL A   1      40.886  31.828  35.390  1.00  0.00     0.074 A 
ATOM     52  C   UNL A   1      42.538  27.591  30.953  1.00  0.00     0.029 A 
ATOM     53  N   UNL A   1      41.519  29.188  32.121  1.00  0.00    -0.354 N 
ATOM     54  N   UNL A   1      41.162  30.993  34.416  1.00  0.00    -0.248 NA
ATOM     55  C   UNL A   1      41.684  31.609  36.606  1.00  0.00     0.031 C 
ATOM     56  C   UNL A   1      43.138  27.672  32.214  1.00  0.00     0.029 A 
ATOM     57  C   UNL A   1      42.514  28.677  32.936  1.00  0.00     0.049 A 
ATOM     58  H   UNL A   1      40.910  29.922  32.365  1.00  0.00     0.167 HD
ATOM     59  C   UNL A   1      42.172  30.167  34.892  1.00  0.00     0.074 A 
ATOM     60  C   UNL A   1      42.475  30.610  36.237  1.00  0.00     0.031 C 
ATOM     61  C   UNL A   1      42.794  29.132  34.275  1.00  0.00     0.037 A 
BRANCH  48  62
ATOM     62  C   UNL A   1      40.617  27.897  28.629  1.00  0.00     0.064 A 
ATOM     63  C   UNL A   1      41.375  28.264  27.507  1.00  0.00     0.173 A 
ATOM     64  C   UNL A   1      39.894  26.697  28.574  1.00  0.00     0.173 A 
ATOM     65  F   UNL A   1      42.061  29.416  27.504  1.00  0.00    -0.203 F 
ATOM     66  C   UNL A   1      41.388  27.469  26.364  1.00  0.00     0.198 A 
ATOM     67  C   UNL A   1      39.930  25.893  27.439  1.00  0.00     0.198 A 
ATOM     68  F   UNL A   1      39.147  26.308  29.618  1.00  0.00    -0.203 F 
ATOM     69  F   UNL A   1      42.080  27.863  25.285  1.00  0.00    -0.200 F 
ATOM     70  C   UNL A   1      40.672  26.283  26.333  1.00  0.00     0.200 A 
ATOM     71  F   UNL A   1      39.241  24.743  27.411  1.00  0.00    -0.200 F 
ATOM     72  F   UNL A   1      40.686  25.519  25.232  1.00  0.00    -0.200 F 
ENDBRANCH  48  62
BRANCH  49  73
ATOM     73  C   UNL A   1      39.742  33.799  36.644  1.00  0.00     0.064 A 
ATOM     74  C   UNL A   1      38.912  33.410  37.705  1.00  0.00     0.173 A 
ATOM     75  C   UNL A   1      40.404  35.031  36.755  1.00  0.00     0.173 A 
ATOM     76  F   UNL A   1      38.229  32.258  37.633  1.00  0.00    -0.203 F 
ATOM     77  C   UNL A   1      38.740  34.226  38.823  1.00  0.00     0.198 A 
ATOM     78  C   UNL A   1      40.251  35.834  37.883  1.00  0.00     0.198 A 
ATOM     79  F   UNL A   1      41.199  35.458  35.762  1.00  0.00    -0.203 F 
ATOM     80  F   UNL A   1      37.903  33.851  39.800  1.00  0.00    -0.200 F 
ATOM     81  C   UNL A   1      39.413  35.434  38.913  1.00  0.00     0.200 A 
ATOM     82  F   UNL A   1      40.907  37.000  37.968  1.00  0.00    -0.200 F 
ATOM     83  F   UNL A   1      39.246  36.219  39.987  1.00  0.00    -0.200 F 
ENDBRANCH  49  73
BRANCH  61  84
ATOM     84  C   UNL A   1      43.869  28.414  35.037  1.00  0.00     0.064 A 
ATOM     85  C   UNL A   1      43.590  27.258  35.781  1.00  0.00     0.173 A 
ATOM     86  C   UNL A   1      45.200  28.849  34.970  1.00  0.00     0.173 A 
ATOM     87  F   UNL A   1      42.329  26.810  35.885  1.00  0.00    -0.203 F 
ATOM     88  C   UNL A   1      44.604  26.574  36.445  1.00  0.00     0.198 A 
ATOM     89  C   UNL A   1      46.217  28.146  35.612  1.00  0.00     0.198 A 
ATOM     90  F   UNL A   1      45.519  29.944  34.263  1.00  0.00    -0.203 F 
ATOM     91  F   UNL A   1      44.310  25.494  37.182  1.00  0.00    -0.200 F 
ATOM     92  C   UNL A   1      45.917  27.014  36.353  1.00  0.00     0.200 A 
ATOM     93  F   UNL A   1      47.486  28.564  35.508  1.00  0.00    -0.200 F 
ATOM     94  F   UNL A   1      46.894  26.347  36.983  1.00  0.00    -0.200 F 
ENDBRANCH  61  84
ENDBRANCH  35  36
ENDBRANCH  28  30
ENDBRANCH  27  28
ENDBRANCH  26  27
ENDBRANCH  25  26
ENDBRANCH  24  25
ENDBRANCH  23  24
ENDBRANCH   1  23
TORSDOF 21
ENDMDL
MODEL 2
REMARK VINA RESULT:     -10.0      1.754      7.741
REMARK SMILES CC(C)[C@H]1CC[C@@H](C)C/C1=C(\F)C(=O)OCCOCCOCCOCCOC(=O)c1ccc(-c2c3nc(c(-c4c(F)c(F)c(F)c(F)c4F)c4ccc([nH]4)c(-c4c(F)c(F)c(F)c(F)c4F)c4nc(c(-c5c(F)c(F)c(F)c(F)c5F)c5ccc2[nH]5)C=C4)C=C3)cc1
REMARK SMILES IDX 22 1 21 2 20 3 19 4 18 5 17 6 16 7 15 8 13 9 14 10 11 11
REMARK SMILES IDX 4 12 5 13 10 14 6 15 9 16 7 17 12 18 8 19 2 20 1 21 3 22
REMARK SMILES IDX 23 23 24 24 25 25 26 26 27 27 28 28 29 29 30 30 31 31 92 32
REMARK SMILES IDX 32 33 91 34 33 35 34 36 35 37 85 38 36 39 90 40 84 41 86 42
REMARK SMILES IDX 37 43 89 44 83 45 82 46 38 48 70 49 50 50 69 51 51 52 54 53
REMARK SMILES IDX 68 54 87 55 52 56 53 57 67 59 88 60 55 61 39 62 40 63 48 64
REMARK SMILES IDX 41 65 42 66 46 67 49 68 43 69 44 70 47 71 45 72 71 73 72 74
REMARK SMILES IDX 80 75 73 76 74 77 78 78 81 79 75 80 76 81 79 82 77 83 56 84
REMARK SMILES IDX 57 85 65 86 58 87 59 88 63 89 66 90 60 91 61 92 64 93 62 94
REMARK H PARENT 86 47 54 58
REMARK Flexibility Score: inf
ROOT
ATOM      1  C   UNL A   1      34.737  31.987  28.541  1.00  0.00     0.188 C 
ENDROOT
BRANCH   1   2
ATOM      2  O   UNL A   1      34.063  31.265  27.523  1.00  0.00    -0.377 OA
BRANCH   2   3
ATOM      3  C   UNL A   1      34.438  29.905  27.342  1.00  0.00     0.188 C 
BRANCH   3   4
ATOM      4  C   UNL A   1      33.436  28.913  26.740  1.00  0.00     0.188 C 
BRANCH   4   5
ATOM      5  O   UNL A   1      33.877  28.397  25.482  1.00  0.00    -0.376 OA
BRANCH   5   6
ATOM      6  C   UNL A   1      33.205  29.008  24.380  1.00  0.00     0.202 C 
BRANCH   6   7
ATOM      7  C   UNL A   1      33.248  28.103  23.144  1.00  0.00     0.261 C 
BRANCH   7   8
ATOM      8  O   UNL A   1      32.752  26.771  23.389  1.00  0.00    -0.458 OA
BRANCH   8   9
ATOM      9  C   UNL A   1      33.145  25.775  22.546  1.00  0.00     0.367 C 
ATOM     10  O   UNL A   1      33.929  25.911  21.625  1.00  0.00    -0.243 OA
BRANCH   9  11
ATOM     11  C   UNL A   1      32.435  24.528  22.966  1.00  0.00     0.207 C 
ATOM     12  C   UNL A   1      34.250  22.661  23.524  1.00  0.00     0.021 C 
ATOM     13  C   UNL A   1      34.276  21.669  24.726  1.00  0.00     0.009 C 
ATOM     14  C   UNL A   1      32.841  23.285  23.327  1.00  0.00    -0.023 C 
ATOM     15  C   UNL A   1      33.138  20.659  24.730  1.00  0.00     0.004 C 
ATOM     16  C   UNL A   1      31.711  22.249  23.455  1.00  0.00     0.038 C 
ATOM     17  C   UNL A   1      31.779  21.345  24.689  1.00  0.00    -0.010 C 
ATOM     18  F   UNL A   1      31.090  24.742  22.930  1.00  0.00    -0.199 F 
ATOM     19  C   UNL A   1      31.463  22.101  25.983  1.00  0.00     0.008 C 
BRANCH  12  20
ATOM     20  C   UNL A   1      35.497  23.595  23.640  1.00  0.00    -0.010 C 
ATOM     21  C   UNL A   1      35.755  24.083  25.067  1.00  0.00     0.008 C 
ATOM     22  C   UNL A   1      36.788  22.941  23.120  1.00  0.00     0.008 C 
ENDBRANCH  12  20
ENDBRANCH   9  11
ENDBRANCH   8   9
ENDBRANCH   7   8
ENDBRANCH   6   7
ENDBRANCH   5   6
ENDBRANCH   4   5
ENDBRANCH   3   4
ENDBRANCH   2   3
ENDBRANCH   1   2
BRANCH   1  23
ATOM     23  C   UNL A   1      35.009  33.460  28.189  1.00  0.00     0.188 C 
BRANCH  23  24
ATOM     24  O   UNL A   1      34.548  34.352  29.205  1.00  0.00    -0.376 OA
BRANCH  24  25
ATOM     25  C   UNL A   1      33.274  34.950  29.001  1.00  0.00     0.202 C 
BRANCH  25  26
ATOM     26  C   UNL A   1      32.861  36.086  29.950  1.00  0.00     0.261 C 
BRANCH  26  27
ATOM     27  O   UNL A   1      32.160  35.695  31.140  1.00  0.00    -0.460 OA
BRANCH  27  28
ATOM     28  C   UNL A   1      32.629  36.092  32.342  1.00  0.00     0.338 C 
ATOM     29  O   UNL A   1      32.083  36.821  33.147  1.00  0.00    -0.246 OA
BRANCH  28  30
ATOM     30  C   UNL A   1      33.829  35.257  32.603  1.00  0.00     0.060 A 
ATOM     31  C   UNL A   1      33.655  33.892  32.871  1.00  0.00     0.016 A 
ATOM     32  C   UNL A   1      35.113  35.780  32.407  1.00  0.00     0.016 A 
ATOM     33  C   UNL A   1      34.766  33.045  32.922  1.00  0.00     0.010 A 
ATOM     34  C   UNL A   1      36.225  34.939  32.489  1.00  0.00     0.010 A 
ATOM     35  C   UNL A   1      36.056  33.571  32.760  1.00  0.00    -0.014 A 
BRANCH  35  36
ATOM     36  C   UNL A   1      37.237  32.754  33.124  1.00  0.00     0.031 A 
ATOM     37  C   UNL A   1      37.923  33.085  34.419  1.00  0.00     0.074 A 
ATOM     38  C   UNL A   1      37.709  31.775  32.333  1.00  0.00     0.049 A 
ATOM     39  N   UNL A   1      38.995  32.564  34.956  1.00  0.00    -0.248 NA
ATOM     40  C   UNL A   1      37.309  34.159  35.220  1.00  0.00     0.031 C 
ATOM     41  C   UNL A   1      37.120  31.346  31.067  1.00  0.00     0.029 A 
ATOM     42  N   UNL A   1      38.813  30.970  32.483  1.00  0.00    -0.354 N 
ATOM     43  C   UNL A   1      39.174  33.236  36.156  1.00  0.00     0.074 A 
ATOM     44  C   UNL A   1      38.123  34.221  36.262  1.00  0.00     0.031 C 
ATOM     45  C   UNL A   1      37.883  30.367  30.543  1.00  0.00     0.029 A 
ATOM     46  C   UNL A   1      39.025  30.121  31.423  1.00  0.00     0.049 A 
ATOM     47  H   UNL A   1      39.398  30.999  33.274  1.00  0.00     0.167 HD
ATOM     48  C   UNL A   1      40.130  33.046  37.092  1.00  0.00     0.037 A 
ATOM     49  C   UNL A   1      40.040  29.265  31.190  1.00  0.00     0.037 A 
ATOM     50  C   UNL A   1      41.198  32.095  36.972  1.00  0.00     0.049 A 
ATOM     51  C   UNL A   1      41.152  29.144  32.204  1.00  0.00     0.074 A 
ATOM     52  C   UNL A   1      42.209  31.813  37.872  1.00  0.00     0.029 A 
ATOM     53  N   UNL A   1      41.403  31.285  35.865  1.00  0.00    -0.354 N 
ATOM     54  N   UNL A   1      41.288  29.742  33.364  1.00  0.00    -0.248 NA
ATOM     55  C   UNL A   1      42.257  28.230  31.873  1.00  0.00     0.031 C 
ATOM     56  C   UNL A   1      43.058  30.869  37.286  1.00  0.00     0.029 A 
ATOM     57  C   UNL A   1      42.548  30.527  36.043  1.00  0.00     0.049 A 
ATOM     58  H   UNL A   1      40.820  31.252  35.072  1.00  0.00     0.167 HD
ATOM     59  C   UNL A   1      42.476  29.268  33.905  1.00  0.00     0.074 A 
ATOM     60  C   UNL A   1      43.017  28.317  32.957  1.00  0.00     0.031 C 
ATOM     61  C   UNL A   1      43.070  29.590  35.081  1.00  0.00     0.037 A 
BRANCH  48  62
ATOM     62  C   UNL A   1      40.073  33.918  38.309  1.00  0.00     0.064 A 
ATOM     63  C   UNL A   1      40.807  35.111  38.391  1.00  0.00     0.173 A 
ATOM     64  C   UNL A   1      39.281  33.554  39.407  1.00  0.00     0.173 A 
ATOM     65  F   UNL A   1      41.600  35.487  37.376  1.00  0.00    -0.203 F 
ATOM     66  C   UNL A   1      40.767  35.897  39.540  1.00  0.00     0.198 A 
ATOM     67  C   UNL A   1      39.223  34.355  40.543  1.00  0.00     0.198 A 
ATOM     68  F   UNL A   1      38.568  32.418  39.379  1.00  0.00    -0.203 F 
ATOM     69  F   UNL A   1      41.513  37.008  39.616  1.00  0.00    -0.200 F 
ATOM     70  C   UNL A   1      39.971  35.521  40.611  1.00  0.00     0.200 A 
ATOM     71  F   UNL A   1      38.450  33.994  41.577  1.00  0.00    -0.200 F 
ATOM     72  F   UNL A   1      39.932  36.279  41.716  1.00  0.00    -0.200 F 
ENDBRANCH  48  62
BRANCH  49  73
ATOM     73  C   UNL A   1      40.079  28.472  29.932  1.00  0.00     0.064 A 
ATOM     74  C   UNL A   1      40.700  28.971  28.778  1.00  0.00     0.173 A 
ATOM     75  C   UNL A   1      39.462  27.215  29.845  1.00  0.00     0.173 A 
ATOM     76  F   UNL A   1      41.274  30.183  28.799  1.00  0.00    -0.203 F 
ATOM     77  C   UNL A   1      40.691  28.251  27.584  1.00  0.00     0.198 A 
ATOM     78  C   UNL A   1      39.474  26.484  28.658  1.00  0.00     0.198 A 
ATOM     79  F   UNL A   1      38.840  26.697  30.915  1.00  0.00    -0.203 F 
ATOM     80  F   UNL A   1      41.250  28.774  26.485  1.00  0.00    -0.200 F 
ATOM     81  C   UNL A   1      40.082  27.006  27.527  1.00  0.00     0.200 A 
ATOM     82  F   UNL A   1      38.888  25.280  28.608  1.00  0.00    -0.200 F 
ATOM     83  F   UNL A   1      40.072  26.316  26.378  1.00  0.00    -0.200 F 
ENDBRANCH  49  73
BRANCH  61  84
ATOM     84  C   UNL A   1      44.362  28.905  35.416  1.00  0.00     0.064 A 
ATOM     85  C   UNL A   1      45.599  29.474  35.081  1.00  0.00     0.173 A 
ATOM     86  C   UNL A   1      44.365  27.702  36.136  1.00  0.00     0.173 A 
ATOM     87  F   UNL A   1      45.649  30.619  34.382  1.00  0.00    -0.203 F 
ATOM     88  C   UNL A   1      46.792  28.853  35.438  1.00  0.00     0.198 A 
ATOM     89  C   UNL A   1      45.560  27.097  36.517  1.00  0.00     0.198 A 
ATOM     90  F   UNL A   1      43.207  27.122  36.489  1.00  0.00    -0.203 F 
ATOM     91  F   UNL A   1      47.964  29.394  35.075  1.00  0.00    -0.200 F 
ATOM     92  C   UNL A   1      46.772  27.670  36.163  1.00  0.00     0.200 A 
ATOM     93  F   UNL A   1      45.537  25.963  37.231  1.00  0.00    -0.200 F 
ATOM     94  F   UNL A   1      47.921  27.079  36.517  1.00  0.00    -0.200 F 
ENDBRANCH  61  84
ENDBRANCH  35  36
ENDBRANCH  28  30
ENDBRANCH  27  28
ENDBRANCH  26  27
ENDBRANCH  25  26
ENDBRANCH  24  25
ENDBRANCH  23  24
ENDBRANCH   1  23
TORSDOF 21
ENDMDL
MODEL 3
REMARK VINA RESULT:     -10.0      4.787     10.433
REMARK SMILES CC(C)[C@H]1CC[C@@H](C)C/C1=C(\F)C(=O)OCCOCCOCCOCCOC(=O)c1ccc(-c2c3nc(c(-c4c(F)c(F)c(F)c(F)c4F)c4ccc([nH]4)c(-c4c(F)c(F)c(F)c(F)c4F)c4nc(c(-c5c(F)c(F)c(F)c(F)c5F)c5ccc2[nH]5)C=C4)C=C3)cc1
REMARK SMILES IDX 22 1 21 2 20 3 19 4 18 5 17 6 16 7 15 8 13 9 14 10 11 11
REMARK SMILES IDX 4 12 5 13 10 14 6 15 9 16 7 17 12 18 8 19 2 20 1 21 3 22
REMARK SMILES IDX 23 23 24 24 25 25 26 26 27 27 28 28 29 29 30 30 31 31 92 32
REMARK SMILES IDX 32 33 91 34 33 35 34 36 35 37 85 38 36 39 90 40 84 41 86 42
REMARK SMILES IDX 37 43 89 44 83 45 82 46 38 48 70 49 50 50 69 51 51 52 54 53
REMARK SMILES IDX 68 54 87 55 52 56 53 57 67 59 88 60 55 61 39 62 40 63 48 64
REMARK SMILES IDX 41 65 42 66 46 67 49 68 43 69 44 70 47 71 45 72 71 73 72 74
REMARK SMILES IDX 80 75 73 76 74 77 78 78 81 79 75 80 76 81 79 82 77 83 56 84
REMARK SMILES IDX 57 85 65 86 58 87 59 88 63 89 66 90 60 91 61 92 64 93 62 94
REMARK H PARENT 86 47 54 58
REMARK Flexibility Score: inf
ROOT
ATOM      1  C   UNL A   1      33.679  21.236  26.622  1.00  0.00     0.188 C 
ENDROOT
BRANCH   1   2
ATOM      2  O   UNL A   1      32.651  22.208  26.523  1.00  0.00    -0.377 OA
BRANCH   2   3
ATOM      3  C   UNL A   1      32.595  22.966  25.320  1.00  0.00     0.188 C 
BRANCH   3   4
ATOM      4  C   UNL A   1      31.356  22.878  24.422  1.00  0.00     0.188 C 
BRANCH   4   5
ATOM      5  O   UNL A   1      31.680  22.464  23.094  1.00  0.00    -0.376 OA
BRANCH   5   6
ATOM      6  C   UNL A   1      33.062  22.660  22.786  1.00  0.00     0.202 C 
BRANCH   6   7
ATOM      7  C   UNL A   1      33.238  23.779  21.755  1.00  0.00     0.261 C 
BRANCH   7   8
ATOM      8  O   UNL A   1      33.493  25.070  22.345  1.00  0.00    -0.458 OA
BRANCH   8   9
ATOM      9  C   UNL A   1      32.601  26.072  22.107  1.00  0.00     0.367 C 
ATOM     10  O   UNL A   1      31.651  25.994  21.349  1.00  0.00    -0.243 OA
BRANCH   9  11
ATOM     11  C   UNL A   1      33.017  27.247  22.932  1.00  0.00     0.207 C 
ATOM     12  C   UNL A   1      31.080  27.793  24.676  1.00  0.00     0.021 C 
ATOM     13  C   UNL A   1      31.215  28.150  26.187  1.00  0.00     0.009 C 
ATOM     14  C   UNL A   1      32.430  27.960  23.927  1.00  0.00    -0.023 C 
ATOM     15  C   UNL A   1      31.923  29.469  26.459  1.00  0.00     0.004 C 
ATOM     16  C   UNL A   1      33.170  29.251  24.318  1.00  0.00     0.038 C 
ATOM     17  C   UNL A   1      33.306  29.506  25.821  1.00  0.00    -0.010 C 
ATOM     18  F   UNL A   1      34.251  27.664  22.532  1.00  0.00    -0.199 F 
ATOM     19  C   UNL A   1      34.287  28.539  26.490  1.00  0.00     0.008 C 
BRANCH  12  20
ATOM     20  C   UNL A   1      30.299  26.446  24.566  1.00  0.00    -0.010 C 
ATOM     21  C   UNL A   1      30.159  25.717  25.903  1.00  0.00     0.008 C 
ATOM     22  C   UNL A   1      28.894  26.613  23.966  1.00  0.00     0.008 C 
ENDBRANCH  12  20
ENDBRANCH   9  11
ENDBRANCH   8   9
ENDBRANCH   7   8
ENDBRANCH   6   7
ENDBRANCH   5   6
ENDBRANCH   4   5
ENDBRANCH   3   4
ENDBRANCH   2   3
ENDBRANCH   1   2
BRANCH   1  23
ATOM     23  C   UNL A   1      33.558  20.091  25.601  1.00  0.00     0.188 C 
BRANCH  23  24
ATOM     24  O   UNL A   1      34.767  19.891  24.867  1.00  0.00    -0.376 OA
BRANCH  24  25
ATOM     25  C   UNL A   1      35.697  20.967  24.860  1.00  0.00     0.202 C 
BRANCH  25  26
ATOM     26  C   UNL A   1      37.186  20.622  25.013  1.00  0.00     0.261 C 
BRANCH  26  27
ATOM     27  O   UNL A   1      37.973  21.538  25.786  1.00  0.00    -0.460 OA
BRANCH  27  28
ATOM     28  C   UNL A   1      39.190  21.154  26.228  1.00  0.00     0.338 C 
ATOM     29  O   UNL A   1      39.685  20.045  26.166  1.00  0.00    -0.246 OA
BRANCH  28  30
ATOM     30  C   UNL A   1      39.910  22.406  26.571  1.00  0.00     0.060 A 
ATOM     31  C   UNL A   1      39.407  23.625  26.094  1.00  0.00     0.016 A 
ATOM     32  C   UNL A   1      40.958  22.390  27.499  1.00  0.00     0.016 A 
ATOM     33  C   UNL A   1      39.940  24.830  26.562  1.00  0.00     0.010 A 
ATOM     34  C   UNL A   1      41.511  23.593  27.942  1.00  0.00     0.010 A 
ATOM     35  C   UNL A   1      41.013  24.817  27.465  1.00  0.00    -0.014 A 
BRANCH  35  36
ATOM     36  C   UNL A   1      41.782  26.058  27.715  1.00  0.00     0.031 A 
ATOM     37  C   UNL A   1      41.081  27.157  28.462  1.00  0.00     0.074 A 
ATOM     38  C   UNL A   1      43.043  26.227  27.279  1.00  0.00     0.049 A 
ATOM     39  N   UNL A   1      41.501  28.355  28.777  1.00  0.00    -0.248 NA
ATOM     40  C   UNL A   1      39.711  26.859  28.916  1.00  0.00     0.031 C 
ATOM     41  C   UNL A   1      43.836  25.229  26.564  1.00  0.00     0.029 A 
ATOM     42  N   UNL A   1      43.873  27.319  27.366  1.00  0.00    -0.354 N 
ATOM     43  C   UNL A   1      40.455  28.944  29.472  1.00  0.00     0.074 A 
ATOM     44  C   UNL A   1      39.370  27.990  29.512  1.00  0.00     0.031 C 
ATOM     45  C   UNL A   1      45.034  25.764  26.259  1.00  0.00     0.029 A 
ATOM     46  C   UNL A   1      45.080  27.147  26.734  1.00  0.00     0.049 A 
ATOM     47  H   UNL A   1      43.625  28.147  27.838  1.00  0.00     0.167 HD
ATOM     48  C   UNL A   1      40.402  30.172  30.033  1.00  0.00     0.037 A 
ATOM     49  C   UNL A   1      46.089  28.020  26.544  1.00  0.00     0.037 A 
ATOM     50  C   UNL A   1      41.464  31.136  29.961  1.00  0.00     0.049 A 
ATOM     51  C   UNL A   1      45.967  29.422  27.093  1.00  0.00     0.074 A 
ATOM     52  C   UNL A   1      41.517  32.404  30.509  1.00  0.00     0.029 A 
ATOM     53  N   UNL A   1      42.652  30.941  29.275  1.00  0.00    -0.354 N 
ATOM     54  N   UNL A   1      44.998  29.956  27.797  1.00  0.00    -0.248 NA
ATOM     55  C   UNL A   1      47.078  30.345  26.814  1.00  0.00     0.031 C 
ATOM     56  C   UNL A   1      42.718  32.997  30.110  1.00  0.00     0.029 A 
ATOM     57  C   UNL A   1      43.434  32.081  29.354  1.00  0.00     0.049 A 
ATOM     58  H   UNL A   1      42.904  30.114  28.803  1.00  0.00     0.167 HD
ATOM     59  C   UNL A   1      45.387  31.264  28.059  1.00  0.00     0.074 A 
ATOM     60  C   UNL A   1      46.690  31.441  27.453  1.00  0.00     0.031 C 
ATOM     61  C   UNL A   1      44.727  32.235  28.738  1.00  0.00     0.037 A 
BRANCH  48  62
ATOM     62  C   UNL A   1      39.135  30.544  30.739  1.00  0.00     0.064 A 
ATOM     63  C   UNL A   1      38.068  31.150  30.059  1.00  0.00     0.173 A 
ATOM     64  C   UNL A   1      38.989  30.297  32.111  1.00  0.00     0.173 A 
ATOM     65  F   UNL A   1      38.172  31.430  28.752  1.00  0.00    -0.203 F 
ATOM     66  C   UNL A   1      36.907  31.517  30.735  1.00  0.00     0.198 A 
ATOM     67  C   UNL A   1      37.817  30.642  32.778  1.00  0.00     0.198 A 
ATOM     68  F   UNL A   1      39.985  29.729  32.806  1.00  0.00    -0.203 F 
ATOM     69  F   UNL A   1      35.918  32.139  30.077  1.00  0.00    -0.200 F 
ATOM     70  C   UNL A   1      36.781  31.257  32.092  1.00  0.00     0.200 A 
ATOM     71  F   UNL A   1      37.694  30.387  34.089  1.00  0.00    -0.200 F 
ATOM     72  F   UNL A   1      35.662  31.610  32.741  1.00  0.00    -0.200 F 
ENDBRANCH  48  62
BRANCH  49  73
ATOM     73  C   UNL A   1      47.298  27.616  25.777  1.00  0.00     0.064 A 
ATOM     74  C   UNL A   1      48.455  27.167  26.430  1.00  0.00     0.173 A 
ATOM     75  C   UNL A   1      47.337  27.709  24.378  1.00  0.00     0.173 A 
ATOM     76  F   UNL A   1      48.482  27.095  27.769  1.00  0.00    -0.203 F 
ATOM     77  C   UNL A   1      49.606  26.839  25.715  1.00  0.00     0.198 A 
ATOM     78  C   UNL A   1      48.480  27.357  23.662  1.00  0.00     0.198 A 
ATOM     79  F   UNL A   1      46.262  28.147  23.703  1.00  0.00    -0.203 F 
ATOM     80  F   UNL A   1      50.712  26.458  26.369  1.00  0.00    -0.200 F 
ATOM     81  C   UNL A   1      49.616  26.929  24.331  1.00  0.00     0.200 A 
ATOM     82  F   UNL A   1      48.483  27.442  22.324  1.00  0.00    -0.200 F 
ATOM     83  F   UNL A   1      50.723  26.616  23.645  1.00  0.00    -0.200 F 
ENDBRANCH  49  73
BRANCH  61  84
ATOM     84  C   UNL A   1      45.401  33.568  28.874  1.00  0.00     0.064 A 
ATOM     85  C   UNL A   1      45.174  34.600  27.951  1.00  0.00     0.173 A 
ATOM     86  C   UNL A   1      46.232  33.837  29.971  1.00  0.00     0.173 A 
ATOM     87  F   UNL A   1      44.397  34.387  26.878  1.00  0.00    -0.203 F 
ATOM     88  C   UNL A   1      45.769  35.847  28.113  1.00  0.00     0.198 A 
ATOM     89  C   UNL A   1      46.803  35.095  30.146  1.00  0.00     0.198 A 
ATOM     90  F   UNL A   1      46.473  32.886  30.886  1.00  0.00    -0.203 F 
ATOM     91  F   UNL A   1      45.569  36.808  27.200  1.00  0.00    -0.200 F 
ATOM     92  C   UNL A   1      46.576  36.097  29.215  1.00  0.00     0.200 A 
ATOM     93  F   UNL A   1      47.569  35.338  31.219  1.00  0.00    -0.200 F 
ATOM     94  F   UNL A   1      47.138  37.303  29.376  1.00  0.00    -0.200 F 
ENDBRANCH  61  84
ENDBRANCH  35  36
ENDBRANCH  28  30
ENDBRANCH  27  28
ENDBRANCH  26  27
ENDBRANCH  25  26
ENDBRANCH  24  25
ENDBRANCH  23  24
ENDBRANCH   1  23
TORSDOF 21
ENDMDL
