MODEL 1
REMARK VINA RESULT:      -9.7      0.000      0.000
REMARK SMILES CCc1nc(=O)n([C@H]2CCCOC2)c(CC)c1CC(=O)OCCOCCOCCOCCOC(=O)c1ccc(-c2c3nc(c(-c4c(F)c(F)c(F)c(F)c4F)c4ccc([nH]4)c(-c4c(F)c(F)c(F)c(F)c4F)c4nc(c(-c5c(F)c(F)c(F)c(F)c5F)c5ccc2[nH]5)C=C4)C=C3)cc1
REMARK SMILES IDX 27 1 26 2 25 3 24 4 23 5 22 6 21 7 19 8 20 9 18 10 17 11
REMARK SMILES IDX 3 12 4 13 5 14 14 15 6 16 7 17 2 18 1 19 15 20 16 21 8 22
REMARK SMILES IDX 9 23 13 24 10 25 12 26 11 27 28 28 29 29 30 30 31 31 32 32
REMARK SMILES IDX 33 33 34 34 35 35 36 36 37 37 98 38 38 39 97 40 39 41 40 42
REMARK SMILES IDX 41 43 91 44 42 45 96 46 90 47 92 48 43 49 95 50 89 51 88 52
REMARK SMILES IDX 44 54 76 55 56 56 75 57 57 58 60 59 74 60 93 61 58 62 59 63
REMARK SMILES IDX 73 65 94 66 61 67 45 68 46 69 54 70 47 71 48 72 52 73 55 74
REMARK SMILES IDX 49 75 50 76 53 77 51 78 77 79 78 80 86 81 79 82 80 83 84 84
REMARK SMILES IDX 87 85 81 86 82 87 85 88 83 89 62 90 63 91 71 92 64 93 65 94
REMARK SMILES IDX 69 95 72 96 66 97 67 98 70 99 68 100
REMARK H PARENT 92 53 60 64
REMARK Flexibility Score: inf
ROOT
ATOM      1  O   UNL A   1      33.740  35.547  29.140  1.00  0.00    -0.377 OA
ENDROOT
BRANCH   1   2
ATOM      2  C   UNL A   1      33.258  34.312  28.650  1.00  0.00     0.188 C 
BRANCH   2   3
ATOM      3  C   UNL A   1      34.200  33.119  28.925  1.00  0.00     0.188 C 
BRANCH   3   4
ATOM      4  O   UNL A   1      34.025  31.849  28.305  1.00  0.00    -0.376 OA
BRANCH   4   5
ATOM      5  C   UNL A   1      35.106  31.267  27.607  1.00  0.00     0.202 C 
BRANCH   5   6
ATOM      6  C   UNL A   1      34.912  29.823  27.100  1.00  0.00     0.261 C 
BRANCH   6   7
ATOM      7  O   UNL A   1      33.979  28.987  27.840  1.00  0.00    -0.463 OA
BRANCH   7   8
ATOM      8  C   UNL A   1      32.752  28.819  27.292  1.00  0.00     0.310 C 
ATOM      9  O   UNL A   1      31.716  29.213  27.827  1.00  0.00    -0.252 OA
BRANCH   8  10
ATOM     10  C   UNL A   1      32.679  28.080  25.932  1.00  0.00     0.162 C 
BRANCH  10  11
ATOM     11  C   UNL A   1      31.425  27.783  25.099  1.00  0.00     0.005 A 
ATOM     12  C   UNL A   1      30.673  26.526  25.438  1.00  0.00     0.051 A 
ATOM     13  N   UNL A   1      29.675  26.079  24.765  1.00  0.00    -0.198 NA
ATOM     14  C   UNL A   1      29.169  26.792  23.726  1.00  0.00     0.348 A 
ATOM     15  C   UNL A   1      30.747  28.612  24.240  1.00  0.00     0.028 A 
ATOM     16  O   UNL A   1      28.292  26.288  23.026  1.00  0.00    -0.246 OA
ATOM     17  N   UNL A   1      29.599  28.139  23.534  1.00  0.00    -0.291 N 
BRANCH  12  18
ATOM     18  C   UNL A   1      31.023  25.764  26.724  1.00  0.00     0.053 C 
ATOM     19  C   UNL A   1      31.505  24.331  26.521  1.00  0.00     0.011 C 
ENDBRANCH  12  18
BRANCH  15  20
ATOM     20  C   UNL A   1      31.163  30.068  24.099  1.00  0.00     0.051 C 
ATOM     21  C   UNL A   1      30.746  31.028  25.204  1.00  0.00     0.010 C 
ENDBRANCH  15  20
BRANCH  17  22
ATOM     22  C   UNL A   1      28.683  28.870  22.584  1.00  0.00     0.118 C 
ATOM     23  C   UNL A   1      27.374  29.334  23.264  1.00  0.00     0.030 C 
ATOM     24  C   UNL A   1      29.098  30.003  21.627  1.00  0.00     0.185 C 
ATOM     25  C   UNL A   1      27.513  30.721  23.879  1.00  0.00     0.031 C 
ATOM     26  O   UNL A   1      29.235  31.278  22.242  1.00  0.00    -0.379 OA
ATOM     27  C   UNL A   1      28.041  31.732  22.868  1.00  0.00     0.160 C 
ENDBRANCH  17  22
ENDBRANCH  10  11
ENDBRANCH   8  10
ENDBRANCH   7   8
ENDBRANCH   6   7
ENDBRANCH   5   6
ENDBRANCH   4   5
ENDBRANCH   3   4
ENDBRANCH   2   3
ENDBRANCH   1   2
BRANCH   1  28
ATOM     28  C   UNL A   1      33.072  36.059  30.278  1.00  0.00     0.188 C 
BRANCH  28  29
ATOM     29  C   UNL A   1      33.680  35.667  31.634  1.00  0.00     0.188 C 
BRANCH  29  30
ATOM     30  O   UNL A   1      33.283  34.370  32.076  1.00  0.00    -0.376 OA
BRANCH  30  31
ATOM     31  C   UNL A   1      34.023  33.790  33.144  1.00  0.00     0.202 C 
BRANCH  31  32
ATOM     32  C   UNL A   1      34.897  32.602  32.731  1.00  0.00     0.261 C 
BRANCH  32  33
ATOM     33  O   UNL A   1      36.289  32.882  32.587  1.00  0.00    -0.460 OA
BRANCH  33  34
ATOM     34  C   UNL A   1      37.155  32.227  33.387  1.00  0.00     0.338 C 
ATOM     35  O   UNL A   1      37.035  31.957  34.561  1.00  0.00    -0.246 OA
BRANCH  34  36
ATOM     36  C   UNL A   1      38.153  31.670  32.456  1.00  0.00     0.060 A 
ATOM     37  C   UNL A   1      37.985  31.823  31.076  1.00  0.00     0.016 A 
ATOM     38  C   UNL A   1      39.170  30.863  32.976  1.00  0.00     0.016 A 
ATOM     39  C   UNL A   1      38.846  31.163  30.207  1.00  0.00     0.010 A 
ATOM     40  C   UNL A   1      40.018  30.188  32.106  1.00  0.00     0.010 A 
ATOM     41  C   UNL A   1      39.875  30.357  30.721  1.00  0.00    -0.014 A 
BRANCH  41  42
ATOM     42  C   UNL A   1      40.959  29.897  29.831  1.00  0.00     0.031 A 
ATOM     43  C   UNL A   1      41.013  28.508  29.288  1.00  0.00     0.074 A 
ATOM     44  C   UNL A   1      41.938  30.784  29.586  1.00  0.00     0.049 A 
ATOM     45  N   UNL A   1      41.922  27.971  28.514  1.00  0.00    -0.248 NA
ATOM     46  C   UNL A   1      39.922  27.599  29.665  1.00  0.00     0.031 C 
ATOM     47  C   UNL A   1      41.972  32.153  30.110  1.00  0.00     0.029 A 
ATOM     48  N   UNL A   1      43.087  30.678  28.853  1.00  0.00    -0.354 N 
ATOM     49  C   UNL A   1      41.508  26.666  28.292  1.00  0.00     0.074 A 
ATOM     50  C   UNL A   1      40.288  26.478  29.052  1.00  0.00     0.031 C 
ATOM     51  C   UNL A   1      43.078  32.764  29.670  1.00  0.00     0.029 A 
ATOM     52  C   UNL A   1      43.844  31.822  28.864  1.00  0.00     0.049 A 
ATOM     53  H   UNL A   1      43.345  29.863  28.366  1.00  0.00     0.167 HD
ATOM     54  C   UNL A   1      42.096  25.729  27.510  1.00  0.00     0.037 A 
ATOM     55  C   UNL A   1      45.032  32.081  28.291  1.00  0.00     0.037 A 
ATOM     56  C   UNL A   1      43.324  25.941  26.782  1.00  0.00     0.049 A 
ATOM     57  C   UNL A   1      45.680  31.006  27.470  1.00  0.00     0.074 A 
ATOM     58  C   UNL A   1      43.987  25.071  25.934  1.00  0.00     0.029 A 
ATOM     59  N   UNL A   1      44.084  27.105  26.828  1.00  0.00    -0.354 N 
ATOM     60  N   UNL A   1      45.248  29.796  27.206  1.00  0.00    -0.248 NA
ATOM     61  C   UNL A   1      46.975  31.331  26.865  1.00  0.00     0.031 C 
ATOM     62  C   UNL A   1      45.174  25.684  25.516  1.00  0.00     0.029 A 
ATOM     63  C   UNL A   1      45.224  26.961  26.052  1.00  0.00     0.049 A 
ATOM     64  H   UNL A   1      43.846  27.914  27.337  1.00  0.00     0.167 HD
ATOM     65  C   UNL A   1      46.208  29.218  26.392  1.00  0.00     0.074 A 
ATOM     66  C   UNL A   1      47.234  30.223  26.184  1.00  0.00     0.031 C 
ATOM     67  C   UNL A   1      46.242  27.967  25.870  1.00  0.00     0.037 A 
BRANCH  54  68
ATOM     68  C   UNL A   1      41.426  24.389  27.391  1.00  0.00     0.064 A 
ATOM     69  C   UNL A   1      40.254  24.220  26.635  1.00  0.00     0.173 A 
ATOM     70  C   UNL A   1      42.000  23.245  27.967  1.00  0.00     0.173 A 
ATOM     71  F   UNL A   1      39.662  25.280  26.065  1.00  0.00    -0.203 F 
ATOM     72  C   UNL A   1      39.674  22.964  26.479  1.00  0.00     0.198 A 
ATOM     73  C   UNL A   1      41.433  21.985  27.784  1.00  0.00     0.198 A 
ATOM     74  F   UNL A   1      43.125  23.343  28.690  1.00  0.00    -0.203 F 
ATOM     75  F   UNL A   1      38.535  22.835  25.783  1.00  0.00    -0.200 F 
ATOM     76  C   UNL A   1      40.267  21.847  27.045  1.00  0.00     0.200 A 
ATOM     77  F   UNL A   1      42.018  20.904  28.317  1.00  0.00    -0.200 F 
ATOM     78  F   UNL A   1      39.716  20.636  26.881  1.00  0.00    -0.200 F 
ENDBRANCH  54  68
BRANCH  55  79
ATOM     79  C   UNL A   1      45.636  33.425  28.449  1.00  0.00     0.064 A 
ATOM     80  C   UNL A   1      46.566  33.676  29.465  1.00  0.00     0.173 A 
ATOM     81  C   UNL A   1      45.348  34.467  27.553  1.00  0.00     0.173 A 
ATOM     82  F   UNL A   1      46.865  32.713  30.349  1.00  0.00    -0.203 F 
ATOM     83  C   UNL A   1      47.181  34.919  29.586  1.00  0.00     0.198 A 
ATOM     84  C   UNL A   1      45.988  35.700  27.656  1.00  0.00     0.198 A 
ATOM     85  F   UNL A   1      44.477  34.272  26.552  1.00  0.00    -0.203 F 
ATOM     86  F   UNL A   1      48.047  35.140  30.583  1.00  0.00    -0.200 F 
ATOM     87  C   UNL A   1      46.900  35.927  28.675  1.00  0.00     0.200 A 
ATOM     88  F   UNL A   1      45.730  36.663  26.760  1.00  0.00    -0.200 F 
ATOM     89  F   UNL A   1      47.507  37.116  28.780  1.00  0.00    -0.200 F 
ENDBRANCH  55  79
BRANCH  67  90
ATOM     90  C   UNL A   1      47.431  27.614  25.023  1.00  0.00     0.064 A 
ATOM     91  C   UNL A   1      48.573  27.019  25.580  1.00  0.00     0.173 A 
ATOM     92  C   UNL A   1      47.412  27.828  23.637  1.00  0.00     0.173 A 
ATOM     93  F   UNL A   1      48.648  26.809  26.903  1.00  0.00    -0.203 F 
ATOM     94  C   UNL A   1      49.659  26.669  24.783  1.00  0.00     0.198 A 
ATOM     95  C   UNL A   1      48.485  27.446  22.838  1.00  0.00     0.198 A 
ATOM     96  F   UNL A   1      46.343  28.390  23.054  1.00  0.00    -0.203 F 
ATOM     97  F   UNL A   1      50.758  26.145  25.344  1.00  0.00    -0.200 F 
ATOM     98  C   UNL A   1      49.610  26.873  23.412  1.00  0.00     0.200 A 
ATOM     99  F   UNL A   1      48.430  27.628  21.512  1.00  0.00    -0.200 F 
ATOM    100  F   UNL A   1      50.652  26.523  22.645  1.00  0.00    -0.200 F 
ENDBRANCH  67  90
ENDBRANCH  41  42
ENDBRANCH  34  36
ENDBRANCH  33  34
ENDBRANCH  32  33
ENDBRANCH  31  32
ENDBRANCH  30  31
ENDBRANCH  29  30
ENDBRANCH  28  29
ENDBRANCH   1  28
TORSDOF 24
ENDMDL
MODEL 2
REMARK VINA RESULT:      -9.5      1.195      2.282
REMARK SMILES CCc1nc(=O)n([C@H]2CCCOC2)c(CC)c1CC(=O)OCCOCCOCCOCCOC(=O)c1ccc(-c2c3nc(c(-c4c(F)c(F)c(F)c(F)c4F)c4ccc([nH]4)c(-c4c(F)c(F)c(F)c(F)c4F)c4nc(c(-c5c(F)c(F)c(F)c(F)c5F)c5ccc2[nH]5)C=C4)C=C3)cc1
REMARK SMILES IDX 27 1 26 2 25 3 24 4 23 5 22 6 21 7 19 8 20 9 18 10 17 11
REMARK SMILES IDX 3 12 4 13 5 14 14 15 6 16 7 17 2 18 1 19 15 20 16 21 8 22
REMARK SMILES IDX 9 23 13 24 10 25 12 26 11 27 28 28 29 29 30 30 31 31 32 32
REMARK SMILES IDX 33 33 34 34 35 35 36 36 37 37 98 38 38 39 97 40 39 41 40 42
REMARK SMILES IDX 41 43 91 44 42 45 96 46 90 47 92 48 43 49 95 50 89 51 88 52
REMARK SMILES IDX 44 54 76 55 56 56 75 57 57 58 60 59 74 60 93 61 58 62 59 63
REMARK SMILES IDX 73 65 94 66 61 67 45 68 46 69 54 70 47 71 48 72 52 73 55 74
REMARK SMILES IDX 49 75 50 76 53 77 51 78 77 79 78 80 86 81 79 82 80 83 84 84
REMARK SMILES IDX 87 85 81 86 82 87 85 88 83 89 62 90 63 91 71 92 64 93 65 94
REMARK SMILES IDX 69 95 72 96 66 97 67 98 70 99 68 100
REMARK H PARENT 92 53 60 64
REMARK Flexibility Score: inf
ROOT
ATOM      1  O   UNL A   1      34.800  32.665  27.737  1.00  0.00    -0.377 OA
ENDROOT
BRANCH   1   2
ATOM      2  C   UNL A   1      34.740  31.255  27.655  1.00  0.00     0.188 C 
BRANCH   2   3
ATOM      3  C   UNL A   1      33.365  30.712  27.208  1.00  0.00     0.188 C 
BRANCH   3   4
ATOM      4  O   UNL A   1      33.103  29.319  27.068  1.00  0.00    -0.376 OA
BRANCH   4   5
ATOM      5  C   UNL A   1      32.573  28.836  25.852  1.00  0.00     0.202 C 
BRANCH   5   6
ATOM      6  C   UNL A   1      33.586  28.325  24.805  1.00  0.00     0.261 C 
BRANCH   6   7
ATOM      7  O   UNL A   1      33.296  27.043  24.182  1.00  0.00    -0.463 OA
BRANCH   7   8
ATOM      8  C   UNL A   1      33.069  27.057  22.847  1.00  0.00     0.310 C 
ATOM      9  O   UNL A   1      33.895  27.456  22.028  1.00  0.00    -0.252 OA
BRANCH   8  10
ATOM     10  C   UNL A   1      31.688  26.552  22.359  1.00  0.00     0.162 C 
BRANCH  10  11
ATOM     11  C   UNL A   1      30.308  27.115  22.725  1.00  0.00     0.005 A 
ATOM     12  C   UNL A   1      29.546  26.388  23.798  1.00  0.00     0.051 A 
ATOM     13  N   UNL A   1      28.339  26.662  24.137  1.00  0.00    -0.198 NA
ATOM     14  C   UNL A   1      27.692  27.723  23.588  1.00  0.00     0.348 A 
ATOM     15  C   UNL A   1      29.755  28.325  22.385  1.00  0.00     0.028 A 
ATOM     16  O   UNL A   1      26.500  27.892  23.841  1.00  0.00    -0.246 OA
ATOM     17  N   UNL A   1      28.434  28.661  22.811  1.00  0.00    -0.291 N 
BRANCH  12  18
ATOM     18  C   UNL A   1      30.263  25.319  24.636  1.00  0.00     0.053 C 
ATOM     19  C   UNL A   1      29.943  25.339  26.126  1.00  0.00     0.011 C 
ENDBRANCH  12  18
BRANCH  15  20
ATOM     20  C   UNL A   1      30.579  29.353  21.625  1.00  0.00     0.051 C 
ATOM     21  C   UNL A   1      31.678  30.077  22.388  1.00  0.00     0.010 C 
ENDBRANCH  15  20
BRANCH  17  22
ATOM     22  C   UNL A   1      27.646  29.931  22.597  1.00  0.00     0.118 C 
ATOM     23  C   UNL A   1      27.655  30.848  23.842  1.00  0.00     0.030 C 
ATOM     24  C   UNL A   1      27.752  30.860  21.374  1.00  0.00     0.185 C 
ATOM     25  C   UNL A   1      28.832  31.815  23.828  1.00  0.00     0.031 C 
ATOM     26  O   UNL A   1      28.874  31.734  21.390  1.00  0.00    -0.379 OA
ATOM     27  C   UNL A   1      28.901  32.595  22.521  1.00  0.00     0.160 C 
ENDBRANCH  17  22
ENDBRANCH  10  11
ENDBRANCH   8  10
ENDBRANCH   7   8
ENDBRANCH   6   7
ENDBRANCH   5   6
ENDBRANCH   4   5
ENDBRANCH   3   4
ENDBRANCH   2   3
ENDBRANCH   1   2
BRANCH   1  28
ATOM     28  C   UNL A   1      33.653  33.299  28.269  1.00  0.00     0.188 C 
BRANCH  28  29
ATOM     29  C   UNL A   1      33.922  34.540  29.134  1.00  0.00     0.188 C 
BRANCH  29  30
ATOM     30  O   UNL A   1      33.784  34.294  30.532  1.00  0.00    -0.376 OA
BRANCH  30  31
ATOM     31  C   UNL A   1      34.388  35.226  31.422  1.00  0.00     0.202 C 
BRANCH  31  32
ATOM     32  C   UNL A   1      35.315  34.592  32.463  1.00  0.00     0.261 C 
BRANCH  32  33
ATOM     33  O   UNL A   1      36.329  33.733  31.942  1.00  0.00    -0.460 OA
BRANCH  33  34
ATOM     34  C   UNL A   1      36.470  32.509  32.493  1.00  0.00     0.338 C 
ATOM     35  O   UNL A   1      35.741  31.954  33.283  1.00  0.00    -0.246 OA
BRANCH  34  36
ATOM     36  C   UNL A   1      37.557  31.889  31.715  1.00  0.00     0.060 A 
ATOM     37  C   UNL A   1      37.422  31.724  30.333  1.00  0.00     0.016 A 
ATOM     38  C   UNL A   1      38.639  31.336  32.407  1.00  0.00     0.016 A 
ATOM     39  C   UNL A   1      38.382  30.999  29.635  1.00  0.00     0.010 A 
ATOM     40  C   UNL A   1      39.588  30.595  31.713  1.00  0.00     0.010 A 
ATOM     41  C   UNL A   1      39.476  30.447  30.322  1.00  0.00    -0.014 A 
BRANCH  41  42
ATOM     42  C   UNL A   1      40.636  29.939  29.564  1.00  0.00     0.031 A 
ATOM     43  C   UNL A   1      40.716  28.532  29.072  1.00  0.00     0.074 A 
ATOM     44  C   UNL A   1      41.654  30.800  29.394  1.00  0.00     0.049 A 
ATOM     45  N   UNL A   1      41.688  27.954  28.414  1.00  0.00    -0.248 NA
ATOM     46  C   UNL A   1      39.573  27.655  29.362  1.00  0.00     0.031 C 
ATOM     47  C   UNL A   1      41.662  32.184  29.877  1.00  0.00     0.029 A 
ATOM     48  N   UNL A   1      42.869  30.649  28.788  1.00  0.00    -0.354 N 
ATOM     49  C   UNL A   1      41.271  26.650  28.191  1.00  0.00     0.074 A 
ATOM     50  C   UNL A   1      39.976  26.509  28.826  1.00  0.00     0.031 C 
ATOM     51  C   UNL A   1      42.821  32.761  29.535  1.00  0.00     0.029 A 
ATOM     52  C   UNL A   1      43.646  31.779  28.842  1.00  0.00     0.049 A 
ATOM     53  H   UNL A   1      43.159  29.814  28.356  1.00  0.00     0.167 HD
ATOM     54  C   UNL A   1      41.917  25.677  27.503  1.00  0.00     0.037 A 
ATOM     55  C   UNL A   1      44.891  31.997  28.388  1.00  0.00     0.037 A 
ATOM     56  C   UNL A   1      43.218  25.843  26.900  1.00  0.00     0.049 A 
ATOM     57  C   UNL A   1      45.597  30.884  27.672  1.00  0.00     0.074 A 
ATOM     58  C   UNL A   1      43.946  24.934  26.152  1.00  0.00     0.029 A 
ATOM     59  N   UNL A   1      43.993  26.994  26.989  1.00  0.00    -0.354 N 
ATOM     60  N   UNL A   1      45.170  29.675  27.402  1.00  0.00    -0.248 NA
ATOM     61  C   UNL A   1      46.955  31.166  27.194  1.00  0.00     0.031 C 
ATOM     62  C   UNL A   1      45.182  25.511  25.841  1.00  0.00     0.029 A 
ATOM     63  C   UNL A   1      45.204  26.804  26.340  1.00  0.00     0.049 A 
ATOM     64  H   UNL A   1      43.721  27.823  27.445  1.00  0.00     0.167 HD
ATOM     65  C   UNL A   1      46.196  29.053  26.710  1.00  0.00     0.074 A 
ATOM     66  C   UNL A   1      47.258  30.032  26.578  1.00  0.00     0.031 C 
ATOM     67  C   UNL A   1      46.257  27.785  26.233  1.00  0.00     0.037 A 
BRANCH  54  68
ATOM     68  C   UNL A   1      41.234  24.346  27.357  1.00  0.00     0.064 A 
ATOM     69  C   UNL A   1      40.109  24.187  26.532  1.00  0.00     0.173 A 
ATOM     70  C   UNL A   1      41.754  23.200  27.979  1.00  0.00     0.173 A 
ATOM     71  F   UNL A   1      39.569  25.249  25.915  1.00  0.00    -0.203 F 
ATOM     72  C   UNL A   1      39.519  22.938  26.354  1.00  0.00     0.198 A 
ATOM     73  C   UNL A   1      41.179  21.947  27.774  1.00  0.00     0.198 A 
ATOM     74  F   UNL A   1      42.834  23.289  28.768  1.00  0.00    -0.203 F 
ATOM     75  F   UNL A   1      38.424  22.819  25.590  1.00  0.00    -0.200 F 
ATOM     76  C   UNL A   1      40.059  21.818  26.966  1.00  0.00     0.200 A 
ATOM     77  F   UNL A   1      41.714  20.863  28.353  1.00  0.00    -0.200 F 
ATOM     78  F   UNL A   1      39.500  20.614  26.781  1.00  0.00    -0.200 F 
ENDBRANCH  54  68
BRANCH  55  79
ATOM     79  C   UNL A   1      45.504  33.335  28.565  1.00  0.00     0.064 A 
ATOM     80  C   UNL A   1      45.339  34.331  27.594  1.00  0.00     0.173 A 
ATOM     81  C   UNL A   1      46.209  33.669  29.732  1.00  0.00     0.173 A 
ATOM     82  F   UNL A   1      44.680  34.055  26.459  1.00  0.00    -0.203 F 
ATOM     83  C   UNL A   1      45.862  35.608  27.779  1.00  0.00     0.198 A 
ATOM     84  C   UNL A   1      46.705  34.956  29.929  1.00  0.00     0.198 A 
ATOM     85  F   UNL A   1      46.379  32.755  30.700  1.00  0.00    -0.203 F 
ATOM     86  F   UNL A   1      45.713  36.534  26.822  1.00  0.00    -0.200 F 
ATOM     87  C   UNL A   1      46.536  35.923  28.950  1.00  0.00     0.200 A 
ATOM     88  F   UNL A   1      47.334  35.261  31.073  1.00  0.00    -0.200 F 
ATOM     89  F   UNL A   1      47.021  37.157  29.135  1.00  0.00    -0.200 F 
ENDBRANCH  55  79
BRANCH  67  90
ATOM     90  C   UNL A   1      47.519  27.383  25.526  1.00  0.00     0.064 A 
ATOM     91  C   UNL A   1      47.668  27.559  24.142  1.00  0.00     0.173 A 
ATOM     92  C   UNL A   1      48.605  26.860  26.242  1.00  0.00     0.173 A 
ATOM     93  F   UNL A   1      46.652  28.039  23.408  1.00  0.00    -0.203 F 
ATOM     94  C   UNL A   1      48.852  27.209  23.500  1.00  0.00     0.198 A 
ATOM     95  C   UNL A   1      49.800  26.544  25.602  1.00  0.00     0.198 A 
ATOM     96  F   UNL A   1      48.516  26.675  27.567  1.00  0.00    -0.203 F 
ATOM     97  F   UNL A   1      48.955  27.342  22.170  1.00  0.00    -0.200 F 
ATOM     98  C   UNL A   1      49.920  26.712  24.231  1.00  0.00     0.200 A 
ATOM     99  F   UNL A   1      50.837  26.079  26.312  1.00  0.00    -0.200 F 
ATOM    100  F   UNL A   1      51.064  26.388  23.612  1.00  0.00    -0.200 F 
ENDBRANCH  67  90
ENDBRANCH  41  42
ENDBRANCH  34  36
ENDBRANCH  33  34
ENDBRANCH  32  33
ENDBRANCH  31  32
ENDBRANCH  30  31
ENDBRANCH  29  30
ENDBRANCH  28  29
ENDBRANCH   1  28
TORSDOF 24
ENDMDL
MODEL 3
REMARK VINA RESULT:      -9.4      5.898     11.404
REMARK SMILES CCc1nc(=O)n([C@H]2CCCOC2)c(CC)c1CC(=O)OCCOCCOCCOCCOC(=O)c1ccc(-c2c3nc(c(-c4c(F)c(F)c(F)c(F)c4F)c4ccc([nH]4)c(-c4c(F)c(F)c(F)c(F)c4F)c4nc(c(-c5c(F)c(F)c(F)c(F)c5F)c5ccc2[nH]5)C=C4)C=C3)cc1
REMARK SMILES IDX 27 1 26 2 25 3 24 4 23 5 22 6 21 7 19 8 20 9 18 10 17 11
REMARK SMILES IDX 3 12 4 13 5 14 14 15 6 16 7 17 2 18 1 19 15 20 16 21 8 22
REMARK SMILES IDX 9 23 13 24 10 25 12 26 11 27 28 28 29 29 30 30 31 31 32 32
REMARK SMILES IDX 33 33 34 34 35 35 36 36 37 37 98 38 38 39 97 40 39 41 40 42
REMARK SMILES IDX 41 43 91 44 42 45 96 46 90 47 92 48 43 49 95 50 89 51 88 52
REMARK SMILES IDX 44 54 76 55 56 56 75 57 57 58 60 59 74 60 93 61 58 62 59 63
REMARK SMILES IDX 73 65 94 66 61 67 45 68 46 69 54 70 47 71 48 72 52 73 55 74
REMARK SMILES IDX 49 75 50 76 53 77 51 78 77 79 78 80 86 81 79 82 80 83 84 84
REMARK SMILES IDX 87 85 81 86 82 87 85 88 83 89 62 90 63 91 71 92 64 93 65 94
REMARK SMILES IDX 69 95 72 96 66 97 67 98 70 99 68 100
REMARK H PARENT 92 53 60 64
REMARK Flexibility Score: inf
ROOT
ATOM      1  O   UNL A   1      42.382  19.414  25.228  1.00  0.00    -0.377 OA
ENDROOT
BRANCH   1   2
ATOM      2  C   UNL A   1      41.387  18.978  26.131  1.00  0.00     0.188 C 
BRANCH   2   3
ATOM      3  C   UNL A   1      40.188  19.944  26.257  1.00  0.00     0.188 C 
BRANCH   3   4
ATOM      4  O   UNL A   1      40.276  21.182  26.956  1.00  0.00    -0.376 OA
BRANCH   4   5
ATOM      5  C   UNL A   1      39.266  22.152  26.769  1.00  0.00     0.202 C 
BRANCH   5   6
ATOM      6  C   UNL A   1      38.527  22.134  25.414  1.00  0.00     0.261 C 
BRANCH   6   7
ATOM      7  O   UNL A   1      37.091  22.366  25.447  1.00  0.00    -0.463 OA
BRANCH   7   8
ATOM      8  C   UNL A   1      36.684  23.583  25.881  1.00  0.00     0.310 C 
ATOM      9  O   UNL A   1      37.443  24.402  26.395  1.00  0.00    -0.252 OA
BRANCH   8  10
ATOM     10  C   UNL A   1      35.181  23.925  25.720  1.00  0.00     0.162 C 
BRANCH  10  11
ATOM     11  C   UNL A   1      34.472  24.437  24.459  1.00  0.00     0.005 A 
ATOM     12  C   UNL A   1      33.974  23.396  23.495  1.00  0.00     0.051 A 
ATOM     13  N   UNL A   1      33.465  23.661  22.347  1.00  0.00    -0.198 NA
ATOM     14  C   UNL A   1      33.257  24.948  21.965  1.00  0.00     0.348 A 
ATOM     15  C   UNL A   1      34.013  25.701  24.184  1.00  0.00     0.028 A 
ATOM     16  O   UNL A   1      32.879  25.176  20.816  1.00  0.00    -0.246 OA
ATOM     17  N   UNL A   1      33.390  25.988  22.931  1.00  0.00    -0.291 N 
BRANCH  12  18
ATOM     18  C   UNL A   1      33.957  21.921  23.924  1.00  0.00     0.053 C 
ATOM     19  C   UNL A   1      32.719  21.137  23.505  1.00  0.00     0.011 C 
ENDBRANCH  12  18
BRANCH  15  20
ATOM     20  C   UNL A   1      34.086  26.786  25.247  1.00  0.00     0.051 C 
ATOM     21  C   UNL A   1      33.082  26.721  26.389  1.00  0.00     0.010 C 
ENDBRANCH  15  20
BRANCH  17  22
ATOM     22  C   UNL A   1      32.780  27.274  22.431  1.00  0.00     0.118 C 
ATOM     23  C   UNL A   1      31.245  27.309  22.612  1.00  0.00     0.030 C 
ATOM     24  C   UNL A   1      33.285  28.694  22.748  1.00  0.00     0.185 C 
ATOM     25  C   UNL A   1      30.844  27.882  23.966  1.00  0.00     0.031 C 
ATOM     26  O   UNL A   1      32.906  29.185  24.028  1.00  0.00    -0.379 OA
ATOM     27  C   UNL A   1      31.497  29.236  24.217  1.00  0.00     0.160 C 
ENDBRANCH  17  22
ENDBRANCH  10  11
ENDBRANCH   8  10
ENDBRANCH   7   8
ENDBRANCH   6   7
ENDBRANCH   5   6
ENDBRANCH   4   5
ENDBRANCH   3   4
ENDBRANCH   2   3
ENDBRANCH   1   2
BRANCH   1  28
ATOM     28  C   UNL A   1      43.504  20.050  25.809  1.00  0.00     0.188 C 
BRANCH  28  29
ATOM     29  C   UNL A   1      44.072  21.243  25.024  1.00  0.00     0.188 C 
BRANCH  29  30
ATOM     30  O   UNL A   1      43.087  22.219  24.692  1.00  0.00    -0.376 OA
BRANCH  30  31
ATOM     31  C   UNL A   1      43.350  23.566  25.068  1.00  0.00     0.202 C 
BRANCH  31  32
ATOM     32  C   UNL A   1      44.712  24.093  24.610  1.00  0.00     0.261 C 
BRANCH  32  33
ATOM     33  O   UNL A   1      45.378  24.959  25.529  1.00  0.00    -0.460 OA
BRANCH  33  34
ATOM     34  C   UNL A   1      45.810  24.436  26.696  1.00  0.00     0.338 C 
ATOM     35  O   UNL A   1      46.697  23.633  26.875  1.00  0.00    -0.246 OA
BRANCH  34  36
ATOM     36  C   UNL A   1      45.153  25.264  27.724  1.00  0.00     0.060 A 
ATOM     37  C   UNL A   1      44.195  24.699  28.571  1.00  0.00     0.016 A 
ATOM     38  C   UNL A   1      45.395  26.641  27.722  1.00  0.00     0.016 A 
ATOM     39  C   UNL A   1      43.473  25.521  29.429  1.00  0.00     0.010 A 
ATOM     40  C   UNL A   1      44.659  27.465  28.566  1.00  0.00     0.010 A 
ATOM     41  C   UNL A   1      43.715  26.904  29.439  1.00  0.00    -0.014 A 
BRANCH  41  42
ATOM     42  C   UNL A   1      43.176  27.734  30.534  1.00  0.00     0.031 A 
ATOM     43  C   UNL A   1      43.829  27.813  31.874  1.00  0.00     0.074 A 
ATOM     44  C   UNL A   1      42.020  28.369  30.279  1.00  0.00     0.049 A 
ATOM     45  N   UNL A   1      43.445  28.487  32.928  1.00  0.00    -0.248 NA
ATOM     46  C   UNL A   1      45.059  27.032  32.067  1.00  0.00     0.031 C 
ATOM     47  C   UNL A   1      41.303  28.312  29.002  1.00  0.00     0.029 A 
ATOM     48  N   UNL A   1      41.241  29.171  31.065  1.00  0.00    -0.354 N 
ATOM     49  C   UNL A   1      44.394  28.230  33.907  1.00  0.00     0.074 A 
ATOM     50  C   UNL A   1      45.348  27.301  33.335  1.00  0.00     0.031 C 
ATOM     51  C   UNL A   1      40.196  29.061  29.087  1.00  0.00     0.029 A 
ATOM     52  C   UNL A   1      40.110  29.619  30.430  1.00  0.00     0.049 A 
ATOM     53  H   UNL A   1      41.468  29.405  31.994  1.00  0.00     0.167 HD
ATOM     54  C   UNL A   1      44.456  28.745  35.159  1.00  0.00     0.037 A 
ATOM     55  C   UNL A   1      39.108  30.391  30.885  1.00  0.00     0.037 A 
ATOM     56  C   UNL A   1      43.477  29.653  35.708  1.00  0.00     0.049 A 
ATOM     57  C   UNL A   1      39.184  30.905  32.292  1.00  0.00     0.074 A 
ATOM     58  C   UNL A   1      43.463  30.261  36.951  1.00  0.00     0.029 A 
ATOM     59  N   UNL A   1      42.328  30.074  35.049  1.00  0.00    -0.354 N 
ATOM     60  N   UNL A   1      40.119  30.717  33.190  1.00  0.00    -0.248 NA
ATOM     61  C   UNL A   1      38.069  31.743  32.747  1.00  0.00     0.031 C 
ATOM     62  C   UNL A   1      42.280  30.998  37.067  1.00  0.00     0.029 A 
ATOM     63  C   UNL A   1      41.582  30.904  35.873  1.00  0.00     0.049 A 
ATOM     64  H   UNL A   1      42.079  29.820  34.130  1.00  0.00     0.167 HD
ATOM     65  C   UNL A   1      39.718  31.423  34.313  1.00  0.00     0.074 A 
ATOM     66  C   UNL A   1      38.464  32.066  33.970  1.00  0.00     0.031 C 
ATOM     67  C   UNL A   1      40.328  31.523  35.520  1.00  0.00     0.037 A 
BRANCH  54  68
ATOM     68  C   UNL A   1      45.618  28.348  36.027  1.00  0.00     0.064 A 
ATOM     69  C   UNL A   1      46.803  29.100  36.053  1.00  0.00     0.173 A 
ATOM     70  C   UNL A   1      45.520  27.256  36.903  1.00  0.00     0.173 A 
ATOM     71  F   UNL A   1      46.952  30.153  35.235  1.00  0.00    -0.203 F 
ATOM     72  C   UNL A   1      47.851  28.762  36.905  1.00  0.00     0.198 A 
ATOM     73  C   UNL A   1      46.558  26.938  37.776  1.00  0.00     0.198 A 
ATOM     74  F   UNL A   1      44.406  26.508  36.931  1.00  0.00    -0.203 F 
ATOM     75  F   UNL A   1      48.986  29.474  36.885  1.00  0.00    -0.200 F 
ATOM     76  C   UNL A   1      47.725  27.688  37.772  1.00  0.00     0.200 A 
ATOM     77  F   UNL A   1      46.427  25.910  38.626  1.00  0.00    -0.200 F 
ATOM     78  F   UNL A   1      48.728  27.373  38.604  1.00  0.00    -0.200 F 
ENDBRANCH  54  68
BRANCH  55  79
ATOM     79  C   UNL A   1      37.994  30.744  29.974  1.00  0.00     0.064 A 
ATOM     80  C   UNL A   1      37.931  32.011  29.381  1.00  0.00     0.173 A 
ATOM     81  C   UNL A   1      37.008  29.808  29.626  1.00  0.00     0.173 A 
ATOM     82  F   UNL A   1      38.847  32.940  29.690  1.00  0.00    -0.203 F 
ATOM     83  C   UNL A   1      36.920  32.332  28.479  1.00  0.00     0.198 A 
ATOM     84  C   UNL A   1      36.014  30.121  28.700  1.00  0.00     0.198 A 
ATOM     85  F   UNL A   1      37.034  28.575  30.154  1.00  0.00    -0.203 F 
ATOM     86  F   UNL A   1      36.867  33.560  27.947  1.00  0.00    -0.200 F 
ATOM     87  C   UNL A   1      35.968  31.385  28.132  1.00  0.00     0.200 A 
ATOM     88  F   UNL A   1      35.112  29.193  28.350  1.00  0.00    -0.200 F 
ATOM     89  F   UNL A   1      35.008  31.688  27.249  1.00  0.00    -0.200 F 
ENDBRANCH  55  79
BRANCH  67  90
ATOM     90  C   UNL A   1      39.642  32.359  36.562  1.00  0.00     0.064 A 
ATOM     91  C   UNL A   1      40.061  33.669  36.838  1.00  0.00     0.173 A 
ATOM     92  C   UNL A   1      38.529  31.864  37.258  1.00  0.00     0.173 A 
ATOM     93  F   UNL A   1      41.131  34.183  36.213  1.00  0.00    -0.203 F 
ATOM     94  C   UNL A   1      39.401  34.446  37.787  1.00  0.00     0.198 A 
ATOM     95  C   UNL A   1      37.852  32.656  38.181  1.00  0.00     0.198 A 
ATOM     96  F   UNL A   1      38.086  30.619  37.029  1.00  0.00    -0.203 F 
ATOM     97  F   UNL A   1      39.848  35.678  38.068  1.00  0.00    -0.200 F 
ATOM     98  C   UNL A   1      38.292  33.943  38.449  1.00  0.00     0.200 A 
ATOM     99  F   UNL A   1      36.769  32.175  38.808  1.00  0.00    -0.200 F 
ATOM    100  F   UNL A   1      37.650  34.698  39.352  1.00  0.00    -0.200 F 
ENDBRANCH  67  90
ENDBRANCH  41  42
ENDBRANCH  34  36
ENDBRANCH  33  34
ENDBRANCH  32  33
ENDBRANCH  31  32
ENDBRANCH  30  31
ENDBRANCH  29  30
ENDBRANCH  28  29
ENDBRANCH   1  28
TORSDOF 24
ENDMDL
