MODEL 1
REMARK VINA RESULT:      -7.2      0.000      0.000
REMARK SMILES CC(C)[C@H](NC(=O)[C@H](C)NC(=O)CNC(=O)OCc1ccccc1)C(=O)OCCOCCOCCOCCOC(=O)c1ccc(-c2c3nc(c(-c4c(F)c(F)c(F)c(F)c4F)c4ccc([nH]4)c(-c4c(F)c(F)c(F)c(F)c4F)c4nc(c(-c5c(F)c(F)c(F)c(F)c5F)c5ccc2[nH]5)C=C4)C=C3)cc1
REMARK SMILES IDX 30 1 29 2 28 3 27 4 25 5 26 6 4 7 2 8 1 9 3 10 5 11 6 12
REMARK SMILES IDX 7 14 8 15 9 16 10 17 11 18 12 20 13 21 14 22 15 23 16 25
REMARK SMILES IDX 17 26 18 27 19 28 20 29 24 30 21 31 23 32 22 33 31 34 32 35
REMARK SMILES IDX 33 36 34 37 35 38 36 39 37 40 38 41 39 42 40 43 41 44 42 45
REMARK SMILES IDX 43 46 104 47 44 48 103 49 45 50 46 51 47 52 97 53 48 54
REMARK SMILES IDX 102 55 96 56 98 57 49 58 101 59 95 60 94 61 50 63 82 64
REMARK SMILES IDX 62 65 81 66 63 67 66 68 80 69 99 70 64 71 65 72 79 74 100 75
REMARK SMILES IDX 67 76 51 77 52 78 60 79 53 80 54 81 58 82 61 83 55 84 56 85
REMARK SMILES IDX 59 86 57 87 83 88 84 89 92 90 85 91 86 92 90 93 93 94 87 95
REMARK SMILES IDX 88 96 91 97 89 98 68 99 69 100 77 101 70 102 71 103 75 104
REMARK SMILES IDX 78 105 72 106 73 107 76 108 74 109
REMARK H PARENT 5 13 10 19 14 24 98 62 66 73
REMARK Flexibility Score: inf
ROOT
ATOM      1  O   UNL A   1      43.422  19.846  24.878  1.00  0.00    -0.376 OA
ENDROOT
BRANCH   1   2
ATOM      2  C   UNL A   1      42.844  20.376  26.055  1.00  0.00     0.202 C 
BRANCH   2   3
ATOM      3  C   UNL A   1      41.311  20.380  26.194  1.00  0.00     0.261 C 
BRANCH   3   4
ATOM      4  O   UNL A   1      40.693  21.568  26.738  1.00  0.00    -0.462 OA
BRANCH   4   5
ATOM      5  C   UNL A   1      39.443  21.853  26.276  1.00  0.00     0.328 C 
ATOM      6  O   UNL A   1      38.705  21.027  25.751  1.00  0.00    -0.250 OA
BRANCH   5   7
ATOM      7  C   UNL A   1      39.055  23.357  26.361  1.00  0.00     0.194 C 
BRANCH   7   8
ATOM      8  C   UNL A   1      37.716  23.686  25.615  1.00  0.00     0.017 C 
ATOM      9  C   UNL A   1      37.425  22.816  24.383  1.00  0.00     0.010 C 
ATOM     10  C   UNL A   1      36.477  23.681  26.515  1.00  0.00     0.010 C 
ENDBRANCH   7   8
BRANCH   7  11
ATOM     11  N   UNL A   1      40.106  24.328  26.012  1.00  0.00    -0.341 N 
ATOM     12  C   UNL A   1      40.282  25.630  26.371  1.00  0.00     0.242 C 
ATOM     13  H   UNL A   1      40.805  23.973  25.416  1.00  0.00     0.164 HD
ATOM     14  O   UNL A   1      40.841  26.358  25.540  1.00  0.00    -0.273 OA
BRANCH  12  15
ATOM     15  C   UNL A   1      40.024  26.177  27.803  1.00  0.00     0.168 C 
ATOM     16  C   UNL A   1      39.283  25.051  28.538  1.00  0.00     0.041 C 
BRANCH  15  17
ATOM     17  N   UNL A   1      39.296  27.433  27.938  1.00  0.00    -0.343 N 
ATOM     18  C   UNL A   1      39.745  28.697  28.175  1.00  0.00     0.240 C 
ATOM     19  H   UNL A   1      38.318  27.355  27.841  1.00  0.00     0.164 HD
ATOM     20  O   UNL A   1      38.902  29.585  28.323  1.00  0.00    -0.273 OA
BRANCH  18  21
ATOM     21  C   UNL A   1      41.226  28.978  28.396  1.00  0.00     0.219 C 
BRANCH  21  22
ATOM     22  N   UNL A   1      41.862  28.980  27.093  1.00  0.00    -0.312 N 
ATOM     23  C   UNL A   1      43.041  28.377  26.786  1.00  0.00     0.407 C 
ATOM     24  H   UNL A   1      41.401  29.458  26.367  1.00  0.00     0.167 HD
ATOM     25  O   UNL A   1      43.641  28.621  25.752  1.00  0.00    -0.225 OA
BRANCH  23  26
ATOM     26  O   UNL A   1      43.450  27.527  27.760  1.00  0.00    -0.445 OA
BRANCH  26  27
ATOM     27  C   UNL A   1      43.869  26.229  27.320  1.00  0.00     0.270 C 
BRANCH  27  28
ATOM     28  C   UNL A   1      43.781  25.170  28.390  1.00  0.00    -0.011 A 
ATOM     29  C   UNL A   1      43.144  23.939  28.179  1.00  0.00     0.007 A 
ATOM     30  C   UNL A   1      44.394  25.411  29.627  1.00  0.00     0.007 A 
ATOM     31  C   UNL A   1      43.153  22.957  29.168  1.00  0.00     0.000 A 
ATOM     32  C   UNL A   1      44.392  24.432  30.620  1.00  0.00     0.000 A 
ATOM     33  C   UNL A   1      43.779  23.202  30.385  1.00  0.00     0.000 A 
ENDBRANCH  27  28
ENDBRANCH  26  27
ENDBRANCH  23  26
ENDBRANCH  21  22
ENDBRANCH  18  21
ENDBRANCH  15  17
ENDBRANCH  12  15
ENDBRANCH   7  11
ENDBRANCH   5   7
ENDBRANCH   4   5
ENDBRANCH   3   4
ENDBRANCH   2   3
ENDBRANCH   1   2
BRANCH   1  34
ATOM     34  C   UNL A   1      44.690  20.313  24.441  1.00  0.00     0.188 C 
BRANCH  34  35
ATOM     35  C   UNL A   1      45.536  21.249  25.322  1.00  0.00     0.188 C 
BRANCH  35  36
ATOM     36  O   UNL A   1      45.920  22.471  24.729  1.00  0.00    -0.377 OA
BRANCH  36  37
ATOM     37  C   UNL A   1      46.183  23.519  25.649  1.00  0.00     0.188 C 
BRANCH  37  38
ATOM     38  C   UNL A   1      46.537  24.876  25.017  1.00  0.00     0.188 C 
BRANCH  38  39
ATOM     39  O   UNL A   1      47.451  24.761  23.926  1.00  0.00    -0.376 OA
BRANCH  39  40
ATOM     40  C   UNL A   1      48.274  25.883  23.625  1.00  0.00     0.202 C 
BRANCH  40  41
ATOM     41  C   UNL A   1      49.284  26.275  24.715  1.00  0.00     0.261 C 
BRANCH  41  42
ATOM     42  O   UNL A   1      49.074  27.568  25.302  1.00  0.00    -0.460 OA
BRANCH  42  43
ATOM     43  C   UNL A   1      49.701  27.808  26.472  1.00  0.00     0.338 C 
ATOM     44  O   UNL A   1      50.889  27.693  26.710  1.00  0.00    -0.246 OA
BRANCH  43  45
ATOM     45  C   UNL A   1      48.741  28.480  27.368  1.00  0.00     0.060 A 
ATOM     46  C   UNL A   1      49.262  29.275  28.395  1.00  0.00     0.016 A 
ATOM     47  C   UNL A   1      47.359  28.353  27.195  1.00  0.00     0.016 A 
ATOM     48  C   UNL A   1      48.404  29.921  29.275  1.00  0.00     0.010 A 
ATOM     49  C   UNL A   1      46.496  28.978  28.100  1.00  0.00     0.010 A 
ATOM     50  C   UNL A   1      47.021  29.733  29.162  1.00  0.00    -0.014 A 
BRANCH  50  51
ATOM     51  C   UNL A   1      46.179  30.154  30.304  1.00  0.00     0.031 A 
ATOM     52  C   UNL A   1      45.528  31.506  30.238  1.00  0.00     0.074 A 
ATOM     53  C   UNL A   1      45.909  29.307  31.310  1.00  0.00     0.049 A 
ATOM     54  N   UNL A   1      44.653  32.049  31.042  1.00  0.00    -0.248 NA
ATOM     55  C   UNL A   1      45.908  32.357  29.097  1.00  0.00     0.031 C 
ATOM     56  C   UNL A   1      46.455  27.958  31.446  1.00  0.00     0.029 A 
ATOM     57  N   UNL A   1      45.089  29.453  32.399  1.00  0.00    -0.354 N 
ATOM     58  C   UNL A   1      44.371  33.298  30.501  1.00  0.00     0.074 A 
ATOM     59  C   UNL A   1      45.195  33.449  29.323  1.00  0.00     0.031 C 
ATOM     60  C   UNL A   1      45.950  27.397  32.558  1.00  0.00     0.029 A 
ATOM     61  C   UNL A   1      45.062  28.353  33.218  1.00  0.00     0.049 A 
ATOM     62  H   UNL A   1      44.568  30.270  32.575  1.00  0.00     0.167 HD
ATOM     63  C   UNL A   1      43.495  34.229  30.945  1.00  0.00     0.037 A 
ATOM     64  C   UNL A   1      44.398  28.150  34.371  1.00  0.00     0.037 A 
ATOM     65  C   UNL A   1      42.694  34.073  32.130  1.00  0.00     0.049 A 
ATOM     66  C   UNL A   1      43.473  29.228  34.877  1.00  0.00     0.074 A 
ATOM     67  C   UNL A   1      41.771  34.951  32.672  1.00  0.00     0.029 A 
ATOM     68  N   UNL A   1      42.732  32.965  32.966  1.00  0.00    -0.354 N 
ATOM     69  N   UNL A   1      43.186  30.393  34.346  1.00  0.00    -0.248 NA
ATOM     70  C   UNL A   1      42.765  28.953  36.134  1.00  0.00     0.031 C 
ATOM     71  C   UNL A   1      41.300  34.401  33.870  1.00  0.00     0.029 A 
ATOM     72  C   UNL A   1      41.872  33.149  34.037  1.00  0.00     0.049 A 
ATOM     73  H   UNL A   1      43.288  32.166  32.819  1.00  0.00     0.167 HD
ATOM     74  C   UNL A   1      42.247  30.978  35.187  1.00  0.00     0.074 A 
ATOM     75  C   UNL A   1      41.998  30.026  36.251  1.00  0.00     0.031 C 
ATOM     76  C   UNL A   1      41.644  32.190  35.089  1.00  0.00     0.037 A 
BRANCH  63  77
ATOM     77  C   UNL A   1      43.400  35.512  30.171  1.00  0.00     0.064 A 
ATOM     78  C   UNL A   1      42.538  35.656  29.072  1.00  0.00     0.173 A 
ATOM     79  C   UNL A   1      44.184  36.617  30.536  1.00  0.00     0.173 A 
ATOM     80  F   UNL A   1      41.782  34.625  28.665  1.00  0.00    -0.203 F 
ATOM     81  C   UNL A   1      42.487  36.849  28.353  1.00  0.00     0.198 A 
ATOM     82  C   UNL A   1      44.105  37.817  29.835  1.00  0.00     0.198 A 
ATOM     83  F   UNL A   1      45.027  36.534  31.576  1.00  0.00    -0.203 F 
ATOM     84  F   UNL A   1      41.698  36.945  27.273  1.00  0.00    -0.200 F 
ATOM     85  C   UNL A   1      43.264  37.929  28.739  1.00  0.00     0.200 A 
ATOM     86  F   UNL A   1      44.850  38.864  30.217  1.00  0.00    -0.200 F 
ATOM     87  F   UNL A   1      43.211  39.077  28.048  1.00  0.00    -0.200 F 
ENDBRANCH  63  77
BRANCH  64  88
ATOM     88  C   UNL A   1      44.583  26.880  35.122  1.00  0.00     0.064 A 
ATOM     89  C   UNL A   1      45.569  26.749  36.110  1.00  0.00     0.173 A 
ATOM     90  C   UNL A   1      43.776  25.763  34.856  1.00  0.00     0.173 A 
ATOM     91  F   UNL A   1      46.381  27.779  36.386  1.00  0.00    -0.203 F 
ATOM     92  C   UNL A   1      45.751  25.547  36.791  1.00  0.00     0.198 A 
ATOM     93  C   UNL A   1      43.938  24.571  35.560  1.00  0.00     0.198 A 
ATOM     94  F   UNL A   1      42.819  25.832  33.920  1.00  0.00    -0.203 F 
ATOM     95  F   UNL A   1      46.731  25.434  37.698  1.00  0.00    -0.200 F 
ATOM     96  C   UNL A   1      44.932  24.461  36.520  1.00  0.00     0.200 A 
ATOM     97  F   UNL A   1      43.134  23.530  35.305  1.00  0.00    -0.200 F 
ATOM     98  F   UNL A   1      45.102  23.308  37.181  1.00  0.00    -0.200 F 
ENDBRANCH  64  88
BRANCH  76  99
ATOM     99  C   UNL A   1      40.630  32.535  36.145  1.00  0.00     0.064 A 
ATOM    100  C   UNL A   1      40.993  33.160  37.347  1.00  0.00     0.173 A 
ATOM    101  C   UNL A   1      39.272  32.243  35.943  1.00  0.00     0.173 A 
ATOM    102  F   UNL A   1      42.279  33.453  37.594  1.00  0.00    -0.203 F 
ATOM    103  C   UNL A   1      40.043  33.435  38.327  1.00  0.00     0.198 A 
ATOM    104  C   UNL A   1      38.319  32.555  36.909  1.00  0.00     0.198 A 
ATOM    105  F   UNL A   1      38.866  31.657  34.807  1.00  0.00    -0.203 F 
ATOM    106  F   UNL A   1      40.424  33.966  39.497  1.00  0.00    -0.200 F 
ATOM    107  C   UNL A   1      38.707  33.137  38.106  1.00  0.00     0.200 A 
ATOM    108  F   UNL A   1      37.026  32.283  36.684  1.00  0.00    -0.200 F 
ATOM    109  F   UNL A   1      37.794  33.399  39.051  1.00  0.00    -0.200 F 
ENDBRANCH  76  99
ENDBRANCH  50  51
ENDBRANCH  43  45
ENDBRANCH  42  43
ENDBRANCH  41  42
ENDBRANCH  40  41
ENDBRANCH  39  40
ENDBRANCH  38  39
ENDBRANCH  37  38
ENDBRANCH  36  37
ENDBRANCH  35  36
ENDBRANCH  34  35
ENDBRANCH   1  34
TORSDOF 29
ENDMDL
MODEL 2
REMARK VINA RESULT:      -6.8      0.808      2.041
REMARK SMILES CC(C)[C@H](NC(=O)[C@H](C)NC(=O)CNC(=O)OCc1ccccc1)C(=O)OCCOCCOCCOCCOC(=O)c1ccc(-c2c3nc(c(-c4c(F)c(F)c(F)c(F)c4F)c4ccc([nH]4)c(-c4c(F)c(F)c(F)c(F)c4F)c4nc(c(-c5c(F)c(F)c(F)c(F)c5F)c5ccc2[nH]5)C=C4)C=C3)cc1
REMARK SMILES IDX 30 1 29 2 28 3 27 4 25 5 26 6 4 7 2 8 1 9 3 10 5 11 6 12
REMARK SMILES IDX 7 14 8 15 9 16 10 17 11 18 12 20 13 21 14 22 15 23 16 25
REMARK SMILES IDX 17 26 18 27 19 28 20 29 24 30 21 31 23 32 22 33 31 34 32 35
REMARK SMILES IDX 33 36 34 37 35 38 36 39 37 40 38 41 39 42 40 43 41 44 42 45
REMARK SMILES IDX 43 46 104 47 44 48 103 49 45 50 46 51 47 52 97 53 48 54
REMARK SMILES IDX 102 55 96 56 98 57 49 58 101 59 95 60 94 61 50 63 82 64
REMARK SMILES IDX 62 65 81 66 63 67 66 68 80 69 99 70 64 71 65 72 79 74 100 75
REMARK SMILES IDX 67 76 51 77 52 78 60 79 53 80 54 81 58 82 61 83 55 84 56 85
REMARK SMILES IDX 59 86 57 87 83 88 84 89 92 90 85 91 86 92 90 93 93 94 87 95
REMARK SMILES IDX 88 96 91 97 89 98 68 99 69 100 77 101 70 102 71 103 75 104
REMARK SMILES IDX 78 105 72 106 73 107 76 108 74 109
REMARK H PARENT 5 13 10 19 14 24 98 62 66 73
REMARK Flexibility Score: inf
ROOT
ATOM      1  O   UNL A   1      43.839  19.895  24.656  1.00  0.00    -0.376 OA
ENDROOT
BRANCH   1   2
ATOM      2  C   UNL A   1      43.274  20.153  25.927  1.00  0.00     0.202 C 
BRANCH   2   3
ATOM      3  C   UNL A   1      41.745  20.094  26.087  1.00  0.00     0.261 C 
BRANCH   3   4
ATOM      4  O   UNL A   1      41.090  21.243  26.672  1.00  0.00    -0.462 OA
BRANCH   4   5
ATOM      5  C   UNL A   1      39.799  21.451  26.287  1.00  0.00     0.328 C 
ATOM      6  O   UNL A   1      39.088  20.587  25.788  1.00  0.00    -0.250 OA
BRANCH   5   7
ATOM      7  C   UNL A   1      39.318  22.925  26.426  1.00  0.00     0.194 C 
BRANCH   7   8
ATOM      8  C   UNL A   1      37.830  23.127  25.976  1.00  0.00     0.017 C 
ATOM      9  C   UNL A   1      37.005  24.076  26.859  1.00  0.00     0.010 C 
ATOM     10  C   UNL A   1      37.667  23.559  24.516  1.00  0.00     0.010 C 
ENDBRANCH   7   8
BRANCH   7  11
ATOM     11  N   UNL A   1      40.191  23.958  25.844  1.00  0.00    -0.341 N 
ATOM     12  C   UNL A   1      40.526  25.203  26.283  1.00  0.00     0.242 C 
ATOM     13  H   UNL A   1      40.605  23.704  24.988  1.00  0.00     0.164 HD
ATOM     14  O   UNL A   1      40.755  26.051  25.411  1.00  0.00    -0.273 OA
BRANCH  12  15
ATOM     15  C   UNL A   1      40.839  25.544  27.768  1.00  0.00     0.168 C 
ATOM     16  C   UNL A   1      41.256  24.212  28.408  1.00  0.00     0.041 C 
BRANCH  15  17
ATOM     17  N   UNL A   1      39.794  26.180  28.562  1.00  0.00    -0.343 N 
ATOM     18  C   UNL A   1      39.722  27.434  29.089  1.00  0.00     0.240 C 
ATOM     19  H   UNL A   1      39.012  25.610  28.746  1.00  0.00     0.164 HD
ATOM     20  O   UNL A   1      38.748  27.701  29.797  1.00  0.00    -0.273 OA
BRANCH  18  21
ATOM     21  C   UNL A   1      40.872  28.421  28.935  1.00  0.00     0.219 C 
BRANCH  21  22
ATOM     22  N   UNL A   1      41.024  28.684  27.517  1.00  0.00    -0.312 N 
ATOM     23  C   UNL A   1      42.203  28.876  26.869  1.00  0.00     0.407 C 
ATOM     24  H   UNL A   1      40.203  28.728  26.976  1.00  0.00     0.167 HD
ATOM     25  O   UNL A   1      42.252  29.336  25.739  1.00  0.00    -0.225 OA
BRANCH  23  26
ATOM     26  O   UNL A   1      43.268  28.527  27.630  1.00  0.00    -0.445 OA
BRANCH  26  27
ATOM     27  C   UNL A   1      43.904  27.289  27.285  1.00  0.00     0.270 C 
BRANCH  27  28
ATOM     28  C   UNL A   1      44.442  26.534  28.474  1.00  0.00    -0.011 A 
ATOM     29  C   UNL A   1      43.685  26.319  29.635  1.00  0.00     0.007 A 
ATOM     30  C   UNL A   1      45.731  25.989  28.397  1.00  0.00     0.007 A 
ATOM     31  C   UNL A   1      44.191  25.549  30.679  1.00  0.00     0.000 A 
ATOM     32  C   UNL A   1      46.241  25.228  29.449  1.00  0.00     0.000 A 
ATOM     33  C   UNL A   1      45.466  25.000  30.584  1.00  0.00     0.000 A 
ENDBRANCH  27  28
ENDBRANCH  26  27
ENDBRANCH  23  26
ENDBRANCH  21  22
ENDBRANCH  18  21
ENDBRANCH  15  17
ENDBRANCH  12  15
ENDBRANCH   7  11
ENDBRANCH   5   7
ENDBRANCH   4   5
ENDBRANCH   3   4
ENDBRANCH   2   3
ENDBRANCH   1   2
BRANCH   1  34
ATOM     34  C   UNL A   1      44.909  20.699  24.181  1.00  0.00     0.188 C 
BRANCH  34  35
ATOM     35  C   UNL A   1      45.604  21.716  25.101  1.00  0.00     0.188 C 
BRANCH  35  36
ATOM     36  O   UNL A   1      45.879  22.977  24.528  1.00  0.00    -0.377 OA
BRANCH  36  37
ATOM     37  C   UNL A   1      46.200  23.995  25.463  1.00  0.00     0.188 C 
BRANCH  37  38
ATOM     38  C   UNL A   1      46.641  25.335  24.850  1.00  0.00     0.188 C 
BRANCH  38  39
ATOM     39  O   UNL A   1      47.694  25.193  23.897  1.00  0.00    -0.376 OA
BRANCH  39  40
ATOM     40  C   UNL A   1      48.472  26.344  23.585  1.00  0.00     0.202 C 
BRANCH  40  41
ATOM     41  C   UNL A   1      49.425  26.819  24.694  1.00  0.00     0.261 C 
BRANCH  41  42
ATOM     42  O   UNL A   1      49.248  28.183  25.103  1.00  0.00    -0.460 OA
BRANCH  42  43
ATOM     43  C   UNL A   1      49.931  28.578  26.197  1.00  0.00     0.338 C 
ATOM     44  O   UNL A   1      51.139  28.609  26.342  1.00  0.00    -0.246 OA
BRANCH  43  45
ATOM     45  C   UNL A   1      48.972  29.208  27.124  1.00  0.00     0.060 A 
ATOM     46  C   UNL A   1      49.493  29.889  28.230  1.00  0.00     0.016 A 
ATOM     47  C   UNL A   1      47.591  29.155  26.904  1.00  0.00     0.016 A 
ATOM     48  C   UNL A   1      48.635  30.490  29.141  1.00  0.00     0.010 A 
ATOM     49  C   UNL A   1      46.727  29.733  27.838  1.00  0.00     0.010 A 
ATOM     50  C   UNL A   1      47.250  30.370  28.976  1.00  0.00    -0.014 A 
BRANCH  50  51
ATOM     51  C   UNL A   1      46.392  30.724  30.128  1.00  0.00     0.031 A 
ATOM     52  C   UNL A   1      45.693  32.054  30.104  1.00  0.00     0.074 A 
ATOM     53  C   UNL A   1      46.149  29.836  31.105  1.00  0.00     0.049 A 
ATOM     54  N   UNL A   1      44.798  32.540  30.922  1.00  0.00    -0.248 NA
ATOM     55  C   UNL A   1      46.045  32.954  28.992  1.00  0.00     0.031 C 
ATOM     56  C   UNL A   1      46.742  28.504  31.200  1.00  0.00     0.029 A 
ATOM     57  N   UNL A   1      45.322  29.919  32.197  1.00  0.00    -0.354 N 
ATOM     58  C   UNL A   1      44.473  33.795  30.421  1.00  0.00     0.074 A 
ATOM     59  C   UNL A   1      45.294  34.012  29.250  1.00  0.00     0.031 C 
ATOM     60  C   UNL A   1      46.256  27.889  32.293  1.00  0.00     0.029 A 
ATOM     61  C   UNL A   1      45.333  28.792  32.979  1.00  0.00     0.049 A 
ATOM     62  H   UNL A   1      44.773  30.710  32.397  1.00  0.00     0.167 HD
ATOM     63  C   UNL A   1      43.565  34.680  30.892  1.00  0.00     0.037 A 
ATOM     64  C   UNL A   1      44.674  28.529  34.124  1.00  0.00     0.037 A 
ATOM     65  C   UNL A   1      42.767  34.458  32.069  1.00  0.00     0.049 A 
ATOM     66  C   UNL A   1      43.711  29.557  34.661  1.00  0.00     0.074 A 
ATOM     67  C   UNL A   1      41.814  35.285  32.636  1.00  0.00     0.029 A 
ATOM     68  N   UNL A   1      42.843  33.326  32.869  1.00  0.00    -0.354 N 
ATOM     69  N   UNL A   1      43.385  30.728  34.167  1.00  0.00    -0.248 NA
ATOM     70  C   UNL A   1      43.011  29.217  35.907  1.00  0.00     0.031 C 
ATOM     71  C   UNL A   1      41.360  34.681  33.814  1.00  0.00     0.029 A 
ATOM     72  C   UNL A   1      41.975  33.445  33.943  1.00  0.00     0.049 A 
ATOM     73  H   UNL A   1      43.427  32.552  32.698  1.00  0.00     0.167 HD
ATOM     74  C   UNL A   1      42.424  31.253  35.024  1.00  0.00     0.074 A 
ATOM     75  C   UNL A   1      42.207  30.259  36.056  1.00  0.00     0.031 C 
ATOM     76  C   UNL A   1      41.779  32.445  34.963  1.00  0.00     0.037 A 
BRANCH  63  77
ATOM     77  C   UNL A   1      43.426  35.983  30.159  1.00  0.00     0.064 A 
ATOM     78  C   UNL A   1      44.186  37.113  30.499  1.00  0.00     0.173 A 
ATOM     79  C   UNL A   1      42.519  36.101  29.094  1.00  0.00     0.173 A 
ATOM     80  F   UNL A   1      45.052  37.062  31.522  1.00  0.00    -0.203 F 
ATOM     81  C   UNL A   1      44.021  38.319  29.820  1.00  0.00     0.198 A 
ATOM     82  C   UNL A   1      42.381  37.299  28.398  1.00  0.00     0.198 A 
ATOM     83  F   UNL A   1      41.766  35.054  28.729  1.00  0.00    -0.203 F 
ATOM     84  F   UNL A   1      44.716  39.401  30.200  1.00  0.00    -0.200 F 
ATOM     85  C   UNL A   1      43.125  38.409  28.767  1.00  0.00     0.200 A 
ATOM     86  F   UNL A   1      41.522  37.379  27.372  1.00  0.00    -0.200 F 
ATOM     87  F   UNL A   1      42.970  39.569  28.113  1.00  0.00    -0.200 F 
ENDBRANCH  63  77
BRANCH  64  88
ATOM     88  C   UNL A   1      44.903  27.243  34.834  1.00  0.00     0.064 A 
ATOM     89  C   UNL A   1      44.069  26.134  34.630  1.00  0.00     0.173 A 
ATOM     90  C   UNL A   1      45.963  27.102  35.742  1.00  0.00     0.173 A 
ATOM     91  F   UNL A   1      43.028  26.224  33.790  1.00  0.00    -0.203 F 
ATOM     92  C   UNL A   1      44.277  24.940  35.319  1.00  0.00     0.198 A 
ATOM     93  C   UNL A   1      46.189  25.898  36.407  1.00  0.00     0.198 A 
ATOM     94  F   UNL A   1      46.790  28.130  35.975  1.00  0.00    -0.203 F 
ATOM     95  F   UNL A   1      43.437  23.911  35.142  1.00  0.00    -0.200 F 
ATOM     96  C   UNL A   1      45.340  24.821  36.202  1.00  0.00     0.200 A 
ATOM     97  F   UNL A   1      47.226  25.783  37.247  1.00  0.00    -0.200 F 
ATOM     98  F   UNL A   1      45.544  23.671  36.858  1.00  0.00    -0.200 F 
ENDBRANCH  64  88
BRANCH  76  99
ATOM     99  C   UNL A   1      40.752  32.720  36.026  1.00  0.00     0.064 A 
ATOM    100  C   UNL A   1      39.457  32.185  35.964  1.00  0.00     0.173 A 
ATOM    101  C   UNL A   1      41.075  33.526  37.131  1.00  0.00     0.173 A 
ATOM    102  F   UNL A   1      39.094  31.416  34.925  1.00  0.00    -0.203 F 
ATOM    103  C   UNL A   1      38.510  32.484  36.940  1.00  0.00     0.198 A 
ATOM    104  C   UNL A   1      40.136  33.790  38.125  1.00  0.00     0.198 A 
ATOM    105  F   UNL A   1      42.301  34.054  37.249  1.00  0.00    -0.203 F 
ATOM    106  F   UNL A   1      37.259  32.019  36.820  1.00  0.00    -0.200 F 
ATOM    107  C   UNL A   1      38.851  33.282  38.020  1.00  0.00     0.200 A 
ATOM    108  F   UNL A   1      40.474  34.546  39.178  1.00  0.00    -0.200 F 
ATOM    109  F   UNL A   1      37.937  33.571  38.957  1.00  0.00    -0.200 F 
ENDBRANCH  76  99
ENDBRANCH  50  51
ENDBRANCH  43  45
ENDBRANCH  42  43
ENDBRANCH  41  42
ENDBRANCH  40  41
ENDBRANCH  39  40
ENDBRANCH  38  39
ENDBRANCH  37  38
ENDBRANCH  36  37
ENDBRANCH  35  36
ENDBRANCH  34  35
ENDBRANCH   1  34
TORSDOF 29
ENDMDL
MODEL 3
REMARK VINA RESULT:      -6.6      3.413      8.513
REMARK SMILES CC(C)[C@H](NC(=O)[C@H](C)NC(=O)CNC(=O)OCc1ccccc1)C(=O)OCCOCCOCCOCCOC(=O)c1ccc(-c2c3nc(c(-c4c(F)c(F)c(F)c(F)c4F)c4ccc([nH]4)c(-c4c(F)c(F)c(F)c(F)c4F)c4nc(c(-c5c(F)c(F)c(F)c(F)c5F)c5ccc2[nH]5)C=C4)C=C3)cc1
REMARK SMILES IDX 30 1 29 2 28 3 27 4 25 5 26 6 4 7 2 8 1 9 3 10 5 11 6 12
REMARK SMILES IDX 7 14 8 15 9 16 10 17 11 18 12 20 13 21 14 22 15 23 16 25
REMARK SMILES IDX 17 26 18 27 19 28 20 29 24 30 21 31 23 32 22 33 31 34 32 35
REMARK SMILES IDX 33 36 34 37 35 38 36 39 37 40 38 41 39 42 40 43 41 44 42 45
REMARK SMILES IDX 43 46 104 47 44 48 103 49 45 50 46 51 47 52 97 53 48 54
REMARK SMILES IDX 102 55 96 56 98 57 49 58 101 59 95 60 94 61 50 63 82 64
REMARK SMILES IDX 62 65 81 66 63 67 66 68 80 69 99 70 64 71 65 72 79 74 100 75
REMARK SMILES IDX 67 76 51 77 52 78 60 79 53 80 54 81 58 82 61 83 55 84 56 85
REMARK SMILES IDX 59 86 57 87 83 88 84 89 92 90 85 91 86 92 90 93 93 94 87 95
REMARK SMILES IDX 88 96 91 97 89 98 68 99 69 100 77 101 70 102 71 103 75 104
REMARK SMILES IDX 78 105 72 106 73 107 76 108 74 109
REMARK H PARENT 5 13 10 19 14 24 98 62 66 73
REMARK Flexibility Score: inf
ROOT
ATOM      1  O   UNL A   1      46.902  26.077  25.165  1.00  0.00    -0.376 OA
ENDROOT
BRANCH   1   2
ATOM      2  C   UNL A   1      46.671  27.181  26.018  1.00  0.00     0.202 C 
BRANCH   2   3
ATOM      3  C   UNL A   1      47.143  28.577  25.572  1.00  0.00     0.261 C 
BRANCH   3   4
ATOM      4  O   UNL A   1      48.039  29.292  26.453  1.00  0.00    -0.462 OA
BRANCH   4   5
ATOM      5  C   UNL A   1      49.325  28.842  26.485  1.00  0.00     0.328 C 
ATOM      6  O   UNL A   1      49.976  28.563  25.485  1.00  0.00    -0.250 OA
BRANCH   5   7
ATOM      7  C   UNL A   1      49.883  28.597  27.917  1.00  0.00     0.194 C 
BRANCH   7   8
ATOM      8  C   UNL A   1      49.021  27.582  28.744  1.00  0.00     0.017 C 
ATOM      9  C   UNL A   1      49.301  26.100  28.454  1.00  0.00     0.010 C 
ATOM     10  C   UNL A   1      49.075  27.798  30.259  1.00  0.00     0.010 C 
ENDBRANCH   7   8
BRANCH   7  11
ATOM     11  N   UNL A   1      50.198  29.794  28.714  1.00  0.00    -0.341 N 
ATOM     12  C   UNL A   1      50.687  31.013  28.351  1.00  0.00     0.242 C 
ATOM     13  H   UNL A   1      50.023  29.698  29.678  1.00  0.00     0.164 HD
ATOM     14  O   UNL A   1      51.390  31.594  29.187  1.00  0.00    -0.273 OA
BRANCH  12  15
ATOM     15  C   UNL A   1      50.242  31.780  27.074  1.00  0.00     0.168 C 
ATOM     16  C   UNL A   1      51.507  31.897  26.212  1.00  0.00     0.041 C 
BRANCH  15  17
ATOM     17  N   UNL A   1      49.621  33.089  27.240  1.00  0.00    -0.343 N 
ATOM     18  C   UNL A   1      48.331  33.486  27.062  1.00  0.00     0.240 C 
ATOM     19  H   UNL A   1      50.235  33.803  27.528  1.00  0.00     0.164 HD
ATOM     20  O   UNL A   1      48.078  34.686  27.196  1.00  0.00    -0.273 OA
BRANCH  18  21
ATOM     21  C   UNL A   1      47.267  32.513  26.570  1.00  0.00     0.219 C 
BRANCH  21  22
ATOM     22  N   UNL A   1      45.977  33.063  26.942  1.00  0.00    -0.312 N 
ATOM     23  C   UNL A   1      44.779  32.436  26.805  1.00  0.00     0.407 C 
ATOM     24  H   UNL A   1      45.968  33.968  27.327  1.00  0.00     0.167 HD
ATOM     25  O   UNL A   1      43.721  33.036  26.901  1.00  0.00    -0.225 OA
BRANCH  23  26
ATOM     26  O   UNL A   1      44.921  31.115  26.532  1.00  0.00    -0.445 OA
BRANCH  26  27
ATOM     27  C   UNL A   1      44.541  30.217  27.583  1.00  0.00     0.270 C 
BRANCH  27  28
ATOM     28  C   UNL A   1      43.434  29.269  27.196  1.00  0.00    -0.011 A 
ATOM     29  C   UNL A   1      42.225  29.710  26.641  1.00  0.00     0.007 A 
ATOM     30  C   UNL A   1      43.640  27.892  27.359  1.00  0.00     0.007 A 
ATOM     31  C   UNL A   1      41.259  28.796  26.224  1.00  0.00     0.000 A 
ATOM     32  C   UNL A   1      42.668  26.979  26.952  1.00  0.00     0.000 A 
ATOM     33  C   UNL A   1      41.483  27.431  26.377  1.00  0.00     0.000 A 
ENDBRANCH  27  28
ENDBRANCH  26  27
ENDBRANCH  23  26
ENDBRANCH  21  22
ENDBRANCH  18  21
ENDBRANCH  15  17
ENDBRANCH  12  15
ENDBRANCH   7  11
ENDBRANCH   5   7
ENDBRANCH   4   5
ENDBRANCH   3   4
ENDBRANCH   2   3
ENDBRANCH   1   2
BRANCH   1  34
ATOM     34  C   UNL A   1      45.895  25.091  24.995  1.00  0.00     0.188 C 
BRANCH  34  35
ATOM     35  C   UNL A   1      46.258  23.645  24.613  1.00  0.00     0.188 C 
BRANCH  35  36
ATOM     36  O   UNL A   1      45.593  23.123  23.482  1.00  0.00    -0.377 OA
BRANCH  36  37
ATOM     37  C   UNL A   1      44.598  22.155  23.774  1.00  0.00     0.188 C 
BRANCH  37  38
ATOM     38  C   UNL A   1      44.933  21.196  24.930  1.00  0.00     0.188 C 
BRANCH  38  39
ATOM     39  O   UNL A   1      43.991  21.263  26.001  1.00  0.00    -0.376 OA
BRANCH  39  40
ATOM     40  C   UNL A   1      43.160  22.416  26.088  1.00  0.00     0.202 C 
BRANCH  40  41
ATOM     41  C   UNL A   1      43.520  23.408  27.206  1.00  0.00     0.261 C 
BRANCH  41  42
ATOM     42  O   UNL A   1      44.454  22.914  28.179  1.00  0.00    -0.460 OA
BRANCH  42  43
ATOM     43  C   UNL A   1      45.534  23.685  28.423  1.00  0.00     0.338 C 
ATOM     44  O   UNL A   1      46.569  23.728  27.785  1.00  0.00    -0.246 OA
BRANCH  43  45
ATOM     45  C   UNL A   1      45.162  24.665  29.461  1.00  0.00     0.060 A 
ATOM     46  C   UNL A   1      44.291  24.238  30.470  1.00  0.00     0.016 A 
ATOM     47  C   UNL A   1      45.671  25.968  29.461  1.00  0.00     0.016 A 
ATOM     48  C   UNL A   1      43.898  25.123  31.466  1.00  0.00     0.010 A 
ATOM     49  C   UNL A   1      45.250  26.866  30.445  1.00  0.00     0.010 A 
ATOM     50  C   UNL A   1      44.334  26.453  31.427  1.00  0.00    -0.014 A 
BRANCH  50  51
ATOM     51  C   UNL A   1      43.635  27.427  32.293  1.00  0.00     0.031 A 
ATOM     52  C   UNL A   1      44.221  27.715  33.646  1.00  0.00     0.074 A 
ATOM     53  C   UNL A   1      42.579  28.120  31.837  1.00  0.00     0.049 A 
ATOM     54  N   UNL A   1      43.872  28.611  34.531  1.00  0.00    -0.248 NA
ATOM     55  C   UNL A   1      45.369  26.886  34.048  1.00  0.00     0.031 C 
ATOM     56  C   UNL A   1      41.960  27.947  30.525  1.00  0.00     0.029 A 
ATOM     57  N   UNL A   1      41.853  29.124  32.426  1.00  0.00    -0.354 N 
ATOM     58  C   UNL A   1      44.761  28.460  35.588  1.00  0.00     0.074 A 
ATOM     59  C   UNL A   1      45.641  27.363  35.253  1.00  0.00     0.031 C 
ATOM     60  C   UNL A   1      40.945  28.821  30.405  1.00  0.00     0.029 A 
ATOM     61  C   UNL A   1      40.836  29.599  31.638  1.00  0.00     0.049 A 
ATOM     62  H   UNL A   1      42.046  29.471  33.327  1.00  0.00     0.167 HD
ATOM     63  C   UNL A   1      44.840  29.180  36.731  1.00  0.00     0.037 A 
ATOM     64  C   UNL A   1      39.919  30.552  31.893  1.00  0.00     0.037 A 
ATOM     65  C   UNL A   1      43.946  30.259  37.061  1.00  0.00     0.049 A 
ATOM     66  C   UNL A   1      39.992  31.300  33.200  1.00  0.00     0.074 A 
ATOM     67  C   UNL A   1      43.936  31.059  38.190  1.00  0.00     0.029 A 
ATOM     68  N   UNL A   1      42.892  30.679  36.261  1.00  0.00    -0.354 N 
ATOM     69  N   UNL A   1      40.852  31.174  34.182  1.00  0.00    -0.248 NA
ATOM     70  C   UNL A   1      38.974  32.335  33.425  1.00  0.00     0.031 C 
ATOM     71  C   UNL A   1      42.835  31.920  38.102  1.00  0.00     0.029 A 
ATOM     72  C   UNL A   1      42.204  31.708  36.886  1.00  0.00     0.049 A 
ATOM     73  H   UNL A   1      42.666  30.302  35.380  1.00  0.00     0.167 HD
ATOM     74  C   UNL A   1      40.498  32.130  35.128  1.00  0.00     0.074 A 
ATOM     75  C   UNL A   1      39.357  32.841  34.588  1.00  0.00     0.031 C 
ATOM     76  C   UNL A   1      41.065  32.397  36.332  1.00  0.00     0.037 A 
BRANCH  63  77
ATOM     77  C   UNL A   1      45.898  28.788  37.722  1.00  0.00     0.064 A 
ATOM     78  C   UNL A   1      45.705  27.747  38.644  1.00  0.00     0.173 A 
ATOM     79  C   UNL A   1      47.127  29.464  37.748  1.00  0.00     0.173 A 
ATOM     80  F   UNL A   1      44.541  27.081  38.678  1.00  0.00    -0.203 F 
ATOM     81  C   UNL A   1      46.692  27.418  39.571  1.00  0.00     0.198 A 
ATOM     82  C   UNL A   1      48.123  29.111  38.654  1.00  0.00     0.198 A 
ATOM     83  F   UNL A   1      47.364  30.469  36.891  1.00  0.00    -0.203 F 
ATOM     84  F   UNL A   1      46.463  26.459  40.479  1.00  0.00    -0.200 F 
ATOM     85  C   UNL A   1      47.901  28.095  39.571  1.00  0.00     0.200 A 
ATOM     86  F   UNL A   1      49.296  29.760  38.644  1.00  0.00    -0.200 F 
ATOM     87  F   UNL A   1      48.851  27.776  40.462  1.00  0.00    -0.200 F 
ENDBRANCH  63  77
BRANCH  64  88
ATOM     88  C   UNL A   1      38.860  30.850  30.893  1.00  0.00     0.064 A 
ATOM     89  C   UNL A   1      38.915  31.995  30.085  1.00  0.00     0.173 A 
ATOM     90  C   UNL A   1      37.761  29.993  30.733  1.00  0.00     0.173 A 
ATOM     91  F   UNL A   1      39.932  32.858  30.215  1.00  0.00    -0.203 F 
ATOM     92  C   UNL A   1      37.904  32.278  29.168  1.00  0.00     0.198 A 
ATOM     93  C   UNL A   1      36.766  30.260  29.793  1.00  0.00     0.198 A 
ATOM     94  F   UNL A   1      37.657  28.885  31.480  1.00  0.00    -0.203 F 
ATOM     95  F   UNL A   1      37.957  33.403  28.441  1.00  0.00    -0.200 F 
ATOM     96  C   UNL A   1      36.834  31.408  29.018  1.00  0.00     0.200 A 
ATOM     97  F   UNL A   1      35.744  29.409  29.642  1.00  0.00    -0.200 F 
ATOM     98  F   UNL A   1      35.867  31.677  28.131  1.00  0.00    -0.200 F 
ENDBRANCH  64  88
BRANCH  76  99
ATOM     99  C   UNL A   1      40.477  33.530  37.126  1.00  0.00     0.064 A 
ATOM    100  C   UNL A   1      39.425  33.334  38.033  1.00  0.00     0.173 A 
ATOM    101  C   UNL A   1      40.984  34.832  36.983  1.00  0.00     0.173 A 
ATOM    102  F   UNL A   1      38.898  32.111  38.200  1.00  0.00    -0.203 F 
ATOM    103  C   UNL A   1      38.870  34.404  38.729  1.00  0.00     0.198 A 
ATOM    104  C   UNL A   1      40.452  35.893  37.711  1.00  0.00     0.198 A 
ATOM    105  F   UNL A   1      41.998  35.076  36.141  1.00  0.00    -0.203 F 
ATOM    106  F   UNL A   1      37.818  34.203  39.535  1.00  0.00    -0.200 F 
ATOM    107  C   UNL A   1      39.386  35.681  38.572  1.00  0.00     0.200 A 
ATOM    108  F   UNL A   1      40.965  37.123  37.571  1.00  0.00    -0.200 F 
ATOM    109  F   UNL A   1      38.848  36.711  39.241  1.00  0.00    -0.200 F 
ENDBRANCH  76  99
ENDBRANCH  50  51
ENDBRANCH  43  45
ENDBRANCH  42  43
ENDBRANCH  41  42
ENDBRANCH  40  41
ENDBRANCH  39  40
ENDBRANCH  38  39
ENDBRANCH  37  38
ENDBRANCH  36  37
ENDBRANCH  35  36
ENDBRANCH  34  35
ENDBRANCH   1  34
TORSDOF 29
ENDMDL
