MODEL 1
REMARK VINA RESULT:     -10.8      0.000      0.000
REMARK SMILES Cc1nsc(NC(=O)[C@@H]2C=C[C@@H]([NH3+])C2)c1C(=O)OCCOCCOCCOCCOC(=O)c1ccc(-c2c3nc(c(-c4c(F)c(F)c(F)c(F)c4F)c4ccc([nH]4)c(-c4c(F)c(F)c(F)c(F)c4F)c4nc(c(-c5c(F)c(F)c(F)c(F)c5F)c5ccc2[nH]5)C=C4)C=C3)cc1
REMARK SMILES IDX 23 1 22 2 21 3 20 4 19 5 18 6 16 7 17 8 15 9 1 10 2 11 3 12
REMARK SMILES IDX 4 13 5 14 6 15 7 16 8 18 9 19 10 20 14 21 11 22 12 23 13 24
REMARK SMILES IDX 24 28 25 29 26 30 27 31 28 32 29 33 30 34 31 35 32 36 33 37
REMARK SMILES IDX 34 38 95 39 35 40 94 41 36 42 37 43 38 44 88 45 39 46 93 47
REMARK SMILES IDX 87 48 89 49 40 50 92 51 86 52 85 53 41 55 73 56 53 57 72 58
REMARK SMILES IDX 54 59 57 60 71 61 90 62 55 63 56 64 70 66 91 67 58 68 42 69
REMARK SMILES IDX 43 70 51 71 44 72 45 73 49 74 52 75 46 76 47 77 50 78 48 79
REMARK SMILES IDX 74 80 75 81 83 82 76 83 77 84 81 85 84 86 78 87 79 88 82 89
REMARK SMILES IDX 80 90 59 91 60 92 68 93 61 94 62 95 66 96 69 97 63 98 64 99
REMARK SMILES IDX 67 100 65 101
REMARK H PARENT 6 17 13 25 13 26 13 27 89 54 57 65
REMARK Flexibility Score: inf
ROOT
ATOM      1  C   UNL A   1      32.973  30.613  27.083  1.00  0.00     0.188 C 
ENDROOT
BRANCH   1   2
ATOM      2  C   UNL A   1      33.071  29.309  26.266  1.00  0.00     0.188 C 
BRANCH   2   3
ATOM      3  O   UNL A   1      33.332  29.339  24.878  1.00  0.00    -0.376 OA
BRANCH   3   4
ATOM      4  C   UNL A   1      33.783  28.230  24.127  1.00  0.00     0.202 C 
BRANCH   4   5
ATOM      5  C   UNL A   1      33.581  28.006  22.619  1.00  0.00     0.261 C 
BRANCH   5   6
ATOM      6  O   UNL A   1      33.325  26.677  22.176  1.00  0.00    -0.460 OA
BRANCH   6   7
ATOM      7  C   UNL A   1      32.032  26.348  21.922  1.00  0.00     0.343 C 
ATOM      8  O   UNL A   1      31.518  26.348  20.803  1.00  0.00    -0.246 OA
BRANCH   7   9
ATOM      9  C   UNL A   1      31.400  25.749  23.086  1.00  0.00     0.117 A 
ATOM     10  C   UNL A   1      29.631  27.628  23.616  1.00  0.00     0.069 C 
ATOM     11  C   UNL A   1      30.338  26.341  23.874  1.00  0.00     0.068 A 
ATOM     12  N   UNL A   1      30.014  25.681  24.983  1.00  0.00    -0.195 NA
ATOM     13  S   UNL A   1      31.075  24.450  25.190  1.00  0.00    -0.017 S 
ATOM     14  C   UNL A   1      31.900  24.611  23.726  1.00  0.00     0.131 A 
BRANCH  14  15
ATOM     15  N   UNL A   1      33.029  23.885  23.378  1.00  0.00    -0.315 N 
ATOM     16  C   UNL A   1      34.355  23.952  23.672  1.00  0.00     0.232 C 
ATOM     17  H   UNL A   1      32.819  23.138  22.772  1.00  0.00     0.170 HD
ATOM     18  O   UNL A   1      35.099  23.652  22.718  1.00  0.00    -0.274 OA
BRANCH  16  19
ATOM     19  C   UNL A   1      35.027  24.099  25.048  1.00  0.00     0.107 C 
ATOM     20  C   UNL A   1      36.267  23.223  24.997  1.00  0.00    -0.012 C 
ATOM     21  C   UNL A   1      34.465  23.595  26.363  1.00  0.00     0.087 C 
ATOM     22  C   UNL A   1      36.096  22.100  25.711  1.00  0.00     0.033 C 
ATOM     23  C   UNL A   1      34.734  22.090  26.328  1.00  0.00     0.205 C 
BRANCH  23  24
ATOM     24  N   UNL A   1      34.661  21.500  27.642  1.00  0.00    -0.352 N 
ATOM     25  H   UNL A   1      33.703  21.202  27.828  1.00  0.00     0.345 HD
ATOM     26  H   UNL A   1      34.944  22.188  28.341  1.00  0.00     0.345 HD
ATOM     27  H   UNL A   1      35.284  20.694  27.688  1.00  0.00     0.345 HD
ENDBRANCH  23  24
ENDBRANCH  16  19
ENDBRANCH  14  15
ENDBRANCH   7   9
ENDBRANCH   6   7
ENDBRANCH   5   6
ENDBRANCH   4   5
ENDBRANCH   3   4
ENDBRANCH   2   3
ENDBRANCH   1   2
BRANCH   1  28
ATOM     28  O   UNL A   1      34.198  31.173  27.504  1.00  0.00    -0.377 OA
BRANCH  28  29
ATOM     29  C   UNL A   1      34.168  32.363  28.287  1.00  0.00     0.188 C 
BRANCH  29  30
ATOM     30  C   UNL A   1      35.092  33.585  28.024  1.00  0.00     0.188 C 
BRANCH  30  31
ATOM     31  O   UNL A   1      34.618  34.836  28.474  1.00  0.00    -0.376 OA
BRANCH  31  32
ATOM     32  C   UNL A   1      33.291  35.101  28.878  1.00  0.00     0.202 C 
BRANCH  32  33
ATOM     33  C   UNL A   1      32.990  35.638  30.271  1.00  0.00     0.261 C 
BRANCH  33  34
ATOM     34  O   UNL A   1      33.185  34.707  31.314  1.00  0.00    -0.460 OA
BRANCH  34  35
ATOM     35  C   UNL A   1      33.635  35.262  32.452  1.00  0.00     0.338 C 
ATOM     36  O   UNL A   1      33.315  36.340  32.928  1.00  0.00    -0.246 OA
BRANCH  35  37
ATOM     37  C   UNL A   1      34.724  34.429  32.958  1.00  0.00     0.060 A 
ATOM     38  C   UNL A   1      35.967  35.047  33.062  1.00  0.00     0.016 A 
ATOM     39  C   UNL A   1      34.571  33.033  32.943  1.00  0.00     0.016 A 
ATOM     40  C   UNL A   1      37.077  34.263  32.875  1.00  0.00     0.010 A 
ATOM     41  C   UNL A   1      35.683  32.253  32.751  1.00  0.00     0.010 A 
ATOM     42  C   UNL A   1      36.906  32.894  32.614  1.00  0.00    -0.014 A 
BRANCH  42  43
ATOM     43  C   UNL A   1      38.085  32.125  32.297  1.00  0.00     0.031 A 
ATOM     44  C   UNL A   1      38.919  31.909  33.492  1.00  0.00     0.074 A 
ATOM     45  C   UNL A   1      38.365  31.663  31.064  1.00  0.00     0.049 A 
ATOM     46  N   UNL A   1      40.034  32.497  33.761  1.00  0.00    -0.248 NA
ATOM     47  C   UNL A   1      38.351  31.140  34.609  1.00  0.00     0.031 C 
ATOM     48  C   UNL A   1      37.513  31.632  29.875  1.00  0.00     0.029 A 
ATOM     49  N   UNL A   1      39.503  31.054  30.638  1.00  0.00    -0.354 N 
ATOM     50  C   UNL A   1      40.417  32.015  35.002  1.00  0.00     0.074 A 
ATOM     51  C   UNL A   1      39.272  31.339  35.553  1.00  0.00     0.031 C 
ATOM     52  C   UNL A   1      38.082  30.836  28.937  1.00  0.00     0.029 A 
ATOM     53  C   UNL A   1      39.398  30.429  29.402  1.00  0.00     0.049 A 
ATOM     54  H   UNL A   1      40.336  31.055  31.163  1.00  0.00     0.167 HD
ATOM     55  C   UNL A   1      41.732  31.985  35.341  1.00  0.00     0.037 A 
ATOM     56  C   UNL A   1      40.322  29.603  28.848  1.00  0.00     0.037 A 
ATOM     57  C   UNL A   1      42.504  32.861  34.497  1.00  0.00     0.049 A 
ATOM     58  C   UNL A   1      41.620  29.899  29.503  1.00  0.00     0.074 A 
ATOM     59  C   UNL A   1      42.544  34.226  34.284  1.00  0.00     0.029 A 
ATOM     60  N   UNL A   1      43.131  32.290  33.418  1.00  0.00    -0.354 N 
ATOM     61  N   UNL A   1      42.269  31.019  29.341  1.00  0.00    -0.248 NA
ATOM     62  C   UNL A   1      41.966  29.146  30.697  1.00  0.00     0.031 C 
ATOM     63  C   UNL A   1      42.808  34.381  32.890  1.00  0.00     0.029 A 
ATOM     64  C   UNL A   1      42.979  33.113  32.334  1.00  0.00     0.049 A 
ATOM     65  H   UNL A   1      43.613  31.431  33.424  1.00  0.00     0.167 HD
ATOM     66  C   UNL A   1      42.750  31.331  30.603  1.00  0.00     0.074 A 
ATOM     67  C   UNL A   1      42.615  30.097  31.374  1.00  0.00     0.031 C 
ATOM     68  C   UNL A   1      42.934  32.632  30.972  1.00  0.00     0.037 A 
BRANCH  55  69
ATOM     69  C   UNL A   1      42.357  30.850  36.108  1.00  0.00     0.064 A 
ATOM     70  C   UNL A   1      43.256  31.150  37.150  1.00  0.00     0.173 A 
ATOM     71  C   UNL A   1      42.362  29.510  35.663  1.00  0.00     0.173 A 
ATOM     72  F   UNL A   1      43.352  32.399  37.628  1.00  0.00    -0.203 F 
ATOM     73  C   UNL A   1      44.143  30.195  37.652  1.00  0.00     0.198 A 
ATOM     74  C   UNL A   1      43.210  28.548  36.204  1.00  0.00     0.198 A 
ATOM     75  F   UNL A   1      41.642  29.099  34.613  1.00  0.00    -0.203 F 
ATOM     76  F   UNL A   1      45.068  30.556  38.551  1.00  0.00    -0.200 F 
ATOM     77  C   UNL A   1      44.122  28.896  37.175  1.00  0.00     0.200 A 
ATOM     78  F   UNL A   1      43.191  27.301  35.709  1.00  0.00    -0.200 F 
ATOM     79  F   UNL A   1      45.013  27.997  37.610  1.00  0.00    -0.200 F 
ENDBRANCH  55  69
BRANCH  56  80
ATOM     80  C   UNL A   1      40.102  28.350  28.081  1.00  0.00     0.064 A 
ATOM     81  C   UNL A   1      40.778  28.116  26.869  1.00  0.00     0.173 A 
ATOM     82  C   UNL A   1      39.473  27.236  28.668  1.00  0.00     0.173 A 
ATOM     83  F   UNL A   1      41.447  29.111  26.267  1.00  0.00    -0.203 F 
ATOM     84  C   UNL A   1      40.847  26.840  26.300  1.00  0.00     0.198 A 
ATOM     85  C   UNL A   1      39.540  25.965  28.097  1.00  0.00     0.198 A 
ATOM     86  F   UNL A   1      38.868  27.339  29.860  1.00  0.00    -0.203 F 
ATOM     87  F   UNL A   1      41.559  26.644  25.180  1.00  0.00    -0.200 F 
ATOM     88  C   UNL A   1      40.239  25.763  26.920  1.00  0.00     0.200 A 
ATOM     89  F   UNL A   1      38.982  24.922  28.730  1.00  0.00    -0.200 F 
ATOM     90  F   UNL A   1      40.362  24.528  26.413  1.00  0.00    -0.200 F 
ENDBRANCH  56  80
BRANCH  68  91
ATOM     91  C   UNL A   1      42.895  33.670  29.882  1.00  0.00     0.064 A 
ATOM     92  C   UNL A   1      43.974  33.978  29.034  1.00  0.00     0.173 A 
ATOM     93  C   UNL A   1      41.669  34.294  29.615  1.00  0.00     0.173 A 
ATOM     94  F   UNL A   1      45.153  33.355  29.162  1.00  0.00    -0.203 F 
ATOM     95  C   UNL A   1      43.839  34.905  28.001  1.00  0.00     0.198 A 
ATOM     96  C   UNL A   1      41.527  35.188  28.559  1.00  0.00     0.198 A 
ATOM     97  F   UNL A   1      40.591  34.001  30.359  1.00  0.00    -0.203 F 
ATOM     98  F   UNL A   1      44.887  35.198  27.216  1.00  0.00    -0.200 F 
ATOM     99  C   UNL A   1      42.613  35.504  27.760  1.00  0.00     0.200 A 
ATOM    100  F   UNL A   1      40.327  35.727  28.302  1.00  0.00    -0.200 F 
ATOM    101  F   UNL A   1      42.471  36.366  26.743  1.00  0.00    -0.200 F 
ENDBRANCH  68  91
ENDBRANCH  42  43
ENDBRANCH  35  37
ENDBRANCH  34  35
ENDBRANCH  33  34
ENDBRANCH  32  33
ENDBRANCH  31  32
ENDBRANCH  30  31
ENDBRANCH  29  30
ENDBRANCH  28  29
ENDBRANCH   1  28
TORSDOF 23
ENDMDL
MODEL 2
REMARK VINA RESULT:     -10.4      1.666      2.437
REMARK SMILES Cc1nsc(NC(=O)[C@@H]2C=C[C@@H]([NH3+])C2)c1C(=O)OCCOCCOCCOCCOC(=O)c1ccc(-c2c3nc(c(-c4c(F)c(F)c(F)c(F)c4F)c4ccc([nH]4)c(-c4c(F)c(F)c(F)c(F)c4F)c4nc(c(-c5c(F)c(F)c(F)c(F)c5F)c5ccc2[nH]5)C=C4)C=C3)cc1
REMARK SMILES IDX 23 1 22 2 21 3 20 4 19 5 18 6 16 7 17 8 15 9 1 10 2 11 3 12
REMARK SMILES IDX 4 13 5 14 6 15 7 16 8 18 9 19 10 20 14 21 11 22 12 23 13 24
REMARK SMILES IDX 24 28 25 29 26 30 27 31 28 32 29 33 30 34 31 35 32 36 33 37
REMARK SMILES IDX 34 38 95 39 35 40 94 41 36 42 37 43 38 44 88 45 39 46 93 47
REMARK SMILES IDX 87 48 89 49 40 50 92 51 86 52 85 53 41 55 73 56 53 57 72 58
REMARK SMILES IDX 54 59 57 60 71 61 90 62 55 63 56 64 70 66 91 67 58 68 42 69
REMARK SMILES IDX 43 70 51 71 44 72 45 73 49 74 52 75 46 76 47 77 50 78 48 79
REMARK SMILES IDX 74 80 75 81 83 82 76 83 77 84 81 85 84 86 78 87 79 88 82 89
REMARK SMILES IDX 80 90 59 91 60 92 68 93 61 94 62 95 66 96 69 97 63 98 64 99
REMARK SMILES IDX 67 100 65 101
REMARK H PARENT 6 17 13 25 13 26 13 27 89 54 57 65
REMARK Flexibility Score: inf
ROOT
ATOM      1  C   UNL A   1      34.475  33.606  29.304  1.00  0.00     0.188 C 
ENDROOT
BRANCH   1   2
ATOM      2  C   UNL A   1      34.745  32.090  29.206  1.00  0.00     0.188 C 
BRANCH   2   3
ATOM      3  O   UNL A   1      34.763  31.434  27.955  1.00  0.00    -0.376 OA
BRANCH   3   4
ATOM      4  C   UNL A   1      33.613  30.948  27.293  1.00  0.00     0.202 C 
BRANCH   4   5
ATOM      5  C   UNL A   1      33.280  29.474  27.006  1.00  0.00     0.261 C 
BRANCH   5   6
ATOM      6  O   UNL A   1      31.907  29.099  26.984  1.00  0.00    -0.460 OA
BRANCH   6   7
ATOM      7  C   UNL A   1      31.621  27.813  26.653  1.00  0.00     0.343 C 
ATOM      8  O   UNL A   1      30.890  27.069  27.307  1.00  0.00    -0.246 OA
BRANCH   7   9
ATOM      9  C   UNL A   1      32.072  27.501  25.307  1.00  0.00     0.117 A 
ATOM     10  C   UNL A   1      30.558  29.183  23.956  1.00  0.00     0.069 C 
ATOM     11  C   UNL A   1      31.569  28.094  24.084  1.00  0.00     0.068 A 
ATOM     12  N   UNL A   1      32.023  27.549  22.958  1.00  0.00    -0.195 NA
ATOM     13  S   UNL A   1      32.913  26.227  23.334  1.00  0.00    -0.017 S 
ATOM     14  C   UNL A   1      32.901  26.415  25.012  1.00  0.00     0.131 A 
BRANCH  14  15
ATOM     15  N   UNL A   1      33.420  25.492  25.908  1.00  0.00    -0.315 N 
ATOM     16  C   UNL A   1      34.283  24.444  25.831  1.00  0.00     0.232 C 
ATOM     17  H   UNL A   1      33.084  25.631  26.823  1.00  0.00     0.170 HD
ATOM     18  O   UNL A   1      33.982  23.488  26.572  1.00  0.00    -0.274 OA
BRANCH  16  19
ATOM     19  C   UNL A   1      35.669  24.388  25.165  1.00  0.00     0.107 C 
ATOM     20  C   UNL A   1      35.497  23.523  23.928  1.00  0.00    -0.012 C 
ATOM     21  C   UNL A   1      36.895  23.703  25.735  1.00  0.00     0.087 C 
ATOM     22  C   UNL A   1      36.042  22.310  24.107  1.00  0.00     0.033 C 
ATOM     23  C   UNL A   1      36.646  22.218  25.471  1.00  0.00     0.205 C 
BRANCH  23  24
ATOM     24  N   UNL A   1      37.862  21.446  25.553  1.00  0.00    -0.352 N 
ATOM     25  H   UNL A   1      37.635  20.452  25.532  1.00  0.00     0.345 HD
ATOM     26  H   UNL A   1      38.347  21.666  26.423  1.00  0.00     0.345 HD
ATOM     27  H   UNL A   1      38.463  21.675  24.762  1.00  0.00     0.345 HD
ENDBRANCH  23  24
ENDBRANCH  16  19
ENDBRANCH  14  15
ENDBRANCH   7   9
ENDBRANCH   6   7
ENDBRANCH   5   6
ENDBRANCH   4   5
ENDBRANCH   3   4
ENDBRANCH   2   3
ENDBRANCH   1   2
BRANCH   1  28
ATOM     28  O   UNL A   1      33.125  34.001  29.205  1.00  0.00    -0.377 OA
BRANCH  28  29
ATOM     29  C   UNL A   1      32.835  35.330  28.779  1.00  0.00     0.188 C 
BRANCH  29  30
ATOM     30  C   UNL A   1      33.439  36.596  29.448  1.00  0.00     0.188 C 
BRANCH  30  31
ATOM     31  O   UNL A   1      32.791  37.056  30.615  1.00  0.00    -0.376 OA
BRANCH  31  32
ATOM     32  C   UNL A   1      33.424  37.743  31.675  1.00  0.00     0.202 C 
BRANCH  32  33
ATOM     33  C   UNL A   1      33.703  37.046  33.001  1.00  0.00     0.261 C 
BRANCH  33  34
ATOM     34  O   UNL A   1      34.817  36.180  32.986  1.00  0.00    -0.460 OA
BRANCH  34  35
ATOM     35  C   UNL A   1      34.488  34.886  32.831  1.00  0.00     0.338 C 
ATOM     36  O   UNL A   1      33.397  34.429  32.531  1.00  0.00    -0.246 OA
BRANCH  35  37
ATOM     37  C   UNL A   1      35.629  34.078  33.256  1.00  0.00     0.060 A 
ATOM     38  C   UNL A   1      36.884  34.658  33.090  1.00  0.00     0.016 A 
ATOM     39  C   UNL A   1      35.452  32.695  33.432  1.00  0.00     0.016 A 
ATOM     40  C   UNL A   1      37.936  33.819  32.826  1.00  0.00     0.010 A 
ATOM     41  C   UNL A   1      36.505  31.859  33.163  1.00  0.00     0.010 A 
ATOM     42  C   UNL A   1      37.701  32.436  32.760  1.00  0.00    -0.014 A 
BRANCH  42  43
ATOM     43  C   UNL A   1      38.802  31.593  32.357  1.00  0.00     0.031 A 
ATOM     44  C   UNL A   1      39.662  31.252  33.504  1.00  0.00     0.074 A 
ATOM     45  C   UNL A   1      38.995  31.173  31.093  1.00  0.00     0.049 A 
ATOM     46  N   UNL A   1      40.830  31.736  33.752  1.00  0.00    -0.248 NA
ATOM     47  C   UNL A   1      39.077  30.475  34.607  1.00  0.00     0.031 C 
ATOM     48  C   UNL A   1      38.097  31.269  29.942  1.00  0.00     0.029 A 
ATOM     49  N   UNL A   1      40.063  30.499  30.591  1.00  0.00    -0.354 N 
ATOM     50  C   UNL A   1      41.221  31.163  34.952  1.00  0.00     0.074 A 
ATOM     51  C   UNL A   1      40.047  30.553  35.519  1.00  0.00     0.031 C 
ATOM     52  C   UNL A   1      38.564  30.480  28.943  1.00  0.00     0.029 A 
ATOM     53  C   UNL A   1      39.859  29.948  29.331  1.00  0.00     0.049 A 
ATOM     54  H   UNL A   1      40.913  30.408  31.079  1.00  0.00     0.167 HD
ATOM     55  C   UNL A   1      42.542  31.013  35.232  1.00  0.00     0.037 A 
ATOM     56  C   UNL A   1      40.691  29.080  28.700  1.00  0.00     0.037 A 
ATOM     57  C   UNL A   1      43.348  31.868  34.398  1.00  0.00     0.049 A 
ATOM     58  C   UNL A   1      42.034  29.241  29.311  1.00  0.00     0.074 A 
ATOM     59  C   UNL A   1      43.490  33.234  34.248  1.00  0.00     0.029 A 
ATOM     60  N   UNL A   1      43.885  31.304  33.267  1.00  0.00    -0.354 N 
ATOM     61  N   UNL A   1      42.764  30.313  29.175  1.00  0.00    -0.248 NA
ATOM     62  C   UNL A   1      42.364  28.403  30.453  1.00  0.00     0.031 C 
ATOM     63  C   UNL A   1      43.710  33.438  32.853  1.00  0.00     0.029 A 
ATOM     64  C   UNL A   1      43.757  32.190  32.231  1.00  0.00     0.049 A 
ATOM     65  H   UNL A   1      44.295  30.411  33.211  1.00  0.00     0.167 HD
ATOM     66  C   UNL A   1      43.318  30.521  30.429  1.00  0.00     0.074 A 
ATOM     67  C   UNL A   1      43.114  29.264  31.146  1.00  0.00     0.031 C 
ATOM     68  C   UNL A   1      43.620  31.784  30.851  1.00  0.00     0.037 A 
BRANCH  55  69
ATOM     69  C   UNL A   1      43.103  29.796  35.917  1.00  0.00     0.064 A 
ATOM     70  C   UNL A   1      43.983  29.973  37.002  1.00  0.00     0.173 A 
ATOM     71  C   UNL A   1      43.070  28.497  35.362  1.00  0.00     0.173 A 
ATOM     72  F   UNL A   1      44.112  31.174  37.585  1.00  0.00    -0.203 F 
ATOM     73  C   UNL A   1      44.819  28.946  37.444  1.00  0.00     0.198 A 
ATOM     74  C   UNL A   1      43.867  27.462  35.842  1.00  0.00     0.198 A 
ATOM     75  F   UNL A   1      42.365  28.203  34.264  1.00  0.00    -0.203 F 
ATOM     76  F   UNL A   1      45.732  29.196  38.392  1.00  0.00    -0.200 F 
ATOM     77  C   UNL A   1      44.764  27.693  36.860  1.00  0.00     0.200 A 
ATOM     78  F   UNL A   1      43.816  26.262  35.244  1.00  0.00    -0.200 F 
ATOM     79  F   UNL A   1      45.609  26.727  37.240  1.00  0.00    -0.200 F 
ENDBRANCH  55  69
BRANCH  56  80
ATOM     80  C   UNL A   1      40.341  27.889  27.885  1.00  0.00     0.064 A 
ATOM     81  C   UNL A   1      41.018  27.612  26.683  1.00  0.00     0.173 A 
ATOM     82  C   UNL A   1      39.564  26.844  28.417  1.00  0.00     0.173 A 
ATOM     83  F   UNL A   1      41.822  28.534  26.133  1.00  0.00    -0.203 F 
ATOM     84  C   UNL A   1      40.946  26.355  26.072  1.00  0.00     0.198 A 
ATOM     85  C   UNL A   1      39.490  25.592  27.804  1.00  0.00     0.198 A 
ATOM     86  F   UNL A   1      38.941  26.984  29.596  1.00  0.00    -0.203 F 
ATOM     87  F   UNL A   1      41.661  26.107  24.964  1.00  0.00    -0.200 F 
ATOM     88  C   UNL A   1      40.193  25.343  26.639  1.00  0.00     0.200 A 
ATOM     89  F   UNL A   1      38.790  24.607  28.386  1.00  0.00    -0.200 F 
ATOM     90  F   UNL A   1      40.177  24.118  26.092  1.00  0.00    -0.200 F 
ENDBRANCH  56  80
BRANCH  68  91
ATOM     91  C   UNL A   1      43.622  32.875  29.814  1.00  0.00     0.064 A 
ATOM     92  C   UNL A   1      42.526  33.710  29.531  1.00  0.00     0.173 A 
ATOM     93  C   UNL A   1      44.830  33.157  29.161  1.00  0.00     0.173 A 
ATOM     94  F   UNL A   1      41.364  33.568  30.181  1.00  0.00    -0.203 F 
ATOM     95  C   UNL A   1      42.628  34.745  28.602  1.00  0.00     0.198 A 
ATOM     96  C   UNL A   1      44.939  34.216  28.265  1.00  0.00     0.198 A 
ATOM     97  F   UNL A   1      45.924  32.427  29.429  1.00  0.00    -0.203 F 
ATOM     98  F   UNL A   1      41.563  35.517  28.334  1.00  0.00    -0.200 F 
ATOM     99  C   UNL A   1      43.836  35.002  27.975  1.00  0.00     0.200 A 
ATOM    100  F   UNL A   1      46.123  34.488  27.699  1.00  0.00    -0.200 F 
ATOM    101  F   UNL A   1      43.946  36.021  27.111  1.00  0.00    -0.200 F 
ENDBRANCH  68  91
ENDBRANCH  42  43
ENDBRANCH  35  37
ENDBRANCH  34  35
ENDBRANCH  33  34
ENDBRANCH  32  33
ENDBRANCH  31  32
ENDBRANCH  30  31
ENDBRANCH  29  30
ENDBRANCH  28  29
ENDBRANCH   1  28
TORSDOF 23
ENDMDL
MODEL 3
REMARK VINA RESULT:     -10.4      3.586      9.235
REMARK SMILES Cc1nsc(NC(=O)[C@@H]2C=C[C@@H]([NH3+])C2)c1C(=O)OCCOCCOCCOCCOC(=O)c1ccc(-c2c3nc(c(-c4c(F)c(F)c(F)c(F)c4F)c4ccc([nH]4)c(-c4c(F)c(F)c(F)c(F)c4F)c4nc(c(-c5c(F)c(F)c(F)c(F)c5F)c5ccc2[nH]5)C=C4)C=C3)cc1
REMARK SMILES IDX 23 1 22 2 21 3 20 4 19 5 18 6 16 7 17 8 15 9 1 10 2 11 3 12
REMARK SMILES IDX 4 13 5 14 6 15 7 16 8 18 9 19 10 20 14 21 11 22 12 23 13 24
REMARK SMILES IDX 24 28 25 29 26 30 27 31 28 32 29 33 30 34 31 35 32 36 33 37
REMARK SMILES IDX 34 38 95 39 35 40 94 41 36 42 37 43 38 44 88 45 39 46 93 47
REMARK SMILES IDX 87 48 89 49 40 50 92 51 86 52 85 53 41 55 73 56 53 57 72 58
REMARK SMILES IDX 54 59 57 60 71 61 90 62 55 63 56 64 70 66 91 67 58 68 42 69
REMARK SMILES IDX 43 70 51 71 44 72 45 73 49 74 52 75 46 76 47 77 50 78 48 79
REMARK SMILES IDX 74 80 75 81 83 82 76 83 77 84 81 85 84 86 78 87 79 88 82 89
REMARK SMILES IDX 80 90 59 91 60 92 68 93 61 94 62 95 66 96 69 97 63 98 64 99
REMARK SMILES IDX 67 100 65 101
REMARK H PARENT 6 17 13 25 13 26 13 27 89 54 57 65
REMARK Flexibility Score: inf
ROOT
ATOM      1  C   UNL A   1      40.718  20.006  26.649  1.00  0.00     0.188 C 
ENDROOT
BRANCH   1   2
ATOM      2  C   UNL A   1      40.368  21.413  26.122  1.00  0.00     0.188 C 
BRANCH   2   3
ATOM      3  O   UNL A   1      39.035  21.761  25.807  1.00  0.00    -0.376 OA
BRANCH   3   4
ATOM      4  C   UNL A   1      38.377  22.914  26.290  1.00  0.00     0.202 C 
BRANCH   4   5
ATOM      5  C   UNL A   1      37.477  23.858  25.475  1.00  0.00     0.261 C 
BRANCH   5   6
ATOM      6  O   UNL A   1      36.143  23.435  25.211  1.00  0.00    -0.460 OA
BRANCH   6   7
ATOM      7  C   UNL A   1      35.842  23.101  23.930  1.00  0.00     0.343 C 
ATOM      8  O   UNL A   1      36.669  22.975  23.027  1.00  0.00    -0.246 OA
BRANCH   7   9
ATOM      9  C   UNL A   1      34.461  22.660  23.809  1.00  0.00     0.117 A 
ATOM     10  C   UNL A   1      34.650  20.342  25.046  1.00  0.00     0.069 C 
ATOM     11  C   UNL A   1      33.928  21.399  24.282  1.00  0.00     0.068 A 
ATOM     12  N   UNL A   1      32.670  21.144  23.931  1.00  0.00    -0.195 NA
ATOM     13  S   UNL A   1      32.165  22.312  22.900  1.00  0.00    -0.017 S 
ATOM     14  C   UNL A   1      33.517  23.316  23.013  1.00  0.00     0.131 A 
BRANCH  14  15
ATOM     15  N   UNL A   1      33.719  24.450  22.241  1.00  0.00    -0.315 N 
ATOM     16  C   UNL A   1      33.095  25.650  22.097  1.00  0.00     0.232 C 
ATOM     17  H   UNL A   1      34.507  24.368  21.656  1.00  0.00     0.170 HD
ATOM     18  O   UNL A   1      33.091  26.079  20.927  1.00  0.00    -0.274 OA
BRANCH  16  19
ATOM     19  C   UNL A   1      32.633  26.629  23.190  1.00  0.00     0.107 C 
ATOM     20  C   UNL A   1      33.800  26.750  24.155  1.00  0.00    -0.012 C 
ATOM     21  C   UNL A   1      31.541  26.364  24.208  1.00  0.00     0.087 C 
ATOM     22  C   UNL A   1      33.556  26.082  25.293  1.00  0.00     0.033 C 
ATOM     23  C   UNL A   1      32.206  25.445  25.233  1.00  0.00     0.205 C 
BRANCH  23  24
ATOM     24  N   UNL A   1      31.483  25.419  26.481  1.00  0.00    -0.352 N 
ATOM     25  H   UNL A   1      30.778  24.682  26.451  1.00  0.00     0.345 HD
ATOM     26  H   UNL A   1      31.026  26.320  26.628  1.00  0.00     0.345 HD
ATOM     27  H   UNL A   1      32.132  25.239  27.246  1.00  0.00     0.345 HD
ENDBRANCH  23  24
ENDBRANCH  16  19
ENDBRANCH  14  15
ENDBRANCH   7   9
ENDBRANCH   6   7
ENDBRANCH   5   6
ENDBRANCH   4   5
ENDBRANCH   3   4
ENDBRANCH   2   3
ENDBRANCH   1   2
BRANCH   1  28
ATOM     28  O   UNL A   1      42.088  19.749  26.864  1.00  0.00    -0.377 OA
BRANCH  28  29
ATOM     29  C   UNL A   1      42.711  18.710  26.113  1.00  0.00     0.188 C 
BRANCH  29  30
ATOM     30  C   UNL A   1      43.891  18.952  25.131  1.00  0.00     0.188 C 
BRANCH  30  31
ATOM     31  O   UNL A   1      44.027  20.265  24.629  1.00  0.00    -0.376 OA
BRANCH  31  32
ATOM     32  C   UNL A   1      45.099  21.137  24.924  1.00  0.00     0.202 C 
BRANCH  32  33
ATOM     33  C   UNL A   1      44.960  22.210  25.996  1.00  0.00     0.261 C 
BRANCH  33  34
ATOM     34  O   UNL A   1      43.632  22.609  26.259  1.00  0.00    -0.460 OA
BRANCH  34  35
ATOM     35  C   UNL A   1      43.286  23.758  25.653  1.00  0.00     0.338 C 
ATOM     36  O   UNL A   1      43.678  24.174  24.575  1.00  0.00    -0.246 OA
BRANCH  35  37
ATOM     37  C   UNL A   1      42.478  24.535  26.591  1.00  0.00     0.060 A 
ATOM     38  C   UNL A   1      41.479  25.325  26.027  1.00  0.00     0.016 A 
ATOM     39  C   UNL A   1      42.964  24.743  27.893  1.00  0.00     0.016 A 
ATOM     40  C   UNL A   1      41.164  26.494  26.670  1.00  0.00     0.010 A 
ATOM     41  C   UNL A   1      42.649  25.916  28.530  1.00  0.00     0.010 A 
ATOM     42  C   UNL A   1      41.837  26.819  27.859  1.00  0.00    -0.014 A 
BRANCH  42  43
ATOM     43  C   UNL A   1      41.572  28.113  28.441  1.00  0.00     0.031 A 
ATOM     44  C   UNL A   1      42.648  29.071  28.129  1.00  0.00     0.074 A 
ATOM     45  C   UNL A   1      40.472  28.394  29.163  1.00  0.00     0.049 A 
ATOM     46  N   UNL A   1      43.554  29.492  28.943  1.00  0.00    -0.248 NA
ATOM     47  C   UNL A   1      42.885  29.418  26.720  1.00  0.00     0.031 C 
ATOM     48  C   UNL A   1      39.258  27.596  29.344  1.00  0.00     0.029 A 
ATOM     49  N   UNL A   1      40.197  29.527  29.861  1.00  0.00    -0.354 N 
ATOM     50  C   UNL A   1      44.366  30.327  28.193  1.00  0.00     0.074 A 
ATOM     51  C   UNL A   1      44.026  30.102  26.812  1.00  0.00     0.031 C 
ATOM     52  C   UNL A   1      38.297  28.365  29.912  1.00  0.00     0.029 A 
ATOM     53  C   UNL A   1      38.873  29.651  30.266  1.00  0.00     0.049 A 
ATOM     54  H   UNL A   1      40.880  30.206  30.064  1.00  0.00     0.167 HD
ATOM     55  C   UNL A   1      45.053  31.328  28.801  1.00  0.00     0.037 A 
ATOM     56  C   UNL A   1      38.309  30.762  30.807  1.00  0.00     0.037 A 
ATOM     57  C   UNL A   1      45.153  31.100  30.221  1.00  0.00     0.049 A 
ATOM     58  C   UNL A   1      39.411  31.585  31.362  1.00  0.00     0.074 A 
ATOM     59  C   UNL A   1      45.754  30.143  31.015  1.00  0.00     0.029 A 
ATOM     60  N   UNL A   1      44.227  31.727  31.017  1.00  0.00    -0.354 N 
ATOM     61  N   UNL A   1      40.124  31.232  32.396  1.00  0.00    -0.248 NA
ATOM     62  C   UNL A   1      40.026  32.574  30.491  1.00  0.00     0.031 C 
ATOM     63  C   UNL A   1      44.865  29.955  32.115  1.00  0.00     0.029 A 
ATOM     64  C   UNL A   1      43.801  30.845  31.974  1.00  0.00     0.049 A 
ATOM     65  H   UNL A   1      43.922  32.657  30.917  1.00  0.00     0.167 HD
ATOM     66  C   UNL A   1      41.422  31.591  32.067  1.00  0.00     0.074 A 
ATOM     67  C   UNL A   1      41.286  32.497  30.928  1.00  0.00     0.031 C 
ATOM     68  C   UNL A   1      42.482  30.888  32.563  1.00  0.00     0.037 A 
BRANCH  55  69
ATOM     69  C   UNL A   1      45.226  32.695  28.193  1.00  0.00     0.064 A 
ATOM     70  C   UNL A   1      46.528  33.207  28.035  1.00  0.00     0.173 A 
ATOM     71  C   UNL A   1      44.179  33.633  28.060  1.00  0.00     0.173 A 
ATOM     72  F   UNL A   1      47.596  32.406  28.169  1.00  0.00    -0.203 F 
ATOM     73  C   UNL A   1      46.762  34.569  27.835  1.00  0.00     0.198 A 
ATOM     74  C   UNL A   1      44.415  34.982  27.807  1.00  0.00     0.198 A 
ATOM     75  F   UNL A   1      42.899  33.318  28.287  1.00  0.00    -0.203 F 
ATOM     76  F   UNL A   1      48.019  35.031  27.821  1.00  0.00    -0.200 F 
ATOM     77  C   UNL A   1      45.705  35.456  27.727  1.00  0.00     0.200 A 
ATOM     78  F   UNL A   1      43.376  35.827  27.731  1.00  0.00    -0.200 F 
ATOM     79  F   UNL A   1      45.928  36.769  27.599  1.00  0.00    -0.200 F 
ENDBRANCH  55  69
BRANCH  56  80
ATOM     80  C   UNL A   1      36.960  31.330  30.556  1.00  0.00     0.064 A 
ATOM     81  C   UNL A   1      36.086  31.616  31.622  1.00  0.00     0.173 A 
ATOM     82  C   UNL A   1      36.624  31.888  29.309  1.00  0.00     0.173 A 
ATOM     83  F   UNL A   1      36.358  31.165  32.856  1.00  0.00    -0.203 F 
ATOM     84  C   UNL A   1      34.966  32.437  31.454  1.00  0.00     0.198 A 
ATOM     85  C   UNL A   1      35.504  32.704  29.142  1.00  0.00     0.198 A 
ATOM     86  F   UNL A   1      37.432  31.737  28.250  1.00  0.00    -0.203 F 
ATOM     87  F   UNL A   1      34.195  32.742  32.508  1.00  0.00    -0.200 F 
ATOM     88  C   UNL A   1      34.682  32.990  30.218  1.00  0.00     0.200 A 
ATOM     89  F   UNL A   1      35.264  33.268  27.949  1.00  0.00    -0.200 F 
ATOM     90  F   UNL A   1      33.649  33.831  30.070  1.00  0.00    -0.200 F 
ENDBRANCH  56  80
BRANCH  68  91
ATOM     91  C   UNL A   1      42.208  29.937  33.696  1.00  0.00     0.064 A 
ATOM     92  C   UNL A   1      41.791  28.603  33.536  1.00  0.00     0.173 A 
ATOM     93  C   UNL A   1      42.494  30.368  34.999  1.00  0.00     0.173 A 
ATOM     94  F   UNL A   1      41.588  28.085  32.317  1.00  0.00    -0.203 F 
ATOM     95  C   UNL A   1      41.623  27.761  34.635  1.00  0.00     0.198 A 
ATOM     96  C   UNL A   1      42.364  29.514  36.089  1.00  0.00     0.198 A 
ATOM     97  F   UNL A   1      42.945  31.615  35.209  1.00  0.00    -0.203 F 
ATOM     98  F   UNL A   1      41.205  26.498  34.459  1.00  0.00    -0.200 F 
ATOM     99  C   UNL A   1      41.917  28.215  35.910  1.00  0.00     0.200 A 
ATOM    100  F   UNL A   1      42.697  29.945  37.314  1.00  0.00    -0.200 F 
ATOM    101  F   UNL A   1      41.793  27.396  36.964  1.00  0.00    -0.200 F 
ENDBRANCH  68  91
ENDBRANCH  42  43
ENDBRANCH  35  37
ENDBRANCH  34  35
ENDBRANCH  33  34
ENDBRANCH  32  33
ENDBRANCH  31  32
ENDBRANCH  30  31
ENDBRANCH  29  30
ENDBRANCH  28  29
ENDBRANCH   1  28
TORSDOF 23
ENDMDL
