MODEL 1
REMARK VINA RESULT:      -7.0      0.000      0.000
REMARK SMILES CCCOc1ccc(NC(=O)CCC(=O)OCCOCCOCCOCCOC(=O)c2ccc(-c3c4nc(c(-c5c(F)c(F)c(F)c(F)c5F)c5ccc([nH]5)c(-c5c(F)c(F)c(F)c(F)c5F)c5nc(c(-c6c(F)c(F)c(F)c(F)c6F)c6ccc3[nH]6)C=C5)C=C4)cc2)cc1
REMARK SMILES IDX 20 1 19 2 18 3 17 4 16 5 14 6 15 7 13 8 12 9 10 10 9 11
REMARK SMILES IDX 11 13 8 14 5 15 6 16 95 17 7 18 94 19 4 20 3 21 2 22 1 23
REMARK SMILES IDX 21 24 22 25 23 26 24 27 25 28 26 29 27 30 28 31 29 32 30 33
REMARK SMILES IDX 31 34 32 35 93 36 33 37 92 38 34 39 35 40 36 41 86 42 37 43
REMARK SMILES IDX 91 44 85 45 87 46 38 47 90 48 84 49 83 50 39 52 71 53 51 54
REMARK SMILES IDX 70 55 52 56 55 57 69 58 88 59 53 60 54 61 68 63 89 64 56 65
REMARK SMILES IDX 40 66 41 67 49 68 42 69 43 70 47 71 50 72 44 73 45 74 48 75
REMARK SMILES IDX 46 76 72 77 73 78 81 79 74 80 75 81 79 82 82 83 76 84 77 85
REMARK SMILES IDX 80 86 78 87 57 88 58 89 66 90 59 91 60 92 64 93 67 94 61 95
REMARK SMILES IDX 62 96 65 97 63 98
REMARK H PARENT 9 12 87 51 55 62
REMARK Flexibility Score: inf
ROOT
ATOM      1  C   UNL A   1      39.458  27.495  29.570  1.00  0.00     0.188 C 
ENDROOT
BRANCH   1   2
ATOM      2  O   UNL A   1      40.018  28.663  28.951  1.00  0.00    -0.376 OA
BRANCH   2   3
ATOM      3  C   UNL A   1      40.628  29.619  29.829  1.00  0.00     0.202 C 
BRANCH   3   4
ATOM      4  C   UNL A   1      40.340  29.397  31.329  1.00  0.00     0.261 C 
BRANCH   4   5
ATOM      5  O   UNL A   1      39.291  30.217  31.862  1.00  0.00    -0.463 OA
BRANCH   5   6
ATOM      6  C   UNL A   1      38.768  29.876  33.056  1.00  0.00     0.306 C 
ATOM      7  O   UNL A   1      37.976  28.960  33.230  1.00  0.00    -0.252 OA
BRANCH   6   8
ATOM      8  C   UNL A   1      39.278  30.774  34.158  1.00  0.00     0.132 C 
BRANCH   8   9
ATOM      9  C   UNL A   1      38.381  30.859  35.398  1.00  0.00     0.112 C 
BRANCH   9  10
ATOM     10  C   UNL A   1      37.783  32.235  35.629  1.00  0.00     0.224 C 
ATOM     11  N   UNL A   1      37.114  33.011  34.730  1.00  0.00    -0.326 N 
ATOM     12  H   UNL A   1      36.841  33.867  35.131  1.00  0.00     0.169 HD
ATOM     13  O   UNL A   1      37.902  32.724  36.765  1.00  0.00    -0.275 OA
BRANCH  11  14
ATOM     14  C   UNL A   1      36.703  32.926  33.383  1.00  0.00     0.041 A 
ATOM     15  C   UNL A   1      35.902  32.959  30.659  1.00  0.00     0.119 A 
ATOM     16  C   UNL A   1      35.145  32.315  31.604  1.00  0.00     0.048 A 
ATOM     17  C   UNL A   1      37.085  33.567  31.054  1.00  0.00     0.048 A 
ATOM     18  C   UNL A   1      35.542  32.331  32.947  1.00  0.00     0.030 A 
ATOM     19  C   UNL A   1      37.500  33.521  32.399  1.00  0.00     0.030 A 
BRANCH  15  20
ATOM     20  O   UNL A   1      35.443  33.140  29.392  1.00  0.00    -0.494 OA
BRANCH  20  21
ATOM     21  C   UNL A   1      36.243  32.535  28.366  1.00  0.00     0.229 C 
BRANCH  21  22
ATOM     22  C   UNL A   1      35.503  31.275  27.936  1.00  0.00     0.038 C 
ATOM     23  C   UNL A   1      36.229  30.015  28.393  1.00  0.00     0.007 C 
ENDBRANCH  21  22
ENDBRANCH  20  21
ENDBRANCH  15  20
ENDBRANCH  11  14
ENDBRANCH   9  10
ENDBRANCH   8   9
ENDBRANCH   6   8
ENDBRANCH   5   6
ENDBRANCH   4   5
ENDBRANCH   3   4
ENDBRANCH   2   3
ENDBRANCH   1   2
BRANCH   1  24
ATOM     24  C   UNL A   1      39.429  26.314  28.557  1.00  0.00     0.188 C 
BRANCH  24  25
ATOM     25  O   UNL A   1      40.712  26.193  27.947  1.00  0.00    -0.377 OA
BRANCH  25  26
ATOM     26  C   UNL A   1      41.583  25.097  28.223  1.00  0.00     0.188 C 
BRANCH  26  27
ATOM     27  C   UNL A   1      41.263  23.698  27.675  1.00  0.00     0.188 C 
BRANCH  27  28
ATOM     28  O   UNL A   1      41.338  23.531  26.260  1.00  0.00    -0.376 OA
BRANCH  28  29
ATOM     29  C   UNL A   1      42.375  22.690  25.767  1.00  0.00     0.202 C 
BRANCH  29  30
ATOM     30  C   UNL A   1      43.549  23.370  25.037  1.00  0.00     0.261 C 
BRANCH  30  31
ATOM     31  O   UNL A   1      44.538  23.982  25.894  1.00  0.00    -0.460 OA
BRANCH  31  32
ATOM     32  C   UNL A   1      45.283  24.954  25.308  1.00  0.00     0.338 C 
ATOM     33  O   UNL A   1      45.992  24.836  24.323  1.00  0.00    -0.246 OA
BRANCH  32  34
ATOM     34  C   UNL A   1      45.081  26.268  25.963  1.00  0.00     0.060 A 
ATOM     35  C   UNL A   1      46.187  26.875  26.573  1.00  0.00     0.016 A 
ATOM     36  C   UNL A   1      43.807  26.812  26.134  1.00  0.00     0.016 A 
ATOM     37  C   UNL A   1      46.018  27.987  27.407  1.00  0.00     0.010 A 
ATOM     38  C   UNL A   1      43.637  27.924  26.975  1.00  0.00     0.010 A 
ATOM     39  C   UNL A   1      44.734  28.489  27.655  1.00  0.00    -0.014 A 
BRANCH  39  40
ATOM     40  C   UNL A   1      44.501  29.452  28.770  1.00  0.00     0.031 A 
ATOM     41  C   UNL A   1      44.229  28.907  30.151  1.00  0.00     0.074 A 
ATOM     42  C   UNL A   1      44.533  30.785  28.588  1.00  0.00     0.049 A 
ATOM     43  N   UNL A   1      43.878  29.535  31.246  1.00  0.00    -0.248 NA
ATOM     44  C   UNL A   1      44.372  27.452  30.313  1.00  0.00     0.031 C 
ATOM     45  C   UNL A   1      44.847  31.461  27.332  1.00  0.00     0.029 A 
ATOM     46  N   UNL A   1      44.277  31.811  29.470  1.00  0.00    -0.354 N 
ATOM     47  C   UNL A   1      43.741  28.551  32.219  1.00  0.00     0.074 A 
ATOM     48  C   UNL A   1      44.024  27.284  31.580  1.00  0.00     0.031 C 
ATOM     49  C   UNL A   1      44.745  32.789  27.517  1.00  0.00     0.029 A 
ATOM     50  C   UNL A   1      44.316  33.056  28.892  1.00  0.00     0.049 A 
ATOM     51  H   UNL A   1      44.086  31.666  30.423  1.00  0.00     0.167 HD
ATOM     52  C   UNL A   1      43.413  28.688  33.527  1.00  0.00     0.037 A 
ATOM     53  C   UNL A   1      44.005  34.266  29.401  1.00  0.00     0.037 A 
ATOM     54  C   UNL A   1      43.136  29.943  34.174  1.00  0.00     0.049 A 
ATOM     55  C   UNL A   1      43.547  34.385  30.836  1.00  0.00     0.074 A 
ATOM     56  C   UNL A   1      42.808  30.178  35.499  1.00  0.00     0.029 A 
ATOM     57  N   UNL A   1      43.147  31.177  33.542  1.00  0.00    -0.354 N 
ATOM     58  N   UNL A   1      43.423  33.453  31.749  1.00  0.00    -0.248 NA
ATOM     59  C   UNL A   1      43.180  35.730  31.307  1.00  0.00     0.031 C 
ATOM     60  C   UNL A   1      42.566  31.546  35.655  1.00  0.00     0.029 A 
ATOM     61  C   UNL A   1      42.803  32.174  34.444  1.00  0.00     0.049 A 
ATOM     62  H   UNL A   1      43.367  31.325  32.594  1.00  0.00     0.167 HD
ATOM     63  C   UNL A   1      42.997  34.101  32.905  1.00  0.00     0.074 A 
ATOM     64  C   UNL A   1      42.895  35.507  32.583  1.00  0.00     0.031 C 
ATOM     65  C   UNL A   1      42.716  33.575  34.122  1.00  0.00     0.037 A 
BRANCH  52  66
ATOM     66  C   UNL A   1      43.299  27.434  34.347  1.00  0.00     0.064 A 
ATOM     67  C   UNL A   1      42.070  26.785  34.540  1.00  0.00     0.173 A 
ATOM     68  C   UNL A   1      44.443  26.856  34.917  1.00  0.00     0.173 A 
ATOM     69  F   UNL A   1      40.944  27.303  34.026  1.00  0.00    -0.203 F 
ATOM     70  C   UNL A   1      41.988  25.619  35.298  1.00  0.00     0.198 A 
ATOM     71  C   UNL A   1      44.362  25.672  35.647  1.00  0.00     0.198 A 
ATOM     72  F   UNL A   1      45.644  27.431  34.757  1.00  0.00    -0.203 F 
ATOM     73  F   UNL A   1      40.797  25.043  35.511  1.00  0.00    -0.200 F 
ATOM     74  C   UNL A   1      43.134  25.061  35.844  1.00  0.00     0.200 A 
ATOM     75  F   UNL A   1      45.473  25.127  36.161  1.00  0.00    -0.200 F 
ATOM     76  F   UNL A   1      43.054  23.935  36.567  1.00  0.00    -0.200 F 
ENDBRANCH  52  66
BRANCH  53  77
ATOM     77  C   UNL A   1      44.079  35.480  28.543  1.00  0.00     0.064 A 
ATOM     78  C   UNL A   1      45.275  36.202  28.409  1.00  0.00     0.173 A 
ATOM     79  C   UNL A   1      42.947  35.970  27.875  1.00  0.00     0.173 A 
ATOM     80  F   UNL A   1      46.377  35.795  29.056  1.00  0.00    -0.203 F 
ATOM     81  C   UNL A   1      45.329  37.376  27.659  1.00  0.00     0.198 A 
ATOM     82  C   UNL A   1      43.010  37.126  27.100  1.00  0.00     0.198 A 
ATOM     83  F   UNL A   1      41.776  35.325  27.977  1.00  0.00    -0.203 F 
ATOM     84  F   UNL A   1      46.471  38.074  27.595  1.00  0.00    -0.200 F 
ATOM     85  C   UNL A   1      44.199  37.833  26.999  1.00  0.00     0.200 A 
ATOM     86  F   UNL A   1      41.917  37.560  26.458  1.00  0.00    -0.200 F 
ATOM     87  F   UNL A   1      44.252  38.961  26.278  1.00  0.00    -0.200 F 
ENDBRANCH  53  77
BRANCH  65  88
ATOM     88  C   UNL A   1      42.314  34.522  35.219  1.00  0.00     0.064 A 
ATOM     89  C   UNL A   1      43.264  35.168  36.025  1.00  0.00     0.173 A 
ATOM     90  C   UNL A   1      40.961  34.828  35.433  1.00  0.00     0.173 A 
ATOM     91  F   UNL A   1      44.570  34.904  35.872  1.00  0.00    -0.203 F 
ATOM     92  C   UNL A   1      42.872  36.064  37.019  1.00  0.00     0.198 A 
ATOM     93  C   UNL A   1      40.575  35.748  36.406  1.00  0.00     0.198 A 
ATOM     94  F   UNL A   1      40.010  34.246  34.686  1.00  0.00    -0.203 F 
ATOM     95  F   UNL A   1      43.795  36.633  37.806  1.00  0.00    -0.200 F 
ATOM     96  C   UNL A   1      41.530  36.358  37.202  1.00  0.00     0.200 A 
ATOM     97  F   UNL A   1      39.278  36.043  36.570  1.00  0.00    -0.200 F 
ATOM     98  F   UNL A   1      41.156  37.228  38.151  1.00  0.00    -0.200 F 
ENDBRANCH  65  88
ENDBRANCH  39  40
ENDBRANCH  32  34
ENDBRANCH  31  32
ENDBRANCH  30  31
ENDBRANCH  29  30
ENDBRANCH  28  29
ENDBRANCH  27  28
ENDBRANCH  26  27
ENDBRANCH  25  26
ENDBRANCH  24  25
ENDBRANCH   1  24
TORSDOF 26
ENDMDL
MODEL 2
REMARK VINA RESULT:      -7.0      5.725     10.696
REMARK SMILES CCCOc1ccc(NC(=O)CCC(=O)OCCOCCOCCOCCOC(=O)c2ccc(-c3c4nc(c(-c5c(F)c(F)c(F)c(F)c5F)c5ccc([nH]5)c(-c5c(F)c(F)c(F)c(F)c5F)c5nc(c(-c6c(F)c(F)c(F)c(F)c6F)c6ccc3[nH]6)C=C5)C=C4)cc2)cc1
REMARK SMILES IDX 20 1 19 2 18 3 17 4 16 5 14 6 15 7 13 8 12 9 10 10 9 11
REMARK SMILES IDX 11 13 8 14 5 15 6 16 95 17 7 18 94 19 4 20 3 21 2 22 1 23
REMARK SMILES IDX 21 24 22 25 23 26 24 27 25 28 26 29 27 30 28 31 29 32 30 33
REMARK SMILES IDX 31 34 32 35 93 36 33 37 92 38 34 39 35 40 36 41 86 42 37 43
REMARK SMILES IDX 91 44 85 45 87 46 38 47 90 48 84 49 83 50 39 52 71 53 51 54
REMARK SMILES IDX 70 55 52 56 55 57 69 58 88 59 53 60 54 61 68 63 89 64 56 65
REMARK SMILES IDX 40 66 41 67 49 68 42 69 43 70 47 71 50 72 44 73 45 74 48 75
REMARK SMILES IDX 46 76 72 77 73 78 81 79 74 80 75 81 79 82 82 83 76 84 77 85
REMARK SMILES IDX 80 86 78 87 57 88 58 89 66 90 59 91 60 92 64 93 67 94 61 95
REMARK SMILES IDX 62 96 65 97 63 98
REMARK H PARENT 9 12 87 51 55 62
REMARK Flexibility Score: inf
ROOT
ATOM      1  C   UNL A   1      32.838  31.752  26.967  1.00  0.00     0.188 C 
ENDROOT
BRANCH   1   2
ATOM      2  O   UNL A   1      31.752  31.001  26.404  1.00  0.00    -0.376 OA
BRANCH   2   3
ATOM      3  C   UNL A   1      31.887  29.573  26.425  1.00  0.00     0.202 C 
BRANCH   3   4
ATOM      4  C   UNL A   1      32.040  28.916  25.037  1.00  0.00     0.261 C 
BRANCH   4   5
ATOM      5  O   UNL A   1      31.079  27.890  24.752  1.00  0.00    -0.463 OA
BRANCH   5   6
ATOM      6  C   UNL A   1      31.227  26.700  25.366  1.00  0.00     0.306 C 
ATOM      7  O   UNL A   1      30.589  26.342  26.346  1.00  0.00    -0.252 OA
BRANCH   6   8
ATOM      8  C   UNL A   1      32.289  25.861  24.695  1.00  0.00     0.132 C 
BRANCH   8   9
ATOM      9  C   UNL A   1      31.935  25.360  23.291  1.00  0.00     0.112 C 
BRANCH   9  10
ATOM     10  C   UNL A   1      33.120  24.812  22.517  1.00  0.00     0.224 C 
ATOM     11  N   UNL A   1      33.657  23.561  22.596  1.00  0.00    -0.326 N 
ATOM     12  H   UNL A   1      34.432  23.468  21.996  1.00  0.00     0.169 HD
ATOM     13  O   UNL A   1      33.675  25.576  21.709  1.00  0.00    -0.275 OA
BRANCH  11  14
ATOM     14  C   UNL A   1      33.409  22.364  23.297  1.00  0.00     0.041 A 
ATOM     15  C   UNL A   1      32.708  19.993  24.694  1.00  0.00     0.119 A 
ATOM     16  C   UNL A   1      33.643  20.855  25.205  1.00  0.00     0.048 A 
ATOM     17  C   UNL A   1      32.133  20.284  23.465  1.00  0.00     0.048 A 
ATOM     18  C   UNL A   1      33.959  22.033  24.515  1.00  0.00     0.030 A 
ATOM     19  C   UNL A   1      32.507  21.442  22.756  1.00  0.00     0.030 A 
BRANCH  15  20
ATOM     20  O   UNL A   1      32.231  18.955  25.431  1.00  0.00    -0.494 OA
BRANCH  20  21
ATOM     21  C   UNL A   1      32.747  17.666  25.068  1.00  0.00     0.229 C 
BRANCH  21  22
ATOM     22  C   UNL A   1      34.010  17.927  24.256  1.00  0.00     0.038 C 
ATOM     23  C   UNL A   1      34.126  16.970  23.077  1.00  0.00     0.007 C 
ENDBRANCH  21  22
ENDBRANCH  20  21
ENDBRANCH  15  20
ENDBRANCH  11  14
ENDBRANCH   9  10
ENDBRANCH   8   9
ENDBRANCH   6   8
ENDBRANCH   5   6
ENDBRANCH   4   5
ENDBRANCH   3   4
ENDBRANCH   2   3
ENDBRANCH   1   2
BRANCH   1  24
ATOM     24  C   UNL A   1      32.363  33.188  27.332  1.00  0.00     0.188 C 
BRANCH  24  25
ATOM     25  O   UNL A   1      33.451  33.904  27.912  1.00  0.00    -0.377 OA
BRANCH  25  26
ATOM     26  C   UNL A   1      33.250  35.017  28.782  1.00  0.00     0.188 C 
BRANCH  26  27
ATOM     27  C   UNL A   1      33.436  34.856  30.299  1.00  0.00     0.188 C 
BRANCH  27  28
ATOM     28  O   UNL A   1      34.193  33.727  30.735  1.00  0.00    -0.376 OA
BRANCH  28  29
ATOM     29  C   UNL A   1      35.604  33.795  30.562  1.00  0.00     0.202 C 
BRANCH  29  30
ATOM     30  C   UNL A   1      36.280  32.634  29.809  1.00  0.00     0.261 C 
BRANCH  30  31
ATOM     31  O   UNL A   1      35.833  31.312  30.181  1.00  0.00    -0.460 OA
BRANCH  31  32
ATOM     32  C   UNL A   1      35.798  30.411  29.166  1.00  0.00     0.338 C 
ATOM     33  O   UNL A   1      34.861  30.190  28.419  1.00  0.00    -0.246 OA
BRANCH  32  34
ATOM     34  C   UNL A   1      37.106  29.738  28.986  1.00  0.00     0.060 A 
ATOM     35  C   UNL A   1      37.708  29.160  30.112  1.00  0.00     0.016 A 
ATOM     36  C   UNL A   1      37.813  29.822  27.786  1.00  0.00     0.016 A 
ATOM     37  C   UNL A   1      39.038  28.724  30.062  1.00  0.00     0.010 A 
ATOM     38  C   UNL A   1      39.149  29.391  27.738  1.00  0.00     0.010 A 
ATOM     39  C   UNL A   1      39.785  28.883  28.888  1.00  0.00    -0.014 A 
BRANCH  39  40
ATOM     40  C   UNL A   1      41.268  28.725  28.908  1.00  0.00     0.031 A 
ATOM     41  C   UNL A   1      41.866  27.437  28.396  1.00  0.00     0.074 A 
ATOM     42  C   UNL A   1      42.088  29.692  29.360  1.00  0.00     0.049 A 
ATOM     43  N   UNL A   1      43.107  27.019  28.425  1.00  0.00    -0.248 NA
ATOM     44  C   UNL A   1      40.929  26.494  27.765  1.00  0.00     0.031 C 
ATOM     45  C   UNL A   1      41.667  31.011  29.824  1.00  0.00     0.029 A 
ATOM     46  N   UNL A   1      43.455  29.698  29.518  1.00  0.00    -0.354 N 
ATOM     47  C   UNL A   1      43.097  25.760  27.836  1.00  0.00     0.074 A 
ATOM     48  C   UNL A   1      41.723  25.473  27.480  1.00  0.00     0.031 C 
ATOM     49  C   UNL A   1      42.751  31.693  30.236  1.00  0.00     0.029 A 
ATOM     50  C   UNL A   1      43.937  30.843  30.105  1.00  0.00     0.049 A 
ATOM     51  H   UNL A   1      44.033  28.954  29.237  1.00  0.00     0.167 HD
ATOM     52  C   UNL A   1      44.134  24.918  27.608  1.00  0.00     0.037 A 
ATOM     53  C   UNL A   1      45.181  31.155  30.523  1.00  0.00     0.037 A 
ATOM     54  C   UNL A   1      45.504  25.195  27.952  1.00  0.00     0.049 A 
ATOM     55  C   UNL A   1      46.306  30.162  30.347  1.00  0.00     0.074 A 
ATOM     56  C   UNL A   1      46.622  24.406  27.746  1.00  0.00     0.029 A 
ATOM     57  N   UNL A   1      45.941  26.351  28.581  1.00  0.00    -0.354 N 
ATOM     58  N   UNL A   1      46.289  28.977  29.787  1.00  0.00    -0.248 NA
ATOM     59  C   UNL A   1      47.625  30.553  30.870  1.00  0.00     0.031 C 
ATOM     60  C   UNL A   1      47.728  25.059  28.302  1.00  0.00     0.029 A 
ATOM     61  C   UNL A   1      47.310  26.282  28.798  1.00  0.00     0.049 A 
ATOM     62  H   UNL A   1      45.366  27.108  28.837  1.00  0.00     0.167 HD
ATOM     63  C   UNL A   1      47.594  28.497  29.861  1.00  0.00     0.074 A 
ATOM     64  C   UNL A   1      48.380  29.524  30.509  1.00  0.00     0.031 C 
ATOM     65  C   UNL A   1      48.092  27.312  29.431  1.00  0.00     0.037 A 
BRANCH  52  66
ATOM     66  C   UNL A   1      43.822  23.588  26.982  1.00  0.00     0.064 A 
ATOM     67  C   UNL A   1      43.175  22.568  27.695  1.00  0.00     0.173 A 
ATOM     68  C   UNL A   1      44.143  23.347  25.637  1.00  0.00     0.173 A 
ATOM     69  F   UNL A   1      42.857  22.743  28.986  1.00  0.00    -0.203 F 
ATOM     70  C   UNL A   1      42.889  21.345  27.093  1.00  0.00     0.198 A 
ATOM     71  C   UNL A   1      43.826  22.135  25.029  1.00  0.00     0.198 A 
ATOM     72  F   UNL A   1      44.755  24.292  24.908  1.00  0.00    -0.203 F 
ATOM     73  F   UNL A   1      42.316  20.366  27.806  1.00  0.00    -0.200 F 
ATOM     74  C   UNL A   1      43.208  21.133  25.759  1.00  0.00     0.200 A 
ATOM     75  F   UNL A   1      44.122  21.938  23.737  1.00  0.00    -0.200 F 
ATOM     76  F   UNL A   1      42.925  19.958  25.180  1.00  0.00    -0.200 F 
ENDBRANCH  52  66
BRANCH  53  77
ATOM     77  C   UNL A   1      45.441  32.462  31.187  1.00  0.00     0.064 A 
ATOM     78  C   UNL A   1      45.221  32.633  32.562  1.00  0.00     0.173 A 
ATOM     79  C   UNL A   1      45.871  33.578  30.453  1.00  0.00     0.173 A 
ATOM     80  F   UNL A   1      44.777  31.606  33.300  1.00  0.00    -0.203 F 
ATOM     81  C   UNL A   1      45.401  33.873  33.172  1.00  0.00     0.198 A 
ATOM     82  C   UNL A   1      46.080  34.810  31.071  1.00  0.00     0.198 A 
ATOM     83  F   UNL A   1      46.086  33.473  29.134  1.00  0.00    -0.203 F 
ATOM     84  F   UNL A   1      45.129  34.021  34.475  1.00  0.00    -0.200 F 
ATOM     85  C   UNL A   1      45.837  34.959  32.428  1.00  0.00     0.200 A 
ATOM     86  F   UNL A   1      46.509  35.854  30.349  1.00  0.00    -0.200 F 
ATOM     87  F   UNL A   1      46.010  36.151  33.015  1.00  0.00    -0.200 F 
ENDBRANCH  53  77
BRANCH  65  88
ATOM     88  C   UNL A   1      49.566  27.069  29.600  1.00  0.00     0.064 A 
ATOM     89  C   UNL A   1      50.083  26.391  30.714  1.00  0.00     0.173 A 
ATOM     90  C   UNL A   1      50.472  27.476  28.606  1.00  0.00     0.173 A 
ATOM     91  F   UNL A   1      49.265  25.991  31.699  1.00  0.00    -0.203 F 
ATOM     92  C   UNL A   1      51.450  26.152  30.839  1.00  0.00     0.198 A 
ATOM     93  C   UNL A   1      51.834  27.207  28.719  1.00  0.00     0.198 A 
ATOM     94  F   UNL A   1      50.032  28.121  27.515  1.00  0.00    -0.203 F 
ATOM     95  F   UNL A   1      51.925  25.544  31.934  1.00  0.00    -0.200 F 
ATOM     96  C   UNL A   1      52.322  26.553  29.838  1.00  0.00     0.200 A 
ATOM     97  F   UNL A   1      52.672  27.581  27.742  1.00  0.00    -0.200 F 
ATOM     98  F   UNL A   1      53.636  26.313  29.955  1.00  0.00    -0.200 F 
ENDBRANCH  65  88
ENDBRANCH  39  40
ENDBRANCH  32  34
ENDBRANCH  31  32
ENDBRANCH  30  31
ENDBRANCH  29  30
ENDBRANCH  28  29
ENDBRANCH  27  28
ENDBRANCH  26  27
ENDBRANCH  25  26
ENDBRANCH  24  25
ENDBRANCH   1  24
TORSDOF 26
ENDMDL
MODEL 3
REMARK VINA RESULT:      -6.7      5.391      9.719
REMARK SMILES CCCOc1ccc(NC(=O)CCC(=O)OCCOCCOCCOCCOC(=O)c2ccc(-c3c4nc(c(-c5c(F)c(F)c(F)c(F)c5F)c5ccc([nH]5)c(-c5c(F)c(F)c(F)c(F)c5F)c5nc(c(-c6c(F)c(F)c(F)c(F)c6F)c6ccc3[nH]6)C=C5)C=C4)cc2)cc1
REMARK SMILES IDX 20 1 19 2 18 3 17 4 16 5 14 6 15 7 13 8 12 9 10 10 9 11
REMARK SMILES IDX 11 13 8 14 5 15 6 16 95 17 7 18 94 19 4 20 3 21 2 22 1 23
REMARK SMILES IDX 21 24 22 25 23 26 24 27 25 28 26 29 27 30 28 31 29 32 30 33
REMARK SMILES IDX 31 34 32 35 93 36 33 37 92 38 34 39 35 40 36 41 86 42 37 43
REMARK SMILES IDX 91 44 85 45 87 46 38 47 90 48 84 49 83 50 39 52 71 53 51 54
REMARK SMILES IDX 70 55 52 56 55 57 69 58 88 59 53 60 54 61 68 63 89 64 56 65
REMARK SMILES IDX 40 66 41 67 49 68 42 69 43 70 47 71 50 72 44 73 45 74 48 75
REMARK SMILES IDX 46 76 72 77 73 78 81 79 74 80 75 81 79 82 82 83 76 84 77 85
REMARK SMILES IDX 80 86 78 87 57 88 58 89 66 90 59 91 60 92 64 93 67 94 61 95
REMARK SMILES IDX 62 96 65 97 63 98
REMARK H PARENT 9 12 87 51 55 62
REMARK Flexibility Score: inf
ROOT
ATOM      1  C   UNL A   1      33.840  31.506  27.608  1.00  0.00     0.188 C 
ENDROOT
BRANCH   1   2
ATOM      2  O   UNL A   1      32.626  30.882  27.166  1.00  0.00    -0.376 OA
BRANCH   2   3
ATOM      3  C   UNL A   1      32.667  29.459  26.994  1.00  0.00     0.202 C 
BRANCH   3   4
ATOM      4  C   UNL A   1      32.542  28.979  25.532  1.00  0.00     0.261 C 
BRANCH   4   5
ATOM      5  O   UNL A   1      31.540  27.975  25.317  1.00  0.00    -0.463 OA
BRANCH   5   6
ATOM      6  C   UNL A   1      31.766  26.743  25.810  1.00  0.00     0.306 C 
ATOM      7  O   UNL A   1      31.231  26.288  26.812  1.00  0.00    -0.252 OA
BRANCH   6   8
ATOM      8  C   UNL A   1      32.773  25.990  24.972  1.00  0.00     0.132 C 
BRANCH   8   9
ATOM      9  C   UNL A   1      32.294  25.601  23.569  1.00  0.00     0.112 C 
BRANCH   9  10
ATOM     10  C   UNL A   1      33.399  25.088  22.664  1.00  0.00     0.224 C 
ATOM     11  N   UNL A   1      33.950  23.840  22.651  1.00  0.00    -0.326 N 
ATOM     12  H   UNL A   1      34.661  23.772  21.975  1.00  0.00     0.169 HD
ATOM     13  O   UNL A   1      33.864  25.879  21.827  1.00  0.00    -0.275 OA
BRANCH  11  14
ATOM     14  C   UNL A   1      33.782  22.621  23.339  1.00  0.00     0.041 A 
ATOM     15  C   UNL A   1      33.251  20.223  24.764  1.00  0.00     0.119 A 
ATOM     16  C   UNL A   1      34.364  20.972  25.046  1.00  0.00     0.048 A 
ATOM     17  C   UNL A   1      32.406  20.641  23.746  1.00  0.00     0.048 A 
ATOM     18  C   UNL A   1      34.597  22.166  24.351  1.00  0.00     0.030 A 
ATOM     19  C   UNL A   1      32.688  21.811  23.016  1.00  0.00     0.030 A 
BRANCH  15  20
ATOM     20  O   UNL A   1      32.887  19.178  25.554  1.00  0.00    -0.494 OA
BRANCH  20  21
ATOM     21  C   UNL A   1      32.479  17.997  24.847  1.00  0.00     0.229 C 
BRANCH  21  22
ATOM     22  C   UNL A   1      33.745  17.182  24.613  1.00  0.00     0.038 C 
ATOM     23  C   UNL A   1      33.997  16.951  23.128  1.00  0.00     0.007 C 
ENDBRANCH  21  22
ENDBRANCH  20  21
ENDBRANCH  15  20
ENDBRANCH  11  14
ENDBRANCH   9  10
ENDBRANCH   8   9
ENDBRANCH   6   8
ENDBRANCH   5   6
ENDBRANCH   4   5
ENDBRANCH   3   4
ENDBRANCH   2   3
ENDBRANCH   1   2
BRANCH   1  24
ATOM     24  C   UNL A   1      33.555  32.964  28.073  1.00  0.00     0.188 C 
BRANCH  24  25
ATOM     25  O   UNL A   1      34.661  33.431  28.842  1.00  0.00    -0.377 OA
BRANCH  25  26
ATOM     26  C   UNL A   1      34.512  33.886  30.187  1.00  0.00     0.188 C 
BRANCH  26  27
ATOM     27  C   UNL A   1      34.709  32.912  31.358  1.00  0.00     0.188 C 
BRANCH  27  28
ATOM     28  O   UNL A   1      35.533  31.773  31.113  1.00  0.00    -0.376 OA
BRANCH  28  29
ATOM     29  C   UNL A   1      36.927  32.011  30.956  1.00  0.00     0.202 C 
BRANCH  29  30
ATOM     30  C   UNL A   1      37.664  31.207  29.868  1.00  0.00     0.261 C 
BRANCH  30  31
ATOM     31  O   UNL A   1      37.241  29.834  29.722  1.00  0.00    -0.460 OA
BRANCH  31  32
ATOM     32  C   UNL A   1      38.198  28.984  29.267  1.00  0.00     0.338 C 
ATOM     33  O   UNL A   1      38.278  28.506  28.149  1.00  0.00    -0.246 OA
BRANCH  32  34
ATOM     34  C   UNL A   1      39.244  28.740  30.289  1.00  0.00     0.060 A 
ATOM     35  C   UNL A   1      38.844  28.226  31.530  1.00  0.00     0.016 A 
ATOM     36  C   UNL A   1      40.559  29.169  30.106  1.00  0.00     0.016 A 
ATOM     37  C   UNL A   1      39.735  28.198  32.609  1.00  0.00     0.010 A 
ATOM     38  C   UNL A   1      41.451  29.147  31.191  1.00  0.00     0.010 A 
ATOM     39  C   UNL A   1      41.032  28.707  32.462  1.00  0.00    -0.014 A 
BRANCH  39  40
ATOM     40  C   UNL A   1      41.878  28.978  33.660  1.00  0.00     0.031 A 
ATOM     41  C   UNL A   1      42.884  27.937  34.086  1.00  0.00     0.074 A 
ATOM     42  C   UNL A   1      41.779  30.119  34.366  1.00  0.00     0.049 A 
ATOM     43  N   UNL A   1      43.640  27.890  35.154  1.00  0.00    -0.248 NA
ATOM     44  C   UNL A   1      43.056  26.793  33.177  1.00  0.00     0.031 C 
ATOM     45  C   UNL A   1      40.905  31.243  34.041  1.00  0.00     0.029 A 
ATOM     46  N   UNL A   1      42.417  30.510  35.521  1.00  0.00    -0.354 N 
ATOM     47  C   UNL A   1      44.362  26.706  35.056  1.00  0.00     0.074 A 
ATOM     48  C   UNL A   1      43.936  26.053  33.836  1.00  0.00     0.031 C 
ATOM     49  C   UNL A   1      41.044  32.189  34.988  1.00  0.00     0.029 A 
ATOM     50  C   UNL A   1      41.985  31.720  36.008  1.00  0.00     0.049 A 
ATOM     51  H   UNL A   1      43.117  29.974  35.957  1.00  0.00     0.167 HD
ATOM     52  C   UNL A   1      45.296  26.206  35.901  1.00  0.00     0.037 A 
ATOM     53  C   UNL A   1      42.283  32.356  37.159  1.00  0.00     0.037 A 
ATOM     54  C   UNL A   1      45.731  26.848  37.113  1.00  0.00     0.049 A 
ATOM     55  C   UNL A   1      43.255  31.734  38.134  1.00  0.00     0.074 A 
ATOM     56  C   UNL A   1      46.682  26.420  38.024  1.00  0.00     0.029 A 
ATOM     57  N   UNL A   1      45.238  28.054  37.588  1.00  0.00    -0.354 N 
ATOM     58  N   UNL A   1      43.934  30.618  38.033  1.00  0.00    -0.248 NA
ATOM     59  C   UNL A   1      43.495  32.464  39.390  1.00  0.00     0.031 C 
ATOM     60  C   UNL A   1      46.724  27.338  39.078  1.00  0.00     0.029 A 
ATOM     61  C   UNL A   1      45.845  28.369  38.795  1.00  0.00     0.049 A 
ATOM     62  H   UNL A   1      44.558  28.604  37.137  1.00  0.00     0.167 HD
ATOM     63  C   UNL A   1      44.703  30.528  39.190  1.00  0.00     0.074 A 
ATOM     64  C   UNL A   1      44.416  31.709  39.975  1.00  0.00     0.031 C 
ATOM     65  C   UNL A   1      45.566  29.553  39.567  1.00  0.00     0.037 A 
BRANCH  52  66
ATOM     66  C   UNL A   1      45.893  24.869  35.561  1.00  0.00     0.064 A 
ATOM     67  C   UNL A   1      45.206  23.669  35.800  1.00  0.00     0.173 A 
ATOM     68  C   UNL A   1      47.156  24.792  34.953  1.00  0.00     0.173 A 
ATOM     69  F   UNL A   1      44.001  23.687  36.390  1.00  0.00    -0.203 F 
ATOM     70  C   UNL A   1      45.774  22.441  35.470  1.00  0.00     0.198 A 
ATOM     71  C   UNL A   1      47.707  23.565  34.595  1.00  0.00     0.198 A 
ATOM     72  F   UNL A   1      47.851  25.910  34.695  1.00  0.00    -0.203 F 
ATOM     73  F   UNL A   1      45.122  21.305  35.753  1.00  0.00    -0.200 F 
ATOM     74  C   UNL A   1      47.020  22.391  34.862  1.00  0.00     0.200 A 
ATOM     75  F   UNL A   1      48.904  23.519  33.994  1.00  0.00    -0.200 F 
ATOM     76  F   UNL A   1      47.562  21.209  34.539  1.00  0.00    -0.200 F 
ENDBRANCH  52  66
BRANCH  53  77
ATOM     77  C   UNL A   1      41.632  33.654  37.486  1.00  0.00     0.064 A 
ATOM     78  C   UNL A   1      42.270  34.874  37.215  1.00  0.00     0.173 A 
ATOM     79  C   UNL A   1      40.381  33.701  38.118  1.00  0.00     0.173 A 
ATOM     80  F   UNL A   1      43.483  34.882  36.644  1.00  0.00    -0.203 F 
ATOM     81  C   UNL A   1      41.690  36.088  37.581  1.00  0.00     0.198 A 
ATOM     82  C   UNL A   1      39.788  34.917  38.455  1.00  0.00     0.198 A 
ATOM     83  F   UNL A   1      39.732  32.565  38.410  1.00  0.00    -0.203 F 
ATOM     84  F   UNL A   1      42.347  37.234  37.360  1.00  0.00    -0.200 F 
ATOM     85  C   UNL A   1      40.447  36.109  38.194  1.00  0.00     0.200 A 
ATOM     86  F   UNL A   1      38.583  34.932  39.041  1.00  0.00    -0.200 F 
ATOM     87  F   UNL A   1      39.890  37.276  38.546  1.00  0.00    -0.200 F 
ENDBRANCH  53  77
BRANCH  65  88
ATOM     88  C   UNL A   1      46.306  29.735  40.863  1.00  0.00     0.064 A 
ATOM     89  C   UNL A   1      45.859  29.154  42.060  1.00  0.00     0.173 A 
ATOM     90  C   UNL A   1      47.508  30.459  40.900  1.00  0.00     0.173 A 
ATOM     91  F   UNL A   1      44.710  28.461  42.085  1.00  0.00    -0.203 F 
ATOM     92  C   UNL A   1      46.573  29.311  43.246  1.00  0.00     0.198 A 
ATOM     93  C   UNL A   1      48.236  30.588  42.081  1.00  0.00     0.198 A 
ATOM     94  F   UNL A   1      47.987  31.030  39.784  1.00  0.00    -0.203 F 
ATOM     95  F   UNL A   1      46.102  28.786  44.385  1.00  0.00    -0.200 F 
ATOM     96  C   UNL A   1      47.764  30.021  43.253  1.00  0.00     0.200 A 
ATOM     97  F   UNL A   1      49.395  31.261  42.081  1.00  0.00    -0.200 F 
ATOM     98  F   UNL A   1      48.455  30.163  44.393  1.00  0.00    -0.200 F 
ENDBRANCH  65  88
ENDBRANCH  39  40
ENDBRANCH  32  34
ENDBRANCH  31  32
ENDBRANCH  30  31
ENDBRANCH  29  30
ENDBRANCH  28  29
ENDBRANCH  27  28
ENDBRANCH  26  27
ENDBRANCH  25  26
ENDBRANCH  24  25
ENDBRANCH   1  24
TORSDOF 26
ENDMDL
