MODEL 1
REMARK VINA RESULT:      -7.9      0.000      0.000
REMARK SMILES O=C(CCCc1nc(-c2ccc(Cl)c(Cl)c2)c(-c2ccccc2)o1)OCCOCCOCCOCCOC(=O)c1ccc(-c2c3nc(c(-c4c(F)c(F)c(F)c(F)c4F)c4ccc([nH]4)c(-c4c(F)c(F)c(F)c(F)c4F)c4nc(c(-c5c(F)c(F)c(F)c(F)c5F)c5ccc2[nH]5)C=C4)C=C3)cc1
REMARK SMILES IDX 30 1 29 2 28 3 27 4 26 5 25 6 2 7 1 8 3 9 4 10 5 11 6 12
REMARK SMILES IDX 7 13 24 14 8 15 17 16 9 17 10 18 16 19 11 20 14 21 12 22
REMARK SMILES IDX 15 23 13 24 18 25 19 26 23 27 20 28 22 29 21 30 31 31 32 32
REMARK SMILES IDX 33 33 34 34 35 35 36 36 37 37 38 38 39 39 40 40 41 41 102 42
REMARK SMILES IDX 42 43 101 44 43 45 44 46 45 47 95 48 46 49 100 50 94 51
REMARK SMILES IDX 96 52 47 53 99 54 93 55 92 56 48 58 80 59 60 60 79 61 61 62
REMARK SMILES IDX 64 63 78 64 97 65 62 66 63 67 77 69 98 70 65 71 49 72 50 73
REMARK SMILES IDX 58 74 51 75 52 76 56 77 59 78 53 79 54 80 57 81 55 82 81 83
REMARK SMILES IDX 82 84 90 85 83 86 84 87 88 88 91 89 85 90 86 91 89 92 87 93
REMARK SMILES IDX 66 94 67 95 75 96 68 97 69 98 73 99 76 100 70 101 71 102
REMARK SMILES IDX 74 103 72 104
REMARK H PARENT 96 57 64 68
REMARK Flexibility Score: inf
ROOT
ATOM      1  C   UNL A   1      44.975  31.867  31.822  1.00  0.00     0.188 C 
ENDROOT
BRANCH   1   2
ATOM      2  C   UNL A   1      43.731  31.097  32.267  1.00  0.00     0.188 C 
BRANCH   2   3
ATOM      3  O   UNL A   1      43.695  29.697  31.977  1.00  0.00    -0.376 OA
BRANCH   3   4
ATOM      4  C   UNL A   1      42.690  29.252  31.075  1.00  0.00     0.202 C 
BRANCH   4   5
ATOM      5  C   UNL A   1      43.039  27.990  30.275  1.00  0.00     0.261 C 
BRANCH   5   6
ATOM      6  O   UNL A   1      44.241  28.099  29.519  1.00  0.00    -0.463 OA
BRANCH   6   7
ATOM      7  C   UNL A   1      44.113  28.291  28.189  1.00  0.00     0.305 C 
ATOM      8  O   UNL A   1      44.737  27.672  27.337  1.00  0.00    -0.252 OA
BRANCH   7   9
ATOM      9  C   UNL A   1      43.249  29.510  27.911  1.00  0.00     0.123 C 
BRANCH   9  10
ATOM     10  C   UNL A   1      42.425  29.492  26.623  1.00  0.00     0.021 C 
BRANCH  10  11
ATOM     11  C   UNL A   1      41.125  28.689  26.550  1.00  0.00     0.098 C 
BRANCH  11  12
ATOM     12  C   UNL A   1      39.940  29.027  27.389  1.00  0.00     0.195 A 
ATOM     13  N   UNL A   1      38.765  29.354  26.879  1.00  0.00    -0.213 NA
ATOM     14  O   UNL A   1      39.987  29.040  28.765  1.00  0.00    -0.440 OA
ATOM     15  C   UNL A   1      38.002  29.651  27.966  1.00  0.00     0.117 A 
ATOM     16  C   UNL A   1      38.706  29.419  29.133  1.00  0.00     0.162 A 
BRANCH  15  17
ATOM     17  C   UNL A   1      36.649  30.151  27.870  1.00  0.00     0.006 A 
ATOM     18  C   UNL A   1      36.383  31.507  28.077  1.00  0.00     0.012 A 
ATOM     19  C   UNL A   1      35.607  29.284  27.515  1.00  0.00     0.032 A 
ATOM     20  C   UNL A   1      35.090  32.001  27.886  1.00  0.00     0.023 A 
ATOM     21  C   UNL A   1      34.313  29.777  27.325  1.00  0.00     0.060 A 
ATOM     22  C   UNL A   1      34.056  31.140  27.502  1.00  0.00     0.059 A 
ATOM     23  Cl  UNL A   1      33.092  28.652  26.849  1.00  0.00    -0.083 Cl
ATOM     24  Cl  UNL A   1      32.491  31.824  27.250  1.00  0.00    -0.083 Cl
ENDBRANCH  15  17
BRANCH  16  25
ATOM     25  C   UNL A   1      38.348  29.480  30.550  1.00  0.00     0.020 A 
ATOM     26  C   UNL A   1      38.194  28.334  31.332  1.00  0.00     0.012 A 
ATOM     27  C   UNL A   1      38.186  30.736  31.174  1.00  0.00     0.012 A 
ATOM     28  C   UNL A   1      37.920  28.442  32.704  1.00  0.00     0.001 A 
ATOM     29  C   UNL A   1      37.911  30.845  32.537  1.00  0.00     0.001 A 
ATOM     30  C   UNL A   1      37.786  29.694  33.305  1.00  0.00     0.000 A 
ENDBRANCH  16  25
ENDBRANCH  11  12
ENDBRANCH  10  11
ENDBRANCH   9  10
ENDBRANCH   7   9
ENDBRANCH   6   7
ENDBRANCH   5   6
ENDBRANCH   4   5
ENDBRANCH   3   4
ENDBRANCH   2   3
ENDBRANCH   1   2
BRANCH   1  31
ATOM     31  O   UNL A   1      44.994  33.244  32.140  1.00  0.00    -0.377 OA
BRANCH  31  32
ATOM     32  C   UNL A   1      45.740  33.687  33.264  1.00  0.00     0.188 C 
BRANCH  32  33
ATOM     33  C   UNL A   1      46.929  32.901  33.832  1.00  0.00     0.188 C 
BRANCH  33  34
ATOM     34  O   UNL A   1      47.845  33.693  34.580  1.00  0.00    -0.376 OA
BRANCH  34  35
ATOM     35  C   UNL A   1      48.727  32.969  35.427  1.00  0.00     0.202 C 
BRANCH  35  36
ATOM     36  C   UNL A   1      50.082  32.708  34.769  1.00  0.00     0.261 C 
BRANCH  36  37
ATOM     37  O   UNL A   1      50.264  33.379  33.511  1.00  0.00    -0.460 OA
BRANCH  37  38
ATOM     38  C   UNL A   1      51.129  32.841  32.623  1.00  0.00     0.338 C 
ATOM     39  O   UNL A   1      52.304  33.128  32.473  1.00  0.00    -0.246 OA
BRANCH  38  40
ATOM     40  C   UNL A   1      50.449  31.690  31.977  1.00  0.00     0.060 A 
ATOM     41  C   UNL A   1      49.241  31.904  31.297  1.00  0.00     0.016 A 
ATOM     42  C   UNL A   1      51.052  30.427  31.951  1.00  0.00     0.016 A 
ATOM     43  C   UNL A   1      48.626  30.851  30.610  1.00  0.00     0.010 A 
ATOM     44  C   UNL A   1      50.431  29.375  31.274  1.00  0.00     0.010 A 
ATOM     45  C   UNL A   1      49.201  29.572  30.623  1.00  0.00    -0.014 A 
BRANCH  45  46
ATOM     46  C   UNL A   1      48.433  28.381  30.172  1.00  0.00     0.031 A 
ATOM     47  C   UNL A   1      48.448  28.062  28.703  1.00  0.00     0.074 A 
ATOM     48  C   UNL A   1      47.699  27.632  31.014  1.00  0.00     0.049 A 
ATOM     49  N   UNL A   1      47.755  27.178  28.031  1.00  0.00    -0.248 NA
ATOM     50  C   UNL A   1      49.365  28.863  27.876  1.00  0.00     0.031 C 
ATOM     51  C   UNL A   1      47.618  27.810  32.461  1.00  0.00     0.029 A 
ATOM     52  N   UNL A   1      46.853  26.579  30.757  1.00  0.00    -0.354 N 
ATOM     53  C   UNL A   1      48.141  27.331  26.706  1.00  0.00     0.074 A 
ATOM     54  C   UNL A   1      49.112  28.402  26.662  1.00  0.00     0.031 C 
ATOM     55  C   UNL A   1      46.750  26.912  32.962  1.00  0.00     0.029 A 
ATOM     56  C   UNL A   1      46.183  26.124  31.866  1.00  0.00     0.049 A 
ATOM     57  H   UNL A   1      46.739  26.186  29.860  1.00  0.00     0.167 HD
ATOM     58  C   UNL A   1      47.724  26.640  25.619  1.00  0.00     0.037 A 
ATOM     59  C   UNL A   1      45.199  25.206  31.975  1.00  0.00     0.037 A 
ATOM     60  C   UNL A   1      46.757  25.578  25.657  1.00  0.00     0.049 A 
ATOM     61  C   UNL A   1      44.694  24.501  30.737  1.00  0.00     0.074 A 
ATOM     62  C   UNL A   1      46.296  24.796  24.612  1.00  0.00     0.029 A 
ATOM     63  N   UNL A   1      46.093  25.158  26.798  1.00  0.00    -0.354 N 
ATOM     64  N   UNL A   1      45.091  24.621  29.493  1.00  0.00    -0.248 NA
ATOM     65  C   UNL A   1      43.597  23.537  30.920  1.00  0.00     0.031 C 
ATOM     66  C   UNL A   1      45.309  23.941  25.112  1.00  0.00     0.029 A 
ATOM     67  C   UNL A   1      45.198  24.149  26.477  1.00  0.00     0.049 A 
ATOM     68  H   UNL A   1      46.234  25.522  27.701  1.00  0.00     0.167 HD
ATOM     69  C   UNL A   1      44.316  23.733  28.755  1.00  0.00     0.074 A 
ATOM     70  C   UNL A   1      43.434  23.071  29.689  1.00  0.00     0.031 C 
ATOM     71  C   UNL A   1      44.335  23.489  27.421  1.00  0.00     0.037 A 
BRANCH  58  72
ATOM     72  C   UNL A   1      48.289  27.040  24.289  1.00  0.00     0.064 A 
ATOM     73  C   UNL A   1      49.596  26.700  23.909  1.00  0.00     0.173 A 
ATOM     74  C   UNL A   1      47.502  27.752  23.372  1.00  0.00     0.173 A 
ATOM     75  F   UNL A   1      50.395  26.036  24.758  1.00  0.00    -0.203 F 
ATOM     76  C   UNL A   1      50.102  27.080  22.670  1.00  0.00     0.198 A 
ATOM     77  C   UNL A   1      48.001  28.104  22.121  1.00  0.00     0.198 A 
ATOM     78  F   UNL A   1      46.246  28.103  23.688  1.00  0.00    -0.203 F 
ATOM     79  F   UNL A   1      51.368  26.786  22.346  1.00  0.00    -0.200 F 
ATOM     80  C   UNL A   1      49.301  27.775  21.775  1.00  0.00     0.200 A 
ATOM     81  F   UNL A   1      47.222  28.768  21.255  1.00  0.00    -0.200 F 
ATOM     82  F   UNL A   1      49.788  28.133  20.578  1.00  0.00    -0.200 F 
ENDBRANCH  58  72
BRANCH  59  83
ATOM     83  C   UNL A   1      44.588  24.913  33.301  1.00  0.00     0.064 A 
ATOM     84  C   UNL A   1      43.573  25.724  33.828  1.00  0.00     0.173 A 
ATOM     85  C   UNL A   1      45.042  23.846  34.092  1.00  0.00     0.173 A 
ATOM     86  F   UNL A   1      43.128  26.778  33.127  1.00  0.00    -0.203 F 
ATOM     87  C   UNL A   1      43.050  25.493  35.099  1.00  0.00     0.198 A 
ATOM     88  C   UNL A   1      44.498  23.598  35.351  1.00  0.00     0.198 A 
ATOM     89  F   UNL A   1      46.020  23.046  33.643  1.00  0.00    -0.203 F 
ATOM     90  F   UNL A   1      42.119  26.318  35.599  1.00  0.00    -0.200 F 
ATOM     91  C   UNL A   1      43.509  24.426  35.857  1.00  0.00     0.200 A 
ATOM     92  F   UNL A   1      44.940  22.562  36.077  1.00  0.00    -0.200 F 
ATOM     93  F   UNL A   1      43.007  24.206  37.080  1.00  0.00    -0.200 F 
ENDBRANCH  59  83
BRANCH  71  94
ATOM     94  C   UNL A   1      43.404  22.436  26.887  1.00  0.00     0.064 A 
ATOM     95  C   UNL A   1      43.883  21.224  26.370  1.00  0.00     0.173 A 
ATOM     96  C   UNL A   1      42.014  22.616  26.961  1.00  0.00     0.173 A 
ATOM     97  F   UNL A   1      45.202  21.007  26.266  1.00  0.00    -0.203 F 
ATOM     98  C   UNL A   1      43.003  20.236  25.933  1.00  0.00     0.198 A 
ATOM     99  C   UNL A   1      41.138  21.616  26.551  1.00  0.00     0.198 A 
ATOM    100  F   UNL A   1      41.505  23.755  27.455  1.00  0.00    -0.203 F 
ATOM    101  F   UNL A   1      43.482  19.099  25.410  1.00  0.00    -0.200 F 
ATOM    102  C   UNL A   1      41.632  20.429  26.032  1.00  0.00     0.200 A 
ATOM    103  F   UNL A   1      39.815  21.797  26.663  1.00  0.00    -0.200 F 
ATOM    104  F   UNL A   1      40.788  19.470  25.626  1.00  0.00    -0.200 F 
ENDBRANCH  71  94
ENDBRANCH  45  46
ENDBRANCH  38  40
ENDBRANCH  37  38
ENDBRANCH  36  37
ENDBRANCH  35  36
ENDBRANCH  34  35
ENDBRANCH  33  34
ENDBRANCH  32  33
ENDBRANCH  31  32
ENDBRANCH   1  31
TORSDOF 25
ENDMDL
MODEL 2
REMARK VINA RESULT:      -7.8      1.413      2.361
REMARK SMILES O=C(CCCc1nc(-c2ccc(Cl)c(Cl)c2)c(-c2ccccc2)o1)OCCOCCOCCOCCOC(=O)c1ccc(-c2c3nc(c(-c4c(F)c(F)c(F)c(F)c4F)c4ccc([nH]4)c(-c4c(F)c(F)c(F)c(F)c4F)c4nc(c(-c5c(F)c(F)c(F)c(F)c5F)c5ccc2[nH]5)C=C4)C=C3)cc1
REMARK SMILES IDX 30 1 29 2 28 3 27 4 26 5 25 6 2 7 1 8 3 9 4 10 5 11 6 12
REMARK SMILES IDX 7 13 24 14 8 15 17 16 9 17 10 18 16 19 11 20 14 21 12 22
REMARK SMILES IDX 15 23 13 24 18 25 19 26 23 27 20 28 22 29 21 30 31 31 32 32
REMARK SMILES IDX 33 33 34 34 35 35 36 36 37 37 38 38 39 39 40 40 41 41 102 42
REMARK SMILES IDX 42 43 101 44 43 45 44 46 45 47 95 48 46 49 100 50 94 51
REMARK SMILES IDX 96 52 47 53 99 54 93 55 92 56 48 58 80 59 60 60 79 61 61 62
REMARK SMILES IDX 64 63 78 64 97 65 62 66 63 67 77 69 98 70 65 71 49 72 50 73
REMARK SMILES IDX 58 74 51 75 52 76 56 77 59 78 53 79 54 80 57 81 55 82 81 83
REMARK SMILES IDX 82 84 90 85 83 86 84 87 88 88 91 89 85 90 86 91 89 92 87 93
REMARK SMILES IDX 66 94 67 95 75 96 68 97 69 98 73 99 76 100 70 101 71 102
REMARK SMILES IDX 74 103 72 104
REMARK H PARENT 96 57 64 68
REMARK Flexibility Score: inf
ROOT
ATOM      1  C   UNL A   1      44.991  31.837  31.716  1.00  0.00     0.188 C 
ENDROOT
BRANCH   1   2
ATOM      2  C   UNL A   1      43.763  30.986  32.043  1.00  0.00     0.188 C 
BRANCH   2   3
ATOM      3  O   UNL A   1      43.795  29.616  31.633  1.00  0.00    -0.376 OA
BRANCH   3   4
ATOM      4  C   UNL A   1      42.799  29.198  30.708  1.00  0.00     0.202 C 
BRANCH   4   5
ATOM      5  C   UNL A   1      43.164  27.971  29.863  1.00  0.00     0.261 C 
BRANCH   5   6
ATOM      6  O   UNL A   1      44.254  28.185  28.972  1.00  0.00    -0.463 OA
BRANCH   6   7
ATOM      7  C   UNL A   1      43.964  28.257  27.655  1.00  0.00     0.305 C 
ATOM      8  O   UNL A   1      44.568  27.651  26.779  1.00  0.00    -0.252 OA
BRANCH   7   9
ATOM      9  C   UNL A   1      42.930  29.341  27.401  1.00  0.00     0.123 C 
BRANCH   9  10
ATOM     10  C   UNL A   1      41.806  29.005  26.420  1.00  0.00     0.021 C 
BRANCH  10  11
ATOM     11  C   UNL A   1      40.522  28.340  26.916  1.00  0.00     0.098 C 
BRANCH  11  12
ATOM     12  C   UNL A   1      39.486  29.093  27.679  1.00  0.00     0.195 A 
ATOM     13  N   UNL A   1      39.654  29.480  28.932  1.00  0.00    -0.213 NA
ATOM     14  O   UNL A   1      38.266  29.429  27.137  1.00  0.00    -0.440 OA
ATOM     15  C   UNL A   1      38.467  30.058  29.263  1.00  0.00     0.117 A 
ATOM     16  C   UNL A   1      37.619  30.087  28.172  1.00  0.00     0.162 A 
BRANCH  15  17
ATOM     17  C   UNL A   1      38.169  30.549  30.589  1.00  0.00     0.006 A 
ATOM     18  C   UNL A   1      37.350  29.809  31.447  1.00  0.00     0.012 A 
ATOM     19  C   UNL A   1      38.745  31.746  31.038  1.00  0.00     0.032 A 
ATOM     20  C   UNL A   1      37.147  30.240  32.760  1.00  0.00     0.023 A 
ATOM     21  C   UNL A   1      38.540  32.178  32.350  1.00  0.00     0.060 A 
ATOM     22  C   UNL A   1      37.747  31.419  33.216  1.00  0.00     0.059 A 
ATOM     23  Cl  UNL A   1      39.317  33.641  32.839  1.00  0.00    -0.083 Cl
ATOM     24  Cl  UNL A   1      37.480  31.874  34.861  1.00  0.00    -0.083 Cl
ENDBRANCH  15  17
BRANCH  16  25
ATOM     25  C   UNL A   1      36.292  30.661  27.946  1.00  0.00     0.020 A 
ATOM     26  C   UNL A   1      35.202  29.888  27.541  1.00  0.00     0.012 A 
ATOM     27  C   UNL A   1      36.080  32.037  28.180  1.00  0.00     0.012 A 
ATOM     28  C   UNL A   1      33.932  30.468  27.407  1.00  0.00     0.001 A 
ATOM     29  C   UNL A   1      34.818  32.615  28.044  1.00  0.00     0.001 A 
ATOM     30  C   UNL A   1      33.740  31.826  27.664  1.00  0.00     0.000 A 
ENDBRANCH  16  25
ENDBRANCH  11  12
ENDBRANCH  10  11
ENDBRANCH   9  10
ENDBRANCH   7   9
ENDBRANCH   6   7
ENDBRANCH   5   6
ENDBRANCH   4   5
ENDBRANCH   3   4
ENDBRANCH   2   3
ENDBRANCH   1   2
BRANCH   1  31
ATOM     31  O   UNL A   1      44.924  33.193  32.110  1.00  0.00    -0.377 OA
BRANCH  31  32
ATOM     32  C   UNL A   1      45.628  33.616  33.267  1.00  0.00     0.188 C 
BRANCH  32  33
ATOM     33  C   UNL A   1      46.845  32.863  33.819  1.00  0.00     0.188 C 
BRANCH  33  34
ATOM     34  O   UNL A   1      47.776  33.688  34.511  1.00  0.00    -0.376 OA
BRANCH  34  35
ATOM     35  C   UNL A   1      48.689  33.001  35.356  1.00  0.00     0.202 C 
BRANCH  35  36
ATOM     36  C   UNL A   1      50.055  32.806  34.698  1.00  0.00     0.261 C 
BRANCH  36  37
ATOM     37  O   UNL A   1      50.208  33.493  33.445  1.00  0.00    -0.460 OA
BRANCH  37  38
ATOM     38  C   UNL A   1      51.063  32.973  32.536  1.00  0.00     0.338 C 
ATOM     39  O   UNL A   1      52.230  33.280  32.362  1.00  0.00    -0.246 OA
BRANCH  38  40
ATOM     40  C   UNL A   1      50.388  31.815  31.898  1.00  0.00     0.060 A 
ATOM     41  C   UNL A   1      49.164  32.014  31.243  1.00  0.00     0.016 A 
ATOM     42  C   UNL A   1      51.008  30.561  31.855  1.00  0.00     0.016 A 
ATOM     43  C   UNL A   1      48.551  30.955  30.563  1.00  0.00     0.010 A 
ATOM     44  C   UNL A   1      50.389  29.503  31.187  1.00  0.00     0.010 A 
ATOM     45  C   UNL A   1      49.144  29.684  30.560  1.00  0.00    -0.014 A 
BRANCH  45  46
ATOM     46  C   UNL A   1      48.386  28.484  30.119  1.00  0.00     0.031 A 
ATOM     47  C   UNL A   1      48.402  28.153  28.652  1.00  0.00     0.074 A 
ATOM     48  C   UNL A   1      47.658  27.736  30.968  1.00  0.00     0.049 A 
ATOM     49  N   UNL A   1      47.715  27.259  27.988  1.00  0.00    -0.248 NA
ATOM     50  C   UNL A   1      49.312  28.955  27.819  1.00  0.00     0.031 C 
ATOM     51  C   UNL A   1      47.578  27.924  32.413  1.00  0.00     0.029 A 
ATOM     52  N   UNL A   1      46.821  26.673  30.719  1.00  0.00    -0.354 N 
ATOM     53  C   UNL A   1      48.099  27.404  26.661  1.00  0.00     0.074 A 
ATOM     54  C   UNL A   1      49.062  28.482  26.609  1.00  0.00     0.031 C 
ATOM     55  C   UNL A   1      46.717  27.023  32.922  1.00  0.00     0.029 A 
ATOM     56  C   UNL A   1      46.155  26.222  31.833  1.00  0.00     0.049 A 
ATOM     57  H   UNL A   1      46.709  26.273  29.826  1.00  0.00     0.167 HD
ATOM     58  C   UNL A   1      47.687  26.702  25.581  1.00  0.00     0.037 A 
ATOM     59  C   UNL A   1      45.179  25.298  31.950  1.00  0.00     0.037 A 
ATOM     60  C   UNL A   1      46.728  25.633  25.627  1.00  0.00     0.049 A 
ATOM     61  C   UNL A   1      44.678  24.579  30.718  1.00  0.00     0.074 A 
ATOM     62  C   UNL A   1      46.272  24.839  24.590  1.00  0.00     0.029 A 
ATOM     63  N   UNL A   1      46.068  25.216  26.772  1.00  0.00    -0.354 N 
ATOM     64  N   UNL A   1      45.073  24.692  29.472  1.00  0.00    -0.248 NA
ATOM     65  C   UNL A   1      43.588  23.608  30.909  1.00  0.00     0.031 C 
ATOM     66  C   UNL A   1      45.292  23.979  25.097  1.00  0.00     0.029 A 
ATOM     67  C   UNL A   1      45.181  24.198  26.461  1.00  0.00     0.049 A 
ATOM     68  H   UNL A   1      46.207  25.589  27.673  1.00  0.00     0.167 HD
ATOM     69  C   UNL A   1      44.305  23.793  28.742  1.00  0.00     0.074 A 
ATOM     70  C   UNL A   1      43.428  23.131  29.682  1.00  0.00     0.031 C 
ATOM     71  C   UNL A   1      44.323  23.538  27.410  1.00  0.00     0.037 A 
BRANCH  58  72
ATOM     72  C   UNL A   1      48.247  27.096  24.247  1.00  0.00     0.064 A 
ATOM     73  C   UNL A   1      49.540  26.724  23.850  1.00  0.00     0.173 A 
ATOM     74  C   UNL A   1      47.469  27.834  23.343  1.00  0.00     0.173 A 
ATOM     75  F   UNL A   1      50.331  26.034  24.686  1.00  0.00    -0.203 F 
ATOM     76  C   UNL A   1      50.042  27.099  22.608  1.00  0.00     0.198 A 
ATOM     77  C   UNL A   1      47.963  28.181  22.089  1.00  0.00     0.198 A 
ATOM     78  F   UNL A   1      46.226  28.215  23.675  1.00  0.00    -0.203 F 
ATOM     79  F   UNL A   1      51.297  26.775  22.269  1.00  0.00    -0.200 F 
ATOM     80  C   UNL A   1      49.251  27.821  21.726  1.00  0.00     0.200 A 
ATOM     81  F   UNL A   1      47.193  28.870  21.235  1.00  0.00    -0.200 F 
ATOM     82  F   UNL A   1      49.733  28.174  20.527  1.00  0.00    -0.200 F 
ENDBRANCH  58  72
BRANCH  59  83
ATOM     83  C   UNL A   1      44.571  25.010  33.279  1.00  0.00     0.064 A 
ATOM     84  C   UNL A   1      43.565  25.830  33.809  1.00  0.00     0.173 A 
ATOM     85  C   UNL A   1      45.020  23.940  34.068  1.00  0.00     0.173 A 
ATOM     86  F   UNL A   1      43.125  26.887  33.110  1.00  0.00    -0.203 F 
ATOM     87  C   UNL A   1      43.045  25.603  35.084  1.00  0.00     0.198 A 
ATOM     88  C   UNL A   1      44.479  23.697  35.330  1.00  0.00     0.198 A 
ATOM     89  F   UNL A   1      45.989  23.131  33.615  1.00  0.00    -0.203 F 
ATOM     90  F   UNL A   1      42.123  26.436  35.587  1.00  0.00    -0.200 F 
ATOM     91  C   UNL A   1      43.499  24.533  35.840  1.00  0.00     0.200 A 
ATOM     92  F   UNL A   1      44.916  22.658  36.054  1.00  0.00    -0.200 F 
ATOM     93  F   UNL A   1      43.000  24.318  37.065  1.00  0.00    -0.200 F 
ENDBRANCH  59  83
BRANCH  71  94
ATOM     94  C   UNL A   1      43.401  22.474  26.885  1.00  0.00     0.064 A 
ATOM     95  C   UNL A   1      43.888  21.257  26.388  1.00  0.00     0.173 A 
ATOM     96  C   UNL A   1      42.010  22.649  26.949  1.00  0.00     0.173 A 
ATOM     97  F   UNL A   1      45.209  21.045  26.294  1.00  0.00    -0.203 F 
ATOM     98  C   UNL A   1      43.015  20.259  25.959  1.00  0.00     0.198 A 
ATOM     99  C   UNL A   1      41.140  21.638  26.547  1.00  0.00     0.198 A 
ATOM    100  F   UNL A   1      41.492  23.792  27.425  1.00  0.00    -0.203 F 
ATOM    101  F   UNL A   1      43.502  19.117  25.454  1.00  0.00    -0.200 F 
ATOM    102  C   UNL A   1      41.643  20.447  26.048  1.00  0.00     0.200 A 
ATOM    103  F   UNL A   1      39.816  21.815  26.650  1.00  0.00    -0.200 F 
ATOM    104  F   UNL A   1      40.806  19.479  25.650  1.00  0.00    -0.200 F 
ENDBRANCH  71  94
ENDBRANCH  45  46
ENDBRANCH  38  40
ENDBRANCH  37  38
ENDBRANCH  36  37
ENDBRANCH  35  36
ENDBRANCH  34  35
ENDBRANCH  33  34
ENDBRANCH  32  33
ENDBRANCH  31  32
ENDBRANCH   1  31
TORSDOF 25
ENDMDL
MODEL 3
REMARK VINA RESULT:      -7.8      6.886     11.640
REMARK SMILES O=C(CCCc1nc(-c2ccc(Cl)c(Cl)c2)c(-c2ccccc2)o1)OCCOCCOCCOCCOC(=O)c1ccc(-c2c3nc(c(-c4c(F)c(F)c(F)c(F)c4F)c4ccc([nH]4)c(-c4c(F)c(F)c(F)c(F)c4F)c4nc(c(-c5c(F)c(F)c(F)c(F)c5F)c5ccc2[nH]5)C=C4)C=C3)cc1
REMARK SMILES IDX 30 1 29 2 28 3 27 4 26 5 25 6 2 7 1 8 3 9 4 10 5 11 6 12
REMARK SMILES IDX 7 13 24 14 8 15 17 16 9 17 10 18 16 19 11 20 14 21 12 22
REMARK SMILES IDX 15 23 13 24 18 25 19 26 23 27 20 28 22 29 21 30 31 31 32 32
REMARK SMILES IDX 33 33 34 34 35 35 36 36 37 37 38 38 39 39 40 40 41 41 102 42
REMARK SMILES IDX 42 43 101 44 43 45 44 46 45 47 95 48 46 49 100 50 94 51
REMARK SMILES IDX 96 52 47 53 99 54 93 55 92 56 48 58 80 59 60 60 79 61 61 62
REMARK SMILES IDX 64 63 78 64 97 65 62 66 63 67 77 69 98 70 65 71 49 72 50 73
REMARK SMILES IDX 58 74 51 75 52 76 56 77 59 78 53 79 54 80 57 81 55 82 81 83
REMARK SMILES IDX 82 84 90 85 83 86 84 87 88 88 91 89 85 90 86 91 89 92 87 93
REMARK SMILES IDX 66 94 67 95 75 96 68 97 69 98 73 99 76 100 70 101 71 102
REMARK SMILES IDX 74 103 72 104
REMARK H PARENT 96 57 64 68
REMARK Flexibility Score: inf
ROOT
ATOM      1  C   UNL A   1      43.468  20.419  26.010  1.00  0.00     0.188 C 
ENDROOT
BRANCH   1   2
ATOM      2  C   UNL A   1      42.673  21.615  26.533  1.00  0.00     0.188 C 
BRANCH   2   3
ATOM      3  O   UNL A   1      43.269  22.383  27.582  1.00  0.00    -0.376 OA
BRANCH   3   4
ATOM      4  C   UNL A   1      42.413  23.259  28.305  1.00  0.00     0.202 C 
BRANCH   4   5
ATOM      5  C   UNL A   1      42.594  24.751  27.998  1.00  0.00     0.261 C 
BRANCH   5   6
ATOM      6  O   UNL A   1      41.766  25.607  28.781  1.00  0.00    -0.463 OA
BRANCH   6   7
ATOM      7  C   UNL A   1      40.797  26.284  28.131  1.00  0.00     0.305 C 
ATOM      8  O   UNL A   1      40.874  27.463  27.808  1.00  0.00    -0.252 OA
BRANCH   7   9
ATOM      9  C   UNL A   1      39.533  25.445  28.041  1.00  0.00     0.123 C 
BRANCH   9  10
ATOM     10  C   UNL A   1      39.157  24.911  26.658  1.00  0.00     0.021 C 
BRANCH  10  11
ATOM     11  C   UNL A   1      38.631  23.484  26.499  1.00  0.00     0.098 C 
BRANCH  11  12
ATOM     12  C   UNL A   1      37.289  23.198  25.914  1.00  0.00     0.195 A 
ATOM     13  N   UNL A   1      36.470  24.146  25.494  1.00  0.00    -0.213 NA
ATOM     14  O   UNL A   1      36.796  21.919  25.785  1.00  0.00    -0.440 OA
ATOM     15  C   UNL A   1      35.351  23.473  25.112  1.00  0.00     0.117 A 
ATOM     16  C   UNL A   1      35.540  22.108  25.229  1.00  0.00     0.162 A 
BRANCH  15  17
ATOM     17  C   UNL A   1      34.145  24.131  24.662  1.00  0.00     0.006 A 
ATOM     18  C   UNL A   1      33.129  24.437  25.572  1.00  0.00     0.012 A 
ATOM     19  C   UNL A   1      34.016  24.514  23.320  1.00  0.00     0.032 A 
ATOM     20  C   UNL A   1      32.011  25.162  25.150  1.00  0.00     0.023 A 
ATOM     21  C   UNL A   1      32.898  25.237  22.897  1.00  0.00     0.060 A 
ATOM     22  C   UNL A   1      31.898  25.570  23.816  1.00  0.00     0.059 A 
ATOM     23  Cl  UNL A   1      32.832  25.707  21.237  1.00  0.00    -0.083 Cl
ATOM     24  Cl  UNL A   1      30.506  26.492  23.373  1.00  0.00    -0.083 Cl
ENDBRANCH  15  17
BRANCH  16  25
ATOM     25  C   UNL A   1      34.722  20.947  24.878  1.00  0.00     0.020 A 
ATOM     26  C   UNL A   1      35.217  19.642  24.924  1.00  0.00     0.012 A 
ATOM     27  C   UNL A   1      33.371  21.132  24.515  1.00  0.00     0.012 A 
ATOM     28  C   UNL A   1      34.375  18.554  24.648  1.00  0.00     0.001 A 
ATOM     29  C   UNL A   1      32.534  20.051  24.238  1.00  0.00     0.001 A 
ATOM     30  C   UNL A   1      33.036  18.758  24.312  1.00  0.00     0.000 A 
ENDBRANCH  16  25
ENDBRANCH  11  12
ENDBRANCH  10  11
ENDBRANCH   9  10
ENDBRANCH   7   9
ENDBRANCH   6   7
ENDBRANCH   5   6
ENDBRANCH   4   5
ENDBRANCH   3   4
ENDBRANCH   2   3
ENDBRANCH   1   2
BRANCH   1  31
ATOM     31  O   UNL A   1      44.738  20.714  25.463  1.00  0.00    -0.377 OA
BRANCH  31  32
ATOM     32  C   UNL A   1      44.825  21.221  24.141  1.00  0.00     0.188 C 
BRANCH  32  33
ATOM     33  C   UNL A   1      44.836  22.724  23.828  1.00  0.00     0.188 C 
BRANCH  33  34
ATOM     34  O   UNL A   1      45.062  23.553  24.963  1.00  0.00    -0.376 OA
BRANCH  34  35
ATOM     35  C   UNL A   1      46.413  23.934  25.179  1.00  0.00     0.202 C 
BRANCH  35  36
ATOM     36  C   UNL A   1      46.746  24.077  26.664  1.00  0.00     0.261 C 
BRANCH  36  37
ATOM     37  O   UNL A   1      47.095  25.413  27.063  1.00  0.00    -0.460 OA
BRANCH  37  38
ATOM     38  C   UNL A   1      46.607  25.873  28.237  1.00  0.00     0.338 C 
ATOM     39  O   UNL A   1      46.419  25.234  29.258  1.00  0.00    -0.246 OA
BRANCH  38  40
ATOM     40  C   UNL A   1      46.513  27.350  28.134  1.00  0.00     0.060 A 
ATOM     41  C   UNL A   1      46.957  28.140  29.205  1.00  0.00     0.016 A 
ATOM     42  C   UNL A   1      46.086  27.958  26.947  1.00  0.00     0.016 A 
ATOM     43  C   UNL A   1      46.955  29.536  29.097  1.00  0.00     0.010 A 
ATOM     44  C   UNL A   1      46.074  29.351  26.846  1.00  0.00     0.010 A 
ATOM     45  C   UNL A   1      46.481  30.150  27.928  1.00  0.00    -0.014 A 
BRANCH  45  46
ATOM     46  C   UNL A   1      46.181  31.606  27.894  1.00  0.00     0.031 A 
ATOM     47  C   UNL A   1      47.271  32.528  27.419  1.00  0.00     0.074 A 
ATOM     48  C   UNL A   1      45.009  32.112  28.317  1.00  0.00     0.049 A 
ATOM     49  N   UNL A   1      47.324  33.835  27.429  1.00  0.00    -0.248 NA
ATOM     50  C   UNL A   1      48.473  31.880  26.872  1.00  0.00     0.031 C 
ATOM     51  C   UNL A   1      43.861  31.336  28.771  1.00  0.00     0.029 A 
ATOM     52  N   UNL A   1      44.608  33.421  28.456  1.00  0.00    -0.354 N 
ATOM     53  C   UNL A   1      48.567  34.162  26.905  1.00  0.00     0.074 A 
ATOM     54  C   UNL A   1      49.246  32.920  26.606  1.00  0.00     0.031 C 
ATOM     55  C   UNL A   1      42.890  32.181  29.163  1.00  0.00     0.029 A 
ATOM     56  C   UNL A   1      43.365  33.560  29.026  1.00  0.00     0.049 A 
ATOM     57  H   UNL A   1      45.159  34.187  28.173  1.00  0.00     0.167 HD
ATOM     58  C   UNL A   1      49.099  35.387  26.691  1.00  0.00     0.037 A 
ATOM     59  C   UNL A   1      42.709  34.669  29.425  1.00  0.00     0.037 A 
ATOM     60  C   UNL A   1      48.430  36.623  26.990  1.00  0.00     0.049 A 
ATOM     61  C   UNL A   1      43.353  36.025  29.246  1.00  0.00     0.074 A 
ATOM     62  C   UNL A   1      48.875  37.916  26.777  1.00  0.00     0.029 A 
ATOM     63  N   UNL A   1      47.180  36.720  27.578  1.00  0.00    -0.354 N 
ATOM     64  N   UNL A   1      44.512  36.329  28.714  1.00  0.00    -0.248 NA
ATOM     65  C   UNL A   1      42.599  37.191  29.734  1.00  0.00     0.031 C 
ATOM     66  C   UNL A   1      47.916  38.796  27.290  1.00  0.00     0.029 A 
ATOM     67  C   UNL A   1      46.850  38.052  27.768  1.00  0.00     0.049 A 
ATOM     68  H   UNL A   1      46.610  35.956  27.826  1.00  0.00     0.167 HD
ATOM     69  C   UNL A   1      44.612  37.714  28.776  1.00  0.00     0.074 A 
ATOM     70  C   UNL A   1      43.393  38.195  29.387  1.00  0.00     0.031 C 
ATOM     71  C   UNL A   1      45.625  38.517  28.365  1.00  0.00     0.037 A 
BRANCH  58  72
ATOM     72  C   UNL A   1      50.491  35.448  26.138  1.00  0.00     0.064 A 
ATOM     73  C   UNL A   1      51.613  35.148  26.925  1.00  0.00     0.173 A 
ATOM     74  C   UNL A   1      50.704  35.786  24.793  1.00  0.00     0.173 A 
ATOM     75  F   UNL A   1      51.464  34.838  28.222  1.00  0.00    -0.203 F 
ATOM     76  C   UNL A   1      52.897  35.209  26.393  1.00  0.00     0.198 A 
ATOM     77  C   UNL A   1      51.987  35.817  24.256  1.00  0.00     0.198 A 
ATOM     78  F   UNL A   1      49.665  36.082  23.998  1.00  0.00    -0.203 F 
ATOM     79  F   UNL A   1      53.957  34.967  27.176  1.00  0.00    -0.200 F 
ATOM     80  C   UNL A   1      53.082  35.536  25.058  1.00  0.00     0.200 A 
ATOM     81  F   UNL A   1      52.163  36.123  22.963  1.00  0.00    -0.200 F 
ATOM     82  F   UNL A   1      54.319  35.587  24.545  1.00  0.00    -0.200 F 
ENDBRANCH  58  72
BRANCH  59  83
ATOM     83  C   UNL A   1      41.370  34.559  30.069  1.00  0.00     0.064 A 
ATOM     84  C   UNL A   1      40.193  34.741  29.330  1.00  0.00     0.173 A 
ATOM     85  C   UNL A   1      41.242  34.323  31.446  1.00  0.00     0.173 A 
ATOM     86  F   UNL A   1      40.261  35.004  28.017  1.00  0.00    -0.203 F 
ATOM     87  C   UNL A   1      38.941  34.709  29.945  1.00  0.00     0.198 A 
ATOM     88  C   UNL A   1      39.990  34.262  32.055  1.00  0.00     0.198 A 
ATOM     89  F   UNL A   1      42.336  34.155  32.204  1.00  0.00    -0.203 F 
ATOM     90  F   UNL A   1      37.836  34.940  29.223  1.00  0.00    -0.200 F 
ATOM     91  C   UNL A   1      38.841  34.464  31.306  1.00  0.00     0.200 A 
ATOM     92  F   UNL A   1      39.898  34.018  33.370  1.00  0.00    -0.200 F 
ATOM     93  F   UNL A   1      37.639  34.436  31.897  1.00  0.00    -0.200 F 
ENDBRANCH  59  83
BRANCH  71  94
ATOM     94  C   UNL A   1      45.452  40.002  28.519  1.00  0.00     0.064 A 
ATOM     95  C   UNL A   1      45.874  40.677  29.673  1.00  0.00     0.173 A 
ATOM     96  C   UNL A   1      44.922  40.766  27.468  1.00  0.00     0.173 A 
ATOM     97  F   UNL A   1      46.375  39.992  30.712  1.00  0.00    -0.203 F 
ATOM     98  C   UNL A   1      45.758  42.062  29.775  1.00  0.00     0.198 A 
ATOM     99  C   UNL A   1      44.835  42.152  27.560  1.00  0.00     0.198 A 
ATOM    100  F   UNL A   1      44.512  40.170  26.338  1.00  0.00    -0.203 F 
ATOM    101  F   UNL A   1      46.135  42.683  30.900  1.00  0.00    -0.200 F 
ATOM    102  C   UNL A   1      45.248  42.799  28.715  1.00  0.00     0.200 A 
ATOM    103  F   UNL A   1      44.358  42.863  26.529  1.00  0.00    -0.200 F 
ATOM    104  F   UNL A   1      45.153  44.132  28.809  1.00  0.00    -0.200 F 
ENDBRANCH  71  94
ENDBRANCH  45  46
ENDBRANCH  38  40
ENDBRANCH  37  38
ENDBRANCH  36  37
ENDBRANCH  35  36
ENDBRANCH  34  35
ENDBRANCH  33  34
ENDBRANCH  32  33
ENDBRANCH  31  32
ENDBRANCH   1  31
TORSDOF 25
ENDMDL
