MODEL 1
REMARK VINA RESULT:     -11.3      0.000      0.000
REMARK SMILES NS(=O)(=O)c1ccc(N2N=C(C(=O)OCCOCCOCCOCCOC(=O)c3ccc(-c4c5nc(c(-c6c(F)c(F)c(F)c(F)c6F)c6ccc([nH]6)c(-c6c(F)c(F)c(F)c(F)c6F)c6nc(c(-c7c(F)c(F)c(F)c(F)c7F)c7ccc4[nH]7)C=C6)C=C5)cc3)C[C@H]2c2cccs2)cc1
REMARK SMILES IDX 19 1 18 2 17 3 16 4 15 5 14 6 12 7 13 8 11 9 9 10 10 11
REMARK SMILES IDX 93 12 92 13 8 14 5 15 6 16 100 17 7 18 99 19 2 20 3 21 4 22
REMARK SMILES IDX 1 23 94 26 95 27 98 28 96 29 97 30 20 31 21 32 22 33 23 34
REMARK SMILES IDX 24 35 25 36 26 37 27 38 28 39 29 40 30 41 91 42 31 43 90 44
REMARK SMILES IDX 32 45 33 46 34 47 84 48 35 49 89 50 83 51 85 52 36 53 88 54
REMARK SMILES IDX 82 55 81 56 37 58 69 59 49 60 68 61 50 62 53 63 67 64 86 65
REMARK SMILES IDX 51 66 52 67 66 69 87 70 54 71 38 72 39 73 47 74 40 75 41 76
REMARK SMILES IDX 45 77 48 78 42 79 43 80 46 81 44 82 70 83 71 84 79 85 72 86
REMARK SMILES IDX 73 87 77 88 80 89 74 90 75 91 78 92 76 93 55 94 56 95 64 96
REMARK SMILES IDX 57 97 58 98 62 99 65 100 59 101 60 102 63 103 61 104
REMARK H PARENT 1 24 1 25 85 57 53 68
REMARK Flexibility Score: inf
ROOT
ATOM      1  C   UNL A   1      32.278  30.284  26.158  1.00  0.00     0.188 C 
ENDROOT
BRANCH   1   2
ATOM      2  C   UNL A   1      33.543  29.407  26.171  1.00  0.00     0.188 C 
BRANCH   2   3
ATOM      3  O   UNL A   1      33.690  28.586  25.029  1.00  0.00    -0.376 OA
BRANCH   3   4
ATOM      4  C   UNL A   1      33.052  28.874  23.796  1.00  0.00     0.202 C 
BRANCH   4   5
ATOM      5  C   UNL A   1      33.297  28.145  22.460  1.00  0.00     0.261 C 
BRANCH   5   6
ATOM      6  O   UNL A   1      34.184  27.033  22.482  1.00  0.00    -0.459 OA
BRANCH   6   7
ATOM      7  C   UNL A   1      33.705  25.865  22.030  1.00  0.00     0.354 C 
ATOM      8  O   UNL A   1      33.250  25.616  20.932  1.00  0.00    -0.245 OA
BRANCH   7   9
ATOM      9  C   UNL A   1      33.971  24.824  23.086  1.00  0.00     0.148 C 
ATOM     10  N   UNL A   1      34.187  22.945  24.031  1.00  0.00    -0.256 N 
ATOM     11  N   UNL A   1      33.943  23.551  22.831  1.00  0.00    -0.169 NA
ATOM     12  C   UNL A   1      34.004  23.886  25.159  1.00  0.00     0.154 C 
ATOM     13  C   UNL A   1      34.386  25.207  24.476  1.00  0.00     0.099 C 
BRANCH  10  14
ATOM     14  C   UNL A   1      34.008  21.572  24.114  1.00  0.00     0.060 A 
ATOM     15  C   UNL A   1      33.656  18.791  24.320  1.00  0.00     0.082 A 
ATOM     16  C   UNL A   1      34.782  19.390  24.887  1.00  0.00     0.024 A 
ATOM     17  C   UNL A   1      32.734  19.555  23.607  1.00  0.00     0.024 A 
ATOM     18  C   UNL A   1      34.947  20.777  24.788  1.00  0.00     0.029 A 
ATOM     19  C   UNL A   1      32.926  20.933  23.493  1.00  0.00     0.029 A 
BRANCH  15  20
ATOM     20  S   UNL A   1      33.428  17.042  24.443  1.00  0.00     0.238 S 
ATOM     21  O   UNL A   1      33.710  16.432  23.160  1.00  0.00    -0.207 OA
ATOM     22  O   UNL A   1      32.229  16.759  25.188  1.00  0.00    -0.207 OA
BRANCH  20  23
ATOM     23  N   UNL A   1      34.701  16.597  25.448  1.00  0.00    -0.225 NA
ATOM     24  H   UNL A   1      35.579  16.938  25.055  1.00  0.00     0.137 HD
ATOM     25  H   UNL A   1      34.735  15.580  25.524  1.00  0.00     0.137 HD
ENDBRANCH  20  23
ENDBRANCH  15  20
ENDBRANCH  10  14
BRANCH  12  26
ATOM     26  C   UNL A   1      32.620  23.924  25.803  1.00  0.00     0.030 A 
ATOM     27  C   UNL A   1      31.901  22.846  26.296  1.00  0.00     0.017 A 
ATOM     28  S   UNL A   1      31.712  25.377  25.977  1.00  0.00    -0.147 S 
ATOM     29  C   UNL A   1      30.609  23.213  26.772  1.00  0.00     0.012 A 
ATOM     30  C   UNL A   1      30.395  24.568  26.687  1.00  0.00     0.065 A 
ENDBRANCH  12  26
ENDBRANCH   7   9
ENDBRANCH   6   7
ENDBRANCH   5   6
ENDBRANCH   4   5
ENDBRANCH   3   4
ENDBRANCH   2   3
ENDBRANCH   1   2
BRANCH   1  31
ATOM     31  O   UNL A   1      32.261  31.305  27.145  1.00  0.00    -0.377 OA
BRANCH  31  32
ATOM     32  C   UNL A   1      33.509  31.782  27.652  1.00  0.00     0.188 C 
BRANCH  32  33
ATOM     33  C   UNL A   1      33.802  33.290  27.849  1.00  0.00     0.188 C 
BRANCH  33  34
ATOM     34  O   UNL A   1      33.343  33.830  29.075  1.00  0.00    -0.376 OA
BRANCH  34  35
ATOM     35  C   UNL A   1      34.257  34.505  29.921  1.00  0.00     0.202 C 
BRANCH  35  36
ATOM     36  C   UNL A   1      34.407  33.988  31.359  1.00  0.00     0.261 C 
BRANCH  36  37
ATOM     37  O   UNL A   1      34.630  32.578  31.501  1.00  0.00    -0.460 OA
BRANCH  37  38
ATOM     38  C   UNL A   1      35.541  32.190  32.419  1.00  0.00     0.338 C 
ATOM     39  O   UNL A   1      35.497  32.363  33.622  1.00  0.00    -0.246 OA
BRANCH  38  40
ATOM     40  C   UNL A   1      36.540  31.346  31.733  1.00  0.00     0.060 A 
ATOM     41  C   UNL A   1      37.498  30.670  32.500  1.00  0.00     0.016 A 
ATOM     42  C   UNL A   1      36.545  31.241  30.340  1.00  0.00     0.016 A 
ATOM     43  C   UNL A   1      38.501  29.933  31.871  1.00  0.00     0.010 A 
ATOM     44  C   UNL A   1      37.561  30.517  29.711  1.00  0.00     0.010 A 
ATOM     45  C   UNL A   1      38.570  29.900  30.473  1.00  0.00    -0.014 A 
BRANCH  45  46
ATOM     46  C   UNL A   1      39.813  29.430  29.813  1.00  0.00     0.031 A 
ATOM     47  C   UNL A   1      40.950  30.406  29.670  1.00  0.00     0.074 A 
ATOM     48  C   UNL A   1      39.949  28.166  29.379  1.00  0.00     0.049 A 
ATOM     49  N   UNL A   1      42.114  30.255  29.091  1.00  0.00    -0.248 NA
ATOM     50  C   UNL A   1      40.742  31.738  30.260  1.00  0.00     0.031 C 
ATOM     51  C   UNL A   1      38.942  27.115  29.502  1.00  0.00     0.029 A 
ATOM     52  N   UNL A   1      40.998  27.555  28.737  1.00  0.00    -0.354 N 
ATOM     53  C   UNL A   1      42.768  31.471  29.239  1.00  0.00     0.074 A 
ATOM     54  C   UNL A   1      41.860  32.363  29.926  1.00  0.00     0.031 C 
ATOM     55  C   UNL A   1      39.418  25.989  28.943  1.00  0.00     0.029 A 
ATOM     56  C   UNL A   1      40.747  26.250  28.392  1.00  0.00     0.049 A 
ATOM     57  H   UNL A   1      41.850  28.009  28.543  1.00  0.00     0.167 HD
ATOM     58  C   UNL A   1      44.018  31.812  28.847  1.00  0.00     0.037 A 
ATOM     59  C   UNL A   1      41.498  25.379  27.688  1.00  0.00     0.037 A 
ATOM     60  C   UNL A   1      44.920  30.923  28.164  1.00  0.00     0.049 A 
ATOM     61  C   UNL A   1      42.856  25.808  27.190  1.00  0.00     0.074 A 
ATOM     62  C   UNL A   1      46.212  31.166  27.736  1.00  0.00     0.029 A 
ATOM     63  N   UNL A   1      44.616  29.619  27.801  1.00  0.00    -0.354 N 
ATOM     64  N   UNL A   1      43.478  26.952  27.350  1.00  0.00    -0.248 NA
ATOM     65  C   UNL A   1      43.620  24.819  26.414  1.00  0.00     0.031 C 
ATOM     66  C   UNL A   1      46.667  30.032  27.056  1.00  0.00     0.029 A 
ATOM     67  C   UNL A   1      45.687  29.055  27.126  1.00  0.00     0.049 A 
ATOM     68  H   UNL A   1      43.766  29.161  27.994  1.00  0.00     0.167 HD
ATOM     69  C   UNL A   1      44.716  26.807  26.733  1.00  0.00     0.074 A 
ATOM     70  C   UNL A   1      44.761  25.461  26.204  1.00  0.00     0.031 C 
ATOM     71  C   UNL A   1      45.724  27.707  26.618  1.00  0.00     0.037 A 
BRANCH  58  72
ATOM     72  C   UNL A   1      44.472  33.219  29.118  1.00  0.00     0.064 A 
ATOM     73  C   UNL A   1      45.143  33.568  30.299  1.00  0.00     0.173 A 
ATOM     74  C   UNL A   1      44.251  34.228  28.168  1.00  0.00     0.173 A 
ATOM     75  F   UNL A   1      45.366  32.646  31.248  1.00  0.00    -0.203 F 
ATOM     76  C   UNL A   1      45.548  34.880  30.533  1.00  0.00     0.198 A 
ATOM     77  C   UNL A   1      44.690  35.531  28.390  1.00  0.00     0.198 A 
ATOM     78  F   UNL A   1      43.616  33.950  27.020  1.00  0.00    -0.203 F 
ATOM     79  F   UNL A   1      46.137  35.201  31.695  1.00  0.00    -0.200 F 
ATOM     80  C   UNL A   1      45.329  35.858  29.575  1.00  0.00     0.200 A 
ATOM     81  F   UNL A   1      44.490  36.471  27.454  1.00  0.00    -0.200 F 
ATOM     82  F   UNL A   1      45.727  37.119  29.797  1.00  0.00    -0.200 F 
ENDBRANCH  58  72
BRANCH  59  83
ATOM     83  C   UNL A   1      40.983  24.013  27.397  1.00  0.00     0.064 A 
ATOM     84  C   UNL A   1      41.556  22.879  27.991  1.00  0.00     0.173 A 
ATOM     85  C   UNL A   1      39.930  23.810  26.493  1.00  0.00     0.173 A 
ATOM     86  F   UNL A   1      42.584  23.017  28.843  1.00  0.00    -0.203 F 
ATOM     87  C   UNL A   1      41.114  21.597  27.673  1.00  0.00     0.198 A 
ATOM     88  C   UNL A   1      39.466  22.528  26.201  1.00  0.00     0.198 A 
ATOM     89  F   UNL A   1      39.346  24.857  25.893  1.00  0.00    -0.203 F 
ATOM     90  F   UNL A   1      41.719  20.529  28.212  1.00  0.00    -0.200 F 
ATOM     91  C   UNL A   1      40.066  21.423  26.783  1.00  0.00     0.200 A 
ATOM     92  F   UNL A   1      38.444  22.366  25.351  1.00  0.00    -0.200 F 
ATOM     93  F   UNL A   1      39.640  20.189  26.478  1.00  0.00    -0.200 F 
ENDBRANCH  59  83
BRANCH  71  94
ATOM     94  C   UNL A   1      46.990  27.252  25.943  1.00  0.00     0.064 A 
ATOM     95  C   UNL A   1      48.002  26.574  26.638  1.00  0.00     0.173 A 
ATOM     96  C   UNL A   1      47.169  27.463  24.566  1.00  0.00     0.173 A 
ATOM     97  F   UNL A   1      47.887  26.357  27.957  1.00  0.00    -0.203 F 
ATOM     98  C   UNL A   1      49.160  26.153  25.987  1.00  0.00     0.198 A 
ATOM     99  C   UNL A   1      48.310  27.005  23.911  1.00  0.00     0.198 A 
ATOM    100  F   UNL A   1      46.229  28.097  23.850  1.00  0.00    -0.203 F 
ATOM    101  F   UNL A   1      50.138  25.556  26.683  1.00  0.00    -0.200 F 
ATOM    102  C   UNL A   1      49.309  26.361  24.624  1.00  0.00     0.200 A 
ATOM    103  F   UNL A   1      48.442  27.191  22.591  1.00  0.00    -0.200 F 
ATOM    104  F   UNL A   1      50.418  25.945  23.998  1.00  0.00    -0.200 F 
ENDBRANCH  71  94
ENDBRANCH  45  46
ENDBRANCH  38  40
ENDBRANCH  37  38
ENDBRANCH  36  37
ENDBRANCH  35  36
ENDBRANCH  34  35
ENDBRANCH  33  34
ENDBRANCH  32  33
ENDBRANCH  31  32
ENDBRANCH   1  31
TORSDOF 24
ENDMDL
MODEL 2
REMARK VINA RESULT:     -11.2      1.208      2.014
REMARK SMILES NS(=O)(=O)c1ccc(N2N=C(C(=O)OCCOCCOCCOCCOC(=O)c3ccc(-c4c5nc(c(-c6c(F)c(F)c(F)c(F)c6F)c6ccc([nH]6)c(-c6c(F)c(F)c(F)c(F)c6F)c6nc(c(-c7c(F)c(F)c(F)c(F)c7F)c7ccc4[nH]7)C=C6)C=C5)cc3)C[C@H]2c2cccs2)cc1
REMARK SMILES IDX 19 1 18 2 17 3 16 4 15 5 14 6 12 7 13 8 11 9 9 10 10 11
REMARK SMILES IDX 93 12 92 13 8 14 5 15 6 16 100 17 7 18 99 19 2 20 3 21 4 22
REMARK SMILES IDX 1 23 94 26 95 27 98 28 96 29 97 30 20 31 21 32 22 33 23 34
REMARK SMILES IDX 24 35 25 36 26 37 27 38 28 39 29 40 30 41 91 42 31 43 90 44
REMARK SMILES IDX 32 45 33 46 34 47 84 48 35 49 89 50 83 51 85 52 36 53 88 54
REMARK SMILES IDX 82 55 81 56 37 58 69 59 49 60 68 61 50 62 53 63 67 64 86 65
REMARK SMILES IDX 51 66 52 67 66 69 87 70 54 71 38 72 39 73 47 74 40 75 41 76
REMARK SMILES IDX 45 77 48 78 42 79 43 80 46 81 44 82 70 83 71 84 79 85 72 86
REMARK SMILES IDX 73 87 77 88 80 89 74 90 75 91 78 92 76 93 55 94 56 95 64 96
REMARK SMILES IDX 57 97 58 98 62 99 65 100 59 101 60 102 63 103 61 104
REMARK H PARENT 1 24 1 25 85 57 53 68
REMARK Flexibility Score: inf
ROOT
ATOM      1  C   UNL A   1      32.929  29.341  25.983  1.00  0.00     0.188 C 
ENDROOT
BRANCH   1   2
ATOM      2  C   UNL A   1      33.267  29.094  24.502  1.00  0.00     0.188 C 
BRANCH   2   3
ATOM      3  O   UNL A   1      32.274  28.379  23.793  1.00  0.00    -0.376 OA
BRANCH   3   4
ATOM      4  C   UNL A   1      30.905  28.411  24.158  1.00  0.00     0.202 C 
BRANCH   4   5
ATOM      5  C   UNL A   1      29.820  27.422  23.688  1.00  0.00     0.261 C 
BRANCH   5   6
ATOM      6  O   UNL A   1      30.257  26.134  23.269  1.00  0.00    -0.459 OA
BRANCH   6   7
ATOM      7  C   UNL A   1      30.587  25.262  24.234  1.00  0.00     0.354 C 
ATOM      8  O   UNL A   1      30.175  25.215  25.375  1.00  0.00    -0.245 OA
BRANCH   7   9
ATOM      9  C   UNL A   1      31.470  24.211  23.615  1.00  0.00     0.148 C 
ATOM     10  N   UNL A   1      32.350  22.335  23.193  1.00  0.00    -0.256 N 
ATOM     11  N   UNL A   1      31.369  22.951  23.916  1.00  0.00    -0.169 NA
ATOM     12  C   UNL A   1      33.344  23.310  22.689  1.00  0.00     0.154 C 
ATOM     13  C   UNL A   1      32.452  24.550  22.532  1.00  0.00     0.099 C 
BRANCH  10  14
ATOM     14  C   UNL A   1      32.627  21.005  23.473  1.00  0.00     0.060 A 
ATOM     15  C   UNL A   1      33.192  18.303  24.004  1.00  0.00     0.082 A 
ATOM     16  C   UNL A   1      32.433  18.644  22.883  1.00  0.00     0.024 A 
ATOM     17  C   UNL A   1      33.625  19.288  24.890  1.00  0.00     0.024 A 
ATOM     18  C   UNL A   1      32.162  19.993  22.620  1.00  0.00     0.029 A 
ATOM     19  C   UNL A   1      33.322  20.626  24.629  1.00  0.00     0.029 A 
BRANCH  15  20
ATOM     20  S   UNL A   1      33.550  16.605  24.345  1.00  0.00     0.238 S 
ATOM     21  O   UNL A   1      34.027  15.965  23.136  1.00  0.00    -0.207 OA
ATOM     22  O   UNL A   1      32.504  16.042  25.159  1.00  0.00    -0.207 OA
BRANCH  20  23
ATOM     23  N   UNL A   1      34.891  16.731  25.352  1.00  0.00    -0.225 NA
ATOM     24  H   UNL A   1      35.726  16.892  24.789  1.00  0.00     0.137 HD
ATOM     25  H   UNL A   1      35.001  15.864  25.882  1.00  0.00     0.137 HD
ENDBRANCH  20  23
ENDBRANCH  15  20
ENDBRANCH  10  14
BRANCH  12  26
ATOM     26  C   UNL A   1      34.567  23.561  23.567  1.00  0.00     0.030 A 
ATOM     27  C   UNL A   1      35.878  23.206  23.290  1.00  0.00     0.017 A 
ATOM     28  S   UNL A   1      34.469  24.325  25.108  1.00  0.00    -0.147 S 
ATOM     29  C   UNL A   1      36.774  23.524  24.351  1.00  0.00     0.012 A 
ATOM     30  C   UNL A   1      36.140  24.169  25.385  1.00  0.00     0.065 A 
ENDBRANCH  12  26
ENDBRANCH   7   9
ENDBRANCH   6   7
ENDBRANCH   5   6
ENDBRANCH   4   5
ENDBRANCH   3   4
ENDBRANCH   2   3
ENDBRANCH   1   2
BRANCH   1  31
ATOM     31  O   UNL A   1      33.888  30.120  26.682  1.00  0.00    -0.377 OA
BRANCH  31  32
ATOM     32  C   UNL A   1      33.425  31.201  27.496  1.00  0.00     0.188 C 
BRANCH  32  33
ATOM     33  C   UNL A   1      34.387  32.244  28.116  1.00  0.00     0.188 C 
BRANCH  33  34
ATOM     34  O   UNL A   1      33.760  33.224  28.924  1.00  0.00    -0.376 OA
BRANCH  34  35
ATOM     35  C   UNL A   1      34.550  34.004  29.804  1.00  0.00     0.202 C 
BRANCH  35  36
ATOM     36  C   UNL A   1      34.464  33.686  31.304  1.00  0.00     0.261 C 
BRANCH  36  37
ATOM     37  O   UNL A   1      34.741  32.329  31.677  1.00  0.00    -0.460 OA
BRANCH  37  38
ATOM     38  C   UNL A   1      35.743  32.126  32.558  1.00  0.00     0.338 C 
ATOM     39  O   UNL A   1      35.763  32.429  33.736  1.00  0.00    -0.246 OA
BRANCH  38  40
ATOM     40  C   UNL A   1      36.769  31.299  31.890  1.00  0.00     0.060 A 
ATOM     41  C   UNL A   1      37.865  30.847  32.636  1.00  0.00     0.016 A 
ATOM     42  C   UNL A   1      36.661  30.993  30.532  1.00  0.00     0.016 A 
ATOM     43  C   UNL A   1      38.887  30.133  32.011  1.00  0.00     0.010 A 
ATOM     44  C   UNL A   1      37.694  30.294  29.902  1.00  0.00     0.010 A 
ATOM     45  C   UNL A   1      38.833  29.903  30.630  1.00  0.00    -0.014 A 
BRANCH  45  46
ATOM     46  C   UNL A   1      40.058  29.473  29.912  1.00  0.00     0.031 A 
ATOM     47  C   UNL A   1      41.140  30.495  29.684  1.00  0.00     0.074 A 
ATOM     48  C   UNL A   1      40.229  28.206  29.499  1.00  0.00     0.049 A 
ATOM     49  N   UNL A   1      42.276  30.383  29.044  1.00  0.00    -0.248 NA
ATOM     50  C   UNL A   1      40.903  31.832  30.254  1.00  0.00     0.031 C 
ATOM     51  C   UNL A   1      39.280  27.115  29.703  1.00  0.00     0.029 A 
ATOM     52  N   UNL A   1      41.268  27.627  28.814  1.00  0.00    -0.354 N 
ATOM     53  C   UNL A   1      42.879  31.631  29.127  1.00  0.00     0.074 A 
ATOM     54  C   UNL A   1      41.970  32.497  29.844  1.00  0.00     0.031 C 
ATOM     55  C   UNL A   1      39.776  25.997  29.143  1.00  0.00     0.029 A 
ATOM     56  C   UNL A   1      41.059  26.304  28.512  1.00  0.00     0.049 A 
ATOM     57  H   UNL A   1      42.086  28.115  28.562  1.00  0.00     0.167 HD
ATOM     58  C   UNL A   1      44.089  32.018  28.658  1.00  0.00     0.037 A 
ATOM     59  C   UNL A   1      41.810  25.451  27.787  1.00  0.00     0.037 A 
ATOM     60  C   UNL A   1      44.992  31.153  27.946  1.00  0.00     0.049 A 
ATOM     61  C   UNL A   1      43.117  25.928  27.204  1.00  0.00     0.074 A 
ATOM     62  C   UNL A   1      46.246  31.444  27.441  1.00  0.00     0.029 A 
ATOM     63  N   UNL A   1      44.729  29.828  27.630  1.00  0.00    -0.354 N 
ATOM     64  N   UNL A   1      43.693  27.102  27.304  1.00  0.00    -0.248 NA
ATOM     65  C   UNL A   1      43.883  24.956  26.409  1.00  0.00     0.031 C 
ATOM     66  C   UNL A   1      46.714  30.315  26.761  1.00  0.00     0.029 A 
ATOM     67  C   UNL A   1      45.787  29.296  26.909  1.00  0.00     0.049 A 
ATOM     68  H   UNL A   1      43.913  29.338  27.881  1.00  0.00     0.167 HD
ATOM     69  C   UNL A   1      44.900  26.998  26.621  1.00  0.00     0.074 A 
ATOM     70  C   UNL A   1      44.979  25.643  26.121  1.00  0.00     0.031 C 
ATOM     71  C   UNL A   1      45.858  27.939  26.429  1.00  0.00     0.037 A 
BRANCH  58  72
ATOM     72  C   UNL A   1      44.491  33.450  28.872  1.00  0.00     0.064 A 
ATOM     73  C   UNL A   1      44.116  34.468  27.982  1.00  0.00     0.173 A 
ATOM     74  C   UNL A   1      45.247  33.811  29.998  1.00  0.00     0.173 A 
ATOM     75  F   UNL A   1      43.407  34.176  26.881  1.00  0.00    -0.203 F 
ATOM     76  C   UNL A   1      44.507  35.788  28.195  1.00  0.00     0.198 A 
ATOM     77  C   UNL A   1      45.605  35.137  30.227  1.00  0.00     0.198 A 
ATOM     78  F   UNL A   1      45.633  32.879  30.882  1.00  0.00    -0.203 F 
ATOM     79  F   UNL A   1      44.184  36.733  27.302  1.00  0.00    -0.200 F 
ATOM     80  C   UNL A   1      45.243  36.122  29.322  1.00  0.00     0.200 A 
ATOM     81  F   UNL A   1      46.305  35.460  31.324  1.00  0.00    -0.200 F 
ATOM     82  F   UNL A   1      45.612  37.394  29.530  1.00  0.00    -0.200 F 
ENDBRANCH  58  72
BRANCH  59  83
ATOM     83  C   UNL A   1      41.343  24.056  27.557  1.00  0.00     0.064 A 
ATOM     84  C   UNL A   1      41.992  22.966  28.154  1.00  0.00     0.173 A 
ATOM     85  C   UNL A   1      40.262  23.782  26.706  1.00  0.00     0.173 A 
ATOM     86  F   UNL A   1      43.048  23.172  28.956  1.00  0.00    -0.203 F 
ATOM     87  C   UNL A   1      41.593  21.656  27.891  1.00  0.00     0.198 A 
ATOM     88  C   UNL A   1      39.843  22.473  26.470  1.00  0.00     0.198 A 
ATOM     89  F   UNL A   1      39.607  24.786  26.105  1.00  0.00    -0.203 F 
ATOM     90  F   UNL A   1      42.268  20.632  28.430  1.00  0.00    -0.200 F 
ATOM     91  C   UNL A   1      40.516  21.412  27.054  1.00  0.00     0.200 A 
ATOM     92  F   UNL A   1      38.792  22.243  25.671  1.00  0.00    -0.200 F 
ATOM     93  F   UNL A   1      40.132  20.152  26.802  1.00  0.00    -0.200 F 
ENDBRANCH  59  83
BRANCH  71  94
ATOM     94  C   UNL A   1      47.105  27.525  25.695  1.00  0.00     0.064 A 
ATOM     95  C   UNL A   1      48.175  26.891  26.343  1.00  0.00     0.173 A 
ATOM     96  C   UNL A   1      47.207  27.730  24.309  1.00  0.00     0.173 A 
ATOM     97  F   UNL A   1      48.133  26.681  27.667  1.00  0.00    -0.203 F 
ATOM     98  C   UNL A   1      49.313  26.506  25.637  1.00  0.00     0.198 A 
ATOM     99  C   UNL A   1      48.330  27.309  23.601  1.00  0.00     0.198 A 
ATOM    100  F   UNL A   1      46.209  28.323  23.637  1.00  0.00    -0.203 F 
ATOM    101  F   UNL A   1      50.346  25.952  26.287  1.00  0.00    -0.200 F 
ATOM    102  C   UNL A   1      49.386  26.708  24.267  1.00  0.00     0.200 A 
ATOM    103  F   UNL A   1      48.388  27.487  22.274  1.00  0.00    -0.200 F 
ATOM    104  F   UNL A   1      50.477  26.327  23.589  1.00  0.00    -0.200 F 
ENDBRANCH  71  94
ENDBRANCH  45  46
ENDBRANCH  38  40
ENDBRANCH  37  38
ENDBRANCH  36  37
ENDBRANCH  35  36
ENDBRANCH  34  35
ENDBRANCH  33  34
ENDBRANCH  32  33
ENDBRANCH  31  32
ENDBRANCH   1  31
TORSDOF 24
ENDMDL
MODEL 3
REMARK VINA RESULT:      -9.7      3.815      4.786
REMARK SMILES NS(=O)(=O)c1ccc(N2N=C(C(=O)OCCOCCOCCOCCOC(=O)c3ccc(-c4c5nc(c(-c6c(F)c(F)c(F)c(F)c6F)c6ccc([nH]6)c(-c6c(F)c(F)c(F)c(F)c6F)c6nc(c(-c7c(F)c(F)c(F)c(F)c7F)c7ccc4[nH]7)C=C6)C=C5)cc3)C[C@H]2c2cccs2)cc1
REMARK SMILES IDX 19 1 18 2 17 3 16 4 15 5 14 6 12 7 13 8 11 9 9 10 10 11
REMARK SMILES IDX 93 12 92 13 8 14 5 15 6 16 100 17 7 18 99 19 2 20 3 21 4 22
REMARK SMILES IDX 1 23 94 26 95 27 98 28 96 29 97 30 20 31 21 32 22 33 23 34
REMARK SMILES IDX 24 35 25 36 26 37 27 38 28 39 29 40 30 41 91 42 31 43 90 44
REMARK SMILES IDX 32 45 33 46 34 47 84 48 35 49 89 50 83 51 85 52 36 53 88 54
REMARK SMILES IDX 82 55 81 56 37 58 69 59 49 60 68 61 50 62 53 63 67 64 86 65
REMARK SMILES IDX 51 66 52 67 66 69 87 70 54 71 38 72 39 73 47 74 40 75 41 76
REMARK SMILES IDX 45 77 48 78 42 79 43 80 46 81 44 82 70 83 71 84 79 85 72 86
REMARK SMILES IDX 73 87 77 88 80 89 74 90 75 91 78 92 76 93 55 94 56 95 64 96
REMARK SMILES IDX 57 97 58 98 62 99 65 100 59 101 60 102 63 103 61 104
REMARK H PARENT 1 24 1 25 85 57 53 68
REMARK Flexibility Score: inf
ROOT
ATOM      1  C   UNL A   1      33.087  28.212  25.238  1.00  0.00     0.188 C 
ENDROOT
BRANCH   1   2
ATOM      2  C   UNL A   1      33.576  29.061  24.051  1.00  0.00     0.188 C 
BRANCH   2   3
ATOM      3  O   UNL A   1      32.848  28.859  22.856  1.00  0.00    -0.376 OA
BRANCH   3   4
ATOM      4  C   UNL A   1      31.554  28.281  22.840  1.00  0.00     0.202 C 
BRANCH   4   5
ATOM      5  C   UNL A   1      31.081  27.148  21.907  1.00  0.00     0.261 C 
BRANCH   5   6
ATOM      6  O   UNL A   1      31.466  25.822  22.252  1.00  0.00    -0.459 OA
BRANCH   6   7
ATOM      7  C   UNL A   1      32.709  25.446  21.919  1.00  0.00     0.354 C 
ATOM      8  O   UNL A   1      33.399  25.858  21.010  1.00  0.00    -0.245 OA
BRANCH   7   9
ATOM      9  C   UNL A   1      33.200  24.502  22.987  1.00  0.00     0.148 C 
ATOM     10  N   UNL A   1      33.739  22.716  23.981  1.00  0.00    -0.256 N 
ATOM     11  N   UNL A   1      33.312  23.224  22.787  1.00  0.00    -0.169 NA
ATOM     12  C   UNL A   1      33.539  23.684  25.083  1.00  0.00     0.154 C 
ATOM     13  C   UNL A   1      33.686  25.005  24.314  1.00  0.00     0.099 C 
BRANCH  10  14
ATOM     14  C   UNL A   1      33.744  21.338  24.138  1.00  0.00     0.060 A 
ATOM     15  C   UNL A   1      33.772  18.549  24.487  1.00  0.00     0.082 A 
ATOM     16  C   UNL A   1      34.883  19.305  24.865  1.00  0.00     0.024 A 
ATOM     17  C   UNL A   1      32.672  19.160  23.889  1.00  0.00     0.024 A 
ATOM     18  C   UNL A   1      34.859  20.695  24.695  1.00  0.00     0.029 A 
ATOM     19  C   UNL A   1      32.675  20.544  23.701  1.00  0.00     0.029 A 
BRANCH  15  20
ATOM     20  S   UNL A   1      33.783  16.794  24.702  1.00  0.00     0.238 S 
ATOM     21  O   UNL A   1      32.485  16.363  25.180  1.00  0.00    -0.207 OA
ATOM     22  O   UNL A   1      35.013  16.389  25.332  1.00  0.00    -0.207 OA
BRANCH  20  23
ATOM     23  N   UNL A   1      33.886  16.251  23.114  1.00  0.00    -0.225 NA
ATOM     24  H   UNL A   1      34.605  16.780  22.620  1.00  0.00     0.137 HD
ATOM     25  H   UNL A   1      32.986  16.386  22.650  1.00  0.00     0.137 HD
ENDBRANCH  20  23
ENDBRANCH  15  20
ENDBRANCH  10  14
BRANCH  12  26
ATOM     26  C   UNL A   1      32.225  23.585  25.854  1.00  0.00     0.030 A 
ATOM     27  C   UNL A   1      31.860  22.596  26.754  1.00  0.00     0.017 A 
ATOM     28  S   UNL A   1      30.947  24.727  25.673  1.00  0.00    -0.147 S 
ATOM     29  C   UNL A   1      30.535  22.760  27.250  1.00  0.00     0.012 A 
ATOM     30  C   UNL A   1      29.941  23.901  26.767  1.00  0.00     0.065 A 
ENDBRANCH  12  26
ENDBRANCH   7   9
ENDBRANCH   6   7
ENDBRANCH   5   6
ENDBRANCH   4   5
ENDBRANCH   3   4
ENDBRANCH   2   3
ENDBRANCH   1   2
BRANCH   1  31
ATOM     31  O   UNL A   1      33.059  28.900  26.480  1.00  0.00    -0.377 OA
BRANCH  31  32
ATOM     32  C   UNL A   1      33.597  30.223  26.538  1.00  0.00     0.188 C 
BRANCH  32  33
ATOM     33  C   UNL A   1      34.302  30.778  27.800  1.00  0.00     0.188 C 
BRANCH  33  34
ATOM     34  O   UNL A   1      35.026  31.979  27.598  1.00  0.00    -0.376 OA
BRANCH  34  35
ATOM     35  C   UNL A   1      34.392  33.220  27.851  1.00  0.00     0.202 C 
BRANCH  35  36
ATOM     36  C   UNL A   1      34.092  33.578  29.313  1.00  0.00     0.261 C 
BRANCH  36  37
ATOM     37  O   UNL A   1      35.206  33.526  30.216  1.00  0.00    -0.460 OA
BRANCH  37  38
ATOM     38  C   UNL A   1      35.173  32.577  31.176  1.00  0.00     0.338 C 
ATOM     39  O   UNL A   1      34.258  32.329  31.938  1.00  0.00    -0.246 OA
BRANCH  38  40
ATOM     40  C   UNL A   1      36.390  31.751  31.035  1.00  0.00     0.060 A 
ATOM     41  C   UNL A   1      36.446  30.511  31.681  1.00  0.00     0.016 A 
ATOM     42  C   UNL A   1      37.477  32.211  30.287  1.00  0.00     0.016 A 
ATOM     43  C   UNL A   1      37.613  29.749  31.631  1.00  0.00     0.010 A 
ATOM     44  C   UNL A   1      38.652  31.456  30.252  1.00  0.00     0.010 A 
ATOM     45  C   UNL A   1      38.740  30.245  30.963  1.00  0.00    -0.014 A 
BRANCH  45  46
ATOM     46  C   UNL A   1      40.065  29.623  31.205  1.00  0.00     0.031 A 
ATOM     47  C   UNL A   1      40.903  30.159  32.335  1.00  0.00     0.074 A 
ATOM     48  C   UNL A   1      40.508  28.590  30.468  1.00  0.00     0.049 A 
ATOM     49  N   UNL A   1      42.108  29.822  32.716  1.00  0.00    -0.248 NA
ATOM     50  C   UNL A   1      40.295  31.227  33.145  1.00  0.00     0.031 C 
ATOM     51  C   UNL A   1      39.772  27.951  29.379  1.00  0.00     0.029 A 
ATOM     52  N   UNL A   1      41.694  27.902  30.525  1.00  0.00    -0.354 N 
ATOM     53  C   UNL A   1      42.403  30.640  33.798  1.00  0.00     0.074 A 
ATOM     54  C   UNL A   1      41.270  31.518  33.991  1.00  0.00     0.031 C 
ATOM     55  C   UNL A   1      40.530  26.968  28.862  1.00  0.00     0.029 A 
ATOM     56  C   UNL A   1      41.814  26.933  29.558  1.00  0.00     0.049 A 
ATOM     57  H   UNL A   1      42.392  28.085  31.194  1.00  0.00     0.167 HD
ATOM     58  C   UNL A   1      43.515  30.653  34.571  1.00  0.00     0.037 A 
ATOM     59  C   UNL A   1      42.857  26.131  29.260  1.00  0.00     0.037 A 
ATOM     60  C   UNL A   1      44.641  29.778  34.377  1.00  0.00     0.049 A 
ATOM     61  C   UNL A   1      44.118  26.220  30.084  1.00  0.00     0.074 A 
ATOM     62  C   UNL A   1      45.810  29.701  35.112  1.00  0.00     0.029 A 
ATOM     63  N   UNL A   1      44.740  28.833  33.366  1.00  0.00    -0.354 N 
ATOM     64  N   UNL A   1      44.384  26.981  31.119  1.00  0.00    -0.248 NA
ATOM     65  C   UNL A   1      45.225  25.332  29.698  1.00  0.00     0.031 C 
ATOM     66  C   UNL A   1      46.644  28.757  34.507  1.00  0.00     0.029 A 
ATOM     67  C   UNL A   1      45.966  28.190  33.440  1.00  0.00     0.049 A 
ATOM     68  H   UNL A   1      44.044  28.648  32.695  1.00  0.00     0.167 HD
ATOM     69  C   UNL A   1      45.667  26.637  31.530  1.00  0.00     0.074 A 
ATOM     70  C   UNL A   1      46.122  25.591  30.640  1.00  0.00     0.031 C 
ATOM     71  C   UNL A   1      46.400  27.139  32.555  1.00  0.00     0.037 A 
BRANCH  58  72
ATOM     72  C   UNL A   1      43.582  31.668  35.677  1.00  0.00     0.064 A 
ATOM     73  C   UNL A   1      43.101  31.395  36.966  1.00  0.00     0.173 A 
ATOM     74  C   UNL A   1      44.157  32.927  35.446  1.00  0.00     0.173 A 
ATOM     75  F   UNL A   1      42.527  30.212  37.237  1.00  0.00    -0.203 F 
ATOM     76  C   UNL A   1      43.166  32.354  37.975  1.00  0.00     0.198 A 
ATOM     77  C   UNL A   1      44.254  33.870  36.466  1.00  0.00     0.198 A 
ATOM     78  F   UNL A   1      44.634  33.242  34.233  1.00  0.00    -0.203 F 
ATOM     79  F   UNL A   1      42.649  32.089  39.183  1.00  0.00    -0.200 F 
ATOM     80  C   UNL A   1      43.750  33.587  37.726  1.00  0.00     0.200 A 
ATOM     81  F   UNL A   1      44.832  35.056  36.227  1.00  0.00    -0.200 F 
ATOM     82  F   UNL A   1      43.819  34.505  38.699  1.00  0.00    -0.200 F 
ENDBRANCH  58  72
BRANCH  59  83
ATOM     83  C   UNL A   1      42.764  25.179  28.120  1.00  0.00     0.064 A 
ATOM     84  C   UNL A   1      42.967  25.606  26.799  1.00  0.00     0.173 A 
ATOM     85  C   UNL A   1      42.436  23.831  28.323  1.00  0.00     0.173 A 
ATOM     86  F   UNL A   1      43.257  26.892  26.548  1.00  0.00    -0.203 F 
ATOM     87  C   UNL A   1      42.820  24.728  25.727  1.00  0.00     0.198 A 
ATOM     88  C   UNL A   1      42.323  22.945  27.252  1.00  0.00     0.198 A 
ATOM     89  F   UNL A   1      42.228  23.368  29.565  1.00  0.00    -0.203 F 
ATOM     90  F   UNL A   1      42.962  25.177  24.472  1.00  0.00    -0.200 F 
ATOM     91  C   UNL A   1      42.504  23.397  25.955  1.00  0.00     0.200 A 
ATOM     92  F   UNL A   1      42.031  21.658  27.479  1.00  0.00    -0.200 F 
ATOM     93  F   UNL A   1      42.364  22.553  24.923  1.00  0.00    -0.200 F 
ENDBRANCH  59  83
BRANCH  71  94
ATOM     94  C   UNL A   1      47.751  26.528  32.810  1.00  0.00     0.064 A 
ATOM     95  C   UNL A   1      48.931  27.091  32.304  1.00  0.00     0.173 A 
ATOM     96  C   UNL A   1      47.866  25.382  33.615  1.00  0.00     0.173 A 
ATOM     97  F   UNL A   1      48.877  28.179  31.520  1.00  0.00    -0.203 F 
ATOM     98  C   UNL A   1      50.171  26.513  32.565  1.00  0.00     0.198 A 
ATOM     99  C   UNL A   1      49.111  24.830  33.906  1.00  0.00     0.198 A 
ATOM    100  F   UNL A   1      46.771  24.807  34.135  1.00  0.00    -0.203 F 
ATOM    101  F   UNL A   1      51.280  27.037  32.024  1.00  0.00    -0.200 F 
ATOM    102  C   UNL A   1      50.261  25.389  33.372  1.00  0.00     0.200 A 
ATOM    103  F   UNL A   1      49.195  23.755  34.703  1.00  0.00    -0.200 F 
ATOM    104  F   UNL A   1      51.456  24.841  33.632  1.00  0.00    -0.200 F 
ENDBRANCH  71  94
ENDBRANCH  45  46
ENDBRANCH  38  40
ENDBRANCH  37  38
ENDBRANCH  36  37
ENDBRANCH  35  36
ENDBRANCH  34  35
ENDBRANCH  33  34
ENDBRANCH  32  33
ENDBRANCH  31  32
ENDBRANCH   1  31
TORSDOF 24
ENDMDL
