MODEL 1
REMARK VINA RESULT:     -11.2      0.000      0.000
REMARK SMILES Cc1c(Cl)cccc1NC(=O)C[C@](C)(C(=O)OCCOCCOCCOCCOC(=O)c1ccc(-c2c3nc(c(-c4c(F)c(F)c(F)c(F)c4F)c4ccc([nH]4)c(-c4c(F)c(F)c(F)c(F)c4F)c4nc(c(-c5c(F)c(F)c(F)c(F)c5F)c5ccc2[nH]5)C=C4)C=C3)cc1)c1ccccc1
REMARK SMILES IDX 22 1 21 2 20 3 19 4 18 5 17 6 15 7 16 8 13 9 14 10 12 11
REMARK SMILES IDX 10 12 9 13 11 15 8 16 1 17 2 18 3 19 4 20 5 21 7 22 6 23
REMARK SMILES IDX 95 24 96 25 100 26 97 27 99 28 98 29 23 30 24 31 25 32 26 33
REMARK SMILES IDX 27 34 28 35 29 36 30 37 31 38 32 39 33 40 94 41 34 42 93 43
REMARK SMILES IDX 35 44 36 45 37 46 87 47 38 48 92 49 86 50 88 51 39 52 91 53
REMARK SMILES IDX 85 54 84 55 40 57 72 58 52 59 71 60 53 61 56 62 70 63 89 64
REMARK SMILES IDX 54 65 55 66 69 68 90 69 57 70 41 71 42 72 50 73 43 74 44 75
REMARK SMILES IDX 48 76 51 77 45 78 46 79 49 80 47 81 73 82 74 83 82 84 75 85
REMARK SMILES IDX 76 86 80 87 83 88 77 89 78 90 81 91 79 92 58 93 59 94 67 95
REMARK SMILES IDX 60 96 61 97 65 98 68 99 62 100 63 101 66 102 64 103
REMARK H PARENT 9 14 88 56 56 67
REMARK Flexibility Score: inf
ROOT
ATOM      1  C   UNL A   1      34.622  31.602  28.192  1.00  0.00     0.188 C 
ENDROOT
BRANCH   1   2
ATOM      2  C   UNL A   1      33.407  31.199  27.349  1.00  0.00     0.188 C 
BRANCH   2   3
ATOM      3  O   UNL A   1      33.640  30.070  26.535  1.00  0.00    -0.376 OA
BRANCH   3   4
ATOM      4  C   UNL A   1      33.194  28.805  26.986  1.00  0.00     0.202 C 
BRANCH   4   5
ATOM      5  C   UNL A   1      31.705  28.428  27.012  1.00  0.00     0.261 C 
BRANCH   5   6
ATOM      6  O   UNL A   1      31.281  27.347  26.171  1.00  0.00    -0.463 OA
BRANCH   6   7
ATOM      7  C   UNL A   1      31.719  27.324  24.896  1.00  0.00     0.316 C 
ATOM      8  O   UNL A   1      31.927  28.346  24.248  1.00  0.00    -0.251 OA
BRANCH   7   9
ATOM      9  C   UNL A   1      31.923  25.887  24.330  1.00  0.00     0.099 C 
ATOM     10  C   UNL A   1      30.782  25.346  23.413  1.00  0.00     0.029 C 
BRANCH   9  11
ATOM     11  C   UNL A   1      33.213  25.943  23.447  1.00  0.00     0.123 C 
BRANCH  11  12
ATOM     12  C   UNL A   1      33.273  25.114  22.160  1.00  0.00     0.225 C 
ATOM     13  N   UNL A   1      33.249  23.753  22.076  1.00  0.00    -0.326 N 
ATOM     14  H   UNL A   1      33.143  23.442  21.148  1.00  0.00     0.169 HD
ATOM     15  O   UNL A   1      33.326  25.714  21.077  1.00  0.00    -0.275 OA
BRANCH  13  16
ATOM     16  C   UNL A   1      33.337  22.678  22.985  1.00  0.00     0.045 A 
ATOM     17  C   UNL A   1      35.807  23.252  23.467  1.00  0.00     0.048 C 
ATOM     18  C   UNL A   1      34.568  22.402  23.639  1.00  0.00    -0.009 A 
ATOM     19  C   UNL A   1      34.660  21.249  24.457  1.00  0.00     0.046 A 
ATOM     20  Cl  UNL A   1      36.146  20.787  25.219  1.00  0.00    -0.084 Cl
ATOM     21  C   UNL A   1      33.565  20.411  24.652  1.00  0.00     0.021 A 
ATOM     22  C   UNL A   1      32.230  21.880  23.275  1.00  0.00     0.026 A 
ATOM     23  C   UNL A   1      32.344  20.741  24.082  1.00  0.00     0.004 A 
ENDBRANCH  13  16
ENDBRANCH  11  12
ENDBRANCH   9  11
BRANCH   9  24
ATOM     24  C   UNL A   1      31.999  24.848  25.505  1.00  0.00    -0.030 A 
ATOM     25  C   UNL A   1      33.228  24.543  26.125  1.00  0.00     0.005 A 
ATOM     26  C   UNL A   1      30.891  24.059  25.882  1.00  0.00     0.005 A 
ATOM     27  C   UNL A   1      33.348  23.468  27.017  1.00  0.00     0.000 A 
ATOM     28  C   UNL A   1      31.010  22.990  26.776  1.00  0.00     0.000 A 
ATOM     29  C   UNL A   1      32.242  22.686  27.335  1.00  0.00     0.000 A 
ENDBRANCH   9  24
ENDBRANCH   7   9
ENDBRANCH   6   7
ENDBRANCH   5   6
ENDBRANCH   4   5
ENDBRANCH   3   4
ENDBRANCH   2   3
ENDBRANCH   1   2
BRANCH   1  30
ATOM     30  O   UNL A   1      34.889  32.987  28.350  1.00  0.00    -0.377 OA
BRANCH  30  31
ATOM     31  C   UNL A   1      33.864  33.938  28.078  1.00  0.00     0.188 C 
BRANCH  31  32
ATOM     32  C   UNL A   1      33.369  34.940  29.145  1.00  0.00     0.188 C 
BRANCH  32  33
ATOM     33  O   UNL A   1      33.284  34.440  30.466  1.00  0.00    -0.376 OA
BRANCH  33  34
ATOM     34  C   UNL A   1      34.082  35.037  31.474  1.00  0.00     0.202 C 
BRANCH  34  35
ATOM     35  C   UNL A   1      34.629  34.129  32.589  1.00  0.00     0.261 C 
BRANCH  35  36
ATOM     36  O   UNL A   1      35.280  32.925  32.156  1.00  0.00    -0.460 OA
BRANCH  36  37
ATOM     37  C   UNL A   1      36.182  32.389  32.995  1.00  0.00     0.338 C 
ATOM     38  O   UNL A   1      36.205  32.474  34.218  1.00  0.00    -0.246 OA
BRANCH  37  39
ATOM     39  C   UNL A   1      37.083  31.521  32.223  1.00  0.00     0.060 A 
ATOM     40  C   UNL A   1      38.143  30.888  32.884  1.00  0.00     0.016 A 
ATOM     41  C   UNL A   1      36.919  31.383  30.843  1.00  0.00     0.016 A 
ATOM     42  C   UNL A   1      39.089  30.176  32.155  1.00  0.00     0.010 A 
ATOM     43  C   UNL A   1      37.880  30.684  30.109  1.00  0.00     0.010 A 
ATOM     44  C   UNL A   1      38.997  30.129  30.758  1.00  0.00    -0.014 A 
BRANCH  44  45
ATOM     45  C   UNL A   1      40.189  29.714  29.980  1.00  0.00     0.031 A 
ATOM     46  C   UNL A   1      41.305  30.707  29.804  1.00  0.00     0.074 A 
ATOM     47  C   UNL A   1      40.312  28.464  29.504  1.00  0.00     0.049 A 
ATOM     48  N   UNL A   1      42.448  30.575  29.180  1.00  0.00    -0.248 NA
ATOM     49  C   UNL A   1      41.103  32.031  30.415  1.00  0.00     0.031 C 
ATOM     50  C   UNL A   1      39.322  27.405  29.661  1.00  0.00     0.029 A 
ATOM     51  N   UNL A   1      41.330  27.876  28.798  1.00  0.00    -0.354 N 
ATOM     52  C   UNL A   1      43.095  31.795  29.321  1.00  0.00     0.074 A 
ATOM     53  C   UNL A   1      42.205  32.669  30.052  1.00  0.00     0.031 C 
ATOM     54  C   UNL A   1      39.781  26.289  29.072  1.00  0.00     0.029 A 
ATOM     55  C   UNL A   1      41.082  26.567  28.465  1.00  0.00     0.049 A 
ATOM     56  H   UNL A   1      42.160  28.347  28.552  1.00  0.00     0.167 HD
ATOM     57  C   UNL A   1      44.329  32.150  28.892  1.00  0.00     0.037 A 
ATOM     58  C   UNL A   1      41.820  25.703  27.743  1.00  0.00     0.037 A 
ATOM     59  C   UNL A   1      45.210  31.277  28.163  1.00  0.00     0.049 A 
ATOM     60  C   UNL A   1      43.155  26.149  27.203  1.00  0.00     0.074 A 
ATOM     61  C   UNL A   1      46.481  31.538  27.683  1.00  0.00     0.029 A 
ATOM     62  N   UNL A   1      44.905  29.973  27.800  1.00  0.00    -0.354 N 
ATOM     63  N   UNL A   1      43.770  27.298  27.352  1.00  0.00    -0.248 NA
ATOM     64  C   UNL A   1      43.904  25.173  26.398  1.00  0.00     0.031 C 
ATOM     65  C   UNL A   1      46.919  30.414  26.976  1.00  0.00     0.029 A 
ATOM     66  C   UNL A   1      45.953  29.425  27.079  1.00  0.00     0.049 A 
ATOM     67  H   UNL A   1      44.067  29.505  28.023  1.00  0.00     0.167 HD
ATOM     68  C   UNL A   1      44.989  27.171  26.696  1.00  0.00     0.074 A 
ATOM     69  C   UNL A   1      45.030  25.828  26.156  1.00  0.00     0.031 C 
ATOM     70  C   UNL A   1      45.985  28.081  26.558  1.00  0.00     0.037 A 
BRANCH  57  71
ATOM     71  C   UNL A   1      44.781  33.555  29.172  1.00  0.00     0.064 A 
ATOM     72  C   UNL A   1      45.504  33.886  30.328  1.00  0.00     0.173 A 
ATOM     73  C   UNL A   1      44.497  34.584  28.261  1.00  0.00     0.173 A 
ATOM     74  F   UNL A   1      45.787  32.945  31.241  1.00  0.00    -0.203 F 
ATOM     75  C   UNL A   1      45.897  35.199  30.577  1.00  0.00     0.198 A 
ATOM     76  C   UNL A   1      44.923  35.889  28.496  1.00  0.00     0.198 A 
ATOM     77  F   UNL A   1      43.810  34.324  27.138  1.00  0.00    -0.203 F 
ATOM     78  F   UNL A   1      46.535  35.501  31.716  1.00  0.00    -0.200 F 
ATOM     79  C   UNL A   1      45.613  36.197  29.657  1.00  0.00     0.200 A 
ATOM     80  F   UNL A   1      44.659  36.849  27.598  1.00  0.00    -0.200 F 
ATOM     81  F   UNL A   1      45.997  37.459  29.895  1.00  0.00    -0.200 F 
ENDBRANCH  57  71
BRANCH  58  82
ATOM     82  C   UNL A   1      41.314  24.329  27.483  1.00  0.00     0.064 A 
ATOM     83  C   UNL A   1      40.219  24.106  26.636  1.00  0.00     0.173 A 
ATOM     84  C   UNL A   1      41.902  23.211  28.092  1.00  0.00     0.173 A 
ATOM     85  F   UNL A   1      39.605  25.144  26.049  1.00  0.00    -0.203 F 
ATOM     86  C   UNL A   1      39.718  22.823  26.427  1.00  0.00     0.198 A 
ATOM     87  C   UNL A   1      41.421  21.924  27.857  1.00  0.00     0.198 A 
ATOM     88  F   UNL A   1      42.950  23.367  28.915  1.00  0.00    -0.203 F 
ATOM     89  F   UNL A   1      38.638  22.645  25.655  1.00  0.00    -0.200 F 
ATOM     90  C   UNL A   1      40.324  21.732  27.032  1.00  0.00     0.200 A 
ATOM     91  F   UNL A   1      42.018  20.872  28.436  1.00  0.00    -0.200 F 
ATOM     92  F   UNL A   1      39.844  20.497  26.829  1.00  0.00    -0.200 F 
ENDBRANCH  58  82
BRANCH  70  93
ATOM     93  C   UNL A   1      47.232  27.640  25.842  1.00  0.00     0.064 A 
ATOM     94  C   UNL A   1      48.337  27.115  26.529  1.00  0.00     0.173 A 
ATOM     95  C   UNL A   1      47.303  27.710  24.442  1.00  0.00     0.173 A 
ATOM     96  F   UNL A   1      48.326  27.037  27.868  1.00  0.00    -0.203 F 
ATOM     97  C   UNL A   1      49.478  26.708  25.842  1.00  0.00     0.198 A 
ATOM     98  C   UNL A   1      48.431  27.267  23.757  1.00  0.00     0.198 A 
ATOM     99  F   UNL A   1      46.271  28.193  23.734  1.00  0.00    -0.203 F 
ATOM    100  F   UNL A   1      50.543  26.262  26.523  1.00  0.00    -0.200 F 
ATOM    101  C   UNL A   1      49.522  26.775  24.458  1.00  0.00     0.200 A 
ATOM    102  F   UNL A   1      48.461  27.316  22.418  1.00  0.00    -0.200 F 
ATOM    103  F   UNL A   1      50.617  26.375  23.798  1.00  0.00    -0.200 F 
ENDBRANCH  70  93
ENDBRANCH  44  45
ENDBRANCH  37  39
ENDBRANCH  36  37
ENDBRANCH  35  36
ENDBRANCH  34  35
ENDBRANCH  33  34
ENDBRANCH  32  33
ENDBRANCH  31  32
ENDBRANCH  30  31
ENDBRANCH   1  30
TORSDOF 24
ENDMDL
MODEL 2
REMARK VINA RESULT:     -10.9      4.169      6.561
REMARK SMILES Cc1c(Cl)cccc1NC(=O)C[C@](C)(C(=O)OCCOCCOCCOCCOC(=O)c1ccc(-c2c3nc(c(-c4c(F)c(F)c(F)c(F)c4F)c4ccc([nH]4)c(-c4c(F)c(F)c(F)c(F)c4F)c4nc(c(-c5c(F)c(F)c(F)c(F)c5F)c5ccc2[nH]5)C=C4)C=C3)cc1)c1ccccc1
REMARK SMILES IDX 22 1 21 2 20 3 19 4 18 5 17 6 15 7 16 8 13 9 14 10 12 11
REMARK SMILES IDX 10 12 9 13 11 15 8 16 1 17 2 18 3 19 4 20 5 21 7 22 6 23
REMARK SMILES IDX 95 24 96 25 100 26 97 27 99 28 98 29 23 30 24 31 25 32 26 33
REMARK SMILES IDX 27 34 28 35 29 36 30 37 31 38 32 39 33 40 94 41 34 42 93 43
REMARK SMILES IDX 35 44 36 45 37 46 87 47 38 48 92 49 86 50 88 51 39 52 91 53
REMARK SMILES IDX 85 54 84 55 40 57 72 58 52 59 71 60 53 61 56 62 70 63 89 64
REMARK SMILES IDX 54 65 55 66 69 68 90 69 57 70 41 71 42 72 50 73 43 74 44 75
REMARK SMILES IDX 48 76 51 77 45 78 46 79 49 80 47 81 73 82 74 83 82 84 75 85
REMARK SMILES IDX 76 86 80 87 83 88 77 89 78 90 81 91 79 92 58 93 59 94 67 95
REMARK SMILES IDX 60 96 61 97 65 98 68 99 62 100 63 101 66 102 64 103
REMARK H PARENT 9 14 88 56 56 67
REMARK Flexibility Score: inf
ROOT
ATOM      1  C   UNL A   1      27.558  29.779  22.436  1.00  0.00     0.188 C 
ENDROOT
BRANCH   1   2
ATOM      2  C   UNL A   1      28.614  28.726  22.792  1.00  0.00     0.188 C 
BRANCH   2   3
ATOM      3  O   UNL A   1      29.794  28.836  22.025  1.00  0.00    -0.376 OA
BRANCH   3   4
ATOM      4  C   UNL A   1      31.017  29.079  22.695  1.00  0.00     0.202 C 
BRANCH   4   5
ATOM      5  C   UNL A   1      31.636  28.054  23.658  1.00  0.00     0.261 C 
BRANCH   5   6
ATOM      6  O   UNL A   1      31.582  26.673  23.278  1.00  0.00    -0.463 OA
BRANCH   6   7
ATOM      7  C   UNL A   1      30.730  25.864  23.940  1.00  0.00     0.316 C 
ATOM      8  O   UNL A   1      29.520  25.864  23.732  1.00  0.00    -0.251 OA
BRANCH   7   9
ATOM      9  C   UNL A   1      31.426  24.948  24.991  1.00  0.00     0.099 C 
ATOM     10  C   UNL A   1      31.860  25.642  26.321  1.00  0.00     0.029 C 
BRANCH   9  11
ATOM     11  C   UNL A   1      30.378  23.855  25.382  1.00  0.00     0.123 C 
BRANCH  11  12
ATOM     12  C   UNL A   1      30.553  23.090  26.698  1.00  0.00     0.225 C 
ATOM     13  N   UNL A   1      31.519  22.166  26.970  1.00  0.00    -0.326 N 
ATOM     14  H   UNL A   1      31.533  21.918  27.922  1.00  0.00     0.169 HD
ATOM     15  O   UNL A   1      29.768  23.330  27.626  1.00  0.00    -0.275 OA
BRANCH  13  16
ATOM     16  C   UNL A   1      32.502  21.479  26.230  1.00  0.00     0.045 A 
ATOM     17  C   UNL A   1      34.368  22.585  27.629  1.00  0.00     0.048 C 
ATOM     18  C   UNL A   1      33.879  21.692  26.511  1.00  0.00    -0.009 A 
ATOM     19  C   UNL A   1      34.846  21.077  25.679  1.00  0.00     0.046 A 
ATOM     20  Cl  UNL A   1      36.544  21.356  25.893  1.00  0.00    -0.084 Cl
ATOM     21  C   UNL A   1      34.472  20.252  24.621  1.00  0.00     0.021 A 
ATOM     22  C   UNL A   1      32.156  20.570  25.229  1.00  0.00     0.026 A 
ATOM     23  C   UNL A   1      33.128  19.979  24.414  1.00  0.00     0.004 A 
ENDBRANCH  13  16
ENDBRANCH  11  12
ENDBRANCH   9  11
BRANCH   9  24
ATOM     24  C   UNL A   1      32.763  24.370  24.405  1.00  0.00    -0.030 A 
ATOM     25  C   UNL A   1      34.014  24.794  24.899  1.00  0.00     0.005 A 
ATOM     26  C   UNL A   1      32.786  23.537  23.266  1.00  0.00     0.005 A 
ATOM     27  C   UNL A   1      35.208  24.457  24.246  1.00  0.00     0.000 A 
ATOM     28  C   UNL A   1      33.977  23.197  22.618  1.00  0.00     0.000 A 
ATOM     29  C   UNL A   1      35.189  23.667  23.100  1.00  0.00     0.000 A 
ENDBRANCH   9  24
ENDBRANCH   7   9
ENDBRANCH   6   7
ENDBRANCH   5   6
ENDBRANCH   4   5
ENDBRANCH   3   4
ENDBRANCH   2   3
ENDBRANCH   1   2
BRANCH   1  30
ATOM     30  O   UNL A   1      27.451  30.919  23.274  1.00  0.00    -0.377 OA
BRANCH  30  31
ATOM     31  C   UNL A   1      28.250  32.068  23.006  1.00  0.00     0.188 C 
BRANCH  31  32
ATOM     32  C   UNL A   1      29.515  32.398  23.829  1.00  0.00     0.188 C 
BRANCH  32  33
ATOM     33  O   UNL A   1      29.706  31.627  25.001  1.00  0.00    -0.376 OA
BRANCH  33  34
ATOM     34  C   UNL A   1      31.028  31.400  25.459  1.00  0.00     0.202 C 
BRANCH  34  35
ATOM     35  C   UNL A   1      31.465  32.097  26.760  1.00  0.00     0.261 C 
BRANCH  35  36
ATOM     36  O   UNL A   1      32.727  31.680  27.302  1.00  0.00    -0.460 OA
BRANCH  36  37
ATOM     37  C   UNL A   1      33.539  32.648  27.760  1.00  0.00     0.338 C 
ATOM     38  O   UNL A   1      33.233  33.795  28.066  1.00  0.00    -0.246 OA
BRANCH  37  39
ATOM     39  C   UNL A   1      34.869  32.070  28.001  1.00  0.00     0.060 A 
ATOM     40  C   UNL A   1      34.996  30.678  28.087  1.00  0.00     0.016 A 
ATOM     41  C   UNL A   1      35.974  32.900  28.204  1.00  0.00     0.016 A 
ATOM     42  C   UNL A   1      36.213  30.113  28.452  1.00  0.00     0.010 A 
ATOM     43  C   UNL A   1      37.190  32.334  28.589  1.00  0.00     0.010 A 
ATOM     44  C   UNL A   1      37.295  30.943  28.770  1.00  0.00    -0.014 A 
BRANCH  44  45
ATOM     45  C   UNL A   1      38.439  30.367  29.516  1.00  0.00     0.031 A 
ATOM     46  C   UNL A   1      38.653  30.804  30.939  1.00  0.00     0.074 A 
ATOM     47  C   UNL A   1      39.225  29.424  28.971  1.00  0.00     0.049 A 
ATOM     48  N   UNL A   1      39.570  30.434  31.797  1.00  0.00    -0.248 NA
ATOM     49  C   UNL A   1      37.702  31.796  31.467  1.00  0.00     0.031 C 
ATOM     50  C   UNL A   1      39.079  28.885  27.624  1.00  0.00     0.029 A 
ATOM     51  N   UNL A   1      40.299  28.748  29.493  1.00  0.00    -0.354 N 
ATOM     52  C   UNL A   1      39.308  31.148  32.958  1.00  0.00     0.074 A 
ATOM     53  C   UNL A   1      38.174  32.003  32.687  1.00  0.00     0.031 C 
ATOM     54  C   UNL A   1      40.027  27.955  27.422  1.00  0.00     0.029 A 
ATOM     55  C   UNL A   1      40.867  27.860  28.614  1.00  0.00     0.049 A 
ATOM     56  H   UNL A   1      40.631  28.887  30.410  1.00  0.00     0.167 HD
ATOM     57  C   UNL A   1      39.947  31.085  34.150  1.00  0.00     0.037 A 
ATOM     58  C   UNL A   1      41.950  27.072  28.758  1.00  0.00     0.037 A 
ATOM     59  C   UNL A   1      41.076  30.233  34.414  1.00  0.00     0.049 A 
ATOM     60  C   UNL A   1      42.697  27.082  30.069  1.00  0.00     0.074 A 
ATOM     61  C   UNL A   1      41.795  30.093  35.587  1.00  0.00     0.029 A 
ATOM     62  N   UNL A   1      41.656  29.383  33.484  1.00  0.00    -0.354 N 
ATOM     63  N   UNL A   1      42.436  27.747  31.169  1.00  0.00    -0.248 NA
ATOM     64  C   UNL A   1      43.887  26.224  30.159  1.00  0.00     0.031 C 
ATOM     65  C   UNL A   1      42.849  29.205  35.349  1.00  0.00     0.029 A 
ATOM     66  C   UNL A   1      42.742  28.734  34.049  1.00  0.00     0.049 A 
ATOM     67  H   UNL A   1      41.343  29.258  32.559  1.00  0.00     0.167 HD
ATOM     68  C   UNL A   1      43.402  27.360  32.091  1.00  0.00     0.074 A 
ATOM     69  C   UNL A   1      44.249  26.394  31.422  1.00  0.00     0.031 C 
ATOM     70  C   UNL A   1      43.569  27.764  33.375  1.00  0.00     0.037 A 
BRANCH  57  71
ATOM     71  C   UNL A   1      39.457  31.988  35.246  1.00  0.00     0.064 A 
ATOM     72  C   UNL A   1      38.594  31.533  36.254  1.00  0.00     0.173 A 
ATOM     73  C   UNL A   1      39.871  33.329  35.295  1.00  0.00     0.173 A 
ATOM     74  F   UNL A   1      38.153  30.267  36.245  1.00  0.00    -0.203 F 
ATOM     75  C   UNL A   1      38.138  32.393  37.250  1.00  0.00     0.198 A 
ATOM     76  C   UNL A   1      39.441  34.176  36.313  1.00  0.00     0.198 A 
ATOM     77  F   UNL A   1      40.698  33.817  34.357  1.00  0.00    -0.203 F 
ATOM     78  F   UNL A   1      37.267  31.951  38.168  1.00  0.00    -0.200 F 
ATOM     79  C   UNL A   1      38.567  33.711  37.283  1.00  0.00     0.200 A 
ATOM     80  F   UNL A   1      39.870  35.446  36.350  1.00  0.00    -0.200 F 
ATOM     81  F   UNL A   1      38.133  34.536  38.245  1.00  0.00    -0.200 F 
ENDBRANCH  57  71
BRANCH  58  82
ATOM     82  C   UNL A   1      42.399  26.210  27.633  1.00  0.00     0.064 A 
ATOM     83  C   UNL A   1      41.862  24.929  27.442  1.00  0.00     0.173 A 
ATOM     84  C   UNL A   1      43.389  26.641  26.737  1.00  0.00     0.173 A 
ATOM     85  F   UNL A   1      40.932  24.460  28.286  1.00  0.00    -0.203 F 
ATOM     86  C   UNL A   1      42.314  24.104  26.413  1.00  0.00     0.198 A 
ATOM     87  C   UNL A   1      43.817  25.828  25.689  1.00  0.00     0.198 A 
ATOM     88  F   UNL A   1      43.939  27.857  26.877  1.00  0.00    -0.203 F 
ATOM     89  F   UNL A   1      41.822  22.865  26.286  1.00  0.00    -0.200 F 
ATOM     90  C   UNL A   1      43.285  24.558  25.534  1.00  0.00     0.200 A 
ATOM     91  F   UNL A   1      44.748  26.275  24.835  1.00  0.00    -0.200 F 
ATOM     92  F   UNL A   1      43.718  23.765  24.543  1.00  0.00    -0.200 F 
ENDBRANCH  58  82
BRANCH  70  93
ATOM     93  C   UNL A   1      44.675  27.122  34.165  1.00  0.00     0.064 A 
ATOM     94  C   UNL A   1      45.959  27.683  34.240  1.00  0.00     0.173 A 
ATOM     95  C   UNL A   1      44.430  25.947  34.893  1.00  0.00     0.173 A 
ATOM     96  F   UNL A   1      46.249  28.799  33.554  1.00  0.00    -0.203 F 
ATOM     97  C   UNL A   1      46.964  27.072  34.985  1.00  0.00     0.198 A 
ATOM     98  C   UNL A   1      45.428  25.360  35.667  1.00  0.00     0.198 A 
ATOM     99  F   UNL A   1      43.218  25.374  34.867  1.00  0.00    -0.203 F 
ATOM    100  F   UNL A   1      48.198  27.594  34.995  1.00  0.00    -0.200 F 
ATOM    101  C   UNL A   1      46.697  25.917  35.704  1.00  0.00     0.200 A 
ATOM    102  F   UNL A   1      45.160  24.254  36.376  1.00  0.00    -0.200 F 
ATOM    103  F   UNL A   1      47.663  25.336  36.428  1.00  0.00    -0.200 F 
ENDBRANCH  70  93
ENDBRANCH  44  45
ENDBRANCH  37  39
ENDBRANCH  36  37
ENDBRANCH  35  36
ENDBRANCH  34  35
ENDBRANCH  33  34
ENDBRANCH  32  33
ENDBRANCH  31  32
ENDBRANCH  30  31
ENDBRANCH   1  30
TORSDOF 24
ENDMDL
MODEL 3
REMARK VINA RESULT:     -10.3      5.255     10.605
REMARK SMILES Cc1c(Cl)cccc1NC(=O)C[C@](C)(C(=O)OCCOCCOCCOCCOC(=O)c1ccc(-c2c3nc(c(-c4c(F)c(F)c(F)c(F)c4F)c4ccc([nH]4)c(-c4c(F)c(F)c(F)c(F)c4F)c4nc(c(-c5c(F)c(F)c(F)c(F)c5F)c5ccc2[nH]5)C=C4)C=C3)cc1)c1ccccc1
REMARK SMILES IDX 22 1 21 2 20 3 19 4 18 5 17 6 15 7 16 8 13 9 14 10 12 11
REMARK SMILES IDX 10 12 9 13 11 15 8 16 1 17 2 18 3 19 4 20 5 21 7 22 6 23
REMARK SMILES IDX 95 24 96 25 100 26 97 27 99 28 98 29 23 30 24 31 25 32 26 33
REMARK SMILES IDX 27 34 28 35 29 36 30 37 31 38 32 39 33 40 94 41 34 42 93 43
REMARK SMILES IDX 35 44 36 45 37 46 87 47 38 48 92 49 86 50 88 51 39 52 91 53
REMARK SMILES IDX 85 54 84 55 40 57 72 58 52 59 71 60 53 61 56 62 70 63 89 64
REMARK SMILES IDX 54 65 55 66 69 68 90 69 57 70 41 71 42 72 50 73 43 74 44 75
REMARK SMILES IDX 48 76 51 77 45 78 46 79 49 80 47 81 73 82 74 83 82 84 75 85
REMARK SMILES IDX 76 86 80 87 83 88 77 89 78 90 81 91 79 92 58 93 59 94 67 95
REMARK SMILES IDX 60 96 61 97 65 98 68 99 62 100 63 101 66 102 64 103
REMARK H PARENT 9 14 88 56 56 67
REMARK Flexibility Score: inf
ROOT
ATOM      1  C   UNL A   1      39.506  22.450  26.391  1.00  0.00     0.188 C 
ENDROOT
BRANCH   1   2
ATOM      2  C   UNL A   1      38.038  22.126  26.090  1.00  0.00     0.188 C 
BRANCH   2   3
ATOM      3  O   UNL A   1      37.599  22.626  24.844  1.00  0.00    -0.376 OA
BRANCH   3   4
ATOM      4  C   UNL A   1      36.500  21.997  24.211  1.00  0.00     0.202 C 
BRANCH   4   5
ATOM      5  C   UNL A   1      35.520  21.100  24.981  1.00  0.00     0.261 C 
BRANCH   5   6
ATOM      6  O   UNL A   1      34.120  21.302  24.754  1.00  0.00    -0.463 OA
BRANCH   6   7
ATOM      7  C   UNL A   1      33.568  22.459  25.175  1.00  0.00     0.316 C 
ATOM      8  O   UNL A   1      33.855  22.977  26.250  1.00  0.00    -0.251 OA
BRANCH   7   9
ATOM      9  C   UNL A   1      32.535  23.060  24.175  1.00  0.00     0.099 C 
ATOM     10  C   UNL A   1      32.304  22.248  22.861  1.00  0.00     0.029 C 
BRANCH   9  11
ATOM     11  C   UNL A   1      31.163  23.088  24.926  1.00  0.00     0.123 C 
BRANCH  11  12
ATOM     12  C   UNL A   1      31.051  23.856  26.246  1.00  0.00     0.225 C 
ATOM     13  N   UNL A   1      30.742  25.177  26.386  1.00  0.00    -0.326 N 
ATOM     14  H   UNL A   1      30.575  25.419  27.326  1.00  0.00     0.169 HD
ATOM     15  O   UNL A   1      31.233  23.236  27.304  1.00  0.00    -0.275 OA
BRANCH  13  16
ATOM     16  C   UNL A   1      30.599  26.283  25.523  1.00  0.00     0.045 A 
ATOM     17  C   UNL A   1      32.148  27.694  27.029  1.00  0.00     0.048 C 
ATOM     18  C   UNL A   1      31.242  27.511  25.833  1.00  0.00    -0.009 A 
ATOM     19  C   UNL A   1      30.988  28.638  25.012  1.00  0.00     0.046 A 
ATOM     20  Cl  UNL A   1      31.658  30.196  25.369  1.00  0.00    -0.084 Cl
ATOM     21  C   UNL A   1      30.154  28.550  23.901  1.00  0.00     0.021 A 
ATOM     22  C   UNL A   1      29.847  26.197  24.351  1.00  0.00     0.026 A 
ATOM     23  C   UNL A   1      29.605  27.324  23.557  1.00  0.00     0.004 A 
ENDBRANCH  13  16
ENDBRANCH  11  12
ENDBRANCH   9  11
BRANCH   9  24
ATOM     24  C   UNL A   1      33.019  24.468  23.676  1.00  0.00    -0.030 A 
ATOM     25  C   UNL A   1      33.806  25.297  24.502  1.00  0.00     0.005 A 
ATOM     26  C   UNL A   1      32.564  25.034  22.467  1.00  0.00     0.005 A 
ATOM     27  C   UNL A   1      34.061  26.634  24.162  1.00  0.00     0.000 A 
ATOM     28  C   UNL A   1      32.821  26.366  22.126  1.00  0.00     0.000 A 
ATOM     29  C   UNL A   1      33.560  27.170  22.980  1.00  0.00     0.000 A 
ENDBRANCH   9  24
ENDBRANCH   7   9
ENDBRANCH   6   7
ENDBRANCH   5   6
ENDBRANCH   4   5
ENDBRANCH   3   4
ENDBRANCH   2   3
ENDBRANCH   1   2
BRANCH   1  30
ATOM     30  O   UNL A   1      40.471  21.438  26.149  1.00  0.00    -0.377 OA
BRANCH  30  31
ATOM     31  C   UNL A   1      41.846  21.790  26.031  1.00  0.00     0.188 C 
BRANCH  31  32
ATOM     32  C   UNL A   1      42.957  20.725  25.892  1.00  0.00     0.188 C 
BRANCH  32  33
ATOM     33  O   UNL A   1      44.191  21.187  25.375  1.00  0.00    -0.376 OA
BRANCH  33  34
ATOM     34  C   UNL A   1      45.075  21.879  26.240  1.00  0.00     0.202 C 
BRANCH  34  35
ATOM     35  C   UNL A   1      45.700  23.189  25.729  1.00  0.00     0.261 C 
BRANCH  35  36
ATOM     36  O   UNL A   1      45.061  24.400  26.161  1.00  0.00    -0.460 OA
BRANCH  36  37
ATOM     37  C   UNL A   1      44.058  24.863  25.396  1.00  0.00     0.338 C 
ATOM     38  O   UNL A   1      43.801  24.554  24.238  1.00  0.00    -0.246 OA
BRANCH  37  39
ATOM     39  C   UNL A   1      43.186  25.706  26.226  1.00  0.00     0.060 A 
ATOM     40  C   UNL A   1      43.493  27.065  26.366  1.00  0.00     0.016 A 
ATOM     41  C   UNL A   1      42.107  25.144  26.913  1.00  0.00     0.016 A 
ATOM     42  C   UNL A   1      42.768  27.853  27.254  1.00  0.00     0.010 A 
ATOM     43  C   UNL A   1      41.392  25.930  27.818  1.00  0.00     0.010 A 
ATOM     44  C   UNL A   1      41.759  27.272  28.032  1.00  0.00    -0.014 A 
BRANCH  44  45
ATOM     45  C   UNL A   1      41.269  28.004  29.224  1.00  0.00     0.031 A 
ATOM     46  C   UNL A   1      42.032  27.857  30.512  1.00  0.00     0.074 A 
ATOM     47  C   UNL A   1      40.218  28.837  29.149  1.00  0.00     0.049 A 
ATOM     48  N   UNL A   1      41.809  28.405  31.680  1.00  0.00    -0.248 NA
ATOM     49  C   UNL A   1      43.206  26.970  30.479  1.00  0.00     0.031 C 
ATOM     50  C   UNL A   1      39.439  29.098  27.945  1.00  0.00     0.029 A 
ATOM     51  N   UNL A   1      39.632  29.621  30.110  1.00  0.00    -0.354 N 
ATOM     52  C   UNL A   1      42.810  27.927  32.515  1.00  0.00     0.074 A 
ATOM     53  C   UNL A   1      43.616  27.014  31.737  1.00  0.00     0.031 C 
ATOM     54  C   UNL A   1      38.475  29.989  28.234  1.00  0.00     0.029 A 
ATOM     55  C   UNL A   1      38.550  30.331  29.654  1.00  0.00     0.049 A 
ATOM     56  H   UNL A   1      39.957  29.670  31.039  1.00  0.00     0.167 HD
ATOM     57  C   UNL A   1      43.044  28.234  33.813  1.00  0.00     0.037 A 
ATOM     58  C   UNL A   1      37.711  31.151  30.315  1.00  0.00     0.037 A 
ATOM     59  C   UNL A   1      42.237  29.142  34.584  1.00  0.00     0.049 A 
ATOM     60  C   UNL A   1      37.943  31.412  31.782  1.00  0.00     0.074 A 
ATOM     61  C   UNL A   1      42.388  29.523  35.905  1.00  0.00     0.029 A 
ATOM     62  N   UNL A   1      41.117  29.805  34.102  1.00  0.00    -0.354 N 
ATOM     63  N   UNL A   1      38.899  30.971  32.563  1.00  0.00    -0.248 NA
ATOM     64  C   UNL A   1      36.980  32.293  32.458  1.00  0.00     0.031 C 
ATOM     65  C   UNL A   1      41.324  30.366  36.240  1.00  0.00     0.029 A 
ATOM     66  C   UNL A   1      40.552  30.571  35.108  1.00  0.00     0.049 A 
ATOM     67  H   UNL A   1      40.774  29.740  33.181  1.00  0.00     0.167 HD
ATOM     68  C   UNL A   1      38.677  31.548  33.808  1.00  0.00     0.074 A 
ATOM     69  C   UNL A   1      37.499  32.380  33.674  1.00  0.00     0.031 C 
ATOM     70  C   UNL A   1      39.385  31.406  34.956  1.00  0.00     0.037 A 
BRANCH  57  71
ATOM     71  C   UNL A   1      44.201  27.553  34.486  1.00  0.00     0.064 A 
ATOM     72  C   UNL A   1      45.481  28.127  34.524  1.00  0.00     0.173 A 
ATOM     73  C   UNL A   1      44.022  26.313  35.117  1.00  0.00     0.173 A 
ATOM     74  F   UNL A   1      45.713  29.303  33.921  1.00  0.00    -0.203 F 
ATOM     75  C   UNL A   1      46.545  27.470  35.138  1.00  0.00     0.198 A 
ATOM     76  C   UNL A   1      45.079  25.675  35.761  1.00  0.00     0.198 A 
ATOM     77  F   UNL A   1      42.819  25.719  35.114  1.00  0.00    -0.203 F 
ATOM     78  F   UNL A   1      47.771  28.010  35.109  1.00  0.00    -0.200 F 
ATOM     79  C   UNL A   1      46.341  26.249  35.763  1.00  0.00     0.200 A 
ATOM     80  F   UNL A   1      44.876  24.502  36.377  1.00  0.00    -0.200 F 
ATOM     81  F   UNL A   1      47.363  25.620  36.358  1.00  0.00    -0.200 F 
ENDBRANCH  57  71
BRANCH  58  82
ATOM     82  C   UNL A   1      36.572  31.784  29.600  1.00  0.00     0.064 A 
ATOM     83  C   UNL A   1      35.480  31.024  29.156  1.00  0.00     0.173 A 
ATOM     84  C   UNL A   1      36.559  33.160  29.327  1.00  0.00     0.173 A 
ATOM     85  F   UNL A   1      35.456  29.700  29.369  1.00  0.00    -0.203 F 
ATOM     86  C   UNL A   1      34.433  31.611  28.448  1.00  0.00     0.198 A 
ATOM     87  C   UNL A   1      35.496  33.752  28.647  1.00  0.00     0.198 A 
ATOM     88  F   UNL A   1      37.580  33.934  29.726  1.00  0.00    -0.203 F 
ATOM     89  F   UNL A   1      33.429  30.852  27.989  1.00  0.00    -0.200 F 
ATOM     90  C   UNL A   1      34.439  32.975  28.200  1.00  0.00     0.200 A 
ATOM     91  F   UNL A   1      35.501  35.073  28.420  1.00  0.00    -0.200 F 
ATOM     92  F   UNL A   1      33.430  33.540  27.521  1.00  0.00    -0.200 F 
ENDBRANCH  58  82
BRANCH  70  93
ATOM     93  C   UNL A   1      38.945  32.211  36.147  1.00  0.00     0.064 A 
ATOM     94  C   UNL A   1      38.102  31.679  37.134  1.00  0.00     0.173 A 
ATOM     95  C   UNL A   1      39.410  33.524  36.321  1.00  0.00     0.173 A 
ATOM     96  F   UNL A   1      37.620  30.433  37.011  1.00  0.00    -0.203 F 
ATOM     97  C   UNL A   1      37.714  32.443  38.232  1.00  0.00     0.198 A 
ATOM     98  C   UNL A   1      39.050  34.272  37.439  1.00  0.00     0.198 A 
ATOM     99  F   UNL A   1      40.228  34.079  35.414  1.00  0.00    -0.203 F 
ATOM    100  F   UNL A   1      36.863  31.933  39.132  1.00  0.00    -0.200 F 
ATOM    101  C   UNL A   1      38.194  33.734  38.388  1.00  0.00     0.200 A 
ATOM    102  F   UNL A   1      39.532  35.513  37.596  1.00  0.00    -0.200 F 
ATOM    103  F   UNL A   1      37.827  34.465  39.450  1.00  0.00    -0.200 F 
ENDBRANCH  70  93
ENDBRANCH  44  45
ENDBRANCH  37  39
ENDBRANCH  36  37
ENDBRANCH  35  36
ENDBRANCH  34  35
ENDBRANCH  33  34
ENDBRANCH  32  33
ENDBRANCH  31  32
ENDBRANCH  30  31
ENDBRANCH   1  30
TORSDOF 24
ENDMDL
