MODEL 1
REMARK VINA RESULT:      -9.6      0.000      0.000
REMARK SMILES Cc1nc(CSCC(=O)N2CCCC[C@@H]2C(=O)OCCOCCOCCOCCOC(=O)c2ccc(-c3c4nc(c(-c5c(F)c(F)c(F)c(F)c5F)c5ccc([nH]5)c(-c5c(F)c(F)c(F)c(F)c5F)c5nc(c(-c6c(F)c(F)c(F)c(F)c6F)c6ccc3[nH]6)C=C5)C=C4)cc2)cs1
REMARK SMILES IDX 22 1 21 2 20 3 19 4 18 5 16 6 17 7 15 8 10 9 11 10 12 11
REMARK SMILES IDX 14 12 13 13 8 14 9 15 7 16 6 17 5 18 4 19 1 20 2 21 3 22
REMARK SMILES IDX 97 23 96 24 23 25 24 26 25 27 26 28 27 29 28 30 29 31 30 32
REMARK SMILES IDX 31 33 32 34 33 35 34 36 95 37 35 38 94 39 36 40 37 41 38 42
REMARK SMILES IDX 88 43 39 44 93 45 87 46 89 47 40 48 92 49 86 50 85 51 41 53
REMARK SMILES IDX 73 54 53 55 72 56 54 57 57 58 71 59 90 60 55 61 56 62 70 64
REMARK SMILES IDX 91 65 58 66 42 67 43 68 51 69 44 70 45 71 49 72 52 73 46 74
REMARK SMILES IDX 47 75 50 76 48 77 74 78 75 79 83 80 76 81 77 82 81 83 84 84
REMARK SMILES IDX 78 85 79 86 82 87 80 88 59 89 60 90 68 91 61 92 62 93 66 94
REMARK SMILES IDX 69 95 63 96 64 97 67 98 65 99
REMARK H PARENT 89 52 57 63
REMARK Flexibility Score: inf
ROOT
ATOM      1  C   UNL A   1      37.122  22.606  24.723  1.00  0.00     0.188 C 
ENDROOT
BRANCH   1   2
ATOM      2  O   UNL A   1      36.903  23.956  25.110  1.00  0.00    -0.376 OA
BRANCH   2   3
ATOM      3  C   UNL A   1      35.567  24.386  25.313  1.00  0.00     0.202 C 
BRANCH   3   4
ATOM      4  C   UNL A   1      34.692  24.409  24.055  1.00  0.00     0.261 C 
BRANCH   4   5
ATOM      5  O   UNL A   1      33.468  25.168  24.091  1.00  0.00    -0.462 OA
BRANCH   5   6
ATOM      6  C   UNL A   1      33.461  26.522  24.075  1.00  0.00     0.328 C 
ATOM      7  O   UNL A   1      33.678  27.225  23.096  1.00  0.00    -0.250 OA
BRANCH   6   8
ATOM      8  C   UNL A   1      33.262  27.115  25.472  1.00  0.00     0.195 C 
ATOM      9  N   UNL A   1      31.837  27.177  25.839  1.00  0.00    -0.328 N 
ATOM     10  C   UNL A   1      31.508  27.821  27.103  1.00  0.00     0.120 C 
ATOM     11  C   UNL A   1      32.283  29.120  27.337  1.00  0.00     0.022 C 
ATOM     12  C   UNL A   1      34.037  28.411  25.733  1.00  0.00     0.037 C 
ATOM     13  C   UNL A   1      33.779  28.910  27.148  1.00  0.00     0.005 C 
BRANCH   9  14
ATOM     14  C   UNL A   1      30.866  27.169  24.832  1.00  0.00     0.233 C 
ATOM     15  O   UNL A   1      30.678  28.142  24.113  1.00  0.00    -0.274 OA
BRANCH  14  16
ATOM     16  C   UNL A   1      30.127  25.824  24.745  1.00  0.00     0.170 C 
BRANCH  16  17
ATOM     17  S   UNL A   1      30.457  24.674  26.132  1.00  0.00    -0.146 SA
BRANCH  17  18
ATOM     18  C   UNL A   1      30.918  23.209  25.181  1.00  0.00     0.127 C 
BRANCH  18  19
ATOM     19  C   UNL A   1      32.040  22.393  25.736  1.00  0.00     0.061 A 
ATOM     20  C   UNL A   1      34.550  19.878  24.899  1.00  0.00     0.079 C 
ATOM     21  C   UNL A   1      33.699  20.930  25.514  1.00  0.00     0.090 A 
ATOM     22  N   UNL A   1      32.675  21.481  24.905  1.00  0.00    -0.246 NA
ATOM     23  S   UNL A   1      34.011  21.515  27.095  1.00  0.00    -0.127 S 
ATOM     24  C   UNL A   1      32.661  22.563  26.963  1.00  0.00     0.091 A 
ENDBRANCH  18  19
ENDBRANCH  17  18
ENDBRANCH  16  17
ENDBRANCH  14  16
ENDBRANCH   9  14
ENDBRANCH   6   8
ENDBRANCH   5   6
ENDBRANCH   4   5
ENDBRANCH   3   4
ENDBRANCH   2   3
ENDBRANCH   1   2
BRANCH   1  25
ATOM     25  C   UNL A   1      37.862  21.723  25.742  1.00  0.00     0.188 C 
BRANCH  25  26
ATOM     26  O   UNL A   1      39.270  21.529  25.704  1.00  0.00    -0.377 OA
BRANCH  26  27
ATOM     27  C   UNL A   1      40.039  21.810  26.862  1.00  0.00     0.188 C 
BRANCH  27  28
ATOM     28  C   UNL A   1      41.056  20.731  27.252  1.00  0.00     0.188 C 
BRANCH  28  29
ATOM     29  O   UNL A   1      41.413  19.910  26.151  1.00  0.00    -0.376 OA
BRANCH  29  30
ATOM     30  C   UNL A   1      42.311  18.839  26.403  1.00  0.00     0.202 C 
BRANCH  30  31
ATOM     31  C   UNL A   1      43.141  18.252  25.246  1.00  0.00     0.261 C 
BRANCH  31  32
ATOM     32  O   UNL A   1      44.563  18.479  25.242  1.00  0.00    -0.460 OA
BRANCH  32  33
ATOM     33  C   UNL A   1      45.109  19.329  24.349  1.00  0.00     0.338 C 
ATOM     34  O   UNL A   1      45.594  19.053  23.266  1.00  0.00    -0.246 OA
BRANCH  33  35
ATOM     35  C   UNL A   1      44.822  20.708  24.821  1.00  0.00     0.060 A 
ATOM     36  C   UNL A   1      44.602  21.723  23.879  1.00  0.00     0.016 A 
ATOM     37  C   UNL A   1      44.730  20.991  26.187  1.00  0.00     0.016 A 
ATOM     38  C   UNL A   1      44.338  23.030  24.299  1.00  0.00     0.010 A 
ATOM     39  C   UNL A   1      44.495  22.304  26.608  1.00  0.00     0.010 A 
ATOM     40  C   UNL A   1      44.344  23.337  25.666  1.00  0.00    -0.014 A 
BRANCH  40  41
ATOM     41  C   UNL A   1      44.505  24.750  26.095  1.00  0.00     0.031 A 
ATOM     42  C   UNL A   1      45.880  25.354  25.980  1.00  0.00     0.074 A 
ATOM     43  C   UNL A   1      43.482  25.492  26.554  1.00  0.00     0.049 A 
ATOM     44  N   UNL A   1      46.307  26.541  26.325  1.00  0.00    -0.248 NA
ATOM     45  C   UNL A   1      46.915  24.489  25.390  1.00  0.00     0.031 C 
ATOM     46  C   UNL A   1      42.095  25.052  26.667  1.00  0.00     0.029 A 
ATOM     47  N   UNL A   1      43.465  26.786  27.018  1.00  0.00    -0.354 N 
ATOM     48  C   UNL A   1      47.658  26.560  26.000  1.00  0.00     0.074 A 
ATOM     49  C   UNL A   1      47.987  25.260  25.461  1.00  0.00     0.031 C 
ATOM     50  C   UNL A   1      41.361  26.056  27.179  1.00  0.00     0.029 A 
ATOM     51  C   UNL A   1      42.232  27.198  27.459  1.00  0.00     0.049 A 
ATOM     52  H   UNL A   1      44.263  27.363  27.033  1.00  0.00     0.167 HD
ATOM     53  C   UNL A   1      48.547  27.572  26.128  1.00  0.00     0.037 A 
ATOM     54  C   UNL A   1      41.860  28.357  28.039  1.00  0.00     0.037 A 
ATOM     55  C   UNL A   1      48.227  28.861  26.678  1.00  0.00     0.049 A 
ATOM     56  C   UNL A   1      42.889  29.440  28.264  1.00  0.00     0.074 A 
ATOM     57  C   UNL A   1      49.054  29.956  26.850  1.00  0.00     0.029 A 
ATOM     58  N   UNL A   1      46.977  29.223  27.158  1.00  0.00    -0.354 N 
ATOM     59  N   UNL A   1      44.159  29.461  27.938  1.00  0.00    -0.248 NA
ATOM     60  C   UNL A   1      42.428  30.663  28.939  1.00  0.00     0.031 C 
ATOM     61  C   UNL A   1      48.318  30.963  27.484  1.00  0.00     0.029 A 
ATOM     62  C   UNL A   1      47.016  30.515  27.653  1.00  0.00     0.049 A 
ATOM     63  H   UNL A   1      46.179  28.645  27.148  1.00  0.00     0.167 HD
ATOM     64  C   UNL A   1      44.640  30.702  28.338  1.00  0.00     0.074 A 
ATOM     65  C   UNL A   1      43.522  31.412  28.923  1.00  0.00     0.031 C 
ATOM     66  C   UNL A   1      45.893  31.211  28.227  1.00  0.00     0.037 A 
BRANCH  53  67
ATOM     67  C   UNL A   1      49.960  27.298  25.703  1.00  0.00     0.064 A 
ATOM     68  C   UNL A   1      50.373  27.450  24.370  1.00  0.00     0.173 A 
ATOM     69  C   UNL A   1      50.910  26.865  26.638  1.00  0.00     0.173 A 
ATOM     70  F   UNL A   1      49.496  27.840  23.431  1.00  0.00    -0.203 F 
ATOM     71  C   UNL A   1      51.674  27.142  23.983  1.00  0.00     0.198 A 
ATOM     72  C   UNL A   1      52.220  26.589  26.256  1.00  0.00     0.198 A 
ATOM     73  F   UNL A   1      50.568  26.702  27.926  1.00  0.00    -0.203 F 
ATOM     74  F   UNL A   1      52.029  27.232  22.695  1.00  0.00    -0.200 F 
ATOM     75  C   UNL A   1      52.597  26.717  24.927  1.00  0.00     0.200 A 
ATOM     76  F   UNL A   1      53.113  26.189  27.170  1.00  0.00    -0.200 F 
ATOM     77  F   UNL A   1      53.850  26.419  24.554  1.00  0.00    -0.200 F 
ENDBRANCH  53  67
BRANCH  54  78
ATOM     78  C   UNL A   1      40.449  28.561  28.459  1.00  0.00     0.064 A 
ATOM     79  C   UNL A   1      39.495  29.072  27.567  1.00  0.00     0.173 A 
ATOM     80  C   UNL A   1      40.027  28.270  29.766  1.00  0.00     0.173 A 
ATOM     81  F   UNL A   1      39.855  29.397  26.317  1.00  0.00    -0.203 F 
ATOM     82  C   UNL A   1      38.178  29.291  27.966  1.00  0.00     0.198 A 
ATOM     83  C   UNL A   1      38.704  28.465  30.156  1.00  0.00     0.198 A 
ATOM     84  F   UNL A   1      40.903  27.792  30.662  1.00  0.00    -0.203 F 
ATOM     85  F   UNL A   1      37.298  29.818  27.106  1.00  0.00    -0.200 F 
ATOM     86  C   UNL A   1      37.781  28.981  29.259  1.00  0.00     0.200 A 
ATOM     87  F   UNL A   1      38.325  28.160  31.405  1.00  0.00    -0.200 F 
ATOM     88  F   UNL A   1      36.514  29.188  29.642  1.00  0.00    -0.200 F 
ENDBRANCH  54  78
BRANCH  66  89
ATOM     89  C   UNL A   1      46.120  32.616  28.709  1.00  0.00     0.064 A 
ATOM     90  C   UNL A   1      45.917  33.725  27.875  1.00  0.00     0.173 A 
ATOM     91  C   UNL A   1      46.492  32.856  30.040  1.00  0.00     0.173 A 
ATOM     92  F   UNL A   1      45.573  33.551  26.590  1.00  0.00    -0.203 F 
ATOM     93  C   UNL A   1      46.103  35.021  28.351  1.00  0.00     0.198 A 
ATOM     94  C   UNL A   1      46.646  34.154  30.522  1.00  0.00     0.198 A 
ATOM     95  F   UNL A   1      46.688  31.831  30.883  1.00  0.00    -0.203 F 
ATOM     96  F   UNL A   1      45.947  36.065  27.524  1.00  0.00    -0.200 F 
ATOM     97  C   UNL A   1      46.459  35.234  29.675  1.00  0.00     0.200 A 
ATOM     98  F   UNL A   1      46.973  34.357  31.805  1.00  0.00    -0.200 F 
ATOM     99  F   UNL A   1      46.626  36.483  30.133  1.00  0.00    -0.200 F 
ENDBRANCH  66  89
ENDBRANCH  40  41
ENDBRANCH  33  35
ENDBRANCH  32  33
ENDBRANCH  31  32
ENDBRANCH  30  31
ENDBRANCH  29  30
ENDBRANCH  28  29
ENDBRANCH  27  28
ENDBRANCH  26  27
ENDBRANCH  25  26
ENDBRANCH   1  25
TORSDOF 25
ENDMDL
MODEL 2
REMARK VINA RESULT:      -9.1      6.436     11.960
REMARK SMILES Cc1nc(CSCC(=O)N2CCCC[C@@H]2C(=O)OCCOCCOCCOCCOC(=O)c2ccc(-c3c4nc(c(-c5c(F)c(F)c(F)c(F)c5F)c5ccc([nH]5)c(-c5c(F)c(F)c(F)c(F)c5F)c5nc(c(-c6c(F)c(F)c(F)c(F)c6F)c6ccc3[nH]6)C=C5)C=C4)cc2)cs1
REMARK SMILES IDX 22 1 21 2 20 3 19 4 18 5 16 6 17 7 15 8 10 9 11 10 12 11
REMARK SMILES IDX 14 12 13 13 8 14 9 15 7 16 6 17 5 18 4 19 1 20 2 21 3 22
REMARK SMILES IDX 97 23 96 24 23 25 24 26 25 27 26 28 27 29 28 30 29 31 30 32
REMARK SMILES IDX 31 33 32 34 33 35 34 36 95 37 35 38 94 39 36 40 37 41 38 42
REMARK SMILES IDX 88 43 39 44 93 45 87 46 89 47 40 48 92 49 86 50 85 51 41 53
REMARK SMILES IDX 73 54 53 55 72 56 54 57 57 58 71 59 90 60 55 61 56 62 70 64
REMARK SMILES IDX 91 65 58 66 42 67 43 68 51 69 44 70 45 71 49 72 52 73 46 74
REMARK SMILES IDX 47 75 50 76 48 77 74 78 75 79 83 80 76 81 77 82 81 83 84 84
REMARK SMILES IDX 78 85 79 86 82 87 80 88 59 89 60 90 68 91 61 92 62 93 66 94
REMARK SMILES IDX 69 95 63 96 64 97 67 98 65 99
REMARK H PARENT 89 52 57 63
REMARK Flexibility Score: inf
ROOT
ATOM      1  C   UNL A   1      32.692  29.705  25.194  1.00  0.00     0.188 C 
ENDROOT
BRANCH   1   2
ATOM      2  O   UNL A   1      31.284  29.520  25.157  1.00  0.00    -0.376 OA
BRANCH   2   3
ATOM      3  C   UNL A   1      30.616  29.703  23.919  1.00  0.00     0.202 C 
BRANCH   3   4
ATOM      4  C   UNL A   1      29.718  28.538  23.485  1.00  0.00     0.261 C 
BRANCH   4   5
ATOM      5  O   UNL A   1      30.327  27.430  22.795  1.00  0.00    -0.462 OA
BRANCH   5   6
ATOM      6  C   UNL A   1      30.589  26.255  23.414  1.00  0.00     0.328 C 
ATOM      7  O   UNL A   1      29.819  25.305  23.499  1.00  0.00    -0.250 OA
BRANCH   6   8
ATOM      8  C   UNL A   1      31.945  26.266  24.124  1.00  0.00     0.195 C 
ATOM      9  N   UNL A   1      33.030  25.822  23.232  1.00  0.00    -0.328 N 
ATOM     10  C   UNL A   1      34.355  25.686  23.820  1.00  0.00     0.120 C 
ATOM     11  C   UNL A   1      34.339  25.005  25.190  1.00  0.00     0.022 C 
ATOM     12  C   UNL A   1      31.950  25.598  25.503  1.00  0.00     0.037 C 
ATOM     13  C   UNL A   1      33.338  25.671  26.125  1.00  0.00     0.005 C 
BRANCH   9  14
ATOM     14  C   UNL A   1      32.724  25.042  22.112  1.00  0.00     0.233 C 
ATOM     15  O   UNL A   1      32.284  25.538  21.083  1.00  0.00    -0.274 OA
BRANCH  14  16
ATOM     16  C   UNL A   1      33.027  23.552  22.339  1.00  0.00     0.170 C 
BRANCH  16  17
ATOM     17  S   UNL A   1      31.672  22.603  23.126  1.00  0.00    -0.146 SA
BRANCH  17  18
ATOM     18  C   UNL A   1      32.602  21.131  23.610  1.00  0.00     0.127 C 
BRANCH  18  19
ATOM     19  C   UNL A   1      33.518  21.289  24.780  1.00  0.00     0.061 A 
ATOM     20  C   UNL A   1      37.012  21.707  25.750  1.00  0.00     0.079 C 
ATOM     21  C   UNL A   1      35.531  21.612  25.665  1.00  0.00     0.090 A 
ATOM     22  N   UNL A   1      34.884  21.368  24.549  1.00  0.00    -0.246 NA
ATOM     23  S   UNL A   1      34.545  21.828  27.051  1.00  0.00    -0.127 S 
ATOM     24  C   UNL A   1      33.153  21.550  26.090  1.00  0.00     0.091 A 
ENDBRANCH  18  19
ENDBRANCH  17  18
ENDBRANCH  16  17
ENDBRANCH  14  16
ENDBRANCH   9  14
ENDBRANCH   6   8
ENDBRANCH   5   6
ENDBRANCH   4   5
ENDBRANCH   3   4
ENDBRANCH   2   3
ENDBRANCH   1   2
BRANCH   1  25
ATOM     25  C   UNL A   1      33.385  29.355  26.522  1.00  0.00     0.188 C 
BRANCH  25  26
ATOM     26  O   UNL A   1      33.432  30.257  27.620  1.00  0.00    -0.377 OA
BRANCH  26  27
ATOM     27  C   UNL A   1      33.403  31.653  27.372  1.00  0.00     0.188 C 
BRANCH  27  28
ATOM     28  C   UNL A   1      34.515  32.463  28.047  1.00  0.00     0.188 C 
BRANCH  28  29
ATOM     29  O   UNL A   1      34.522  33.818  27.623  1.00  0.00    -0.376 OA
BRANCH  29  30
ATOM     30  C   UNL A   1      34.541  34.815  28.634  1.00  0.00     0.202 C 
BRANCH  30  31
ATOM     31  C   UNL A   1      33.218  35.453  29.099  1.00  0.00     0.261 C 
BRANCH  31  32
ATOM     32  O   UNL A   1      32.603  34.953  30.301  1.00  0.00    -0.460 OA
BRANCH  32  33
ATOM     33  C   UNL A   1      32.782  35.599  31.471  1.00  0.00     0.338 C 
ATOM     34  O   UNL A   1      32.056  36.440  31.969  1.00  0.00    -0.246 OA
BRANCH  33  35
ATOM     35  C   UNL A   1      33.922  34.947  32.165  1.00  0.00     0.060 A 
ATOM     36  C   UNL A   1      35.154  35.614  32.235  1.00  0.00     0.016 A 
ATOM     37  C   UNL A   1      33.766  33.700  32.779  1.00  0.00     0.016 A 
ATOM     38  C   UNL A   1      36.243  35.017  32.876  1.00  0.00     0.010 A 
ATOM     39  C   UNL A   1      34.864  33.089  33.395  1.00  0.00     0.010 A 
ATOM     40  C   UNL A   1      36.118  33.725  33.406  1.00  0.00    -0.014 A 
BRANCH  40  41
ATOM     41  C   UNL A   1      37.342  32.929  33.681  1.00  0.00     0.031 A 
ATOM     42  C   UNL A   1      38.057  33.190  34.980  1.00  0.00     0.074 A 
ATOM     43  C   UNL A   1      37.807  31.994  32.834  1.00  0.00     0.049 A 
ATOM     44  N   UNL A   1      39.166  32.677  35.446  1.00  0.00    -0.248 NA
ATOM     45  C   UNL A   1      37.426  34.174  35.876  1.00  0.00     0.031 C 
ATOM     46  C   UNL A   1      37.186  31.604  31.573  1.00  0.00     0.029 A 
ATOM     47  N   UNL A   1      38.928  31.203  32.918  1.00  0.00    -0.354 N 
ATOM     48  C   UNL A   1      39.365  33.278  36.683  1.00  0.00     0.074 A 
ATOM     49  C   UNL A   1      38.284  34.216  36.881  1.00  0.00     0.031 C 
ATOM     50  C   UNL A   1      37.940  30.653  30.992  1.00  0.00     0.029 A 
ATOM     51  C   UNL A   1      39.113  30.391  31.827  1.00  0.00     0.049 A 
ATOM     52  H   UNL A   1      39.541  31.217  33.689  1.00  0.00     0.167 HD
ATOM     53  C   UNL A   1      40.355  33.063  37.581  1.00  0.00     0.037 A 
ATOM     54  C   UNL A   1      40.125  29.550  31.533  1.00  0.00     0.037 A 
ATOM     55  C   UNL A   1      41.439  32.143  37.380  1.00  0.00     0.049 A 
ATOM     56  C   UNL A   1      41.272  29.396  32.504  1.00  0.00     0.074 A 
ATOM     57  C   UNL A   1      42.492  31.849  38.228  1.00  0.00     0.029 A 
ATOM     58  N   UNL A   1      41.617  31.373  36.239  1.00  0.00    -0.354 N 
ATOM     59  N   UNL A   1      41.446  29.951  33.679  1.00  0.00    -0.248 NA
ATOM     60  C   UNL A   1      42.364  28.495  32.104  1.00  0.00     0.031 C 
ATOM     61  C   UNL A   1      43.336  30.942  37.578  1.00  0.00     0.029 A 
ATOM     62  C   UNL A   1      42.777  30.626  36.349  1.00  0.00     0.049 A 
ATOM     63  H   UNL A   1      41.007  31.361  35.465  1.00  0.00     0.167 HD
ATOM     64  C   UNL A   1      42.644  29.447  34.170  1.00  0.00     0.074 A 
ATOM     65  C   UNL A   1      43.152  28.533  33.169  1.00  0.00     0.031 C 
ATOM     66  C   UNL A   1      43.267  29.714  35.346  1.00  0.00     0.037 A 
BRANCH  53  67
ATOM     67  C   UNL A   1      40.321  33.878  38.841  1.00  0.00     0.064 A 
ATOM     68  C   UNL A   1      39.587  33.469  39.965  1.00  0.00     0.173 A 
ATOM     69  C   UNL A   1      41.022  35.089  38.920  1.00  0.00     0.173 A 
ATOM     70  F   UNL A   1      38.881  32.328  39.933  1.00  0.00    -0.203 F 
ATOM     71  C   UNL A   1      39.526  34.262  41.108  1.00  0.00     0.198 A 
ATOM     72  C   UNL A   1      40.986  35.865  40.075  1.00  0.00     0.198 A 
ATOM     73  F   UNL A   1      41.738  35.527  37.873  1.00  0.00    -0.203 F 
ATOM     74  F   UNL A   1      38.768  33.884  42.145  1.00  0.00    -0.200 F 
ATOM     75  C   UNL A   1      40.230  35.456  41.164  1.00  0.00     0.200 A 
ATOM     76  F   UNL A   1      41.674  37.013  40.132  1.00  0.00    -0.200 F 
ATOM     77  F   UNL A   1      40.169  36.221  42.263  1.00  0.00    -0.200 F 
ENDBRANCH  53  67
BRANCH  54  78
ATOM     78  C   UNL A   1      40.112  28.786  30.257  1.00  0.00     0.064 A 
ATOM     79  C   UNL A   1      40.701  29.307  29.096  1.00  0.00     0.173 A 
ATOM     80  C   UNL A   1      39.492  27.530  30.165  1.00  0.00     0.173 A 
ATOM     81  F   UNL A   1      41.276  30.518  29.124  1.00  0.00    -0.203 F 
ATOM     82  C   UNL A   1      40.665  28.607  27.891  1.00  0.00     0.198 A 
ATOM     83  C   UNL A   1      39.480  26.819  28.966  1.00  0.00     0.198 A 
ATOM     84  F   UNL A   1      38.903  26.992  31.243  1.00  0.00    -0.203 F 
ATOM     85  F   UNL A   1      41.200  29.146  26.789  1.00  0.00    -0.200 F 
ATOM     86  C   UNL A   1      40.061  27.360  27.829  1.00  0.00     0.200 A 
ATOM     87  F   UNL A   1      38.898  25.612  28.912  1.00  0.00    -0.200 F 
ATOM     88  F   UNL A   1      40.029  26.685  26.672  1.00  0.00    -0.200 F 
ENDBRANCH  54  78
BRANCH  66  89
ATOM     89  C   UNL A   1      44.545  28.981  35.640  1.00  0.00     0.064 A 
ATOM     90  C   UNL A   1      45.791  29.474  35.228  1.00  0.00     0.173 A 
ATOM     91  C   UNL A   1      44.525  27.796  36.392  1.00  0.00     0.173 A 
ATOM     92  F   UNL A   1      45.866  30.596  34.496  1.00  0.00    -0.203 F 
ATOM     93  C   UNL A   1      46.967  28.795  35.537  1.00  0.00     0.198 A 
ATOM     94  C   UNL A   1      45.705  27.137  36.727  1.00  0.00     0.198 A 
ATOM     95  F   UNL A   1      43.360  27.287  36.820  1.00  0.00    -0.203 F 
ATOM     96  F   UNL A   1      48.144  29.262  35.095  1.00  0.00    -0.200 F 
ATOM     97  C   UNL A   1      46.924  27.633  36.293  1.00  0.00     0.200 A 
ATOM     98  F   UNL A   1      45.661  26.024  37.472  1.00  0.00    -0.200 F 
ATOM     99  F   UNL A   1      48.058  26.988  36.599  1.00  0.00    -0.200 F 
ENDBRANCH  66  89
ENDBRANCH  40  41
ENDBRANCH  33  35
ENDBRANCH  32  33
ENDBRANCH  31  32
ENDBRANCH  30  31
ENDBRANCH  29  30
ENDBRANCH  28  29
ENDBRANCH  27  28
ENDBRANCH  26  27
ENDBRANCH  25  26
ENDBRANCH   1  25
TORSDOF 25
ENDMDL
MODEL 3
REMARK VINA RESULT:      -9.0      6.814     12.138
REMARK SMILES Cc1nc(CSCC(=O)N2CCCC[C@@H]2C(=O)OCCOCCOCCOCCOC(=O)c2ccc(-c3c4nc(c(-c5c(F)c(F)c(F)c(F)c5F)c5ccc([nH]5)c(-c5c(F)c(F)c(F)c(F)c5F)c5nc(c(-c6c(F)c(F)c(F)c(F)c6F)c6ccc3[nH]6)C=C5)C=C4)cc2)cs1
REMARK SMILES IDX 22 1 21 2 20 3 19 4 18 5 16 6 17 7 15 8 10 9 11 10 12 11
REMARK SMILES IDX 14 12 13 13 8 14 9 15 7 16 6 17 5 18 4 19 1 20 2 21 3 22
REMARK SMILES IDX 97 23 96 24 23 25 24 26 25 27 26 28 27 29 28 30 29 31 30 32
REMARK SMILES IDX 31 33 32 34 33 35 34 36 95 37 35 38 94 39 36 40 37 41 38 42
REMARK SMILES IDX 88 43 39 44 93 45 87 46 89 47 40 48 92 49 86 50 85 51 41 53
REMARK SMILES IDX 73 54 53 55 72 56 54 57 57 58 71 59 90 60 55 61 56 62 70 64
REMARK SMILES IDX 91 65 58 66 42 67 43 68 51 69 44 70 45 71 49 72 52 73 46 74
REMARK SMILES IDX 47 75 50 76 48 77 74 78 75 79 83 80 76 81 77 82 81 83 84 84
REMARK SMILES IDX 78 85 79 86 82 87 80 88 59 89 60 90 68 91 61 92 62 93 66 94
REMARK SMILES IDX 69 95 63 96 64 97 67 98 65 99
REMARK H PARENT 89 52 57 63
REMARK Flexibility Score: inf
ROOT
ATOM      1  C   UNL A   1      36.850  32.942  34.378  1.00  0.00     0.188 C 
ENDROOT
BRANCH   1   2
ATOM      2  O   UNL A   1      37.607  33.246  33.213  1.00  0.00    -0.376 OA
BRANCH   2   3
ATOM      3  C   UNL A   1      39.021  33.181  33.298  1.00  0.00     0.202 C 
BRANCH   3   4
ATOM      4  C   UNL A   1      39.716  32.531  32.096  1.00  0.00     0.261 C 
BRANCH   4   5
ATOM      5  O   UNL A   1      40.183  31.175  32.231  1.00  0.00    -0.462 OA
BRANCH   5   6
ATOM      6  C   UNL A   1      39.370  30.112  32.031  1.00  0.00     0.328 C 
ATOM      7  O   UNL A   1      38.603  29.632  32.858  1.00  0.00    -0.250 OA
BRANCH   6   8
ATOM      8  C   UNL A   1      39.589  29.468  30.659  1.00  0.00     0.195 C 
ATOM      9  N   UNL A   1      38.479  29.762  29.736  1.00  0.00    -0.328 N 
ATOM     10  C   UNL A   1      38.517  29.118  28.431  1.00  0.00     0.120 C 
ATOM     11  C   UNL A   1      38.914  27.642  28.499  1.00  0.00     0.022 C 
ATOM     12  C   UNL A   1      39.998  27.992  30.703  1.00  0.00     0.037 C 
ATOM     13  C   UNL A   1      40.199  27.453  29.294  1.00  0.00     0.005 C 
BRANCH   9  14
ATOM     14  C   UNL A   1      37.232  30.127  30.255  1.00  0.00     0.233 C 
ATOM     15  O   UNL A   1      36.500  29.312  30.800  1.00  0.00    -0.274 OA
BRANCH  14  16
ATOM     16  C   UNL A   1      36.940  31.625  30.073  1.00  0.00     0.170 C 
BRANCH  16  17
ATOM     17  S   UNL A   1      35.354  32.192  30.794  1.00  0.00    -0.146 SA
BRANCH  17  18
ATOM     18  C   UNL A   1      34.586  32.859  29.301  1.00  0.00     0.127 C 
BRANCH  18  19
ATOM     19  C   UNL A   1      33.966  34.213  29.431  1.00  0.00     0.061 A 
ATOM     20  C   UNL A   1      32.529  36.579  31.810  1.00  0.00     0.079 C 
ATOM     21  C   UNL A   1      33.106  35.869  30.639  1.00  0.00     0.090 A 
ATOM     22  N   UNL A   1      33.522  34.624  30.680  1.00  0.00    -0.246 NA
ATOM     23  S   UNL A   1      33.279  36.649  29.123  1.00  0.00    -0.127 S 
ATOM     24  C   UNL A   1      33.936  35.207  28.468  1.00  0.00     0.091 A 
ENDBRANCH  18  19
ENDBRANCH  17  18
ENDBRANCH  16  17
ENDBRANCH  14  16
ENDBRANCH   9  14
ENDBRANCH   6   8
ENDBRANCH   5   6
ENDBRANCH   4   5
ENDBRANCH   3   4
ENDBRANCH   2   3
ENDBRANCH   1   2
BRANCH   1  25
ATOM     25  C   UNL A   1      37.630  32.926  35.704  1.00  0.00     0.188 C 
BRANCH  25  26
ATOM     26  O   UNL A   1      36.988  33.016  36.969  1.00  0.00    -0.377 OA
BRANCH  26  27
ATOM     27  C   UNL A   1      37.735  32.754  38.146  1.00  0.00     0.188 C 
BRANCH  27  28
ATOM     28  C   UNL A   1      39.238  33.035  38.044  1.00  0.00     0.188 C 
BRANCH  28  29
ATOM     29  O   UNL A   1      39.753  33.620  39.231  1.00  0.00    -0.376 OA
BRANCH  29  30
ATOM     30  C   UNL A   1      38.880  34.459  39.973  1.00  0.00     0.202 C 
BRANCH  30  31
ATOM     31  C   UNL A   1      39.102  35.984  39.967  1.00  0.00     0.261 C 
BRANCH  31  32
ATOM     32  O   UNL A   1      39.613  36.595  38.768  1.00  0.00    -0.460 OA
BRANCH  32  33
ATOM     33  C   UNL A   1      40.927  36.878  38.661  1.00  0.00     0.338 C 
ATOM     34  O   UNL A   1      41.640  37.406  39.496  1.00  0.00    -0.246 OA
BRANCH  33  35
ATOM     35  C   UNL A   1      41.417  36.233  37.416  1.00  0.00     0.060 A 
ATOM     36  C   UNL A   1      40.522  36.017  36.358  1.00  0.00     0.016 A 
ATOM     37  C   UNL A   1      42.762  35.878  37.277  1.00  0.00     0.016 A 
ATOM     38  C   UNL A   1      40.959  35.404  35.180  1.00  0.00     0.010 A 
ATOM     39  C   UNL A   1      43.193  35.237  36.110  1.00  0.00     0.010 A 
ATOM     40  C   UNL A   1      42.283  34.957  35.076  1.00  0.00    -0.014 A 
BRANCH  40  41
ATOM     41  C   UNL A   1      42.631  33.942  34.048  1.00  0.00     0.031 A 
ATOM     42  C   UNL A   1      42.906  34.439  32.654  1.00  0.00     0.074 A 
ATOM     43  C   UNL A   1      42.722  32.630  34.323  1.00  0.00     0.049 A 
ATOM     44  N   UNL A   1      43.182  33.772  31.563  1.00  0.00    -0.248 NA
ATOM     45  C   UNL A   1      42.861  35.900  32.470  1.00  0.00     0.031 C 
ATOM     46  C   UNL A   1      42.534  32.021  35.636  1.00  0.00     0.029 A 
ATOM     47  N   UNL A   1      42.996  31.568  33.494  1.00  0.00    -0.354 N 
ATOM     48  C   UNL A   1      43.337  34.729  30.568  1.00  0.00     0.074 A 
ATOM     49  C   UNL A   1      43.094  36.019  31.174  1.00  0.00     0.031 C 
ATOM     50  C   UNL A   1      42.687  30.689  35.523  1.00  0.00     0.029 A 
ATOM     51  C   UNL A   1      42.952  30.350  34.124  1.00  0.00     0.049 A 
ATOM     52  H   UNL A   1      43.202  31.672  32.537  1.00  0.00     0.167 HD
ATOM     53  C   UNL A   1      43.663  34.555  29.267  1.00  0.00     0.037 A 
ATOM     54  C   UNL A   1      43.092  29.106  33.622  1.00  0.00     0.037 A 
ATOM     55  C   UNL A   1      43.890  33.273  28.658  1.00  0.00     0.049 A 
ATOM     56  C   UNL A   1      43.359  28.926  32.146  1.00  0.00     0.074 A 
ATOM     57  C   UNL A   1      44.228  32.987  27.347  1.00  0.00     0.029 A 
ATOM     58  N   UNL A   1      43.790  32.059  29.320  1.00  0.00    -0.354 N 
ATOM     59  N   UNL A   1      43.523  29.834  31.214  1.00  0.00    -0.248 NA
ATOM     60  C   UNL A   1      43.459  27.543  31.653  1.00  0.00     0.031 C 
ATOM     61  C   UNL A   1      44.278  31.596  27.203  1.00  0.00     0.029 A 
ATOM     62  C   UNL A   1      44.031  31.018  28.440  1.00  0.00     0.049 A 
ATOM     63  H   UNL A   1      43.578  31.953  30.277  1.00  0.00     0.167 HD
ATOM     64  C   UNL A   1      43.776  29.138  30.037  1.00  0.00     0.074 A 
ATOM     65  C   UNL A   1      43.751  27.730  30.374  1.00  0.00     0.031 C 
ATOM     66  C   UNL A   1      44.010  29.621  28.791  1.00  0.00     0.037 A 
BRANCH  53  67
ATOM     67  C   UNL A   1      43.746  35.786  28.413  1.00  0.00     0.064 A 
ATOM     68  C   UNL A   1      44.966  36.437  28.172  1.00  0.00     0.173 A 
ATOM     69  C   UNL A   1      42.589  36.330  27.838  1.00  0.00     0.173 A 
ATOM     70  F   UNL A   1      46.101  35.971  28.718  1.00  0.00    -0.203 F 
ATOM     71  C   UNL A   1      45.018  37.608  27.420  1.00  0.00     0.198 A 
ATOM     72  C   UNL A   1      42.647  37.482  27.059  1.00  0.00     0.198 A 
ATOM     73  F   UNL A   1      41.396  35.747  28.037  1.00  0.00    -0.203 F 
ATOM     74  F   UNL A   1      46.183  38.247  27.257  1.00  0.00    -0.200 F 
ATOM     75  C   UNL A   1      43.860  38.125  26.860  1.00  0.00     0.200 A 
ATOM     76  F   UNL A   1      41.529  37.975  26.510  1.00  0.00    -0.200 F 
ATOM     77  F   UNL A   1      43.909  39.253  26.137  1.00  0.00    -0.200 F 
ENDBRANCH  53  67
BRANCH  54  78
ATOM     78  C   UNL A   1      42.977  27.924  34.515  1.00  0.00     0.064 A 
ATOM     79  C   UNL A   1      44.062  27.496  35.293  1.00  0.00     0.173 A 
ATOM     80  C   UNL A   1      41.787  27.183  34.595  1.00  0.00     0.173 A 
ATOM     81  F   UNL A   1      45.231  28.150  35.227  1.00  0.00    -0.203 F 
ATOM     82  C   UNL A   1      43.966  26.371  36.110  1.00  0.00     0.198 A 
ATOM     83  C   UNL A   1      41.684  26.074  35.432  1.00  0.00     0.198 A 
ATOM     84  F   UNL A   1      40.723  27.542  33.862  1.00  0.00    -0.203 F 
ATOM     85  F   UNL A   1      45.031  25.961  36.811  1.00  0.00    -0.200 F 
ATOM     86  C   UNL A   1      42.775  25.664  36.185  1.00  0.00     0.200 A 
ATOM     87  F   UNL A   1      40.530  25.396  35.503  1.00  0.00    -0.200 F 
ATOM     88  F   UNL A   1      42.681  24.585  36.972  1.00  0.00    -0.200 F 
ENDBRANCH  54  78
BRANCH  66  89
ATOM     89  C   UNL A   1      44.302  28.627  27.702  1.00  0.00     0.064 A 
ATOM     90  C   UNL A   1      43.320  28.229  26.783  1.00  0.00     0.173 A 
ATOM     91  C   UNL A   1      45.597  28.109  27.545  1.00  0.00     0.173 A 
ATOM     92  F   UNL A   1      42.064  28.684  26.897  1.00  0.00    -0.203 F 
ATOM     93  C   UNL A   1      43.620  27.330  25.762  1.00  0.00     0.198 A 
ATOM     94  C   UNL A   1      45.901  27.236  26.504  1.00  0.00     0.198 A 
ATOM     95  F   UNL A   1      46.575  28.466  28.390  1.00  0.00    -0.203 F 
ATOM     96  F   UNL A   1      42.655  26.929  24.922  1.00  0.00    -0.200 F 
ATOM     97  C   UNL A   1      44.910  26.841  25.618  1.00  0.00     0.200 A 
ATOM     98  F   UNL A   1      47.151  26.779  26.357  1.00  0.00    -0.200 F 
ATOM     99  F   UNL A   1      45.198  25.985  24.628  1.00  0.00    -0.200 F 
ENDBRANCH  66  89
ENDBRANCH  40  41
ENDBRANCH  33  35
ENDBRANCH  32  33
ENDBRANCH  31  32
ENDBRANCH  30  31
ENDBRANCH  29  30
ENDBRANCH  28  29
ENDBRANCH  27  28
ENDBRANCH  26  27
ENDBRANCH  25  26
ENDBRANCH   1  25
TORSDOF 25
ENDMDL
