MODEL 1
REMARK VINA RESULT:      -9.8      0.000      0.000
REMARK SMILES O=C(OCCOCCOCCOCCOC(=O)c1ccc(NC(=O)c2ccc([N+](=O)[O-])cc2Cl)cc1Cl)c1ccc(-c2c3nc(c(-c4c(F)c(F)c(F)c(F)c4F)c4ccc([nH]4)c(-c4c(F)c(F)c(F)c(F)c4F)c4nc(c(-c5c(F)c(F)c(F)c(F)c5F)c5ccc2[nH]5)C=C4)C=C3)cc1
REMARK SMILES IDX 10 1 9 2 8 3 7 4 6 5 5 6 4 7 3 8 2 9 1 10 38 11 39 12 100 13
REMARK SMILES IDX 40 14 99 15 41 16 42 17 43 18 93 19 44 20 98 21 92 22 94 23
REMARK SMILES IDX 45 24 97 25 91 26 90 27 46 29 78 30 58 31 77 32 59 33 62 34
REMARK SMILES IDX 76 35 95 36 60 37 61 38 75 40 96 41 63 42 47 43 48 44 56 45
REMARK SMILES IDX 49 46 50 47 54 48 57 49 51 50 52 51 55 52 53 53 79 54 80 55
REMARK SMILES IDX 88 56 81 57 82 58 86 59 89 60 83 61 84 62 87 63 85 64 64 65
REMARK SMILES IDX 65 66 73 67 66 68 67 69 71 70 74 71 68 72 69 73 72 74 70 75
REMARK SMILES IDX 11 76 12 77 13 78 14 79 15 80 16 81 17 82 18 83 19 84 36 85
REMARK SMILES IDX 20 86 35 87 37 88 21 89 22 90 23 91 24 93 25 94 26 95 33 96
REMARK SMILES IDX 27 97 32 98 34 99 28 100 29 101 30 102 31 103
REMARK H PARENT 94 28 62 39 22 92
REMARK Flexibility Score: inf
ROOT
ATOM      1  C   UNL A   1      41.176  21.995  26.305  1.00  0.00     0.188 C 
ENDROOT
BRANCH   1   2
ATOM      2  O   UNL A   1      41.612  20.808  26.952  1.00  0.00    -0.377 OA
BRANCH   2   3
ATOM      3  C   UNL A   1      41.414  19.582  26.253  1.00  0.00     0.188 C 
BRANCH   3   4
ATOM      4  C   UNL A   1      42.637  18.666  26.192  1.00  0.00     0.188 C 
BRANCH   4   5
ATOM      5  O   UNL A   1      43.274  18.747  24.913  1.00  0.00    -0.376 OA
BRANCH   5   6
ATOM      6  C   UNL A   1      44.700  18.790  24.955  1.00  0.00     0.202 C 
BRANCH   6   7
ATOM      7  C   UNL A   1      45.308  20.061  24.357  1.00  0.00     0.261 C 
BRANCH   7   8
ATOM      8  O   UNL A   1      44.397  21.168  24.401  1.00  0.00    -0.460 OA
BRANCH   8   9
ATOM      9  C   UNL A   1      44.690  22.491  24.348  1.00  0.00     0.338 C 
ATOM     10  O   UNL A   1      45.062  22.962  23.273  1.00  0.00    -0.246 OA
BRANCH   9  11
ATOM     11  C   UNL A   1      44.571  23.431  25.510  1.00  0.00     0.060 A 
ATOM     12  C   UNL A   1      44.511  24.824  25.432  1.00  0.00     0.016 A 
ATOM     13  C   UNL A   1      44.458  22.847  26.785  1.00  0.00     0.016 A 
ATOM     14  C   UNL A   1      44.435  25.618  26.567  1.00  0.00     0.010 A 
ATOM     15  C   UNL A   1      44.352  23.634  27.935  1.00  0.00     0.010 A 
ATOM     16  C   UNL A   1      44.381  25.028  27.824  1.00  0.00    -0.014 A 
BRANCH  16  17
ATOM     17  C   UNL A   1      44.561  25.902  28.996  1.00  0.00     0.031 A 
ATOM     18  C   UNL A   1      45.944  26.038  29.553  1.00  0.00     0.074 A 
ATOM     19  C   UNL A   1      43.543  26.663  29.433  1.00  0.00     0.049 A 
ATOM     20  N   UNL A   1      46.361  26.710  30.592  1.00  0.00    -0.248 NA
ATOM     21  C   UNL A   1      47.013  25.330  28.826  1.00  0.00     0.031 C 
ATOM     22  C   UNL A   1      42.203  26.694  28.846  1.00  0.00     0.029 A 
ATOM     23  N   UNL A   1      43.487  27.577  30.449  1.00  0.00    -0.354 N 
ATOM     24  C   UNL A   1      47.727  26.477  30.661  1.00  0.00     0.074 A 
ATOM     25  C   UNL A   1      48.077  25.607  29.562  1.00  0.00     0.031 C 
ATOM     26  C   UNL A   1      41.456  27.593  29.509  1.00  0.00     0.029 A 
ATOM     27  C   UNL A   1      42.248  28.149  30.602  1.00  0.00     0.049 A 
ATOM     28  H   UNL A   1      44.259  27.803  31.015  1.00  0.00     0.167 HD
ATOM     29  C   UNL A   1      48.605  26.947  31.576  1.00  0.00     0.037 A 
ATOM     30  C   UNL A   1      41.806  28.997  31.550  1.00  0.00     0.037 A 
ATOM     31  C   UNL A   1      48.223  27.816  32.653  1.00  0.00     0.049 A 
ATOM     32  C   UNL A   1      42.783  29.435  32.611  1.00  0.00     0.074 A 
ATOM     33  C   UNL A   1      48.996  28.311  33.687  1.00  0.00     0.029 A 
ATOM     34  N   UNL A   1      46.941  28.323  32.827  1.00  0.00    -0.354 N 
ATOM     35  N   UNL A   1      44.059  29.150  32.727  1.00  0.00    -0.248 NA
ATOM     36  C   UNL A   1      42.259  30.295  33.679  1.00  0.00     0.031 C 
ATOM     37  C   UNL A   1      48.168  29.081  34.511  1.00  0.00     0.029 A 
ATOM     38  C   UNL A   1      46.893  29.112  33.962  1.00  0.00     0.049 A 
ATOM     39  H   UNL A   1      46.179  28.146  32.230  1.00  0.00     0.167 HD
ATOM     40  C   UNL A   1      44.496  29.803  33.871  1.00  0.00     0.074 A 
ATOM     41  C   UNL A   1      43.349  30.518  34.399  1.00  0.00     0.031 C 
ATOM     42  C   UNL A   1      45.727  29.810  34.442  1.00  0.00     0.037 A 
BRANCH  29  43
ATOM     43  C   UNL A   1      50.019  26.455  31.482  1.00  0.00     0.064 A 
ATOM     44  C   UNL A   1      50.439  25.265  32.097  1.00  0.00     0.173 A 
ATOM     45  C   UNL A   1      50.981  27.216  30.800  1.00  0.00     0.173 A 
ATOM     46  F   UNL A   1      49.566  24.518  32.788  1.00  0.00    -0.203 F 
ATOM     47  C   UNL A   1      51.776  24.873  32.057  1.00  0.00     0.198 A 
ATOM     48  C   UNL A   1      52.310  26.807  30.740  1.00  0.00     0.198 A 
ATOM     49  F   UNL A   1      50.634  28.366  30.205  1.00  0.00    -0.203 F 
ATOM     50  F   UNL A   1      52.167  23.767  32.705  1.00  0.00    -0.200 F 
ATOM     51  C   UNL A   1      52.709  25.642  31.378  1.00  0.00     0.200 A 
ATOM     52  F   UNL A   1      53.209  27.552  30.082  1.00  0.00    -0.200 F 
ATOM     53  F   UNL A   1      53.995  25.269  31.350  1.00  0.00    -0.200 F 
ENDBRANCH  29  43
BRANCH  30  54
ATOM     54  C   UNL A   1      40.383  29.429  31.568  1.00  0.00     0.064 A 
ATOM     55  C   UNL A   1      39.939  30.521  30.812  1.00  0.00     0.173 A 
ATOM     56  C   UNL A   1      39.432  28.757  32.355  1.00  0.00     0.173 A 
ATOM     57  F   UNL A   1      40.806  31.214  30.061  1.00  0.00    -0.203 F 
ATOM     58  C   UNL A   1      38.606  30.932  30.852  1.00  0.00     0.198 A 
ATOM     59  C   UNL A   1      38.095  29.148  32.369  1.00  0.00     0.198 A 
ATOM     60  F   UNL A   1      39.800  27.707  33.104  1.00  0.00    -0.203 F 
ATOM     61  F   UNL A   1      38.218  32.008  30.153  1.00  0.00    -0.200 F 
ATOM     62  C   UNL A   1      37.684  30.242  31.624  1.00  0.00     0.200 A 
ATOM     63  F   UNL A   1      37.207  28.468  33.107  1.00  0.00    -0.200 F 
ATOM     64  F   UNL A   1      36.403  30.634  31.657  1.00  0.00    -0.200 F 
ENDBRANCH  30  54
BRANCH  42  65
ATOM     65  C   UNL A   1      45.894  30.637  35.680  1.00  0.00     0.064 A 
ATOM     66  C   UNL A   1      45.688  30.096  36.956  1.00  0.00     0.173 A 
ATOM     67  C   UNL A   1      46.322  31.969  35.585  1.00  0.00     0.173 A 
ATOM     68  F   UNL A   1      45.265  28.831  37.093  1.00  0.00    -0.203 F 
ATOM     69  C   UNL A   1      45.886  30.867  38.096  1.00  0.00     0.198 A 
ATOM     70  C   UNL A   1      46.549  32.728  36.728  1.00  0.00     0.198 A 
ATOM     71  F   UNL A   1      46.540  32.526  34.384  1.00  0.00    -0.203 F 
ATOM     72  F   UNL A   1      45.644  30.345  39.306  1.00  0.00    -0.200 F 
ATOM     73  C   UNL A   1      46.325  32.179  37.982  1.00  0.00     0.200 A 
ATOM     74  F   UNL A   1      46.987  33.989  36.616  1.00  0.00    -0.200 F 
ATOM     75  F   UNL A   1      46.528  32.916  39.082  1.00  0.00    -0.200 F 
ENDBRANCH  42  65
ENDBRANCH  16  17
ENDBRANCH   9  11
ENDBRANCH   8   9
ENDBRANCH   7   8
ENDBRANCH   6   7
ENDBRANCH   5   6
ENDBRANCH   4   5
ENDBRANCH   3   4
ENDBRANCH   2   3
ENDBRANCH   1   2
BRANCH   1  76
ATOM     76  C   UNL A   1      40.103  22.871  26.987  1.00  0.00     0.188 C 
BRANCH  76  77
ATOM     77  O   UNL A   1      38.865  22.979  26.296  1.00  0.00    -0.376 OA
BRANCH  77  78
ATOM     78  C   UNL A   1      38.384  21.768  25.715  1.00  0.00     0.202 C 
BRANCH  78  79
ATOM     79  C   UNL A   1      36.922  21.818  25.258  1.00  0.00     0.261 C 
BRANCH  79  80
ATOM     80  O   UNL A   1      36.502  23.105  24.772  1.00  0.00    -0.460 OA
BRANCH  80  81
ATOM     81  C   UNL A   1      35.985  23.197  23.528  1.00  0.00     0.339 C 
ATOM     82  O   UNL A   1      36.449  22.730  22.503  1.00  0.00    -0.246 OA
BRANCH  81  83
ATOM     83  C   UNL A   1      34.601  23.705  23.672  1.00  0.00     0.078 A 
ATOM     84  C   UNL A   1      34.406  25.089  23.531  1.00  0.00     0.019 A 
ATOM     85  C   UNL A   1      33.492  22.864  23.778  1.00  0.00     0.057 A 
ATOM     86  C   UNL A   1      33.111  25.619  23.409  1.00  0.00     0.027 A 
ATOM     87  C   UNL A   1      32.202  23.405  23.680  1.00  0.00     0.047 A 
ATOM     88  Cl  UNL A   1      33.630  21.163  24.040  1.00  0.00    -0.083 Cl
ATOM     89  C   UNL A   1      32.002  24.776  23.453  1.00  0.00     0.043 A 
BRANCH  89  90
ATOM     90  N   UNL A   1      30.667  25.204  23.335  1.00  0.00    -0.322 N 
ATOM     91  C   UNL A   1      29.947  26.219  23.920  1.00  0.00     0.257 C 
ATOM     92  H   UNL A   1      30.138  24.664  22.704  1.00  0.00     0.170 HD
ATOM     93  O   UNL A   1      28.720  26.229  23.835  1.00  0.00    -0.269 OA
BRANCH  91  94
ATOM     94  C   UNL A   1      30.587  27.353  24.606  1.00  0.00     0.059 A 
ATOM     95  C   UNL A   1      30.969  27.159  25.944  1.00  0.00     0.022 A 
ATOM     96  C   UNL A   1      30.710  28.621  24.018  1.00  0.00     0.060 A 
ATOM     97  C   UNL A   1      31.537  28.207  26.673  1.00  0.00     0.086 A 
ATOM     98  C   UNL A   1      31.284  29.671  24.742  1.00  0.00     0.107 A 
ATOM     99  Cl  UNL A   1      30.134  28.977  22.431  1.00  0.00    -0.083 Cl
ATOM    100  C   UNL A   1      31.707  29.456  26.062  1.00  0.00     0.270 A 
BRANCH 100 101
ATOM    101  N   UNL A   1      32.334  30.555  26.806  1.00  0.00     0.062 N 
ATOM    102  O   UNL A   1      31.745  31.643  26.833  1.00  0.00    -0.258 OA
ATOM    103  O   UNL A   1      33.408  30.314  27.375  1.00  0.00    -0.258 OA
ENDBRANCH 100 101
ENDBRANCH  91  94
ENDBRANCH  89  90
ENDBRANCH  81  83
ENDBRANCH  80  81
ENDBRANCH  79  80
ENDBRANCH  78  79
ENDBRANCH  77  78
ENDBRANCH  76  77
ENDBRANCH   1  76
TORSDOF 23
ENDMDL
MODEL 2
REMARK VINA RESULT:      -9.6      3.354      8.082
REMARK SMILES O=C(OCCOCCOCCOCCOC(=O)c1ccc(NC(=O)c2ccc([N+](=O)[O-])cc2Cl)cc1Cl)c1ccc(-c2c3nc(c(-c4c(F)c(F)c(F)c(F)c4F)c4ccc([nH]4)c(-c4c(F)c(F)c(F)c(F)c4F)c4nc(c(-c5c(F)c(F)c(F)c(F)c5F)c5ccc2[nH]5)C=C4)C=C3)cc1
REMARK SMILES IDX 10 1 9 2 8 3 7 4 6 5 5 6 4 7 3 8 2 9 1 10 38 11 39 12 100 13
REMARK SMILES IDX 40 14 99 15 41 16 42 17 43 18 93 19 44 20 98 21 92 22 94 23
REMARK SMILES IDX 45 24 97 25 91 26 90 27 46 29 78 30 58 31 77 32 59 33 62 34
REMARK SMILES IDX 76 35 95 36 60 37 61 38 75 40 96 41 63 42 47 43 48 44 56 45
REMARK SMILES IDX 49 46 50 47 54 48 57 49 51 50 52 51 55 52 53 53 79 54 80 55
REMARK SMILES IDX 88 56 81 57 82 58 86 59 89 60 83 61 84 62 87 63 85 64 64 65
REMARK SMILES IDX 65 66 73 67 66 68 67 69 71 70 74 71 68 72 69 73 72 74 70 75
REMARK SMILES IDX 11 76 12 77 13 78 14 79 15 80 16 81 17 82 18 83 19 84 36 85
REMARK SMILES IDX 20 86 35 87 37 88 21 89 22 90 23 91 24 93 25 94 26 95 33 96
REMARK SMILES IDX 27 97 32 98 34 99 28 100 29 101 30 102 31 103
REMARK H PARENT 94 28 62 39 22 92
REMARK Flexibility Score: inf
ROOT
ATOM      1  C   UNL A   1      41.337  22.226  26.824  1.00  0.00     0.188 C 
ENDROOT
BRANCH   1   2
ATOM      2  O   UNL A   1      41.741  20.904  27.149  1.00  0.00    -0.377 OA
BRANCH   2   3
ATOM      3  C   UNL A   1      42.196  20.086  26.075  1.00  0.00     0.188 C 
BRANCH   3   4
ATOM      4  C   UNL A   1      43.610  20.394  25.581  1.00  0.00     0.188 C 
BRANCH   4   5
ATOM      5  O   UNL A   1      43.599  21.464  24.630  1.00  0.00    -0.376 OA
BRANCH   5   6
ATOM      6  C   UNL A   1      44.697  22.370  24.736  1.00  0.00     0.202 C 
BRANCH   6   7
ATOM      7  C   UNL A   1      44.304  23.846  24.633  1.00  0.00     0.261 C 
BRANCH   7   8
ATOM      8  O   UNL A   1      43.606  24.303  25.799  1.00  0.00    -0.460 OA
BRANCH   8   9
ATOM      9  C   UNL A   1      42.894  25.447  25.950  1.00  0.00     0.338 C 
ATOM     10  O   UNL A   1      42.347  25.926  24.958  1.00  0.00    -0.246 OA
BRANCH   9  11
ATOM     11  C   UNL A   1      42.709  26.162  27.255  1.00  0.00     0.060 A 
ATOM     12  C   UNL A   1      41.931  25.719  28.327  1.00  0.00     0.016 A 
ATOM     13  C   UNL A   1      43.427  27.359  27.426  1.00  0.00     0.016 A 
ATOM     14  C   UNL A   1      41.790  26.466  29.487  1.00  0.00     0.010 A 
ATOM     15  C   UNL A   1      43.317  28.109  28.601  1.00  0.00     0.010 A 
ATOM     16  C   UNL A   1      42.461  27.676  29.619  1.00  0.00    -0.014 A 
BRANCH  16  17
ATOM     17  C   UNL A   1      42.082  28.547  30.744  1.00  0.00     0.031 A 
ATOM     18  C   UNL A   1      40.859  29.397  30.582  1.00  0.00     0.074 A 
ATOM     19  C   UNL A   1      42.727  28.450  31.920  1.00  0.00     0.049 A 
ATOM     20  N   UNL A   1      40.336  30.268  31.401  1.00  0.00    -0.248 NA
ATOM     21  C   UNL A   1      40.109  29.226  29.326  1.00  0.00     0.031 C 
ATOM     22  C   UNL A   1      43.836  27.537  32.199  1.00  0.00     0.029 A 
ATOM     23  N   UNL A   1      42.521  29.102  33.105  1.00  0.00    -0.354 N 
ATOM     24  C   UNL A   1      39.222  30.772  30.745  1.00  0.00     0.074 A 
ATOM     25  C   UNL A   1      39.136  30.111  29.464  1.00  0.00     0.031 C 
ATOM     26  C   UNL A   1      44.208  27.681  33.482  1.00  0.00     0.029 A 
ATOM     27  C   UNL A   1      43.406  28.739  34.089  1.00  0.00     0.049 A 
ATOM     28  H   UNL A   1      41.808  29.767  33.239  1.00  0.00     0.167 HD
ATOM     29  C   UNL A   1      38.356  31.715  31.182  1.00  0.00     0.037 A 
ATOM     30  C   UNL A   1      43.565  29.243  35.328  1.00  0.00     0.037 A 
ATOM     31  C   UNL A   1      38.470  32.347  32.466  1.00  0.00     0.049 A 
ATOM     32  C   UNL A   1      42.644  30.356  35.757  1.00  0.00     0.074 A 
ATOM     33  C   UNL A   1      37.704  33.363  33.005  1.00  0.00     0.029 A 
ATOM     34  N   UNL A   1      39.424  32.010  33.418  1.00  0.00    -0.354 N 
ATOM     35  N   UNL A   1      41.638  30.893  35.106  1.00  0.00    -0.248 NA
ATOM     36  C   UNL A   1      42.887  30.943  37.080  1.00  0.00     0.031 C 
ATOM     37  C   UNL A   1      38.225  33.670  34.267  1.00  0.00     0.029 A 
ATOM     38  C   UNL A   1      39.281  32.810  34.537  1.00  0.00     0.049 A 
ATOM     39  H   UNL A   1      40.104  31.306  33.311  1.00  0.00     0.167 HD
ATOM     40  C   UNL A   1      41.119  31.872  35.941  1.00  0.00     0.074 A 
ATOM     41  C   UNL A   1      41.911  31.837  37.157  1.00  0.00     0.031 C 
ATOM     42  C   UNL A   1      40.090  32.730  35.727  1.00  0.00     0.037 A 
BRANCH  29  43
ATOM     43  C   UNL A   1      37.289  32.157  30.226  1.00  0.00     0.064 A 
ATOM     44  C   UNL A   1      37.573  32.941  29.098  1.00  0.00     0.173 A 
ATOM     45  C   UNL A   1      35.947  31.825  30.473  1.00  0.00     0.173 A 
ATOM     46  F   UNL A   1      38.834  33.313  28.835  1.00  0.00    -0.203 F 
ATOM     47  C   UNL A   1      36.551  33.401  28.270  1.00  0.00     0.198 A 
ATOM     48  C   UNL A   1      34.932  32.264  29.629  1.00  0.00     0.198 A 
ATOM     49  F   UNL A   1      35.620  31.088  31.544  1.00  0.00    -0.203 F 
ATOM     50  F   UNL A   1      36.838  34.202  27.234  1.00  0.00    -0.200 F 
ATOM     51  C   UNL A   1      35.232  33.061  28.535  1.00  0.00     0.200 A 
ATOM     52  F   UNL A   1      33.659  31.933  29.887  1.00  0.00    -0.200 F 
ATOM     53  F   UNL A   1      34.250  33.513  27.744  1.00  0.00    -0.200 F 
ENDBRANCH  29  43
BRANCH  30  54
ATOM     54  C   UNL A   1      44.658  28.746  36.207  1.00  0.00     0.064 A 
ATOM     55  C   UNL A   1      44.460  27.673  37.086  1.00  0.00     0.173 A 
ATOM     56  C   UNL A   1      45.929  29.345  36.191  1.00  0.00     0.173 A 
ATOM     57  F   UNL A   1      43.261  27.078  37.160  1.00  0.00    -0.203 F 
ATOM     58  C   UNL A   1      45.485  27.228  37.922  1.00  0.00     0.198 A 
ATOM     59  C   UNL A   1      46.960  28.879  37.004  1.00  0.00     0.198 A 
ATOM     60  F   UNL A   1      46.174  30.380  35.374  1.00  0.00    -0.203 F 
ATOM     61  F   UNL A   1      45.255  26.228  38.786  1.00  0.00    -0.200 F 
ATOM     62  C   UNL A   1      46.735  27.826  37.875  1.00  0.00     0.200 A 
ATOM     63  F   UNL A   1      48.169  29.452  36.943  1.00  0.00    -0.200 F 
ATOM     64  F   UNL A   1      47.720  27.393  38.675  1.00  0.00    -0.200 F 
ENDBRANCH  30  54
BRANCH  42  65
ATOM     65  C   UNL A   1      39.751  33.672  36.842  1.00  0.00     0.064 A 
ATOM     66  C   UNL A   1      38.912  33.287  37.896  1.00  0.00     0.173 A 
ATOM     67  C   UNL A   1      40.323  34.952  36.881  1.00  0.00     0.173 A 
ATOM     68  F   UNL A   1      38.333  32.078  37.892  1.00  0.00    -0.203 F 
ATOM     69  C   UNL A   1      38.640  34.161  38.943  1.00  0.00     0.198 A 
ATOM     70  C   UNL A   1      40.073  35.811  37.945  1.00  0.00     0.198 A 
ATOM     71  F   UNL A   1      41.140  35.359  35.898  1.00  0.00    -0.203 F 
ATOM     72  F   UNL A   1      37.801  33.792  39.921  1.00  0.00    -0.200 F 
ATOM     73  C   UNL A   1      39.228  35.418  38.972  1.00  0.00     0.200 A 
ATOM     74  F   UNL A   1      40.654  37.019  37.980  1.00  0.00    -0.200 F 
ATOM     75  F   UNL A   1      38.974  36.254  39.988  1.00  0.00    -0.200 F 
ENDBRANCH  42  65
ENDBRANCH  16  17
ENDBRANCH   9  11
ENDBRANCH   8   9
ENDBRANCH   7   8
ENDBRANCH   6   7
ENDBRANCH   5   6
ENDBRANCH   4   5
ENDBRANCH   3   4
ENDBRANCH   2   3
ENDBRANCH   1   2
BRANCH   1  76
ATOM     76  C   UNL A   1      39.927  22.703  27.236  1.00  0.00     0.188 C 
BRANCH  76  77
ATOM     77  O   UNL A   1      38.964  22.756  26.191  1.00  0.00    -0.376 OA
BRANCH  77  78
ATOM     78  C   UNL A   1      38.273  21.535  25.937  1.00  0.00     0.202 C 
BRANCH  78  79
ATOM     79  C   UNL A   1      37.394  21.549  24.681  1.00  0.00     0.261 C 
BRANCH  79  80
ATOM     80  O   UNL A   1      36.430  22.616  24.651  1.00  0.00    -0.460 OA
BRANCH  80  81
ATOM     81  C   UNL A   1      36.012  23.087  23.455  1.00  0.00     0.339 C 
ATOM     82  O   UNL A   1      36.546  22.919  22.374  1.00  0.00    -0.246 OA
BRANCH  81  83
ATOM     83  C   UNL A   1      34.631  23.585  23.647  1.00  0.00     0.078 A 
ATOM     84  C   UNL A   1      34.407  24.958  23.446  1.00  0.00     0.019 A 
ATOM     85  C   UNL A   1      33.541  22.738  23.855  1.00  0.00     0.057 A 
ATOM     86  C   UNL A   1      33.101  25.465  23.366  1.00  0.00     0.027 A 
ATOM     87  C   UNL A   1      32.240  23.257  23.798  1.00  0.00     0.047 A 
ATOM     88  Cl  UNL A   1      33.717  21.054  24.195  1.00  0.00    -0.083 Cl
ATOM     89  C   UNL A   1      32.008  24.612  23.512  1.00  0.00     0.043 A 
BRANCH  89  90
ATOM     90  N   UNL A   1      30.662  25.017  23.443  1.00  0.00    -0.322 N 
ATOM     91  C   UNL A   1      29.956  26.042  24.026  1.00  0.00     0.257 C 
ATOM     92  H   UNL A   1      30.113  24.449  22.857  1.00  0.00     0.170 HD
ATOM     93  O   UNL A   1      28.726  26.033  24.000  1.00  0.00    -0.269 OA
BRANCH  91  94
ATOM     94  C   UNL A   1      30.609  27.208  24.642  1.00  0.00     0.059 A 
ATOM     95  C   UNL A   1      31.053  27.068  25.968  1.00  0.00     0.022 A 
ATOM     96  C   UNL A   1      30.689  28.455  24.005  1.00  0.00     0.060 A 
ATOM     97  C   UNL A   1      31.640  28.148  26.633  1.00  0.00     0.086 A 
ATOM     98  C   UNL A   1      31.280  29.538  24.665  1.00  0.00     0.107 A 
ATOM     99  Cl  UNL A   1      30.038  28.746  22.434  1.00  0.00    -0.083 Cl
ATOM    100  C   UNL A   1      31.764  29.376  25.970  1.00  0.00     0.270 A 
BRANCH 100 101
ATOM    101  N   UNL A   1      32.409  30.508  26.646  1.00  0.00     0.062 N 
ATOM    102  O   UNL A   1      31.749  31.545  26.791  1.00  0.00    -0.258 OA
ATOM    103  O   UNL A   1      33.571  30.345  27.045  1.00  0.00    -0.258 OA
ENDBRANCH 100 101
ENDBRANCH  91  94
ENDBRANCH  89  90
ENDBRANCH  81  83
ENDBRANCH  80  81
ENDBRANCH  79  80
ENDBRANCH  78  79
ENDBRANCH  77  78
ENDBRANCH  76  77
ENDBRANCH   1  76
TORSDOF 23
ENDMDL
MODEL 3
REMARK VINA RESULT:      -9.5      5.721      9.359
REMARK SMILES O=C(OCCOCCOCCOCCOC(=O)c1ccc(NC(=O)c2ccc([N+](=O)[O-])cc2Cl)cc1Cl)c1ccc(-c2c3nc(c(-c4c(F)c(F)c(F)c(F)c4F)c4ccc([nH]4)c(-c4c(F)c(F)c(F)c(F)c4F)c4nc(c(-c5c(F)c(F)c(F)c(F)c5F)c5ccc2[nH]5)C=C4)C=C3)cc1
REMARK SMILES IDX 10 1 9 2 8 3 7 4 6 5 5 6 4 7 3 8 2 9 1 10 38 11 39 12 100 13
REMARK SMILES IDX 40 14 99 15 41 16 42 17 43 18 93 19 44 20 98 21 92 22 94 23
REMARK SMILES IDX 45 24 97 25 91 26 90 27 46 29 78 30 58 31 77 32 59 33 62 34
REMARK SMILES IDX 76 35 95 36 60 37 61 38 75 40 96 41 63 42 47 43 48 44 56 45
REMARK SMILES IDX 49 46 50 47 54 48 57 49 51 50 52 51 55 52 53 53 79 54 80 55
REMARK SMILES IDX 88 56 81 57 82 58 86 59 89 60 83 61 84 62 87 63 85 64 64 65
REMARK SMILES IDX 65 66 73 67 66 68 67 69 71 70 74 71 68 72 69 73 72 74 70 75
REMARK SMILES IDX 11 76 12 77 13 78 14 79 15 80 16 81 17 82 18 83 19 84 36 85
REMARK SMILES IDX 20 86 35 87 37 88 21 89 22 90 23 91 24 93 25 94 26 95 33 96
REMARK SMILES IDX 27 97 32 98 34 99 28 100 29 101 30 102 31 103
REMARK H PARENT 94 28 62 39 22 92
REMARK Flexibility Score: inf
ROOT
ATOM      1  C   UNL A   1      35.657  31.370  27.965  1.00  0.00     0.188 C 
ENDROOT
BRANCH   1   2
ATOM      2  O   UNL A   1      36.034  32.739  28.024  1.00  0.00    -0.377 OA
BRANCH   2   3
ATOM      3  C   UNL A   1      36.628  33.192  29.237  1.00  0.00     0.188 C 
BRANCH   3   4
ATOM      4  C   UNL A   1      35.883  32.794  30.511  1.00  0.00     0.188 C 
BRANCH   4   5
ATOM      5  O   UNL A   1      36.801  32.471  31.561  1.00  0.00    -0.376 OA
BRANCH   5   6
ATOM      6  C   UNL A   1      36.399  31.383  32.395  1.00  0.00     0.202 C 
BRANCH   6   7
ATOM      7  C   UNL A   1      36.240  30.052  31.656  1.00  0.00     0.261 C 
BRANCH   7   8
ATOM      8  O   UNL A   1      36.993  28.998  32.272  1.00  0.00    -0.460 OA
BRANCH   8   9
ATOM      9  C   UNL A   1      38.258  28.601  31.988  1.00  0.00     0.338 C 
ATOM     10  O   UNL A   1      38.563  27.430  32.211  1.00  0.00    -0.246 OA
BRANCH   9  11
ATOM     11  C   UNL A   1      39.311  29.489  31.395  1.00  0.00     0.060 A 
ATOM     12  C   UNL A   1      39.458  29.790  30.040  1.00  0.00     0.016 A 
ATOM     13  C   UNL A   1      40.192  30.111  32.298  1.00  0.00     0.016 A 
ATOM     14  C   UNL A   1      40.487  30.598  29.577  1.00  0.00     0.010 A 
ATOM     15  C   UNL A   1      41.216  30.950  31.848  1.00  0.00     0.010 A 
ATOM     16  C   UNL A   1      41.385  31.160  30.476  1.00  0.00    -0.014 A 
BRANCH  16  17
ATOM     17  C   UNL A   1      42.597  31.789  29.925  1.00  0.00     0.031 A 
ATOM     18  C   UNL A   1      43.661  30.887  29.382  1.00  0.00     0.074 A 
ATOM     19  C   UNL A   1      42.657  33.124  29.778  1.00  0.00     0.049 A 
ATOM     20  N   UNL A   1      44.829  31.184  28.879  1.00  0.00    -0.248 NA
ATOM     21  C   UNL A   1      43.360  29.444  29.390  1.00  0.00     0.031 C 
ATOM     22  C   UNL A   1      41.596  34.060  30.150  1.00  0.00     0.029 A 
ATOM     23  N   UNL A   1      43.637  33.919  29.249  1.00  0.00    -0.354 N 
ATOM     24  C   UNL A   1      45.410  29.969  28.546  1.00  0.00     0.074 A 
ATOM     25  C   UNL A   1      44.473  28.928  28.897  1.00  0.00     0.031 C 
ATOM     26  C   UNL A   1      41.980  35.307  29.826  1.00  0.00     0.029 A 
ATOM     27  C   UNL A   1      43.335  35.257  29.287  1.00  0.00     0.049 A 
ATOM     28  H   UNL A   1      44.477  33.565  28.876  1.00  0.00     0.167 HD
ATOM     29  C   UNL A   1      46.630  29.752  28.003  1.00  0.00     0.037 A 
ATOM     30  C   UNL A   1      44.097  36.317  28.956  1.00  0.00     0.037 A 
ATOM     31  C   UNL A   1      47.534  30.813  27.662  1.00  0.00     0.049 A 
ATOM     32  C   UNL A   1      45.486  36.050  28.438  1.00  0.00     0.074 A 
ATOM     33  C   UNL A   1      48.823  30.732  27.169  1.00  0.00     0.029 A 
ATOM     34  N   UNL A   1      47.229  32.164  27.780  1.00  0.00    -0.354 N 
ATOM     35  N   UNL A   1      46.072  34.900  28.198  1.00  0.00    -0.248 NA
ATOM     36  C   UNL A   1      46.326  37.221  28.158  1.00  0.00     0.031 C 
ATOM     37  C   UNL A   1      49.313  32.036  27.032  1.00  0.00     0.029 A 
ATOM     38  C   UNL A   1      48.312  32.930  27.387  1.00  0.00     0.049 A 
ATOM     39  H   UNL A   1      46.370  32.523  28.097  1.00  0.00     0.167 HD
ATOM     40  C   UNL A   1      47.342  35.204  27.730  1.00  0.00     0.074 A 
ATOM     41  C   UNL A   1      47.431  36.652  27.698  1.00  0.00     0.031 C 
ATOM     42  C   UNL A   1      48.348  34.371  27.366  1.00  0.00     0.037 A 
BRANCH  29  43
ATOM     43  C   UNL A   1      47.060  28.325  27.839  1.00  0.00     0.064 A 
ATOM     44  C   UNL A   1      46.850  27.612  26.649  1.00  0.00     0.173 A 
ATOM     45  C   UNL A   1      47.653  27.645  28.914  1.00  0.00     0.173 A 
ATOM     46  F   UNL A   1      46.257  28.206  25.602  1.00  0.00    -0.203 F 
ATOM     47  C   UNL A   1      47.190  26.264  26.552  1.00  0.00     0.198 A 
ATOM     48  C   UNL A   1      48.016  26.306  28.804  1.00  0.00     0.198 A 
ATOM     49  F   UNL A   1      47.866  28.276  30.078  1.00  0.00    -0.203 F 
ATOM     50  F   UNL A   1      46.921  25.587  25.427  1.00  0.00    -0.200 F 
ATOM     51  C   UNL A   1      47.774  25.613  27.628  1.00  0.00     0.200 A 
ATOM     52  F   UNL A   1      48.581  25.679  29.846  1.00  0.00    -0.200 F 
ATOM     53  F   UNL A   1      48.090  24.314  27.536  1.00  0.00    -0.200 F 
ENDBRANCH  29  43
BRANCH  30  54
ATOM     54  C   UNL A   1      43.588  37.701  29.159  1.00  0.00     0.064 A 
ATOM     55  C   UNL A   1      42.774  38.329  28.208  1.00  0.00     0.173 A 
ATOM     56  C   UNL A   1      43.916  38.431  30.314  1.00  0.00     0.173 A 
ATOM     57  F   UNL A   1      42.448  37.689  27.076  1.00  0.00    -0.203 F 
ATOM     58  C   UNL A   1      42.319  39.635  28.397  1.00  0.00     0.198 A 
ATOM     59  C   UNL A   1      43.435  39.723  30.516  1.00  0.00     0.198 A 
ATOM     60  F   UNL A   1      44.697  37.883  31.256  1.00  0.00    -0.203 F 
ATOM     61  F   UNL A   1      41.578  40.228  27.450  1.00  0.00    -0.200 F 
ATOM     62  C   UNL A   1      42.644  40.328  29.553  1.00  0.00     0.200 A 
ATOM     63  F   UNL A   1      43.741  40.381  31.642  1.00  0.00    -0.200 F 
ATOM     64  F   UNL A   1      42.202  41.579  29.736  1.00  0.00    -0.200 F 
ENDBRANCH  30  54
BRANCH  42  65
ATOM     65  C   UNL A   1      49.613  35.010  26.878  1.00  0.00     0.064 A 
ATOM     66  C   UNL A   1      50.707  35.212  27.729  1.00  0.00     0.173 A 
ATOM     67  C   UNL A   1      49.746  35.368  25.528  1.00  0.00     0.173 A 
ATOM     68  F   UNL A   1      50.619  34.898  29.029  1.00  0.00    -0.203 F 
ATOM     69  C   UNL A   1      51.887  35.771  27.249  1.00  0.00     0.198 A 
ATOM     70  C   UNL A   1      50.938  35.897  25.046  1.00  0.00     0.198 A 
ATOM     71  F   UNL A   1      48.727  35.184  24.675  1.00  0.00    -0.203 F 
ATOM     72  F   UNL A   1      52.909  35.995  28.087  1.00  0.00    -0.200 F 
ATOM     73  C   UNL A   1      52.005  36.104  25.907  1.00  0.00     0.200 A 
ATOM     74  F   UNL A   1      51.055  36.204  23.747  1.00  0.00    -0.200 F 
ATOM     75  F   UNL A   1      53.147  36.629  25.444  1.00  0.00    -0.200 F 
ENDBRANCH  42  65
ENDBRANCH  16  17
ENDBRANCH   9  11
ENDBRANCH   8   9
ENDBRANCH   7   8
ENDBRANCH   6   7
ENDBRANCH   5   6
ENDBRANCH   4   5
ENDBRANCH   3   4
ENDBRANCH   2   3
ENDBRANCH   1   2
BRANCH   1  76
ATOM     76  C   UNL A   1      34.203  31.007  27.596  1.00  0.00     0.188 C 
BRANCH  76  77
ATOM     77  O   UNL A   1      33.272  32.081  27.628  1.00  0.00    -0.376 OA
BRANCH  77  78
ATOM     78  C   UNL A   1      32.088  31.885  26.857  1.00  0.00     0.202 C 
BRANCH  78  79
ATOM     79  C   UNL A   1      31.744  30.417  26.580  1.00  0.00     0.261 C 
BRANCH  79  80
ATOM     80  O   UNL A   1      31.321  30.157  25.230  1.00  0.00    -0.460 OA
BRANCH  80  81
ATOM     81  C   UNL A   1      31.954  29.199  24.519  1.00  0.00     0.339 C 
ATOM     82  O   UNL A   1      32.891  29.349  23.756  1.00  0.00    -0.246 OA
BRANCH  81  83
ATOM     83  C   UNL A   1      31.507  27.895  25.060  1.00  0.00     0.078 A 
ATOM     84  C   UNL A   1      30.272  27.399  24.608  1.00  0.00     0.019 A 
ATOM     85  C   UNL A   1      32.319  27.085  25.856  1.00  0.00     0.057 A 
ATOM     86  C   UNL A   1      29.893  26.074  24.876  1.00  0.00     0.027 A 
ATOM     87  C   UNL A   1      31.921  25.771  26.139  1.00  0.00     0.047 A 
ATOM     88  Cl  UNL A   1      33.812  27.634  26.530  1.00  0.00    -0.083 Cl
ATOM     89  C   UNL A   1      30.730  25.242  25.619  1.00  0.00     0.043 A 
BRANCH  89  90
ATOM     90  N   UNL A   1      30.446  23.901  25.937  1.00  0.00    -0.322 N 
ATOM     91  C   UNL A   1      31.082  22.714  25.665  1.00  0.00     0.257 C 
ATOM     92  H   UNL A   1      29.621  23.791  26.462  1.00  0.00     0.170 HD
ATOM     93  O   UNL A   1      30.495  21.648  25.843  1.00  0.00    -0.269 OA
BRANCH  91  94
ATOM     94  C   UNL A   1      32.483  22.646  25.218  1.00  0.00     0.059 A 
ATOM     95  C   UNL A   1      32.716  22.698  23.833  1.00  0.00     0.022 A 
ATOM     96  C   UNL A   1      33.549  22.416  26.100  1.00  0.00     0.060 A 
ATOM     97  C   UNL A   1      34.017  22.591  23.334  1.00  0.00     0.086 A 
ATOM     98  C   UNL A   1      34.853  22.314  25.605  1.00  0.00     0.107 A 
ATOM     99  Cl  UNL A   1      33.328  22.197  27.797  1.00  0.00    -0.083 Cl
ATOM    100  C   UNL A   1      35.082  22.415  24.226  1.00  0.00     0.270 A 
BRANCH 100 101
ATOM    101  N   UNL A   1      36.457  22.336  23.716  1.00  0.00     0.062 N 
ATOM    102  O   UNL A   1      37.276  21.676  24.368  1.00  0.00    -0.258 OA
ATOM    103  O   UNL A   1      36.702  22.922  22.652  1.00  0.00    -0.258 OA
ENDBRANCH 100 101
ENDBRANCH  91  94
ENDBRANCH  89  90
ENDBRANCH  81  83
ENDBRANCH  80  81
ENDBRANCH  79  80
ENDBRANCH  78  79
ENDBRANCH  77  78
ENDBRANCH  76  77
ENDBRANCH   1  76
TORSDOF 23
ENDMDL
