MODEL 1
REMARK VINA RESULT:     -10.8      0.000      0.000
REMARK SMILES Cc1c(Cl)cc2c(c1C)O[C@H](C(F)(F)F)C(C(=O)OCCOCCOCCOCCOC(=O)c1ccc(-c3c4nc(c(-c5c(F)c(F)c(F)c(F)c5F)c5ccc([nH]5)c(-c5c(F)c(F)c(F)c(F)c5F)c5nc(c(-c6c(F)c(F)c(F)c(F)c6F)c6ccc3[nH]6)C=C5)C=C4)cc1)=C2
REMARK SMILES IDX 26 1 25 2 24 3 23 4 22 5 21 6 20 7 19 8 17 9 18 10 16 11
REMARK SMILES IDX 1 12 2 13 3 14 8 15 4 16 5 17 7 18 9 19 6 20 10 21 97 22
REMARK SMILES IDX 11 23 12 24 13 25 14 26 15 27 27 28 28 29 29 30 30 31 31 32
REMARK SMILES IDX 32 33 33 34 34 35 35 36 96 37 36 38 95 39 37 40 38 41 39 42
REMARK SMILES IDX 89 43 40 44 94 45 88 46 90 47 41 48 93 49 87 50 86 51 42 53
REMARK SMILES IDX 74 54 54 55 73 56 55 57 58 58 72 59 91 60 56 61 57 62 71 64
REMARK SMILES IDX 92 65 59 66 43 67 44 68 52 69 45 70 46 71 50 72 53 73 47 74
REMARK SMILES IDX 48 75 51 76 49 77 75 78 76 79 84 80 77 81 78 82 82 83 85 84
REMARK SMILES IDX 79 85 80 86 83 87 81 88 60 89 61 90 69 91 62 92 63 93 67 94
REMARK SMILES IDX 70 95 64 96 65 97 68 98 66 99
REMARK H PARENT 90 52 58 63
REMARK Flexibility Score: inf
ROOT
ATOM      1  C   UNL A   1      32.908  29.699  25.135  1.00  0.00     0.188 C 
ENDROOT
BRANCH   1   2
ATOM      2  O   UNL A   1      32.306  28.773  24.226  1.00  0.00    -0.377 OA
BRANCH   2   3
ATOM      3  C   UNL A   1      32.704  28.825  22.863  1.00  0.00     0.188 C 
BRANCH   3   4
ATOM      4  C   UNL A   1      33.874  27.878  22.532  1.00  0.00     0.188 C 
BRANCH   4   5
ATOM      5  O   UNL A   1      33.635  27.074  21.390  1.00  0.00    -0.376 OA
BRANCH   5   6
ATOM      6  C   UNL A   1      33.044  25.791  21.501  1.00  0.00     0.202 C 
BRANCH   6   7
ATOM      7  C   UNL A   1      31.838  25.473  22.406  1.00  0.00     0.261 C 
BRANCH   7   8
ATOM      8  O   UNL A   1      32.050  25.506  23.818  1.00  0.00    -0.460 OA
BRANCH   8   9
ATOM      9  C   UNL A   1      31.677  24.426  24.527  1.00  0.00     0.338 C 
ATOM     10  O   UNL A   1      30.539  24.072  24.779  1.00  0.00    -0.246 OA
BRANCH   9  11
ATOM     11  C   UNL A   1      32.895  23.635  24.806  1.00  0.00     0.087 C 
ATOM     12  C   UNL A   1      38.982  21.525  25.704  1.00  0.00     0.046 C 
ATOM     13  C   UNL A   1      37.627  22.188  25.748  1.00  0.00    -0.026 A 
ATOM     14  C   UNL A   1      37.506  23.534  26.149  1.00  0.00     0.045 A 
ATOM     15  C   UNL A   1      36.469  21.512  25.285  1.00  0.00    -0.004 A 
ATOM     16  Cl  UNL A   1      38.857  24.465  26.700  1.00  0.00    -0.084 Cl
ATOM     17  C   UNL A   1      36.282  24.203  26.073  1.00  0.00     0.032 A 
ATOM     18  C   UNL A   1      35.234  22.197  25.239  1.00  0.00     0.131 A 
ATOM     19  C   UNL A   1      36.496  20.076  24.817  1.00  0.00     0.049 C 
ATOM     20  C   UNL A   1      35.155  23.548  25.581  1.00  0.00     0.019 A 
ATOM     21  O   UNL A   1      34.147  21.477  24.825  1.00  0.00    -0.475 OA
ATOM     22  C   UNL A   1      33.936  24.295  25.329  1.00  0.00     0.027 C 
ATOM     23  C   UNL A   1      32.885  22.149  24.570  1.00  0.00     0.316 C 
BRANCH  23  24
ATOM     24  C   UNL A   1      32.440  21.786  23.147  1.00  0.00     0.430 C 
ATOM     25  F   UNL A   1      31.158  22.162  22.921  1.00  0.00    -0.167 F 
ATOM     26  F   UNL A   1      33.193  22.401  22.205  1.00  0.00    -0.167 F 
ATOM     27  F   UNL A   1      32.519  20.455  22.920  1.00  0.00    -0.167 F 
ENDBRANCH  23  24
ENDBRANCH   9  11
ENDBRANCH   8   9
ENDBRANCH   7   8
ENDBRANCH   6   7
ENDBRANCH   5   6
ENDBRANCH   4   5
ENDBRANCH   3   4
ENDBRANCH   2   3
ENDBRANCH   1   2
BRANCH   1  28
ATOM     28  C   UNL A   1      32.685  29.621  26.666  1.00  0.00     0.188 C 
BRANCH  28  29
ATOM     29  O   UNL A   1      31.733  30.550  27.167  1.00  0.00    -0.376 OA
BRANCH  29  30
ATOM     30  C   UNL A   1      31.450  31.707  26.402  1.00  0.00     0.202 C 
BRANCH  30  31
ATOM     31  C   UNL A   1      31.993  33.031  26.953  1.00  0.00     0.261 C 
BRANCH  31  32
ATOM     32  O   UNL A   1      33.003  32.917  27.966  1.00  0.00    -0.460 OA
BRANCH  32  33
ATOM     33  C   UNL A   1      34.091  33.707  27.851  1.00  0.00     0.338 C 
ATOM     34  O   UNL A   1      34.118  34.894  27.572  1.00  0.00    -0.246 OA
BRANCH  33  35
ATOM     35  C   UNL A   1      35.256  32.924  28.308  1.00  0.00     0.060 A 
ATOM     36  C   UNL A   1      35.084  31.578  28.655  1.00  0.00     0.016 A 
ATOM     37  C   UNL A   1      36.518  33.519  28.377  1.00  0.00     0.016 A 
ATOM     38  C   UNL A   1      36.172  30.829  29.103  1.00  0.00     0.010 A 
ATOM     39  C   UNL A   1      37.602  32.775  28.848  1.00  0.00     0.010 A 
ATOM     40  C   UNL A   1      37.426  31.438  29.243  1.00  0.00    -0.014 A 
BRANCH  40  41
ATOM     41  C   UNL A   1      38.501  30.745  29.992  1.00  0.00     0.031 A 
ATOM     42  C   UNL A   1      38.687  31.090  31.445  1.00  0.00     0.074 A 
ATOM     43  C   UNL A   1      39.282  29.819  29.409  1.00  0.00     0.049 A 
ATOM     44  N   UNL A   1      39.591  30.670  32.291  1.00  0.00    -0.248 NA
ATOM     45  C   UNL A   1      37.718  32.038  32.021  1.00  0.00     0.031 C 
ATOM     46  C   UNL A   1      39.161  29.361  28.027  1.00  0.00     0.029 A 
ATOM     47  N   UNL A   1      40.337  29.099  29.913  1.00  0.00    -0.354 N 
ATOM     48  C   UNL A   1      39.298  31.299  33.494  1.00  0.00     0.074 A 
ATOM     49  C   UNL A   1      38.156  32.154  33.265  1.00  0.00     0.031 C 
ATOM     50  C   UNL A   1      40.113  28.442  27.790  1.00  0.00     0.029 A 
ATOM     51  C   UNL A   1      40.931  28.274  28.990  1.00  0.00     0.049 A 
ATOM     52  H   UNL A   1      40.639  29.168  30.847  1.00  0.00     0.167 HD
ATOM     53  C   UNL A   1      39.923  31.162  34.686  1.00  0.00     0.037 A 
ATOM     54  C   UNL A   1      42.025  27.492  29.101  1.00  0.00     0.037 A 
ATOM     55  C   UNL A   1      41.059  30.310  34.910  1.00  0.00     0.049 A 
ATOM     56  C   UNL A   1      42.759  27.431  30.419  1.00  0.00     0.074 A 
ATOM     57  C   UNL A   1      41.762  30.107  36.084  1.00  0.00     0.029 A 
ATOM     58  N   UNL A   1      41.660  29.523  33.939  1.00  0.00    -0.354 N 
ATOM     59  N   UNL A   1      42.474  28.021  31.555  1.00  0.00    -0.248 NA
ATOM     60  C   UNL A   1      43.968  26.595  30.470  1.00  0.00     0.031 C 
ATOM     61  C   UNL A   1      42.823  29.239  35.811  1.00  0.00     0.029 A 
ATOM     62  C   UNL A   1      42.741  28.850  34.484  1.00  0.00     0.049 A 
ATOM     63  H   UNL A   1      41.363  29.453  33.003  1.00  0.00     0.167 HD
ATOM     64  C   UNL A   1      43.442  27.602  32.459  1.00  0.00     0.074 A 
ATOM     65  C   UNL A   1      44.317  26.697  31.745  1.00  0.00     0.031 C 
ATOM     66  C   UNL A   1      43.592  27.936  33.765  1.00  0.00     0.037 A 
BRANCH  53  67
ATOM     67  C   UNL A   1      39.401  31.953  35.849  1.00  0.00     0.064 A 
ATOM     68  C   UNL A   1      38.417  31.436  36.704  1.00  0.00     0.173 A 
ATOM     69  C   UNL A   1      39.957  33.202  36.163  1.00  0.00     0.173 A 
ATOM     70  F   UNL A   1      37.843  30.254  36.436  1.00  0.00    -0.203 F 
ATOM     71  C   UNL A   1      38.008  32.143  37.833  1.00  0.00     0.198 A 
ATOM     72  C   UNL A   1      39.566  33.892  37.306  1.00  0.00     0.198 A 
ATOM     73  F   UNL A   1      40.901  33.740  35.375  1.00  0.00    -0.203 F 
ATOM     74  F   UNL A   1      37.050  31.641  38.623  1.00  0.00    -0.200 F 
ATOM     75  C   UNL A   1      38.592  33.363  38.139  1.00  0.00     0.200 A 
ATOM     76  F   UNL A   1      40.142  35.064  37.610  1.00  0.00    -0.200 F 
ATOM     77  F   UNL A   1      38.218  34.027  39.241  1.00  0.00    -0.200 F 
ENDBRANCH  53  67
BRANCH  54  78
ATOM     78  C   UNL A   1      42.499  26.702  27.932  1.00  0.00     0.064 A 
ATOM     79  C   UNL A   1      42.146  25.353  27.780  1.00  0.00     0.173 A 
ATOM     80  C   UNL A   1      43.330  27.270  26.956  1.00  0.00     0.173 A 
ATOM     81  F   UNL A   1      41.376  24.754  28.701  1.00  0.00    -0.203 F 
ATOM     82  C   UNL A   1      42.617  24.601  26.705  1.00  0.00     0.198 A 
ATOM     83  C   UNL A   1      43.775  26.525  25.865  1.00  0.00     0.198 A 
ATOM     84  F   UNL A   1      43.706  28.554  27.056  1.00  0.00    -0.203 F 
ATOM     85  F   UNL A   1      42.303  23.301  26.612  1.00  0.00    -0.200 F 
ATOM     86  C   UNL A   1      43.425  25.189  25.744  1.00  0.00     0.200 A 
ATOM     87  F   UNL A   1      44.547  27.101  24.932  1.00  0.00    -0.200 F 
ATOM     88  F   UNL A   1      43.873  24.467  24.709  1.00  0.00    -0.200 F 
ENDBRANCH  54  78
BRANCH  66  89
ATOM     89  C   UNL A   1      44.715  27.297  34.531  1.00  0.00     0.064 A 
ATOM     90  C   UNL A   1      44.554  26.070  35.190  1.00  0.00     0.173 A 
ATOM     91  C   UNL A   1      45.994  27.878  34.528  1.00  0.00     0.173 A 
ATOM     92  F   UNL A   1      43.352  25.478  35.229  1.00  0.00    -0.203 F 
ATOM     93  C   UNL A   1      45.627  25.457  35.832  1.00  0.00     0.198 A 
ATOM     94  C   UNL A   1      47.072  27.245  35.142  1.00  0.00     0.198 A 
ATOM     95  F   UNL A   1      46.205  29.045  33.901  1.00  0.00    -0.203 F 
ATOM     96  F   UNL A   1      45.442  24.303  36.487  1.00  0.00    -0.200 F 
ATOM     97  C   UNL A   1      46.886  26.039  35.798  1.00  0.00     0.200 A 
ATOM     98  F   UNL A   1      48.291  27.798  35.087  1.00  0.00    -0.200 F 
ATOM     99  F   UNL A   1      47.921  25.435  36.397  1.00  0.00    -0.200 F 
ENDBRANCH  66  89
ENDBRANCH  40  41
ENDBRANCH  33  35
ENDBRANCH  32  33
ENDBRANCH  31  32
ENDBRANCH  30  31
ENDBRANCH  29  30
ENDBRANCH  28  29
ENDBRANCH   1  28
TORSDOF 21
ENDMDL
MODEL 2
REMARK VINA RESULT:     -10.7      1.700      2.453
REMARK SMILES Cc1c(Cl)cc2c(c1C)O[C@H](C(F)(F)F)C(C(=O)OCCOCCOCCOCCOC(=O)c1ccc(-c3c4nc(c(-c5c(F)c(F)c(F)c(F)c5F)c5ccc([nH]5)c(-c5c(F)c(F)c(F)c(F)c5F)c5nc(c(-c6c(F)c(F)c(F)c(F)c6F)c6ccc3[nH]6)C=C5)C=C4)cc1)=C2
REMARK SMILES IDX 26 1 25 2 24 3 23 4 22 5 21 6 20 7 19 8 17 9 18 10 16 11
REMARK SMILES IDX 1 12 2 13 3 14 8 15 4 16 5 17 7 18 9 19 6 20 10 21 97 22
REMARK SMILES IDX 11 23 12 24 13 25 14 26 15 27 27 28 28 29 29 30 30 31 31 32
REMARK SMILES IDX 32 33 33 34 34 35 35 36 96 37 36 38 95 39 37 40 38 41 39 42
REMARK SMILES IDX 89 43 40 44 94 45 88 46 90 47 41 48 93 49 87 50 86 51 42 53
REMARK SMILES IDX 74 54 54 55 73 56 55 57 58 58 72 59 91 60 56 61 57 62 71 64
REMARK SMILES IDX 92 65 59 66 43 67 44 68 52 69 45 70 46 71 50 72 53 73 47 74
REMARK SMILES IDX 48 75 51 76 49 77 75 78 76 79 84 80 77 81 78 82 82 83 85 84
REMARK SMILES IDX 79 85 80 86 83 87 81 88 60 89 61 90 69 91 62 92 63 93 67 94
REMARK SMILES IDX 70 95 64 96 65 97 68 98 66 99
REMARK H PARENT 90 52 58 63
REMARK Flexibility Score: inf
ROOT
ATOM      1  C   UNL A   1      33.643  28.376  24.622  1.00  0.00     0.188 C 
ENDROOT
BRANCH   1   2
ATOM      2  O   UNL A   1      33.136  28.076  23.319  1.00  0.00    -0.377 OA
BRANCH   2   3
ATOM      3  C   UNL A   1      32.157  28.947  22.770  1.00  0.00     0.188 C 
BRANCH   3   4
ATOM      4  C   UNL A   1      30.811  28.251  22.487  1.00  0.00     0.188 C 
BRANCH   4   5
ATOM      5  O   UNL A   1      30.104  27.902  23.665  1.00  0.00    -0.376 OA
BRANCH   5   6
ATOM      6  C   UNL A   1      30.050  26.563  24.124  1.00  0.00     0.202 C 
BRANCH   6   7
ATOM      7  C   UNL A   1      30.969  25.437  23.612  1.00  0.00     0.261 C 
BRANCH   7   8
ATOM      8  O   UNL A   1      30.653  24.102  24.005  1.00  0.00    -0.460 OA
BRANCH   8   9
ATOM      9  C   UNL A   1      31.072  23.695  25.216  1.00  0.00     0.338 C 
ATOM     10  O   UNL A   1      30.573  23.971  26.293  1.00  0.00    -0.246 OA
BRANCH   9  11
ATOM     11  C   UNL A   1      32.149  22.705  25.005  1.00  0.00     0.087 C 
ATOM     12  C   UNL A   1      35.892  17.388  24.853  1.00  0.00     0.046 C 
ATOM     13  C   UNL A   1      34.839  18.457  24.699  1.00  0.00    -0.026 A 
ATOM     14  C   UNL A   1      33.476  18.106  24.604  1.00  0.00     0.045 A 
ATOM     15  C   UNL A   1      35.182  19.833  24.757  1.00  0.00    -0.004 A 
ATOM     16  Cl  UNL A   1      32.942  16.461  24.558  1.00  0.00    -0.084 Cl
ATOM     17  C   UNL A   1      32.479  19.083  24.592  1.00  0.00     0.032 A 
ATOM     18  C   UNL A   1      34.160  20.807  24.718  1.00  0.00     0.131 A 
ATOM     19  C   UNL A   1      36.609  20.312  24.877  1.00  0.00     0.049 C 
ATOM     20  C   UNL A   1      32.817  20.431  24.689  1.00  0.00     0.019 A 
ATOM     21  O   UNL A   1      34.558  22.116  24.733  1.00  0.00    -0.475 OA
ATOM     22  C   UNL A   1      31.775  21.427  24.863  1.00  0.00     0.027 C 
ATOM     23  C   UNL A   1      33.575  23.173  24.885  1.00  0.00     0.316 C 
BRANCH  23  24
ATOM     24  C   UNL A   1      34.005  24.048  26.070  1.00  0.00     0.430 C 
ATOM     25  F   UNL A   1      33.477  25.293  25.980  1.00  0.00    -0.167 F 
ATOM     26  F   UNL A   1      33.592  23.540  27.255  1.00  0.00    -0.167 F 
ATOM     27  F   UNL A   1      35.349  24.180  26.135  1.00  0.00    -0.167 F 
ENDBRANCH  23  24
ENDBRANCH   9  11
ENDBRANCH   8   9
ENDBRANCH   7   8
ENDBRANCH   6   7
ENDBRANCH   5   6
ENDBRANCH   4   5
ENDBRANCH   3   4
ENDBRANCH   2   3
ENDBRANCH   1   2
BRANCH   1  28
ATOM     28  C   UNL A   1      32.738  28.904  25.763  1.00  0.00     0.188 C 
BRANCH  28  29
ATOM     29  O   UNL A   1      32.805  30.309  25.960  1.00  0.00    -0.376 OA
BRANCH  29  30
ATOM     30  C   UNL A   1      31.597  31.028  26.132  1.00  0.00     0.202 C 
BRANCH  30  31
ATOM     31  C   UNL A   1      31.705  32.360  26.884  1.00  0.00     0.261 C 
BRANCH  31  32
ATOM     32  O   UNL A   1      32.976  33.020  26.805  1.00  0.00    -0.460 OA
BRANCH  32  33
ATOM     33  C   UNL A   1      33.441  33.610  27.926  1.00  0.00     0.338 C 
ATOM     34  O   UNL A   1      32.907  34.496  28.573  1.00  0.00    -0.246 OA
BRANCH  33  35
ATOM     35  C   UNL A   1      34.640  32.863  28.355  1.00  0.00     0.060 A 
ATOM     36  C   UNL A   1      34.517  31.510  28.699  1.00  0.00     0.016 A 
ATOM     37  C   UNL A   1      35.884  33.497  28.400  1.00  0.00     0.016 A 
ATOM     38  C   UNL A   1      35.638  30.794  29.120  1.00  0.00     0.010 A 
ATOM     39  C   UNL A   1      37.000  32.786  28.845  1.00  0.00     0.010 A 
ATOM     40  C   UNL A   1      36.875  31.442  29.237  1.00  0.00    -0.014 A 
BRANCH  40  41
ATOM     41  C   UNL A   1      37.987  30.781  29.960  1.00  0.00     0.031 A 
ATOM     42  C   UNL A   1      38.224  31.163  31.396  1.00  0.00     0.074 A 
ATOM     43  C   UNL A   1      38.757  29.850  29.369  1.00  0.00     0.049 A 
ATOM     44  N   UNL A   1      39.165  30.774  32.216  1.00  0.00    -0.248 NA
ATOM     45  C   UNL A   1      37.265  32.112  31.987  1.00  0.00     0.031 C 
ATOM     46  C   UNL A   1      38.589  29.358  28.004  1.00  0.00     0.029 A 
ATOM     47  N   UNL A   1      39.839  29.156  29.849  1.00  0.00    -0.354 N 
ATOM     48  C   UNL A   1      38.910  31.428  33.414  1.00  0.00     0.074 A 
ATOM     49  C   UNL A   1      37.749  32.264  33.210  1.00  0.00     0.031 C 
ATOM     50  C   UNL A   1      39.543  28.445  27.752  1.00  0.00     0.029 A 
ATOM     51  C   UNL A   1      40.409  28.316  28.923  1.00  0.00     0.049 A 
ATOM     52  H   UNL A   1      40.176  29.250  30.769  1.00  0.00     0.167 HD
ATOM     53  C   UNL A   1      39.581  31.327  34.584  1.00  0.00     0.037 A 
ATOM     54  C   UNL A   1      41.516  27.550  29.010  1.00  0.00     0.037 A 
ATOM     55  C   UNL A   1      40.737  30.495  34.784  1.00  0.00     0.049 A 
ATOM     56  C   UNL A   1      42.301  27.530  30.300  1.00  0.00     0.074 A 
ATOM     57  C   UNL A   1      41.487  30.329  35.935  1.00  0.00     0.029 A 
ATOM     58  N   UNL A   1      41.310  29.693  33.810  1.00  0.00    -0.354 N 
ATOM     59  N   UNL A   1      42.052  28.144  31.432  1.00  0.00    -0.248 NA
ATOM     60  C   UNL A   1      43.522  26.710  30.324  1.00  0.00     0.031 C 
ATOM     61  C   UNL A   1      42.548  29.468  35.642  1.00  0.00     0.029 A 
ATOM     62  C   UNL A   1      42.420  29.046  34.328  1.00  0.00     0.049 A 
ATOM     63  H   UNL A   1      40.979  29.597  32.888  1.00  0.00     0.167 HD
ATOM     64  C   UNL A   1      43.059  27.758  32.308  1.00  0.00     0.074 A 
ATOM     65  C   UNL A   1      43.918  26.847  31.582  1.00  0.00     0.031 C 
ATOM     66  C   UNL A   1      43.255  28.126  33.599  1.00  0.00     0.037 A 
BRANCH  53  67
ATOM     67  C   UNL A   1      39.095  32.139  35.748  1.00  0.00     0.064 A 
ATOM     68  C   UNL A   1      38.254  31.589  36.725  1.00  0.00     0.173 A 
ATOM     69  C   UNL A   1      39.548  33.454  35.933  1.00  0.00     0.173 A 
ATOM     70  F   UNL A   1      37.779  30.342  36.583  1.00  0.00    -0.203 F 
ATOM     71  C   UNL A   1      37.883  32.325  37.848  1.00  0.00     0.198 A 
ATOM     72  C   UNL A   1      39.199  34.178  37.070  1.00  0.00     0.198 A 
ATOM     73  F   UNL A   1      40.354  34.027  35.026  1.00  0.00    -0.203 F 
ATOM     74  F   UNL A   1      37.060  31.788  38.758  1.00  0.00    -0.200 F 
ATOM     75  C   UNL A   1      38.367  33.613  38.025  1.00  0.00     0.200 A 
ATOM     76  F   UNL A   1      39.679  35.416  37.248  1.00  0.00    -0.200 F 
ATOM     77  F   UNL A   1      38.033  34.310  39.120  1.00  0.00    -0.200 F 
ENDBRANCH  53  67
BRANCH  54  78
ATOM     78  C   UNL A   1      41.955  26.738  27.843  1.00  0.00     0.064 A 
ATOM     79  C   UNL A   1      41.437  25.454  27.619  1.00  0.00     0.173 A 
ATOM     80  C   UNL A   1      42.916  27.217  26.940  1.00  0.00     0.173 A 
ATOM     81  F   UNL A   1      40.538  24.938  28.470  1.00  0.00    -0.203 F 
ATOM     82  C   UNL A   1      41.873  24.677  26.547  1.00  0.00     0.198 A 
ATOM     83  C   UNL A   1      43.327  26.452  25.850  1.00  0.00     0.198 A 
ATOM     84  F   UNL A   1      43.451  28.436  27.110  1.00  0.00    -0.203 F 
ATOM     85  F   UNL A   1      41.396  23.435  26.387  1.00  0.00    -0.200 F 
ATOM     86  C   UNL A   1      42.811  25.179  25.659  1.00  0.00     0.200 A 
ATOM     87  F   UNL A   1      44.226  26.946  24.988  1.00  0.00    -0.200 F 
ATOM     88  F   UNL A   1      43.225  24.434  24.625  1.00  0.00    -0.200 F 
ENDBRANCH  54  78
BRANCH  66  89
ATOM     89  C   UNL A   1      44.414  27.519  34.336  1.00  0.00     0.064 A 
ATOM     90  C   UNL A   1      45.677  28.127  34.353  1.00  0.00     0.173 A 
ATOM     91  C   UNL A   1      44.233  26.360  35.110  1.00  0.00     0.173 A 
ATOM     92  F   UNL A   1      45.905  29.230  33.626  1.00  0.00    -0.203 F 
ATOM     93  C   UNL A   1      46.720  27.589  35.104  1.00  0.00     0.198 A 
ATOM     94  C   UNL A   1      45.268  25.845  35.885  1.00  0.00     0.198 A 
ATOM     95  F   UNL A   1      43.040  25.746  35.139  1.00  0.00    -0.203 F 
ATOM     96  F   UNL A   1      47.929  28.166  35.076  1.00  0.00    -0.200 F 
ATOM     97  C   UNL A   1      46.512  26.456  35.877  1.00  0.00     0.200 A 
ATOM     98  F   UNL A   1      45.057  24.765  36.649  1.00  0.00    -0.200 F 
ATOM     99  F   UNL A   1      47.510  25.954  36.615  1.00  0.00    -0.200 F 
ENDBRANCH  66  89
ENDBRANCH  40  41
ENDBRANCH  33  35
ENDBRANCH  32  33
ENDBRANCH  31  32
ENDBRANCH  30  31
ENDBRANCH  29  30
ENDBRANCH  28  29
ENDBRANCH   1  28
TORSDOF 21
ENDMDL
MODEL 3
REMARK VINA RESULT:     -10.6      3.415      8.763
REMARK SMILES Cc1c(Cl)cc2c(c1C)O[C@H](C(F)(F)F)C(C(=O)OCCOCCOCCOCCOC(=O)c1ccc(-c3c4nc(c(-c5c(F)c(F)c(F)c(F)c5F)c5ccc([nH]5)c(-c5c(F)c(F)c(F)c(F)c5F)c5nc(c(-c6c(F)c(F)c(F)c(F)c6F)c6ccc3[nH]6)C=C5)C=C4)cc1)=C2
REMARK SMILES IDX 26 1 25 2 24 3 23 4 22 5 21 6 20 7 19 8 17 9 18 10 16 11
REMARK SMILES IDX 1 12 2 13 3 14 8 15 4 16 5 17 7 18 9 19 6 20 10 21 97 22
REMARK SMILES IDX 11 23 12 24 13 25 14 26 15 27 27 28 28 29 29 30 30 31 31 32
REMARK SMILES IDX 32 33 33 34 34 35 35 36 96 37 36 38 95 39 37 40 38 41 39 42
REMARK SMILES IDX 89 43 40 44 94 45 88 46 90 47 41 48 93 49 87 50 86 51 42 53
REMARK SMILES IDX 74 54 54 55 73 56 55 57 58 58 72 59 91 60 56 61 57 62 71 64
REMARK SMILES IDX 92 65 59 66 43 67 44 68 52 69 45 70 46 71 50 72 53 73 47 74
REMARK SMILES IDX 48 75 51 76 49 77 75 78 76 79 84 80 77 81 78 82 82 83 85 84
REMARK SMILES IDX 79 85 80 86 83 87 81 88 60 89 61 90 69 91 62 92 63 93 67 94
REMARK SMILES IDX 70 95 64 96 65 97 68 98 66 99
REMARK H PARENT 90 52 58 63
REMARK Flexibility Score: inf
ROOT
ATOM      1  C   UNL A   1      39.232  22.434  26.560  1.00  0.00     0.188 C 
ENDROOT
BRANCH   1   2
ATOM      2  O   UNL A   1      38.209  22.874  25.663  1.00  0.00    -0.377 OA
BRANCH   2   3
ATOM      3  C   UNL A   1      36.893  22.379  25.860  1.00  0.00     0.188 C 
BRANCH   3   4
ATOM      4  C   UNL A   1      36.300  21.706  24.605  1.00  0.00     0.188 C 
BRANCH   4   5
ATOM      5  O   UNL A   1      34.898  21.878  24.490  1.00  0.00    -0.376 OA
BRANCH   5   6
ATOM      6  C   UNL A   1      34.320  22.480  23.346  1.00  0.00     0.202 C 
BRANCH   6   7
ATOM      7  C   UNL A   1      34.092  23.995  23.190  1.00  0.00     0.261 C 
BRANCH   7   8
ATOM      8  O   UNL A   1      32.741  24.456  23.156  1.00  0.00    -0.460 OA
BRANCH   8   9
ATOM      9  C   UNL A   1      32.083  24.538  24.326  1.00  0.00     0.338 C 
ATOM     10  O   UNL A   1      31.998  23.673  25.180  1.00  0.00    -0.246 OA
BRANCH   9  11
ATOM     11  C   UNL A   1      31.619  25.934  24.479  1.00  0.00     0.087 C 
ATOM     12  C   UNL A   1      29.408  31.983  23.578  1.00  0.00     0.046 C 
ATOM     13  C   UNL A   1      29.634  30.496  23.698  1.00  0.00    -0.026 A 
ATOM     14  C   UNL A   1      29.032  29.608  22.784  1.00  0.00     0.045 A 
ATOM     15  C   UNL A   1      30.538  29.971  24.658  1.00  0.00    -0.004 A 
ATOM     16  Cl  UNL A   1      27.939  30.142  21.552  1.00  0.00    -0.084 Cl
ATOM     17  C   UNL A   1      29.332  28.244  22.798  1.00  0.00     0.032 A 
ATOM     18  C   UNL A   1      30.809  28.585  24.673  1.00  0.00     0.131 A 
ATOM     19  C   UNL A   1      31.248  30.841  25.669  1.00  0.00     0.049 C 
ATOM     20  C   UNL A   1      30.250  27.738  23.716  1.00  0.00     0.019 A 
ATOM     21  O   UNL A   1      31.655  28.135  25.650  1.00  0.00    -0.475 OA
ATOM     22  C   UNL A   1      30.697  26.361  23.608  1.00  0.00     0.027 C 
ATOM     23  C   UNL A   1      32.132  26.765  25.624  1.00  0.00     0.316 C 
BRANCH  23  24
ATOM     24  C   UNL A   1      33.666  26.801  25.679  1.00  0.00     0.430 C 
ATOM     25  F   UNL A   1      34.197  27.033  24.454  1.00  0.00    -0.167 F 
ATOM     26  F   UNL A   1      34.124  27.784  26.489  1.00  0.00    -0.167 F 
ATOM     27  F   UNL A   1      34.179  25.634  26.129  1.00  0.00    -0.167 F 
ENDBRANCH  23  24
ENDBRANCH   9  11
ENDBRANCH   8   9
ENDBRANCH   7   8
ENDBRANCH   6   7
ENDBRANCH   5   6
ENDBRANCH   4   5
ENDBRANCH   3   4
ENDBRANCH   2   3
ENDBRANCH   1   2
BRANCH   1  28
ATOM     28  C   UNL A   1      40.282  21.368  26.161  1.00  0.00     0.188 C 
BRANCH  28  29
ATOM     29  O   UNL A   1      41.572  21.580  26.719  1.00  0.00    -0.376 OA
BRANCH  29  30
ATOM     30  C   UNL A   1      42.704  21.124  26.001  1.00  0.00     0.202 C 
BRANCH  30  31
ATOM     31  C   UNL A   1      43.575  22.208  25.354  1.00  0.00     0.261 C 
BRANCH  31  32
ATOM     32  O   UNL A   1      42.943  23.481  25.156  1.00  0.00    -0.460 OA
BRANCH  32  33
ATOM     33  C   UNL A   1      43.717  24.581  25.256  1.00  0.00     0.338 C 
ATOM     34  O   UNL A   1      44.664  24.887  24.551  1.00  0.00    -0.246 OA
BRANCH  33  35
ATOM     35  C   UNL A   1      43.101  25.465  26.266  1.00  0.00     0.060 A 
ATOM     36  C   UNL A   1      43.642  26.739  26.481  1.00  0.00     0.016 A 
ATOM     37  C   UNL A   1      41.981  25.039  26.983  1.00  0.00     0.016 A 
ATOM     38  C   UNL A   1      43.081  27.582  27.441  1.00  0.00     0.010 A 
ATOM     39  C   UNL A   1      41.434  25.874  27.961  1.00  0.00     0.010 A 
ATOM     40  C   UNL A   1      42.002  27.134  28.216  1.00  0.00    -0.014 A 
BRANCH  40  41
ATOM     41  C   UNL A   1      41.599  27.890  29.425  1.00  0.00     0.031 A 
ATOM     42  C   UNL A   1      40.389  28.779  29.333  1.00  0.00     0.074 A 
ATOM     43  C   UNL A   1      42.275  27.780  30.582  1.00  0.00     0.049 A 
ATOM     44  N   UNL A   1      39.878  29.584  30.228  1.00  0.00    -0.248 NA
ATOM     45  C   UNL A   1      39.654  28.753  28.057  1.00  0.00     0.031 C 
ATOM     46  C   UNL A   1      43.427  26.911  30.808  1.00  0.00     0.029 A 
ATOM     47  N   UNL A   1      42.086  28.412  31.786  1.00  0.00    -0.354 N 
ATOM     48  C   UNL A   1      38.765  30.155  29.625  1.00  0.00     0.074 A 
ATOM     49  C   UNL A   1      38.691  29.635  28.279  1.00  0.00     0.031 C 
ATOM     50  C   UNL A   1      43.850  27.071  32.074  1.00  0.00     0.029 A 
ATOM     51  C   UNL A   1      43.021  28.078  32.735  1.00  0.00     0.049 A 
ATOM     52  H   UNL A   1      41.350  29.044  31.954  1.00  0.00     0.167 HD
ATOM     53  C   UNL A   1      37.879  31.028  30.156  1.00  0.00     0.037 A 
ATOM     54  C   UNL A   1      43.197  28.553  33.986  1.00  0.00     0.037 A 
ATOM     55  C   UNL A   1      37.955  31.544  31.496  1.00  0.00     0.049 A 
ATOM     56  C   UNL A   1      42.248  29.598  34.519  1.00  0.00     0.074 A 
ATOM     57  C   UNL A   1      37.104  32.435  32.123  1.00  0.00     0.029 A 
ATOM     58  N   UNL A   1      38.943  31.216  32.412  1.00  0.00    -0.354 N 
ATOM     59  N   UNL A   1      41.193  30.130  33.948  1.00  0.00    -0.248 NA
ATOM     60  C   UNL A   1      42.512  30.110  35.873  1.00  0.00     0.031 C 
ATOM     61  C   UNL A   1      37.606  32.691  33.402  1.00  0.00     0.029 A 
ATOM     62  C   UNL A   1      38.733  31.909  33.594  1.00  0.00     0.049 A 
ATOM     63  H   UNL A   1      39.682  30.588  32.248  1.00  0.00     0.167 HD
ATOM     64  C   UNL A   1      40.652  31.007  34.880  1.00  0.00     0.074 A 
ATOM     65  C   UNL A   1      41.486  30.928  36.061  1.00  0.00     0.031 C 
ATOM     66  C   UNL A   1      39.561  31.805  34.769  1.00  0.00     0.037 A 
BRANCH  53  67
ATOM     67  C   UNL A   1      36.744  31.493  29.291  1.00  0.00     0.064 A 
ATOM     68  C   UNL A   1      35.664  30.654  28.986  1.00  0.00     0.173 A 
ATOM     69  C   UNL A   1      36.696  32.820  28.839  1.00  0.00     0.173 A 
ATOM     70  F   UNL A   1      35.672  29.371  29.380  1.00  0.00    -0.203 F 
ATOM     71  C   UNL A   1      34.574  31.126  28.259  1.00  0.00     0.198 A 
ATOM     72  C   UNL A   1      35.593  33.298  28.138  1.00  0.00     0.198 A 
ATOM     73  F   UNL A   1      37.706  33.663  29.105  1.00  0.00    -0.203 F 
ATOM     74  F   UNL A   1      33.562  30.301  27.959  1.00  0.00    -0.200 F 
ATOM     75  C   UNL A   1      34.534  32.451  27.848  1.00  0.00     0.200 A 
ATOM     76  F   UNL A   1      35.548  34.581  27.754  1.00  0.00    -0.200 F 
ATOM     77  F   UNL A   1      33.471  32.911  27.173  1.00  0.00    -0.200 F 
ENDBRANCH  53  67
BRANCH  54  78
ATOM     78  C   UNL A   1      44.319  28.050  34.824  1.00  0.00     0.064 A 
ATOM     79  C   UNL A   1      44.148  26.951  35.677  1.00  0.00     0.173 A 
ATOM     80  C   UNL A   1      45.578  28.669  34.806  1.00  0.00     0.173 A 
ATOM     81  F   UNL A   1      42.955  26.342  35.753  1.00  0.00    -0.203 F 
ATOM     82  C   UNL A   1      45.186  26.499  36.490  1.00  0.00     0.198 A 
ATOM     83  C   UNL A   1      46.626  28.196  35.595  1.00  0.00     0.198 A 
ATOM     84  F   UNL A   1      45.796  29.729  34.014  1.00  0.00    -0.203 F 
ATOM     85  F   UNL A   1      44.979  25.477  37.332  1.00  0.00    -0.200 F 
ATOM     86  C   UNL A   1      46.427  27.117  36.443  1.00  0.00     0.200 A 
ATOM     87  F   UNL A   1      47.826  28.790  35.539  1.00  0.00    -0.200 F 
ATOM     88  F   UNL A   1      47.426  26.679  37.220  1.00  0.00    -0.200 F 
ENDBRANCH  54  78
BRANCH  66  89
ATOM     89  C   UNL A   1      39.169  32.632  35.960  1.00  0.00     0.064 A 
ATOM     90  C   UNL A   1      38.376  32.111  36.992  1.00  0.00     0.173 A 
ATOM     91  C   UNL A   1      39.671  33.936  36.112  1.00  0.00     0.173 A 
ATOM     92  F   UNL A   1      37.866  30.875  36.892  1.00  0.00    -0.203 F 
ATOM     93  C   UNL A   1      38.085  32.870  38.123  1.00  0.00     0.198 A 
ATOM     94  C   UNL A   1      39.406  34.678  37.259  1.00  0.00     0.198 A 
ATOM     95  F   UNL A   1      40.446  34.477  35.160  1.00  0.00    -0.203 F 
ATOM     96  F   UNL A   1      37.295  32.365  39.080  1.00  0.00    -0.200 F 
ATOM     97  C   UNL A   1      38.610  34.147  38.261  1.00  0.00     0.200 A 
ATOM     98  F   UNL A   1      39.933  35.902  37.400  1.00  0.00    -0.200 F 
ATOM     99  F   UNL A   1      38.346  34.865  39.361  1.00  0.00    -0.200 F 
ENDBRANCH  66  89
ENDBRANCH  40  41
ENDBRANCH  33  35
ENDBRANCH  32  33
ENDBRANCH  31  32
ENDBRANCH  30  31
ENDBRANCH  29  30
ENDBRANCH  28  29
ENDBRANCH   1  28
TORSDOF 21
ENDMDL
