MODEL 1
REMARK VINA RESULT:      -9.5      0.000      0.000
REMARK SMILES Cc1cc(Br)cnc1SCC1(CC(=O)OCCOCCOCCOCCOC(=O)c2ccc(-c3c4nc(c(-c5c(F)c(F)c(F)c(F)c5F)c5ccc([nH]5)c(-c5c(F)c(F)c(F)c(F)c5F)c5nc(c(-c6c(F)c(F)c(F)c(F)c6F)c6ccc3[nH]6)C=C5)C=C4)cc2)CC1
REMARK SMILES IDX 20 1 19 2 18 3 17 4 16 5 15 6 13 7 14 8 12 9 11 10 93 11
REMARK SMILES IDX 94 12 10 13 9 14 8 15 1 16 2 17 3 18 4 19 7 20 5 21 6 22
REMARK SMILES IDX 21 23 22 24 23 25 24 26 25 27 26 28 27 29 28 30 29 31 30 32
REMARK SMILES IDX 31 33 92 34 32 35 91 36 33 37 34 38 35 39 85 40 36 41 90 42
REMARK SMILES IDX 84 43 86 44 37 45 89 46 83 47 82 48 38 50 70 51 50 52 69 53
REMARK SMILES IDX 51 54 54 55 68 56 87 57 52 58 53 59 67 61 88 62 55 63 39 64
REMARK SMILES IDX 40 65 48 66 41 67 42 68 46 69 49 70 43 71 44 72 47 73 45 74
REMARK SMILES IDX 71 75 72 76 80 77 73 78 74 79 78 80 81 81 75 82 76 83 79 84
REMARK SMILES IDX 77 85 56 86 57 87 65 88 58 89 59 90 63 91 66 92 60 93 61 94
REMARK SMILES IDX 64 95 62 96
REMARK H PARENT 86 49 54 60
REMARK Flexibility Score: inf
ROOT
ATOM      1  C   UNL A   1      31.924  25.330  26.630  1.00  0.00     0.188 C 
ENDROOT
BRANCH   1   2
ATOM      2  C   UNL A   1      31.484  23.844  26.672  1.00  0.00     0.188 C 
BRANCH   2   3
ATOM      3  O   UNL A   1      31.899  23.032  27.757  1.00  0.00    -0.376 OA
BRANCH   3   4
ATOM      4  C   UNL A   1      33.249  22.615  27.804  1.00  0.00     0.202 C 
BRANCH   4   5
ATOM      5  C   UNL A   1      33.725  21.350  27.053  1.00  0.00     0.261 C 
BRANCH   5   6
ATOM      6  O   UNL A   1      32.908  20.803  25.995  1.00  0.00    -0.463 OA
BRANCH   6   7
ATOM      7  C   UNL A   1      33.531  20.491  24.827  1.00  0.00     0.306 C 
ATOM      8  O   UNL A   1      33.220  19.534  24.127  1.00  0.00    -0.252 OA
BRANCH   7   9
ATOM      9  C   UNL A   1      34.749  21.357  24.528  1.00  0.00     0.130 C 
BRANCH   9  10
ATOM     10  C   UNL A   1      34.604  22.717  23.826  1.00  0.00    -0.010 C 
ATOM     11  C   UNL A   1      35.875  23.538  23.682  1.00  0.00     0.009 C 
ATOM     12  C   UNL A   1      34.837  23.966  24.669  1.00  0.00     0.009 C 
BRANCH  10  13
ATOM     13  C   UNL A   1      33.574  22.833  22.721  1.00  0.00     0.084 C 
BRANCH  13  14
ATOM     14  S   UNL A   1      31.865  23.102  23.134  1.00  0.00    -0.106 SA
BRANCH  14  15
ATOM     15  C   UNL A   1      31.410  24.806  23.026  1.00  0.00     0.099 A 
ATOM     16  C   UNL A   1      33.475  26.110  22.105  1.00  0.00     0.047 C 
ATOM     17  C   UNL A   1      32.056  25.953  22.553  1.00  0.00    -0.018 A 
ATOM     18  C   UNL A   1      31.301  27.150  22.488  1.00  0.00     0.023 A 
ATOM     19  C   UNL A   1      30.010  27.215  22.982  1.00  0.00     0.036 A 
ATOM     20  N   UNL A   1      30.154  24.903  23.554  1.00  0.00    -0.248 NA
ATOM     21  Br  UNL A   1      29.011  28.805  22.896  1.00  0.00    -0.049 Br
ATOM     22  C   UNL A   1      29.492  26.077  23.544  1.00  0.00     0.128 A 
ENDBRANCH  14  15
ENDBRANCH  13  14
ENDBRANCH  10  13
ENDBRANCH   9  10
ENDBRANCH   7   9
ENDBRANCH   6   7
ENDBRANCH   5   6
ENDBRANCH   4   5
ENDBRANCH   3   4
ENDBRANCH   2   3
ENDBRANCH   1   2
BRANCH   1  23
ATOM     23  O   UNL A   1      30.875  26.242  26.894  1.00  0.00    -0.377 OA
BRANCH  23  24
ATOM     24  C   UNL A   1      31.039  27.519  26.309  1.00  0.00     0.188 C 
BRANCH  24  25
ATOM     25  C   UNL A   1      32.062  28.449  26.983  1.00  0.00     0.188 C 
BRANCH  25  26
ATOM     26  O   UNL A   1      32.679  29.328  26.051  1.00  0.00    -0.376 OA
BRANCH  26  27
ATOM     27  C   UNL A   1      33.400  30.454  26.509  1.00  0.00     0.202 C 
BRANCH  27  28
ATOM     28  C   UNL A   1      32.607  31.619  27.122  1.00  0.00     0.261 C 
BRANCH  28  29
ATOM     29  O   UNL A   1      33.188  32.923  27.015  1.00  0.00    -0.460 OA
BRANCH  29  30
ATOM     30  C   UNL A   1      33.591  33.515  28.165  1.00  0.00     0.338 C 
ATOM     31  O   UNL A   1      32.994  34.342  28.811  1.00  0.00    -0.246 OA
BRANCH  30  32
ATOM     32  C   UNL A   1      34.820  32.811  28.607  1.00  0.00     0.060 A 
ATOM     33  C   UNL A   1      34.681  31.574  29.249  1.00  0.00     0.016 A 
ATOM     34  C   UNL A   1      36.090  33.327  28.332  1.00  0.00     0.016 A 
ATOM     35  C   UNL A   1      35.813  30.848  29.618  1.00  0.00     0.010 A 
ATOM     36  C   UNL A   1      37.224  32.619  28.743  1.00  0.00     0.010 A 
ATOM     37  C   UNL A   1      37.088  31.387  29.406  1.00  0.00    -0.014 A 
BRANCH  37  38
ATOM     38  C   UNL A   1      38.253  30.766  30.079  1.00  0.00     0.031 A 
ATOM     39  C   UNL A   1      38.525  31.154  31.506  1.00  0.00     0.074 A 
ATOM     40  C   UNL A   1      39.022  29.854  29.461  1.00  0.00     0.049 A 
ATOM     41  N   UNL A   1      39.485  30.772  32.306  1.00  0.00    -0.248 NA
ATOM     42  C   UNL A   1      37.576  32.105  32.112  1.00  0.00     0.031 C 
ATOM     43  C   UNL A   1      38.827  29.364  28.099  1.00  0.00     0.029 A 
ATOM     44  N   UNL A   1      40.133  29.181  29.906  1.00  0.00    -0.354 N 
ATOM     45  C   UNL A   1      39.254  31.427  33.507  1.00  0.00     0.074 A 
ATOM     46  C   UNL A   1      38.086  32.261  33.324  1.00  0.00     0.031 C 
ATOM     47  C   UNL A   1      39.799  28.480  27.812  1.00  0.00     0.029 A 
ATOM     48  C   UNL A   1      40.700  28.365  28.958  1.00  0.00     0.049 A 
ATOM     49  H   UNL A   1      40.490  29.275  30.820  1.00  0.00     0.167 HD
ATOM     50  C   UNL A   1      39.947  31.334  34.665  1.00  0.00     0.037 A 
ATOM     51  C   UNL A   1      41.830  27.633  29.010  1.00  0.00     0.037 A 
ATOM     52  C   UNL A   1      41.119  30.519  34.838  1.00  0.00     0.049 A 
ATOM     53  C   UNL A   1      42.639  27.619  30.285  1.00  0.00     0.074 A 
ATOM     54  C   UNL A   1      41.898  30.356  35.968  1.00  0.00     0.029 A 
ATOM     55  N   UNL A   1      41.686  29.735  33.843  1.00  0.00    -0.354 N 
ATOM     56  N   UNL A   1      42.403  28.222  31.427  1.00  0.00    -0.248 NA
ATOM     57  C   UNL A   1      43.873  26.819  30.280  1.00  0.00     0.031 C 
ATOM     58  C   UNL A   1      42.971  29.522  35.642  1.00  0.00     0.029 A 
ATOM     59  C   UNL A   1      42.824  29.109  34.327  1.00  0.00     0.049 A 
ATOM     60  H   UNL A   1      41.334  29.638  32.929  1.00  0.00     0.167 HD
ATOM     61  C   UNL A   1      43.434  27.847  32.280  1.00  0.00     0.074 A 
ATOM     62  C   UNL A   1      44.289  26.951  31.531  1.00  0.00     0.031 C 
ATOM     63  C   UNL A   1      43.657  28.212  33.568  1.00  0.00     0.037 A 
BRANCH  50  64
ATOM     64  C   UNL A   1      39.473  32.157  35.826  1.00  0.00     0.064 A 
ATOM     65  C   UNL A   1      38.467  31.701  36.692  1.00  0.00     0.173 A 
ATOM     66  C   UNL A   1      40.055  33.405  36.097  1.00  0.00     0.173 A 
ATOM     67  F   UNL A   1      37.864  30.524  36.465  1.00  0.00    -0.203 F 
ATOM     68  C   UNL A   1      38.050  32.471  37.774  1.00  0.00     0.198 A 
ATOM     69  C   UNL A   1      39.658  34.158  37.197  1.00  0.00     0.198 A 
ATOM     70  F   UNL A   1      41.018  33.889  35.298  1.00  0.00    -0.203 F 
ATOM     71  F   UNL A   1      37.056  32.036  38.561  1.00  0.00    -0.200 F 
ATOM     72  C   UNL A   1      38.651  33.693  38.032  1.00  0.00     0.200 A 
ATOM     73  F   UNL A   1      40.247  35.334  37.451  1.00  0.00    -0.200 F 
ATOM     74  F   UNL A   1      38.257  34.429  39.080  1.00  0.00    -0.200 F 
ENDBRANCH  50  64
BRANCH  51  75
ATOM     75  C   UNL A   1      42.289  26.871  27.816  1.00  0.00     0.064 A 
ATOM     76  C   UNL A   1      41.907  25.537  27.612  1.00  0.00     0.173 A 
ATOM     77  C   UNL A   1      43.162  27.447  26.881  1.00  0.00     0.173 A 
ATOM     78  F   UNL A   1      41.097  24.929  28.491  1.00  0.00    -0.203 F 
ATOM     79  C   UNL A   1      42.405  24.801  26.537  1.00  0.00     0.198 A 
ATOM     80  C   UNL A   1      43.631  26.721  25.788  1.00  0.00     0.198 A 
ATOM     81  F   UNL A   1      43.564  28.718  27.030  1.00  0.00    -0.203 F 
ATOM     82  F   UNL A   1      42.075  23.509  26.403  1.00  0.00    -0.200 F 
ATOM     83  C   UNL A   1      43.262  25.395  25.624  1.00  0.00     0.200 A 
ATOM     84  F   UNL A   1      44.449  27.303  24.901  1.00  0.00    -0.200 F 
ATOM     85  F   UNL A   1      43.743  24.686  24.593  1.00  0.00    -0.200 F 
ENDBRANCH  51  75
BRANCH  63  86
ATOM     86  C   UNL A   1      44.845  27.609  34.263  1.00  0.00     0.064 A 
ATOM     87  C   UNL A   1      44.772  26.371  34.918  1.00  0.00     0.173 A 
ATOM     88  C   UNL A   1      46.088  28.264  34.238  1.00  0.00     0.173 A 
ATOM     89  F   UNL A   1      43.607  25.709  34.981  1.00  0.00    -0.203 F 
ATOM     90  C   UNL A   1      45.887  25.827  35.550  1.00  0.00     0.198 A 
ATOM     91  C   UNL A   1      47.210  27.699  34.838  1.00  0.00     0.198 A 
ATOM     92  F   UNL A   1      46.218  29.445  33.615  1.00  0.00    -0.203 F 
ATOM     93  F   UNL A   1      45.778  24.670  36.219  1.00  0.00    -0.200 F 
ATOM     94  C   UNL A   1      47.106  26.487  35.504  1.00  0.00     0.200 A 
ATOM     95  F   UNL A   1      48.390  28.329  34.773  1.00  0.00    -0.200 F 
ATOM     96  F   UNL A   1      48.180  25.958  36.104  1.00  0.00    -0.200 F 
ENDBRANCH  63  86
ENDBRANCH  37  38
ENDBRANCH  30  32
ENDBRANCH  29  30
ENDBRANCH  28  29
ENDBRANCH  27  28
ENDBRANCH  26  27
ENDBRANCH  25  26
ENDBRANCH  24  25
ENDBRANCH  23  24
ENDBRANCH   1  23
TORSDOF 24
ENDMDL
MODEL 2
REMARK VINA RESULT:      -9.5      2.647      3.755
REMARK SMILES Cc1cc(Br)cnc1SCC1(CC(=O)OCCOCCOCCOCCOC(=O)c2ccc(-c3c4nc(c(-c5c(F)c(F)c(F)c(F)c5F)c5ccc([nH]5)c(-c5c(F)c(F)c(F)c(F)c5F)c5nc(c(-c6c(F)c(F)c(F)c(F)c6F)c6ccc3[nH]6)C=C5)C=C4)cc2)CC1
REMARK SMILES IDX 20 1 19 2 18 3 17 4 16 5 15 6 13 7 14 8 12 9 11 10 93 11
REMARK SMILES IDX 94 12 10 13 9 14 8 15 1 16 2 17 3 18 4 19 7 20 5 21 6 22
REMARK SMILES IDX 21 23 22 24 23 25 24 26 25 27 26 28 27 29 28 30 29 31 30 32
REMARK SMILES IDX 31 33 92 34 32 35 91 36 33 37 34 38 35 39 85 40 36 41 90 42
REMARK SMILES IDX 84 43 86 44 37 45 89 46 83 47 82 48 38 50 70 51 50 52 69 53
REMARK SMILES IDX 51 54 54 55 68 56 87 57 52 58 53 59 67 61 88 62 55 63 39 64
REMARK SMILES IDX 40 65 48 66 41 67 42 68 46 69 49 70 43 71 44 72 47 73 45 74
REMARK SMILES IDX 71 75 72 76 80 77 73 78 74 79 78 80 81 81 75 82 76 83 79 84
REMARK SMILES IDX 77 85 56 86 57 87 65 88 58 89 59 90 63 91 66 92 60 93 61 94
REMARK SMILES IDX 64 95 62 96
REMARK H PARENT 86 49 54 60
REMARK Flexibility Score: inf
ROOT
ATOM      1  C   UNL A   1      31.416  24.418  26.505  1.00  0.00     0.188 C 
ENDROOT
BRANCH   1   2
ATOM      2  C   UNL A   1      31.246  22.930  26.907  1.00  0.00     0.188 C 
BRANCH   2   3
ATOM      3  O   UNL A   1      31.983  22.424  28.006  1.00  0.00    -0.376 OA
BRANCH   3   4
ATOM      4  C   UNL A   1      33.387  22.599  28.009  1.00  0.00     0.202 C 
BRANCH   4   5
ATOM      5  C   UNL A   1      34.332  21.514  27.445  1.00  0.00     0.261 C 
BRANCH   5   6
ATOM      6  O   UNL A   1      33.902  20.710  26.325  1.00  0.00    -0.463 OA
BRANCH   6   7
ATOM      7  C   UNL A   1      34.790  20.532  25.310  1.00  0.00     0.306 C 
ATOM      8  O   UNL A   1      34.674  19.665  24.451  1.00  0.00    -0.252 OA
BRANCH   7   9
ATOM      9  C   UNL A   1      36.026  21.417  25.410  1.00  0.00     0.130 C 
BRANCH   9  10
ATOM     10  C   UNL A   1      36.073  22.797  24.733  1.00  0.00    -0.010 C 
ATOM     11  C   UNL A   1      37.293  23.652  25.034  1.00  0.00     0.009 C 
ATOM     12  C   UNL A   1      35.977  24.021  25.637  1.00  0.00     0.009 C 
BRANCH  10  13
ATOM     13  C   UNL A   1      35.457  22.927  23.356  1.00  0.00     0.084 C 
BRANCH  13  14
ATOM     14  S   UNL A   1      33.695  22.779  23.161  1.00  0.00    -0.106 SA
BRANCH  14  15
ATOM     15  C   UNL A   1      32.919  24.343  22.886  1.00  0.00     0.099 A 
ATOM     16  C   UNL A   1      30.342  23.987  23.104  1.00  0.00     0.047 C 
ATOM     17  C   UNL A   1      31.595  24.789  22.937  1.00  0.00    -0.018 A 
ATOM     18  C   UNL A   1      31.366  26.180  22.800  1.00  0.00     0.023 A 
ATOM     19  C   UNL A   1      32.400  27.055  22.509  1.00  0.00     0.036 A 
ATOM     20  N   UNL A   1      33.917  25.213  22.551  1.00  0.00    -0.248 NA
ATOM     21  Br  UNL A   1      32.094  28.901  22.327  1.00  0.00    -0.049 Br
ATOM     22  C   UNL A   1      33.652  26.520  22.353  1.00  0.00     0.128 A 
ENDBRANCH  14  15
ENDBRANCH  13  14
ENDBRANCH  10  13
ENDBRANCH   9  10
ENDBRANCH   7   9
ENDBRANCH   6   7
ENDBRANCH   5   6
ENDBRANCH   4   5
ENDBRANCH   3   4
ENDBRANCH   2   3
ENDBRANCH   1   2
BRANCH   1  23
ATOM     23  O   UNL A   1      30.204  25.149  26.504  1.00  0.00    -0.377 OA
BRANCH  23  24
ATOM     24  C   UNL A   1      30.293  26.443  25.940  1.00  0.00     0.188 C 
BRANCH  24  25
ATOM     25  C   UNL A   1      31.197  27.444  26.678  1.00  0.00     0.188 C 
BRANCH  25  26
ATOM     26  O   UNL A   1      32.157  28.036  25.812  1.00  0.00    -0.376 OA
BRANCH  26  27
ATOM     27  C   UNL A   1      33.418  28.430  26.315  1.00  0.00     0.202 C 
BRANCH  27  28
ATOM     28  C   UNL A   1      33.451  29.465  27.451  1.00  0.00     0.261 C 
BRANCH  28  29
ATOM     29  O   UNL A   1      34.219  30.651  27.222  1.00  0.00    -0.460 OA
BRANCH  29  30
ATOM     30  C   UNL A   1      34.795  31.230  28.303  1.00  0.00     0.338 C 
ATOM     31  O   UNL A   1      34.296  32.027  29.059  1.00  0.00    -0.246 OA
BRANCH  30  32
ATOM     32  C   UNL A   1      36.098  30.553  28.515  1.00  0.00     0.060 A 
ATOM     33  C   UNL A   1      36.347  29.973  29.766  1.00  0.00     0.016 A 
ATOM     34  C   UNL A   1      37.030  30.430  27.480  1.00  0.00     0.016 A 
ATOM     35  C   UNL A   1      37.530  29.267  29.985  1.00  0.00     0.010 A 
ATOM     36  C   UNL A   1      38.235  29.761  27.714  1.00  0.00     0.010 A 
ATOM     37  C   UNL A   1      38.498  29.195  28.975  1.00  0.00    -0.014 A 
BRANCH  37  38
ATOM     38  C   UNL A   1      39.862  28.728  29.317  1.00  0.00     0.031 A 
ATOM     39  C   UNL A   1      40.698  29.604  30.207  1.00  0.00     0.074 A 
ATOM     40  C   UNL A   1      40.331  27.544  28.886  1.00  0.00     0.049 A 
ATOM     41  N   UNL A   1      41.922  29.433  30.634  1.00  0.00    -0.248 NA
ATOM     42  C   UNL A   1      40.060  30.844  30.683  1.00  0.00     0.031 C 
ATOM     43  C   UNL A   1      39.595  26.591  28.060  1.00  0.00     0.029 A 
ATOM     44  N   UNL A   1      41.551  26.948  29.086  1.00  0.00    -0.354 N 
ATOM     45  C   UNL A   1      42.197  30.535  31.431  1.00  0.00     0.074 A 
ATOM     46  C   UNL A   1      41.030  31.389  31.400  1.00  0.00     0.031 C 
ATOM     47  C   UNL A   1      40.388  25.534  27.807  1.00  0.00     0.029 A 
ATOM     48  C   UNL A   1      41.693  25.751  28.428  1.00  0.00     0.049 A 
ATOM     49  H   UNL A   1      42.258  27.342  29.647  1.00  0.00     0.167 HD
ATOM     50  C   UNL A   1      43.319  30.807  32.135  1.00  0.00     0.037 A 
ATOM     51  C   UNL A   1      42.767  24.943  28.324  1.00  0.00     0.037 A 
ATOM     52  C   UNL A   1      44.485  29.965  32.147  1.00  0.00     0.049 A 
ATOM     53  C   UNL A   1      44.041  25.315  29.044  1.00  0.00     0.074 A 
ATOM     54  C   UNL A   1      45.676  30.150  32.824  1.00  0.00     0.029 A 
ATOM     55  N   UNL A   1      44.606  28.778  31.438  1.00  0.00    -0.354 N 
ATOM     56  N   UNL A   1      44.288  26.347  29.816  1.00  0.00    -0.248 NA
ATOM     57  C   UNL A   1      45.185  24.407  28.881  1.00  0.00     0.031 C 
ATOM     58  C   UNL A   1      46.541  29.107  32.478  1.00  0.00     0.029 A 
ATOM     59  C   UNL A   1      45.865  28.236  31.639  1.00  0.00     0.049 A 
ATOM     60  H   UNL A   1      43.903  28.381  30.875  1.00  0.00     0.167 HD
ATOM     61  C   UNL A   1      45.598  26.194  30.255  1.00  0.00     0.074 A 
ATOM     62  C   UNL A   1      46.088  24.961  29.678  1.00  0.00     0.031 C 
ATOM     63  C   UNL A   1      46.332  27.000  31.062  1.00  0.00     0.037 A 
BRANCH  50  64
ATOM     64  C   UNL A   1      43.351  32.081  32.927  1.00  0.00     0.064 A 
ATOM     65  C   UNL A   1      42.954  32.124  34.272  1.00  0.00     0.173 A 
ATOM     66  C   UNL A   1      43.817  33.268  32.342  1.00  0.00     0.173 A 
ATOM     67  F   UNL A   1      42.481  31.021  34.872  1.00  0.00    -0.203 F 
ATOM     68  C   UNL A   1      43.004  33.312  34.996  1.00  0.00     0.198 A 
ATOM     69  C   UNL A   1      43.896  34.447  33.077  1.00  0.00     0.198 A 
ATOM     70  F   UNL A   1      44.206  33.283  31.058  1.00  0.00    -0.203 F 
ATOM     71  F   UNL A   1      42.576  33.340  36.266  1.00  0.00    -0.200 F 
ATOM     72  C   UNL A   1      43.484  34.469  34.402  1.00  0.00     0.200 A 
ATOM     73  F   UNL A   1      44.369  35.562  32.504  1.00  0.00    -0.200 F 
ATOM     74  F   UNL A   1      43.543  35.610  35.103  1.00  0.00    -0.200 F 
ENDBRANCH  50  64
BRANCH  51  75
ATOM     75  C   UNL A   1      42.704  23.713  27.487  1.00  0.00     0.064 A 
ATOM     76  C   UNL A   1      42.295  22.484  28.025  1.00  0.00     0.173 A 
ATOM     77  C   UNL A   1      43.104  23.732  26.142  1.00  0.00     0.173 A 
ATOM     78  F   UNL A   1      41.930  22.405  29.313  1.00  0.00    -0.203 F 
ATOM     79  C   UNL A   1      42.317  21.319  27.260  1.00  0.00     0.198 A 
ATOM     80  C   UNL A   1      43.092  22.573  25.368  1.00  0.00     0.198 A 
ATOM     81  F   UNL A   1      43.510  24.878  25.577  1.00  0.00    -0.203 F 
ATOM     82  F   UNL A   1      41.983  20.147  27.818  1.00  0.00    -0.200 F 
ATOM     83  C   UNL A   1      42.711  21.365  25.931  1.00  0.00     0.200 A 
ATOM     84  F   UNL A   1      43.462  22.624  24.082  1.00  0.00    -0.200 F 
ATOM     85  F   UNL A   1      42.736  20.244  25.198  1.00  0.00    -0.200 F 
ENDBRANCH  51  75
BRANCH  63  86
ATOM     86  C   UNL A   1      47.726  26.555  31.405  1.00  0.00     0.064 A 
ATOM     87  C   UNL A   1      48.841  26.975  30.664  1.00  0.00     0.173 A 
ATOM     88  C   UNL A   1      47.952  25.728  32.517  1.00  0.00     0.173 A 
ATOM     89  F   UNL A   1      48.680  27.757  29.586  1.00  0.00    -0.203 F 
ATOM     90  C   UNL A   1      50.126  26.557  31.004  1.00  0.00     0.198 A 
ATOM     91  C   UNL A   1      49.241  25.343  32.876  1.00  0.00     0.198 A 
ATOM     92  F   UNL A   1      46.923  25.307  33.268  1.00  0.00    -0.203 F 
ATOM     93  F   UNL A   1      51.169  26.925  30.247  1.00  0.00    -0.200 F 
ATOM     94  C   UNL A   1      50.325  25.748  32.113  1.00  0.00     0.200 A 
ATOM     95  F   UNL A   1      49.433  24.579  33.960  1.00  0.00    -0.200 F 
ATOM     96  F   UNL A   1      51.562  25.355  32.442  1.00  0.00    -0.200 F 
ENDBRANCH  63  86
ENDBRANCH  37  38
ENDBRANCH  30  32
ENDBRANCH  29  30
ENDBRANCH  28  29
ENDBRANCH  27  28
ENDBRANCH  26  27
ENDBRANCH  25  26
ENDBRANCH  24  25
ENDBRANCH  23  24
ENDBRANCH   1  23
TORSDOF 24
ENDMDL
MODEL 3
REMARK VINA RESULT:      -9.3      2.774      3.974
REMARK SMILES Cc1cc(Br)cnc1SCC1(CC(=O)OCCOCCOCCOCCOC(=O)c2ccc(-c3c4nc(c(-c5c(F)c(F)c(F)c(F)c5F)c5ccc([nH]5)c(-c5c(F)c(F)c(F)c(F)c5F)c5nc(c(-c6c(F)c(F)c(F)c(F)c6F)c6ccc3[nH]6)C=C5)C=C4)cc2)CC1
REMARK SMILES IDX 20 1 19 2 18 3 17 4 16 5 15 6 13 7 14 8 12 9 11 10 93 11
REMARK SMILES IDX 94 12 10 13 9 14 8 15 1 16 2 17 3 18 4 19 7 20 5 21 6 22
REMARK SMILES IDX 21 23 22 24 23 25 24 26 25 27 26 28 27 29 28 30 29 31 30 32
REMARK SMILES IDX 31 33 92 34 32 35 91 36 33 37 34 38 35 39 85 40 36 41 90 42
REMARK SMILES IDX 84 43 86 44 37 45 89 46 83 47 82 48 38 50 70 51 50 52 69 53
REMARK SMILES IDX 51 54 54 55 68 56 87 57 52 58 53 59 67 61 88 62 55 63 39 64
REMARK SMILES IDX 40 65 48 66 41 67 42 68 46 69 49 70 43 71 44 72 47 73 45 74
REMARK SMILES IDX 71 75 72 76 80 77 73 78 74 79 78 80 81 81 75 82 76 83 79 84
REMARK SMILES IDX 77 85 56 86 57 87 65 88 58 89 59 90 63 91 66 92 60 93 61 94
REMARK SMILES IDX 64 95 62 96
REMARK H PARENT 86 49 54 60
REMARK Flexibility Score: inf
ROOT
ATOM      1  C   UNL A   1      31.847  24.446  26.887  1.00  0.00     0.188 C 
ENDROOT
BRANCH   1   2
ATOM      2  C   UNL A   1      31.805  22.939  27.248  1.00  0.00     0.188 C 
BRANCH   2   3
ATOM      3  O   UNL A   1      32.788  22.412  28.122  1.00  0.00    -0.376 OA
BRANCH   3   4
ATOM      4  C   UNL A   1      34.140  22.441  27.707  1.00  0.00     0.202 C 
BRANCH   4   5
ATOM      5  C   UNL A   1      34.682  21.433  26.668  1.00  0.00     0.261 C 
BRANCH   5   6
ATOM      6  O   UNL A   1      33.770  20.516  26.025  1.00  0.00    -0.463 OA
BRANCH   6   7
ATOM      7  C   UNL A   1      33.605  20.643  24.681  1.00  0.00     0.306 C 
ATOM      8  O   UNL A   1      33.163  19.752  23.964  1.00  0.00    -0.252 OA
BRANCH   7   9
ATOM      9  C   UNL A   1      34.152  21.947  24.113  1.00  0.00     0.130 C 
BRANCH   9  10
ATOM     10  C   UNL A   1      33.226  22.965  23.428  1.00  0.00    -0.010 C 
ATOM     11  C   UNL A   1      31.746  22.619  23.407  1.00  0.00     0.009 C 
ATOM     12  C   UNL A   1      32.535  22.526  22.141  1.00  0.00     0.009 C 
BRANCH  10  13
ATOM     13  C   UNL A   1      33.595  24.430  23.528  1.00  0.00     0.084 C 
BRANCH  13  14
ATOM     14  S   UNL A   1      33.490  25.466  22.085  1.00  0.00    -0.106 SA
BRANCH  14  15
ATOM     15  C   UNL A   1      32.588  26.954  22.393  1.00  0.00     0.099 A 
ATOM     16  C   UNL A   1      34.286  28.730  23.271  1.00  0.00     0.047 C 
ATOM     17  C   UNL A   1      32.953  28.240  22.800  1.00  0.00    -0.018 A 
ATOM     18  C   UNL A   1      31.948  29.239  22.794  1.00  0.00     0.023 A 
ATOM     19  C   UNL A   1      30.629  28.932  22.509  1.00  0.00     0.036 A 
ATOM     20  N   UNL A   1      31.274  26.660  22.163  1.00  0.00    -0.248 NA
ATOM     21  Br  UNL A   1      29.297  30.259  22.502  1.00  0.00    -0.049 Br
ATOM     22  C   UNL A   1      30.331  27.621  22.240  1.00  0.00     0.128 A 
ENDBRANCH  14  15
ENDBRANCH  13  14
ENDBRANCH  10  13
ENDBRANCH   9  10
ENDBRANCH   7   9
ENDBRANCH   6   7
ENDBRANCH   5   6
ENDBRANCH   4   5
ENDBRANCH   3   4
ENDBRANCH   2   3
ENDBRANCH   1   2
BRANCH   1  23
ATOM     23  O   UNL A   1      30.583  24.983  26.541  1.00  0.00    -0.377 OA
BRANCH  23  24
ATOM     24  C   UNL A   1      30.609  25.921  25.483  1.00  0.00     0.188 C 
BRANCH  24  25
ATOM     25  C   UNL A   1      30.808  27.392  25.884  1.00  0.00     0.188 C 
BRANCH  25  26
ATOM     26  O   UNL A   1      32.180  27.710  26.083  1.00  0.00    -0.376 OA
BRANCH  26  27
ATOM     27  C   UNL A   1      32.589  28.381  27.257  1.00  0.00     0.202 C 
BRANCH  27  28
ATOM     28  C   UNL A   1      32.809  29.901  27.181  1.00  0.00     0.261 C 
BRANCH  28  29
ATOM     29  O   UNL A   1      34.160  30.350  27.027  1.00  0.00    -0.460 OA
BRANCH  29  30
ATOM     30  C   UNL A   1      34.736  30.947  28.099  1.00  0.00     0.338 C 
ATOM     31  O   UNL A   1      34.227  31.730  28.863  1.00  0.00    -0.246 OA
BRANCH  30  32
ATOM     32  C   UNL A   1      36.062  30.307  28.290  1.00  0.00     0.060 A 
ATOM     33  C   UNL A   1      36.316  29.660  29.506  1.00  0.00     0.016 A 
ATOM     34  C   UNL A   1      37.012  30.286  27.265  1.00  0.00     0.016 A 
ATOM     35  C   UNL A   1      37.522  28.987  29.699  1.00  0.00     0.010 A 
ATOM     36  C   UNL A   1      38.239  29.650  27.476  1.00  0.00     0.010 A 
ATOM     37  C   UNL A   1      38.505  29.016  28.703  1.00  0.00    -0.014 A 
BRANCH  37  38
ATOM     38  C   UNL A   1      39.882  28.580  29.037  1.00  0.00     0.031 A 
ATOM     39  C   UNL A   1      40.725  29.505  29.869  1.00  0.00     0.074 A 
ATOM     40  C   UNL A   1      40.356  27.383  28.652  1.00  0.00     0.049 A 
ATOM     41  N   UNL A   1      41.959  29.368  30.278  1.00  0.00    -0.248 NA
ATOM     42  C   UNL A   1      40.082  30.759  30.301  1.00  0.00     0.031 C 
ATOM     43  C   UNL A   1      39.616  26.384  27.886  1.00  0.00     0.029 A 
ATOM     44  N   UNL A   1      41.587  26.810  28.853  1.00  0.00    -0.354 N 
ATOM     45  C   UNL A   1      42.237  30.509  31.017  1.00  0.00     0.074 A 
ATOM     46  C   UNL A   1      41.059  31.347  30.972  1.00  0.00     0.031 C 
ATOM     47  C   UNL A   1      40.415  25.326  27.665  1.00  0.00     0.029 A 
ATOM     48  C   UNL A   1      41.731  25.586  28.248  1.00  0.00     0.049 A 
ATOM     49  H   UNL A   1      42.301  27.237  29.381  1.00  0.00     0.167 HD
ATOM     50  C   UNL A   1      43.370  30.825  31.685  1.00  0.00     0.037 A 
ATOM     51  C   UNL A   1      42.812  24.785  28.159  1.00  0.00     0.037 A 
ATOM     52  C   UNL A   1      44.546  29.997  31.712  1.00  0.00     0.049 A 
ATOM     53  C   UNL A   1      44.095  25.205  28.835  1.00  0.00     0.074 A 
ATOM     54  C   UNL A   1      45.748  30.226  32.354  1.00  0.00     0.029 A 
ATOM     55  N   UNL A   1      44.667  28.781  31.055  1.00  0.00    -0.354 N 
ATOM     56  N   UNL A   1      44.345  26.274  29.554  1.00  0.00    -0.248 NA
ATOM     57  C   UNL A   1      45.247  24.303  28.689  1.00  0.00     0.031 C 
ATOM     58  C   UNL A   1      46.618  29.179  32.038  1.00  0.00     0.029 A 
ATOM     59  C   UNL A   1      45.937  28.262  31.254  1.00  0.00     0.049 A 
ATOM     60  H   UNL A   1      43.958  28.350  30.526  1.00  0.00     0.167 HD
ATOM     61  C   UNL A   1      45.666  26.156  29.972  1.00  0.00     0.074 A 
ATOM     62  C   UNL A   1      46.159  24.903  29.441  1.00  0.00     0.031 C 
ATOM     63  C   UNL A   1      46.406  27.007  30.725  1.00  0.00     0.037 A 
BRANCH  50  64
ATOM     64  C   UNL A   1      43.403  32.134  32.417  1.00  0.00     0.064 A 
ATOM     65  C   UNL A   1      43.898  33.302  31.817  1.00  0.00     0.173 A 
ATOM     66  C   UNL A   1      42.901  32.230  33.723  1.00  0.00     0.173 A 
ATOM     67  F   UNL A   1      44.408  33.261  30.577  1.00  0.00    -0.203 F 
ATOM     68  C   UNL A   1      43.906  34.512  32.505  1.00  0.00     0.198 A 
ATOM     69  C   UNL A   1      42.882  33.447  34.397  1.00  0.00     0.198 A 
ATOM     70  F   UNL A   1      42.419  31.142  34.344  1.00  0.00    -0.203 F 
ATOM     71  F   UNL A   1      44.426  35.606  31.930  1.00  0.00    -0.200 F 
ATOM     72  C   UNL A   1      43.390  34.586  33.790  1.00  0.00     0.200 A 
ATOM     73  F   UNL A   1      42.373  33.518  35.635  1.00  0.00    -0.200 F 
ATOM     74  F   UNL A   1      43.387  35.754  34.447  1.00  0.00    -0.200 F 
ENDBRANCH  50  64
BRANCH  51  75
ATOM     75  C   UNL A   1      42.747  23.518  27.380  1.00  0.00     0.064 A 
ATOM     76  C   UNL A   1      42.141  22.368  27.908  1.00  0.00     0.173 A 
ATOM     77  C   UNL A   1      43.338  23.417  26.112  1.00  0.00     0.173 A 
ATOM     78  F   UNL A   1      41.586  22.403  29.128  1.00  0.00    -0.203 F 
ATOM     79  C   UNL A   1      42.155  21.161  27.210  1.00  0.00     0.198 A 
ATOM     80  C   UNL A   1      43.322  22.218  25.401  1.00  0.00     0.198 A 
ATOM     81  F   UNL A   1      43.937  24.483  25.562  1.00  0.00    -0.203 F 
ATOM     82  F   UNL A   1      41.626  20.062  27.766  1.00  0.00    -0.200 F 
ATOM     83  C   UNL A   1      42.742  21.088  25.956  1.00  0.00     0.200 A 
ATOM     84  F   UNL A   1      43.878  22.156  24.184  1.00  0.00    -0.200 F 
ATOM     85  F   UNL A   1      42.759  19.927  25.288  1.00  0.00    -0.200 F 
ENDBRANCH  51  75
BRANCH  63  86
ATOM     86  C   UNL A   1      47.812  26.593  31.059  1.00  0.00     0.064 A 
ATOM     87  C   UNL A   1      48.109  25.827  32.196  1.00  0.00     0.173 A 
ATOM     88  C   UNL A   1      48.873  26.935  30.204  1.00  0.00     0.173 A 
ATOM     89  F   UNL A   1      47.135  25.482  33.051  1.00  0.00    -0.203 F 
ATOM     90  C   UNL A   1      49.419  25.448  32.483  1.00  0.00     0.198 A 
ATOM     91  C   UNL A   1      50.175  26.523  30.474  1.00  0.00     0.198 A 
ATOM     92  F   UNL A   1      48.644  27.656  29.097  1.00  0.00    -0.203 F 
ATOM     93  F   UNL A   1      49.685  24.766  33.605  1.00  0.00    -0.200 F 
ATOM     94  C   UNL A   1      50.449  25.790  31.618  1.00  0.00     0.200 A 
ATOM     95  F   UNL A   1      51.164  26.836  29.626  1.00  0.00    -0.200 F 
ATOM     96  F   UNL A   1      51.706  25.417  31.891  1.00  0.00    -0.200 F 
ENDBRANCH  63  86
ENDBRANCH  37  38
ENDBRANCH  30  32
ENDBRANCH  29  30
ENDBRANCH  28  29
ENDBRANCH  27  28
ENDBRANCH  26  27
ENDBRANCH  25  26
ENDBRANCH  24  25
ENDBRANCH  23  24
ENDBRANCH   1  23
TORSDOF 24
ENDMDL
