MODEL 1
REMARK VINA RESULT:     -10.8      0.000      0.000
REMARK SMILES O=C(NCc1ccc(C(=O)OCCOCCOCCOCCOC(=O)c2ccc(-c3c4nc(c(-c5c(F)c(F)c(F)c(F)c5F)c5ccc([nH]5)c(-c5c(F)c(F)c(F)c(F)c5F)c5nc(c(-c6c(F)c(F)c(F)c(F)c6F)c6ccc3[nH]6)C=C5)C=C4)cc2)o1)Nc1ccc(F)c(Cl)c1
REMARK SMILES IDX 16 1 15 2 14 3 13 4 12 5 11 6 9 7 10 8 8 9 5 10 6 11 89 12
REMARK SMILES IDX 7 13 4 14 3 15 1 16 2 17 90 18 91 21 92 22 98 23 93 24 96 25
REMARK SMILES IDX 94 26 97 27 95 28 17 29 18 30 19 31 20 32 21 33 22 34 23 35
REMARK SMILES IDX 24 36 25 37 26 38 27 39 88 40 28 41 87 42 29 43 30 44 31 45
REMARK SMILES IDX 81 46 32 47 86 48 80 49 82 50 33 51 85 52 79 53 78 54 34 56
REMARK SMILES IDX 66 57 46 58 65 59 47 60 50 61 64 62 83 63 48 64 49 65 63 67
REMARK SMILES IDX 84 68 51 69 35 70 36 71 44 72 37 73 38 74 42 75 45 76 39 77
REMARK SMILES IDX 40 78 43 79 41 80 67 81 68 82 76 83 69 84 70 85 74 86 77 87
REMARK SMILES IDX 71 88 72 89 75 90 73 91 52 92 53 93 61 94 54 95 55 96 59 97
REMARK SMILES IDX 62 98 56 99 57 100 60 101 58 102
REMARK H PARENT 3 19 90 20 82 55 50 66
REMARK Flexibility Score: inf
ROOT
ATOM      1  C   UNL A   1      34.631  23.333  23.531  1.00  0.00     0.188 C 
ENDROOT
BRANCH   1   2
ATOM      2  C   UNL A   1      34.264  24.820  23.389  1.00  0.00     0.188 C 
BRANCH   2   3
ATOM      3  O   UNL A   1      33.685  25.129  22.121  1.00  0.00    -0.376 OA
BRANCH   3   4
ATOM      4  C   UNL A   1      33.279  26.481  21.929  1.00  0.00     0.202 C 
BRANCH   4   5
ATOM      5  C   UNL A   1      33.301  27.378  23.177  1.00  0.00     0.261 C 
BRANCH   5   6
ATOM      6  O   UNL A   1      32.073  28.051  23.489  1.00  0.00    -0.457 OA
BRANCH   6   7
ATOM      7  C   UNL A   1      30.907  27.356  23.381  1.00  0.00     0.374 C 
ATOM      8  O   UNL A   1      30.122  27.457  22.445  1.00  0.00    -0.242 OA
BRANCH   7   9
ATOM      9  C   UNL A   1      30.841  26.405  24.465  1.00  0.00     0.211 A 
ATOM     10  C   UNL A   1      31.007  24.390  25.352  1.00  0.00     0.124 A 
ATOM     11  C   UNL A   1      30.928  25.276  26.407  1.00  0.00     0.048 A 
ATOM     12  O   UNL A   1      30.914  25.068  24.170  1.00  0.00    -0.452 OA
ATOM     13  C   UNL A   1      30.836  26.567  25.838  1.00  0.00     0.058 A 
BRANCH  10  14
ATOM     14  C   UNL A   1      31.195  22.918  25.262  1.00  0.00     0.193 C 
BRANCH  14  15
ATOM     15  N   UNL A   1      32.280  22.537  26.145  1.00  0.00    -0.331 N 
ATOM     16  O   UNL A   1      33.645  21.185  27.248  1.00  0.00    -0.248 OA
ATOM     17  C   UNL A   1      32.975  21.373  26.237  1.00  0.00     0.319 C 
ATOM     18  N   UNL A   1      32.874  20.520  25.174  1.00  0.00    -0.308 N 
ATOM     19  H   UNL A   1      32.559  23.235  26.781  1.00  0.00     0.165 HD
ATOM     20  H   UNL A   1      32.436  20.874  24.367  1.00  0.00     0.171 HD
BRANCH  18  21
ATOM     21  C   UNL A   1      33.331  19.188  25.111  1.00  0.00     0.044 A 
ATOM     22  C   UNL A   1      34.629  18.976  24.625  1.00  0.00     0.029 A 
ATOM     23  C   UNL A   1      32.552  18.085  25.480  1.00  0.00     0.049 A 
ATOM     24  C   UNL A   1      35.152  17.684  24.535  1.00  0.00     0.043 A 
ATOM     25  C   UNL A   1      33.073  16.792  25.378  1.00  0.00     0.078 A 
ATOM     26  C   UNL A   1      34.371  16.599  24.913  1.00  0.00     0.141 A 
ATOM     27  Cl  UNL A   1      32.095  15.445  25.821  1.00  0.00    -0.081 Cl
ATOM     28  F   UNL A   1      34.891  15.366  24.815  1.00  0.00    -0.205 F 
ENDBRANCH  18  21
ENDBRANCH  14  15
ENDBRANCH  10  14
ENDBRANCH   7   9
ENDBRANCH   6   7
ENDBRANCH   5   6
ENDBRANCH   4   5
ENDBRANCH   3   4
ENDBRANCH   2   3
ENDBRANCH   1   2
BRANCH   1  29
ATOM     29  O   UNL A   1      35.806  23.002  22.803  1.00  0.00    -0.377 OA
BRANCH  29  30
ATOM     30  C   UNL A   1      36.941  22.635  23.586  1.00  0.00     0.188 C 
BRANCH  30  31
ATOM     31  C   UNL A   1      36.717  21.980  24.963  1.00  0.00     0.188 C 
BRANCH  31  32
ATOM     32  O   UNL A   1      37.536  20.826  25.173  1.00  0.00    -0.376 OA
BRANCH  32  33
ATOM     33  C   UNL A   1      38.918  21.075  25.417  1.00  0.00     0.202 C 
BRANCH  33  34
ATOM     34  C   UNL A   1      39.626  19.915  26.128  1.00  0.00     0.261 C 
BRANCH  34  35
ATOM     35  O   UNL A   1      40.725  19.352  25.394  1.00  0.00    -0.460 OA
BRANCH  35  36
ATOM     36  C   UNL A   1      41.873  19.152  26.077  1.00  0.00     0.338 C 
ATOM     37  O   UNL A   1      42.424  18.090  26.300  1.00  0.00    -0.246 OA
BRANCH  36  38
ATOM     38  C   UNL A   1      42.470  20.470  26.365  1.00  0.00     0.060 A 
ATOM     39  C   UNL A   1      42.399  20.963  27.673  1.00  0.00     0.016 A 
ATOM     40  C   UNL A   1      43.074  21.220  25.352  1.00  0.00     0.016 A 
ATOM     41  C   UNL A   1      42.889  22.235  27.961  1.00  0.00     0.010 A 
ATOM     42  C   UNL A   1      43.551  22.500  25.639  1.00  0.00     0.010 A 
ATOM     43  C   UNL A   1      43.426  23.026  26.936  1.00  0.00    -0.014 A 
BRANCH  43  44
ATOM     44  C   UNL A   1      43.678  24.466  27.172  1.00  0.00     0.031 A 
ATOM     45  C   UNL A   1      45.061  24.999  26.926  1.00  0.00     0.074 A 
ATOM     46  C   UNL A   1      42.701  25.285  27.596  1.00  0.00     0.049 A 
ATOM     47  N   UNL A   1      45.525  26.212  27.076  1.00  0.00    -0.248 NA
ATOM     48  C   UNL A   1      46.059  24.027  26.447  1.00  0.00     0.031 C 
ATOM     49  C   UNL A   1      41.319  24.890  27.852  1.00  0.00     0.029 A 
ATOM     50  N   UNL A   1      42.734  26.625  27.892  1.00  0.00    -0.354 N 
ATOM     51  C   UNL A   1      46.862  26.151  26.707  1.00  0.00     0.074 A 
ATOM     52  C   UNL A   1      47.146  24.777  26.356  1.00  0.00     0.031 C 
ATOM     53  C   UNL A   1      40.634  25.965  28.284  1.00  0.00     0.029 A 
ATOM     54  C   UNL A   1      41.537  27.114  28.350  1.00  0.00     0.049 A 
ATOM     55  H   UNL A   1      43.538  27.181  27.786  1.00  0.00     0.167 HD
ATOM     56  C   UNL A   1      47.770  27.153  26.654  1.00  0.00     0.037 A 
ATOM     57  C   UNL A   1      41.217  28.348  28.786  1.00  0.00     0.037 A 
ATOM     58  C   UNL A   1      47.495  28.517  27.014  1.00  0.00     0.049 A 
ATOM     59  C   UNL A   1      42.263  29.432  28.781  1.00  0.00     0.074 A 
ATOM     60  C   UNL A   1      48.341  29.611  26.972  1.00  0.00     0.029 A 
ATOM     61  N   UNL A   1      46.278  28.970  27.499  1.00  0.00    -0.354 N 
ATOM     62  N   UNL A   1      43.511  29.378  28.383  1.00  0.00    -0.248 NA
ATOM     63  C   UNL A   1      41.852  30.752  29.284  1.00  0.00     0.031 C 
ATOM     64  C   UNL A   1      47.648  30.718  27.471  1.00  0.00     0.029 A 
ATOM     65  C   UNL A   1      46.358  30.323  27.785  1.00  0.00     0.049 A 
ATOM     66  H   UNL A   1      45.475  28.413  27.622  1.00  0.00     0.167 HD
ATOM     67  C   UNL A   1      44.026  30.655  28.565  1.00  0.00     0.074 A 
ATOM     68  C   UNL A   1      42.952  31.467  29.097  1.00  0.00     0.031 C 
ATOM     69  C   UNL A   1      45.276  31.115  28.313  1.00  0.00     0.037 A 
BRANCH  56  70
ATOM     70  C   UNL A   1      49.155  26.799  26.206  1.00  0.00     0.064 A 
ATOM     71  C   UNL A   1      50.115  26.314  27.107  1.00  0.00     0.173 A 
ATOM     72  C   UNL A   1      49.524  26.933  24.859  1.00  0.00     0.173 A 
ATOM     73  F   UNL A   1      49.815  26.188  28.408  1.00  0.00    -0.203 F 
ATOM     74  C   UNL A   1      51.401  25.997  26.679  1.00  0.00     0.198 A 
ATOM     75  C   UNL A   1      50.804  26.592  24.431  1.00  0.00     0.198 A 
ATOM     76  F   UNL A   1      48.641  27.394  23.960  1.00  0.00    -0.203 F 
ATOM     77  F   UNL A   1      52.316  25.577  27.565  1.00  0.00    -0.200 F 
ATOM     78  C   UNL A   1      51.743  26.132  25.342  1.00  0.00     0.200 A 
ATOM     79  F   UNL A   1      51.131  26.718  23.137  1.00  0.00    -0.200 F 
ATOM     80  F   UNL A   1      52.981  25.826  24.932  1.00  0.00    -0.200 F 
ENDBRANCH  56  70
BRANCH  57  81
ATOM     81  C   UNL A   1      39.842  28.628  29.272  1.00  0.00     0.064 A 
ATOM     82  C   UNL A   1      39.481  28.375  30.602  1.00  0.00     0.173 A 
ATOM     83  C   UNL A   1      38.856  29.133  28.412  1.00  0.00     0.173 A 
ATOM     84  F   UNL A   1      40.382  27.867  31.455  1.00  0.00    -0.203 F 
ATOM     85  C   UNL A   1      38.181  28.602  31.050  1.00  0.00     0.198 A 
ATOM     86  C   UNL A   1      37.563  29.381  28.866  1.00  0.00     0.198 A 
ATOM     87  F   UNL A   1      39.151  29.385  27.127  1.00  0.00    -0.203 F 
ATOM     88  F   UNL A   1      37.850  28.313  32.316  1.00  0.00    -0.200 F 
ATOM     89  C   UNL A   1      37.225  29.109  30.183  1.00  0.00     0.200 A 
ATOM     90  F   UNL A   1      36.644  29.877  28.026  1.00  0.00    -0.200 F 
ATOM     91  F   UNL A   1      35.974  29.326  30.613  1.00  0.00    -0.200 F 
ENDBRANCH  57  81
BRANCH  69  92
ATOM     92  C   UNL A   1      45.547  32.565  28.589  1.00  0.00     0.064 A 
ATOM     93  C   UNL A   1      45.304  33.552  27.622  1.00  0.00     0.173 A 
ATOM     94  C   UNL A   1      46.010  32.976  29.848  1.00  0.00     0.173 A 
ATOM     95  F   UNL A   1      44.874  33.207  26.399  1.00  0.00    -0.203 F 
ATOM     96  C   UNL A   1      45.535  34.897  27.901  1.00  0.00     0.198 A 
ATOM     97  C   UNL A   1      46.215  34.323  30.130  1.00  0.00     0.198 A 
ATOM     98  F   UNL A   1      46.251  32.070  30.808  1.00  0.00    -0.203 F 
ATOM     99  F   UNL A   1      45.335  35.820  26.949  1.00  0.00    -0.200 F 
ATOM    100  C   UNL A   1      45.983  35.281  29.156  1.00  0.00     0.200 A 
ATOM    101  F   UNL A   1      46.638  34.693  31.347  1.00  0.00    -0.200 F 
ATOM    102  F   UNL A   1      46.200  36.577  29.424  1.00  0.00    -0.200 F 
ENDBRANCH  69  92
ENDBRANCH  43  44
ENDBRANCH  36  38
ENDBRANCH  35  36
ENDBRANCH  34  35
ENDBRANCH  33  34
ENDBRANCH  32  33
ENDBRANCH  31  32
ENDBRANCH  30  31
ENDBRANCH  29  30
ENDBRANCH   1  29
TORSDOF 23
ENDMDL
MODEL 2
REMARK VINA RESULT:     -10.4      0.818      7.092
REMARK SMILES O=C(NCc1ccc(C(=O)OCCOCCOCCOCCOC(=O)c2ccc(-c3c4nc(c(-c5c(F)c(F)c(F)c(F)c5F)c5ccc([nH]5)c(-c5c(F)c(F)c(F)c(F)c5F)c5nc(c(-c6c(F)c(F)c(F)c(F)c6F)c6ccc3[nH]6)C=C5)C=C4)cc2)o1)Nc1ccc(F)c(Cl)c1
REMARK SMILES IDX 16 1 15 2 14 3 13 4 12 5 11 6 9 7 10 8 8 9 5 10 6 11 89 12
REMARK SMILES IDX 7 13 4 14 3 15 1 16 2 17 90 18 91 21 92 22 98 23 93 24 96 25
REMARK SMILES IDX 94 26 97 27 95 28 17 29 18 30 19 31 20 32 21 33 22 34 23 35
REMARK SMILES IDX 24 36 25 37 26 38 27 39 88 40 28 41 87 42 29 43 30 44 31 45
REMARK SMILES IDX 81 46 32 47 86 48 80 49 82 50 33 51 85 52 79 53 78 54 34 56
REMARK SMILES IDX 66 57 46 58 65 59 47 60 50 61 64 62 83 63 48 64 49 65 63 67
REMARK SMILES IDX 84 68 51 69 35 70 36 71 44 72 37 73 38 74 42 75 45 76 39 77
REMARK SMILES IDX 40 78 43 79 41 80 67 81 68 82 76 83 69 84 70 85 74 86 77 87
REMARK SMILES IDX 71 88 72 89 75 90 73 91 52 92 53 93 61 94 54 95 55 96 59 97
REMARK SMILES IDX 62 98 56 99 57 100 60 101 58 102
REMARK H PARENT 3 19 90 20 82 55 50 66
REMARK Flexibility Score: inf
ROOT
ATOM      1  C   UNL A   1      34.125  23.698  23.383  1.00  0.00     0.188 C 
ENDROOT
BRANCH   1   2
ATOM      2  C   UNL A   1      33.732  25.041  22.744  1.00  0.00     0.188 C 
BRANCH   2   3
ATOM      3  O   UNL A   1      32.603  24.932  21.876  1.00  0.00    -0.376 OA
BRANCH   3   4
ATOM      4  C   UNL A   1      31.816  26.110  21.719  1.00  0.00     0.202 C 
BRANCH   4   5
ATOM      5  C   UNL A   1      32.241  27.325  22.559  1.00  0.00     0.261 C 
BRANCH   5   6
ATOM      6  O   UNL A   1      31.178  28.163  23.035  1.00  0.00    -0.457 OA
BRANCH   6   7
ATOM      7  C   UNL A   1      30.122  27.577  23.665  1.00  0.00     0.374 C 
ATOM      8  O   UNL A   1      28.967  27.606  23.256  1.00  0.00    -0.242 OA
BRANCH   7   9
ATOM      9  C   UNL A   1      30.625  26.820  24.787  1.00  0.00     0.211 A 
ATOM     10  C   UNL A   1      30.985  24.966  25.930  1.00  0.00     0.124 A 
ATOM     11  C   UNL A   1      31.772  25.940  26.508  1.00  0.00     0.048 A 
ATOM     12  O   UNL A   1      30.255  25.505  24.909  1.00  0.00    -0.452 OA
ATOM     13  C   UNL A   1      31.551  27.124  25.767  1.00  0.00     0.058 A 
BRANCH  10  14
ATOM     14  C   UNL A   1      30.813  23.510  26.174  1.00  0.00     0.193 C 
BRANCH  14  15
ATOM     15  N   UNL A   1      32.098  22.948  26.541  1.00  0.00    -0.331 N 
ATOM     16  O   UNL A   1      33.649  21.392  26.819  1.00  0.00    -0.248 OA
ATOM     17  C   UNL A   1      32.699  21.793  26.153  1.00  0.00     0.319 C 
ATOM     18  N   UNL A   1      32.192  21.190  25.038  1.00  0.00    -0.308 N 
ATOM     19  H   UNL A   1      32.620  23.492  27.174  1.00  0.00     0.165 HD
ATOM     20  H   UNL A   1      31.539  21.709  24.515  1.00  0.00     0.171 HD
BRANCH  18  21
ATOM     21  C   UNL A   1      32.506  19.903  24.554  1.00  0.00     0.044 A 
ATOM     22  C   UNL A   1      32.375  19.685  23.175  1.00  0.00     0.029 A 
ATOM     23  C   UNL A   1      32.909  18.845  25.376  1.00  0.00     0.049 A 
ATOM     24  C   UNL A   1      32.670  18.437  22.620  1.00  0.00     0.043 A 
ATOM     25  C   UNL A   1      33.192  17.593  24.822  1.00  0.00     0.078 A 
ATOM     26  C   UNL A   1      33.078  17.398  23.448  1.00  0.00     0.141 A 
ATOM     27  Cl  UNL A   1      33.672  16.297  25.850  1.00  0.00    -0.081 Cl
ATOM     28  F   UNL A   1      33.352  16.206  22.897  1.00  0.00    -0.205 F 
ENDBRANCH  18  21
ENDBRANCH  14  15
ENDBRANCH  10  14
ENDBRANCH   7   9
ENDBRANCH   6   7
ENDBRANCH   5   6
ENDBRANCH   4   5
ENDBRANCH   3   4
ENDBRANCH   2   3
ENDBRANCH   1   2
BRANCH   1  29
ATOM     29  O   UNL A   1      35.247  23.110  22.739  1.00  0.00    -0.377 OA
BRANCH  29  30
ATOM     30  C   UNL A   1      36.412  22.942  23.546  1.00  0.00     0.188 C 
BRANCH  30  31
ATOM     31  C   UNL A   1      36.412  21.856  24.639  1.00  0.00     0.188 C 
BRANCH  31  32
ATOM     32  O   UNL A   1      37.691  21.239  24.813  1.00  0.00    -0.376 OA
BRANCH  32  33
ATOM     33  C   UNL A   1      38.593  21.905  25.694  1.00  0.00     0.202 C 
BRANCH  33  34
ATOM     34  C   UNL A   1      39.473  20.942  26.501  1.00  0.00     0.261 C 
BRANCH  34  35
ATOM     35  O   UNL A   1      40.130  19.937  25.711  1.00  0.00    -0.460 OA
BRANCH  35  36
ATOM     36  C   UNL A   1      41.369  19.571  26.104  1.00  0.00     0.338 C 
ATOM     37  O   UNL A   1      41.834  18.446  26.128  1.00  0.00    -0.246 OA
BRANCH  36  38
ATOM     38  C   UNL A   1      42.157  20.796  26.336  1.00  0.00     0.060 A 
ATOM     39  C   UNL A   1      42.368  21.214  27.656  1.00  0.00     0.016 A 
ATOM     40  C   UNL A   1      42.664  21.537  25.264  1.00  0.00     0.016 A 
ATOM     41  C   UNL A   1      43.046  22.405  27.906  1.00  0.00     0.010 A 
ATOM     42  C   UNL A   1      43.331  22.737  25.516  1.00  0.00     0.010 A 
ATOM     43  C   UNL A   1      43.491  23.193  26.835  1.00  0.00    -0.014 A 
BRANCH  43  44
ATOM     44  C   UNL A   1      43.947  24.580  27.082  1.00  0.00     0.031 A 
ATOM     45  C   UNL A   1      42.941  25.589  27.561  1.00  0.00     0.074 A 
ATOM     46  C   UNL A   1      45.227  24.939  26.886  1.00  0.00     0.049 A 
ATOM     47  N   UNL A   1      43.098  26.859  27.829  1.00  0.00    -0.248 NA
ATOM     48  C   UNL A   1      41.568  25.095  27.763  1.00  0.00     0.031 C 
ATOM     49  C   UNL A   1      46.295  24.049  26.441  1.00  0.00     0.029 A 
ATOM     50  N   UNL A   1      45.837  26.159  27.032  1.00  0.00    -0.354 N 
ATOM     51  C   UNL A   1      41.851  27.314  28.235  1.00  0.00     0.074 A 
ATOM     52  C   UNL A   1      40.939  26.195  28.148  1.00  0.00     0.031 C 
ATOM     53  C   UNL A   1      47.434  24.759  26.334  1.00  0.00     0.029 A 
ATOM     54  C   UNL A   1      47.165  26.152  26.686  1.00  0.00     0.049 A 
ATOM     55  H   UNL A   1      45.369  26.962  27.353  1.00  0.00     0.167 HD
ATOM     56  C   UNL A   1      41.498  28.552  28.653  1.00  0.00     0.037 A 
ATOM     57  C   UNL A   1      48.054  27.164  26.646  1.00  0.00     0.037 A 
ATOM     58  C   UNL A   1      42.399  29.669  28.728  1.00  0.00     0.049 A 
ATOM     59  C   UNL A   1      47.621  28.549  27.053  1.00  0.00     0.074 A 
ATOM     60  C   UNL A   1      42.144  30.958  29.163  1.00  0.00     0.029 A 
ATOM     61  N   UNL A   1      43.731  29.632  28.345  1.00  0.00    -0.354 N 
ATOM     62  N   UNL A   1      46.453  28.960  27.483  1.00  0.00    -0.248 NA
ATOM     63  C   UNL A   1      48.636  29.611  26.972  1.00  0.00     0.031 C 
ATOM     64  C   UNL A   1      43.312  31.711  29.002  1.00  0.00     0.029 A 
ATOM     65  C   UNL A   1      44.305  30.881  28.507  1.00  0.00     0.049 A 
ATOM     66  H   UNL A   1      44.200  28.833  28.008  1.00  0.00     0.167 HD
ATOM     67  C   UNL A   1      46.597  30.317  27.743  1.00  0.00     0.074 A 
ATOM     68  C   UNL A   1      47.970  30.658  27.437  1.00  0.00     0.031 C 
ATOM     69  C   UNL A   1      45.675  31.201  28.197  1.00  0.00     0.037 A 
BRANCH  56  70
ATOM     70  C   UNL A   1      40.067  28.761  29.043  1.00  0.00     0.064 A 
ATOM     71  C   UNL A   1      39.106  29.170  28.106  1.00  0.00     0.173 A 
ATOM     72  C   UNL A   1      39.648  28.538  30.362  1.00  0.00     0.173 A 
ATOM     73  F   UNL A   1      39.462  29.415  26.836  1.00  0.00    -0.203 F 
ATOM     74  C   UNL A   1      37.781  29.370  28.484  1.00  0.00     0.198 A 
ATOM     75  C   UNL A   1      38.318  28.716  30.730  1.00  0.00     0.198 A 
ATOM     76  F   UNL A   1      40.532  28.148  31.294  1.00  0.00    -0.203 F 
ATOM     77  F   UNL A   1      36.887  29.804  27.582  1.00  0.00    -0.200 F 
ATOM     78  C   UNL A   1      37.388  29.139  29.793  1.00  0.00     0.200 A 
ATOM     79  F   UNL A   1      37.938  28.487  31.995  1.00  0.00    -0.200 F 
ATOM     80  F   UNL A   1      36.112  29.330  30.154  1.00  0.00    -0.200 F 
ENDBRANCH  56  70
BRANCH  57  81
ATOM     81  C   UNL A   1      49.447  26.909  26.198  1.00  0.00     0.064 A 
ATOM     82  C   UNL A   1      49.792  26.977  24.842  1.00  0.00     0.173 A 
ATOM     83  C   UNL A   1      50.454  26.572  27.113  1.00  0.00     0.173 A 
ATOM     84  F   UNL A   1      48.856  27.268  23.927  1.00  0.00    -0.203 F 
ATOM     85  C   UNL A   1      51.090  26.701  24.415  1.00  0.00     0.198 A 
ATOM     86  C   UNL A   1      51.756  26.319  26.689  1.00  0.00     0.198 A 
ATOM     87  F   UNL A   1      50.171  26.489  28.422  1.00  0.00    -0.203 F 
ATOM     88  F   UNL A   1      51.385  26.731  23.109  1.00  0.00    -0.200 F 
ATOM     89  C   UNL A   1      52.071  26.377  25.340  1.00  0.00     0.200 A 
ATOM     90  F   UNL A   1      52.703  26.013  27.586  1.00  0.00    -0.200 F 
ATOM     91  F   UNL A   1      53.319  26.111  24.930  1.00  0.00    -0.200 F 
ENDBRANCH  57  81
BRANCH  69  92
ATOM     92  C   UNL A   1      46.124  32.617  28.411  1.00  0.00     0.064 A 
ATOM     93  C   UNL A   1      46.009  33.582  27.400  1.00  0.00     0.173 A 
ATOM     94  C   UNL A   1      46.633  33.022  29.654  1.00  0.00     0.173 A 
ATOM     95  F   UNL A   1      45.542  33.240  26.190  1.00  0.00    -0.203 F 
ATOM     96  C   UNL A   1      46.405  34.899  27.620  1.00  0.00     0.198 A 
ATOM     97  C   UNL A   1      47.004  34.345  29.878  1.00  0.00     0.198 A 
ATOM     98  F   UNL A   1      46.756  32.137  30.655  1.00  0.00    -0.203 F 
ATOM     99  F   UNL A   1      46.324  35.796  26.628  1.00  0.00    -0.200 F 
ATOM    100  C   UNL A   1      46.896  35.280  28.861  1.00  0.00     0.200 A 
ATOM    101  F   UNL A   1      47.467  34.713  31.081  1.00  0.00    -0.200 F 
ATOM    102  F   UNL A   1      47.272  36.549  29.073  1.00  0.00    -0.200 F 
ENDBRANCH  69  92
ENDBRANCH  43  44
ENDBRANCH  36  38
ENDBRANCH  35  36
ENDBRANCH  34  35
ENDBRANCH  33  34
ENDBRANCH  32  33
ENDBRANCH  31  32
ENDBRANCH  30  31
ENDBRANCH  29  30
ENDBRANCH   1  29
TORSDOF 23
ENDMDL
MODEL 3
REMARK VINA RESULT:      -9.4      3.691      8.856
REMARK SMILES O=C(NCc1ccc(C(=O)OCCOCCOCCOCCOC(=O)c2ccc(-c3c4nc(c(-c5c(F)c(F)c(F)c(F)c5F)c5ccc([nH]5)c(-c5c(F)c(F)c(F)c(F)c5F)c5nc(c(-c6c(F)c(F)c(F)c(F)c6F)c6ccc3[nH]6)C=C5)C=C4)cc2)o1)Nc1ccc(F)c(Cl)c1
REMARK SMILES IDX 16 1 15 2 14 3 13 4 12 5 11 6 9 7 10 8 8 9 5 10 6 11 89 12
REMARK SMILES IDX 7 13 4 14 3 15 1 16 2 17 90 18 91 21 92 22 98 23 93 24 96 25
REMARK SMILES IDX 94 26 97 27 95 28 17 29 18 30 19 31 20 32 21 33 22 34 23 35
REMARK SMILES IDX 24 36 25 37 26 38 27 39 88 40 28 41 87 42 29 43 30 44 31 45
REMARK SMILES IDX 81 46 32 47 86 48 80 49 82 50 33 51 85 52 79 53 78 54 34 56
REMARK SMILES IDX 66 57 46 58 65 59 47 60 50 61 64 62 83 63 48 64 49 65 63 67
REMARK SMILES IDX 84 68 51 69 35 70 36 71 44 72 37 73 38 74 42 75 45 76 39 77
REMARK SMILES IDX 40 78 43 79 41 80 67 81 68 82 76 83 69 84 70 85 74 86 77 87
REMARK SMILES IDX 71 88 72 89 75 90 73 91 52 92 53 93 61 94 54 95 55 96 59 97
REMARK SMILES IDX 62 98 56 99 57 100 60 101 58 102
REMARK H PARENT 3 19 90 20 82 55 50 66
REMARK Flexibility Score: inf
ROOT
ATOM      1  C   UNL A   1      32.950  23.353  22.763  1.00  0.00     0.188 C 
ENDROOT
BRANCH   1   2
ATOM      2  C   UNL A   1      33.332  23.390  21.274  1.00  0.00     0.188 C 
BRANCH   2   3
ATOM      3  O   UNL A   1      33.146  24.679  20.686  1.00  0.00    -0.376 OA
BRANCH   3   4
ATOM      4  C   UNL A   1      32.744  25.721  21.571  1.00  0.00     0.202 C 
BRANCH   4   5
ATOM      5  C   UNL A   1      31.260  26.119  21.518  1.00  0.00     0.261 C 
BRANCH   5   6
ATOM      6  O   UNL A   1      30.824  27.055  22.514  1.00  0.00    -0.457 OA
BRANCH   6   7
ATOM      7  C   UNL A   1      29.982  26.619  23.491  1.00  0.00     0.374 C 
ATOM      8  O   UNL A   1      28.799  26.347  23.318  1.00  0.00    -0.242 OA
BRANCH   7   9
ATOM      9  C   UNL A   1      30.752  26.405  24.693  1.00  0.00     0.211 A 
ATOM     10  C   UNL A   1      31.635  27.019  26.621  1.00  0.00     0.124 A 
ATOM     11  C   UNL A   1      31.747  25.645  26.560  1.00  0.00     0.048 A 
ATOM     12  O   UNL A   1      31.067  27.490  25.472  1.00  0.00    -0.452 OA
ATOM     13  C   UNL A   1      31.168  25.251  25.331  1.00  0.00     0.058 A 
BRANCH  10  14
ATOM     14  C   UNL A   1      31.968  28.029  27.660  1.00  0.00     0.193 C 
BRANCH  14  15
ATOM     15  N   UNL A   1      31.707  29.350  27.120  1.00  0.00    -0.331 N 
ATOM     16  O   UNL A   1      31.872  31.549  26.916  1.00  0.00    -0.248 OA
ATOM     17  C   UNL A   1      32.434  30.495  27.198  1.00  0.00     0.319 C 
ATOM     18  N   UNL A   1      33.740  30.359  27.573  1.00  0.00    -0.308 N 
ATOM     19  H   UNL A   1      30.866  29.429  26.614  1.00  0.00     0.165 HD
ATOM     20  H   UNL A   1      34.095  29.441  27.608  1.00  0.00     0.171 HD
BRANCH  18  21
ATOM     21  C   UNL A   1      34.635  31.395  27.914  1.00  0.00     0.044 A 
ATOM     22  C   UNL A   1      35.952  31.028  28.228  1.00  0.00     0.029 A 
ATOM     23  C   UNL A   1      34.268  32.744  27.979  1.00  0.00     0.049 A 
ATOM     24  C   UNL A   1      36.897  31.998  28.573  1.00  0.00     0.043 A 
ATOM     25  C   UNL A   1      35.212  33.711  28.336  1.00  0.00     0.078 A 
ATOM     26  C   UNL A   1      36.521  33.335  28.624  1.00  0.00     0.141 A 
ATOM     27  Cl  UNL A   1      34.739  35.365  28.426  1.00  0.00    -0.081 Cl
ATOM     28  F   UNL A   1      37.442  34.250  28.962  1.00  0.00    -0.205 F 
ENDBRANCH  18  21
ENDBRANCH  14  15
ENDBRANCH  10  14
ENDBRANCH   7   9
ENDBRANCH   6   7
ENDBRANCH   5   6
ENDBRANCH   4   5
ENDBRANCH   3   4
ENDBRANCH   2   3
ENDBRANCH   1   2
BRANCH   1  29
ATOM     29  O   UNL A   1      31.896  22.434  23.019  1.00  0.00    -0.377 OA
BRANCH  29  30
ATOM     30  C   UNL A   1      32.235  21.304  23.821  1.00  0.00     0.188 C 
BRANCH  30  31
ATOM     31  C   UNL A   1      33.711  20.872  23.915  1.00  0.00     0.188 C 
BRANCH  31  32
ATOM     32  O   UNL A   1      34.195  20.825  25.261  1.00  0.00    -0.376 OA
BRANCH  32  33
ATOM     33  C   UNL A   1      35.027  21.910  25.665  1.00  0.00     0.202 C 
BRANCH  33  34
ATOM     34  C   UNL A   1      36.522  21.637  25.454  1.00  0.00     0.261 C 
BRANCH  34  35
ATOM     35  O   UNL A   1      37.394  22.539  26.154  1.00  0.00    -0.460 OA
BRANCH  35  36
ATOM     36  C   UNL A   1      38.705  22.217  26.182  1.00  0.00     0.338 C 
ATOM     37  O   UNL A   1      39.247  21.277  25.629  1.00  0.00    -0.246 OA
BRANCH  36  38
ATOM     38  C   UNL A   1      39.431  23.310  26.857  1.00  0.00     0.060 A 
ATOM     39  C   UNL A   1      39.043  24.629  26.596  1.00  0.00     0.016 A 
ATOM     40  C   UNL A   1      40.497  23.037  27.720  1.00  0.00     0.016 A 
ATOM     41  C   UNL A   1      39.755  25.686  27.161  1.00  0.00     0.010 A 
ATOM     42  C   UNL A   1      41.217  24.097  28.273  1.00  0.00     0.010 A 
ATOM     43  C   UNL A   1      40.872  25.424  27.965  1.00  0.00    -0.014 A 
BRANCH  43  44
ATOM     44  C   UNL A   1      41.794  26.525  28.327  1.00  0.00     0.031 A 
ATOM     45  C   UNL A   1      41.296  27.599  29.251  1.00  0.00     0.074 A 
ATOM     46  C   UNL A   1      43.047  26.572  27.845  1.00  0.00     0.049 A 
ATOM     47  N   UNL A   1      41.909  28.665  29.696  1.00  0.00    -0.248 NA
ATOM     48  C   UNL A   1      39.915  27.450  29.740  1.00  0.00     0.031 C 
ATOM     49  C   UNL A   1      43.649  25.582  26.955  1.00  0.00     0.029 A 
ATOM     50  N   UNL A   1      44.036  27.504  28.036  1.00  0.00    -0.354 N 
ATOM     51  C   UNL A   1      40.994  29.309  30.517  1.00  0.00     0.074 A 
ATOM     52  C   UNL A   1      39.773  28.534  30.486  1.00  0.00     0.031 C 
ATOM     53  C   UNL A   1      44.904  25.968  26.663  1.00  0.00     0.029 A 
ATOM     54  C   UNL A   1      45.183  27.239  27.331  1.00  0.00     0.049 A 
ATOM     55  H   UNL A   1      43.932  28.288  28.621  1.00  0.00     0.167 HD
ATOM     56  C   UNL A   1      41.159  30.440  31.242  1.00  0.00     0.037 A 
ATOM     57  C   UNL A   1      46.320  27.954  27.229  1.00  0.00     0.037 A 
ATOM     58  C   UNL A   1      42.366  31.220  31.265  1.00  0.00     0.049 A 
ATOM     59  C   UNL A   1      46.457  29.245  27.994  1.00  0.00     0.074 A 
ATOM     60  C   UNL A   1      42.641  32.368  31.987  1.00  0.00     0.029 A 
ATOM     61  N   UNL A   1      43.499  30.934  30.518  1.00  0.00    -0.354 N 
ATOM     62  N   UNL A   1      45.605  29.821  28.807  1.00  0.00    -0.248 NA
ATOM     63  C   UNL A   1      47.717  29.984  27.826  1.00  0.00     0.031 C 
ATOM     64  C   UNL A   1      43.926  32.801  31.643  1.00  0.00     0.029 A 
ATOM     65  C   UNL A   1      44.467  31.900  30.740  1.00  0.00     0.049 A 
ATOM     66  H   UNL A   1      43.601  30.159  29.919  1.00  0.00     0.167 HD
ATOM     67  C   UNL A   1      46.232  30.973  29.265  1.00  0.00     0.074 A 
ATOM     68  C   UNL A   1      47.542  31.009  28.649  1.00  0.00     0.031 C 
ATOM     69  C   UNL A   1      45.766  31.917  30.119  1.00  0.00     0.037 A 
BRANCH  56  70
ATOM     70  C   UNL A   1      39.991  30.909  32.055  1.00  0.00     0.064 A 
ATOM     71  C   UNL A   1      39.716  30.368  33.320  1.00  0.00     0.173 A 
ATOM     72  C   UNL A   1      39.146  31.919  31.572  1.00  0.00     0.173 A 
ATOM     73  F   UNL A   1      40.484  29.387  33.816  1.00  0.00    -0.203 F 
ATOM     74  C   UNL A   1      38.622  30.807  34.062  1.00  0.00     0.198 A 
ATOM     75  C   UNL A   1      38.068  32.371  32.327  1.00  0.00     0.198 A 
ATOM     76  F   UNL A   1      39.368  32.466  30.367  1.00  0.00    -0.203 F 
ATOM     77  F   UNL A   1      38.352  30.246  35.250  1.00  0.00    -0.200 F 
ATOM     78  C   UNL A   1      37.803  31.810  33.567  1.00  0.00     0.200 A 
ATOM     79  F   UNL A   1      37.280  33.345  31.850  1.00  0.00    -0.200 F 
ATOM     80  F   UNL A   1      36.752  32.232  34.283  1.00  0.00    -0.200 F 
ENDBRANCH  56  70
BRANCH  57  81
ATOM     81  C   UNL A   1      47.425  27.469  26.364  1.00  0.00     0.064 A 
ATOM     82  C   UNL A   1      48.474  26.705  26.894  1.00  0.00     0.173 A 
ATOM     83  C   UNL A   1      47.467  27.776  24.997  1.00  0.00     0.173 A 
ATOM     84  F   UNL A   1      48.492  26.409  28.202  1.00  0.00    -0.203 F 
ATOM     85  C   UNL A   1      49.532  26.281  26.092  1.00  0.00     0.198 A 
ATOM     86  C   UNL A   1      48.512  27.333  24.191  1.00  0.00     0.198 A 
ATOM     87  F   UNL A   1      46.488  28.510  24.444  1.00  0.00    -0.203 F 
ATOM     88  F   UNL A   1      50.544  25.588  26.631  1.00  0.00    -0.200 F 
ATOM     89  C   UNL A   1      49.547  26.591  24.740  1.00  0.00     0.200 A 
ATOM     90  F   UNL A   1      48.520  27.629  22.884  1.00  0.00    -0.200 F 
ATOM     91  F   UNL A   1      50.564  26.184  23.968  1.00  0.00    -0.200 F 
ENDBRANCH  57  81
BRANCH  69  92
ATOM     92  C   UNL A   1      46.683  33.056  30.456  1.00  0.00     0.064 A 
ATOM     93  C   UNL A   1      46.681  34.244  29.711  1.00  0.00     0.173 A 
ATOM     94  C   UNL A   1      47.541  32.974  31.563  1.00  0.00     0.173 A 
ATOM     95  F   UNL A   1      45.888  34.364  28.635  1.00  0.00    -0.203 F 
ATOM     96  C   UNL A   1      47.519  35.302  30.051  1.00  0.00     0.198 A 
ATOM     97  C   UNL A   1      48.359  34.044  31.915  1.00  0.00     0.198 A 
ATOM     98  F   UNL A   1      47.576  31.861  32.311  1.00  0.00    -0.203 F 
ATOM     99  F   UNL A   1      47.529  36.414  29.302  1.00  0.00    -0.200 F 
ATOM    100  C   UNL A   1      48.352  35.204  31.157  1.00  0.00     0.200 A 
ATOM    101  F   UNL A   1      49.155  33.951  32.990  1.00  0.00    -0.200 F 
ATOM    102  F   UNL A   1      49.154  36.226  31.485  1.00  0.00    -0.200 F 
ENDBRANCH  69  92
ENDBRANCH  43  44
ENDBRANCH  36  38
ENDBRANCH  35  36
ENDBRANCH  34  35
ENDBRANCH  33  34
ENDBRANCH  32  33
ENDBRANCH  31  32
ENDBRANCH  30  31
ENDBRANCH  29  30
ENDBRANCH   1  29
TORSDOF 23
ENDMDL
