MODEL 1
REMARK VINA RESULT:      -9.8      0.000      0.000
REMARK SMILES CCCc1cc2c(cc1Cl)C=C(C(=O)OCCOCCOCCOCCOC(=O)c1ccc(-c3c4nc(c(-c5c(F)c(F)c(F)c(F)c5F)c5ccc([nH]5)c(-c5c(F)c(F)c(F)c(F)c5F)c5nc(c(-c6c(F)c(F)c(F)c(F)c6F)c6ccc3[nH]6)C=C5)C=C4)cc1)[C@@H](C(F)(F)F)O2
REMARK SMILES IDX 21 1 20 2 19 3 18 4 17 5 16 6 15 7 13 8 14 9 12 10 4 11 5 12
REMARK SMILES IDX 9 13 6 14 8 15 10 16 7 17 98 18 11 19 93 20 3 21 2 22 1 23
REMARK SMILES IDX 94 24 95 25 96 26 97 27 22 28 23 29 24 30 25 31 26 32 27 33
REMARK SMILES IDX 28 34 29 35 30 36 31 37 92 38 32 39 91 40 33 41 34 42 35 43
REMARK SMILES IDX 85 44 36 45 90 46 84 47 86 48 37 49 89 50 83 51 82 52 38 54
REMARK SMILES IDX 70 55 50 56 69 57 51 58 54 59 68 60 87 61 52 62 53 63 67 65
REMARK SMILES IDX 88 66 55 67 39 68 40 69 48 70 41 71 42 72 46 73 49 74 43 75
REMARK SMILES IDX 44 76 47 77 45 78 71 79 72 80 80 81 73 82 74 83 78 84 81 85
REMARK SMILES IDX 75 86 76 87 79 88 77 89 56 90 57 91 65 92 58 93 59 94 63 95
REMARK SMILES IDX 66 96 60 97 61 98 64 99 62 100
REMARK H PARENT 86 53 54 64
REMARK Flexibility Score: inf
ROOT
ATOM      1  O   UNL A   1      41.090  22.884  26.098  1.00  0.00    -0.377 OA
ENDROOT
BRANCH   1   2
ATOM      2  C   UNL A   1      39.997  22.942  27.001  1.00  0.00     0.188 C 
BRANCH   2   3
ATOM      3  C   UNL A   1      38.627  22.907  26.297  1.00  0.00     0.188 C 
BRANCH   3   4
ATOM      4  O   UNL A   1      38.258  21.602  25.850  1.00  0.00    -0.376 OA
BRANCH   4   5
ATOM      5  C   UNL A   1      37.412  21.532  24.708  1.00  0.00     0.202 C 
BRANCH   5   6
ATOM      6  C   UNL A   1      35.904  21.505  24.998  1.00  0.00     0.261 C 
BRANCH   6   7
ATOM      7  O   UNL A   1      35.082  21.980  23.922  1.00  0.00    -0.460 OA
BRANCH   7   8
ATOM      8  C   UNL A   1      33.755  21.775  24.023  1.00  0.00     0.338 C 
ATOM      9  O   UNL A   1      33.176  20.705  23.965  1.00  0.00    -0.246 OA
BRANCH   8  10
ATOM     10  C   UNL A   1      33.120  23.059  24.382  1.00  0.00     0.087 C 
ATOM     11  C   UNL A   1      32.015  27.900  25.059  1.00  0.00    -0.026 A 
ATOM     12  C   UNL A   1      31.484  26.693  25.539  1.00  0.00     0.052 A 
ATOM     13  C   UNL A   1      32.889  27.833  23.958  1.00  0.00     0.045 A 
ATOM     14  C   UNL A   1      31.946  25.463  25.066  1.00  0.00     0.128 A 
ATOM     15  C   UNL A   1      33.327  26.601  23.458  1.00  0.00     0.032 A 
ATOM     16  Cl  UNL A   1      33.490  29.258  23.183  1.00  0.00    -0.084 Cl
ATOM     17  C   UNL A   1      32.905  25.415  24.059  1.00  0.00     0.019 A 
ATOM     18  O   UNL A   1      31.415  24.359  25.666  1.00  0.00    -0.475 OA
ATOM     19  C   UNL A   1      33.496  24.141  23.688  1.00  0.00     0.027 C 
ATOM     20  C   UNL A   1      32.056  23.073  25.450  1.00  0.00     0.316 C 
BRANCH  11  21
ATOM     21  C   UNL A   1      31.696  29.232  25.710  1.00  0.00     0.037 C 
BRANCH  21  22
ATOM     22  C   UNL A   1      32.350  29.563  27.061  1.00  0.00     0.001 C 
ATOM     23  C   UNL A   1      33.860  29.350  27.092  1.00  0.00     0.004 C 
ENDBRANCH  21  22
ENDBRANCH  11  21
BRANCH  20  24
ATOM     24  C   UNL A   1      32.580  22.552  26.796  1.00  0.00     0.430 C 
ATOM     25  F   UNL A   1      32.746  21.209  26.771  1.00  0.00    -0.167 F 
ATOM     26  F   UNL A   1      33.785  23.085  27.108  1.00  0.00    -0.167 F 
ATOM     27  F   UNL A   1      31.735  22.840  27.812  1.00  0.00    -0.167 F 
ENDBRANCH  20  24
ENDBRANCH   8  10
ENDBRANCH   7   8
ENDBRANCH   6   7
ENDBRANCH   5   6
ENDBRANCH   4   5
ENDBRANCH   3   4
ENDBRANCH   2   3
ENDBRANCH   1   2
BRANCH   1  28
ATOM     28  C   UNL A   1      41.849  21.676  26.055  1.00  0.00     0.188 C 
BRANCH  28  29
ATOM     29  C   UNL A   1      41.326  20.355  26.667  1.00  0.00     0.188 C 
BRANCH  29  30
ATOM     30  O   UNL A   1      41.610  19.202  25.878  1.00  0.00    -0.376 OA
BRANCH  30  31
ATOM     31  C   UNL A   1      42.693  18.386  26.306  1.00  0.00     0.202 C 
BRANCH  31  32
ATOM     32  C   UNL A   1      43.804  18.253  25.261  1.00  0.00     0.261 C 
BRANCH  32  33
ATOM     33  O   UNL A   1      43.929  19.366  24.362  1.00  0.00    -0.460 OA
BRANCH  33  34
ATOM     34  C   UNL A   1      45.173  19.813  24.078  1.00  0.00     0.338 C 
ATOM     35  O   UNL A   1      46.010  19.281  23.371  1.00  0.00    -0.246 OA
BRANCH  34  36
ATOM     36  C   UNL A   1      45.271  21.181  24.624  1.00  0.00     0.060 A 
ATOM     37  C   UNL A   1      45.639  21.379  25.956  1.00  0.00     0.016 A 
ATOM     38  C   UNL A   1      44.934  22.267  23.807  1.00  0.00     0.016 A 
ATOM     39  C   UNL A   1      45.686  22.675  26.473  1.00  0.00     0.010 A 
ATOM     40  C   UNL A   1      44.967  23.562  24.330  1.00  0.00     0.010 A 
ATOM     41  C   UNL A   1      45.359  23.774  25.661  1.00  0.00    -0.014 A 
BRANCH  41  42
ATOM     42  C   UNL A   1      45.578  25.148  26.164  1.00  0.00     0.031 A 
ATOM     43  C   UNL A   1      46.921  25.806  26.117  1.00  0.00     0.074 A 
ATOM     44  C   UNL A   1      44.518  25.805  26.671  1.00  0.00     0.049 A 
ATOM     45  N   UNL A   1      47.257  27.016  26.486  1.00  0.00    -0.248 NA
ATOM     46  C   UNL A   1      48.034  25.005  25.589  1.00  0.00     0.031 C 
ATOM     47  C   UNL A   1      43.163  25.258  26.767  1.00  0.00     0.029 A 
ATOM     48  N   UNL A   1      44.410  27.066  27.195  1.00  0.00    -0.354 N 
ATOM     49  C   UNL A   1      48.612  27.136  26.216  1.00  0.00     0.074 A 
ATOM     50  C   UNL A   1      49.047  25.858  25.689  1.00  0.00     0.031 C 
ATOM     51  C   UNL A   1      42.357  26.183  27.307  1.00  0.00     0.029 A 
ATOM     52  C   UNL A   1      43.140  27.375  27.616  1.00  0.00     0.049 A 
ATOM     53  H   UNL A   1      45.168  27.691  27.262  1.00  0.00     0.167 HD
ATOM     54  C   UNL A   1      49.408  28.220  26.381  1.00  0.00     0.037 A 
ATOM     55  C   UNL A   1      42.662  28.493  28.191  1.00  0.00     0.037 A 
ATOM     56  C   UNL A   1      48.971  29.482  26.927  1.00  0.00     0.049 A 
ATOM     57  C   UNL A   1      43.584  29.655  28.419  1.00  0.00     0.074 A 
ATOM     58  C   UNL A   1      49.704  30.643  27.114  1.00  0.00     0.029 A 
ATOM     59  N   UNL A   1      47.688  29.747  27.388  1.00  0.00    -0.354 N 
ATOM     60  N   UNL A   1      44.854  29.775  28.116  1.00  0.00    -0.248 NA
ATOM     61  C   UNL A   1      43.004  30.842  29.062  1.00  0.00     0.031 C 
ATOM     62  C   UNL A   1      48.880  31.591  27.731  1.00  0.00     0.029 A 
ATOM     63  C   UNL A   1      47.618  31.042  27.882  1.00  0.00     0.049 A 
ATOM     64  H   UNL A   1      46.939  29.109  27.367  1.00  0.00     0.167 HD
ATOM     65  C   UNL A   1      45.221  31.053  28.514  1.00  0.00     0.074 A 
ATOM     66  C   UNL A   1      44.033  31.678  29.060  1.00  0.00     0.031 C 
ATOM     67  C   UNL A   1      46.434  31.651  28.436  1.00  0.00     0.037 A 
BRANCH  54  68
ATOM     68  C   UNL A   1      50.845  28.104  25.961  1.00  0.00     0.064 A 
ATOM     69  C   UNL A   1      51.227  28.266  24.621  1.00  0.00     0.173 A 
ATOM     70  C   UNL A   1      51.857  27.919  26.914  1.00  0.00     0.173 A 
ATOM     71  F   UNL A   1      50.296  28.442  23.670  1.00  0.00    -0.203 F 
ATOM     72  C   UNL A   1      52.569  28.239  24.249  1.00  0.00     0.198 A 
ATOM     73  C   UNL A   1      53.200  27.916  26.543  1.00  0.00     0.198 A 
ATOM     74  F   UNL A   1      51.547  27.768  28.210  1.00  0.00    -0.203 F 
ATOM     75  F   UNL A   1      52.909  28.376  22.960  1.00  0.00    -0.200 F 
ATOM     76  C   UNL A   1      53.555  28.073  25.212  1.00  0.00     0.200 A 
ATOM     77  F   UNL A   1      54.152  27.771  27.475  1.00  0.00    -0.200 F 
ATOM     78  F   UNL A   1      54.847  28.067  24.855  1.00  0.00    -0.200 F 
ENDBRANCH  54  68
BRANCH  55  79
ATOM     79  C   UNL A   1      41.227  28.567  28.560  1.00  0.00     0.064 A 
ATOM     80  C   UNL A   1      40.271  29.011  27.637  1.00  0.00     0.173 A 
ATOM     81  C   UNL A   1      40.779  28.169  29.828  1.00  0.00     0.173 A 
ATOM     82  F   UNL A   1      40.656  29.419  26.419  1.00  0.00    -0.203 F 
ATOM     83  C   UNL A   1      38.921  29.064  27.973  1.00  0.00     0.198 A 
ATOM     84  C   UNL A   1      39.426  28.197  30.153  1.00  0.00     0.198 A 
ATOM     85  F   UNL A   1      41.657  27.731  30.743  1.00  0.00    -0.203 F 
ATOM     86  F   UNL A   1      38.030  29.524  27.083  1.00  0.00    -0.200 F 
ATOM     87  C   UNL A   1      38.498  28.650  29.227  1.00  0.00     0.200 A 
ATOM     88  F   UNL A   1      39.020  27.782  31.361  1.00  0.00    -0.200 F 
ATOM     89  F   UNL A   1      37.197  28.691  29.545  1.00  0.00    -0.200 F 
ENDBRANCH  55  79
BRANCH  67  90
ATOM     90  C   UNL A   1      46.536  33.060  28.947  1.00  0.00     0.064 A 
ATOM     91  C   UNL A   1      46.896  33.334  30.275  1.00  0.00     0.173 A 
ATOM     92  C   UNL A   1      46.295  34.149  28.095  1.00  0.00     0.173 A 
ATOM     93  F   UNL A   1      47.122  32.328  31.134  1.00  0.00    -0.203 F 
ATOM     94  C   UNL A   1      46.982  34.644  30.738  1.00  0.00     0.198 A 
ATOM     95  C   UNL A   1      46.412  35.458  28.553  1.00  0.00     0.198 A 
ATOM     96  F   UNL A   1      45.952  33.943  26.815  1.00  0.00    -0.203 F 
ATOM     97  F   UNL A   1      47.277  34.880  32.024  1.00  0.00    -0.200 F 
ATOM     98  C   UNL A   1      46.747  35.705  29.876  1.00  0.00     0.200 A 
ATOM     99  F   UNL A   1      46.195  36.482  27.716  1.00  0.00    -0.200 F 
ATOM    100  F   UNL A   1      46.833  36.965  30.323  1.00  0.00    -0.200 F 
ENDBRANCH  67  90
ENDBRANCH  41  42
ENDBRANCH  34  36
ENDBRANCH  33  34
ENDBRANCH  32  33
ENDBRANCH  31  32
ENDBRANCH  30  31
ENDBRANCH  29  30
ENDBRANCH  28  29
ENDBRANCH   1  28
TORSDOF 23
ENDMDL
MODEL 2
REMARK VINA RESULT:      -9.7      1.357      7.328
REMARK SMILES CCCc1cc2c(cc1Cl)C=C(C(=O)OCCOCCOCCOCCOC(=O)c1ccc(-c3c4nc(c(-c5c(F)c(F)c(F)c(F)c5F)c5ccc([nH]5)c(-c5c(F)c(F)c(F)c(F)c5F)c5nc(c(-c6c(F)c(F)c(F)c(F)c6F)c6ccc3[nH]6)C=C5)C=C4)cc1)[C@@H](C(F)(F)F)O2
REMARK SMILES IDX 21 1 20 2 19 3 18 4 17 5 16 6 15 7 13 8 14 9 12 10 4 11 5 12
REMARK SMILES IDX 9 13 6 14 8 15 10 16 7 17 98 18 11 19 93 20 3 21 2 22 1 23
REMARK SMILES IDX 94 24 95 25 96 26 97 27 22 28 23 29 24 30 25 31 26 32 27 33
REMARK SMILES IDX 28 34 29 35 30 36 31 37 92 38 32 39 91 40 33 41 34 42 35 43
REMARK SMILES IDX 85 44 36 45 90 46 84 47 86 48 37 49 89 50 83 51 82 52 38 54
REMARK SMILES IDX 70 55 50 56 69 57 51 58 54 59 68 60 87 61 52 62 53 63 67 65
REMARK SMILES IDX 88 66 55 67 39 68 40 69 48 70 41 71 42 72 46 73 49 74 43 75
REMARK SMILES IDX 44 76 47 77 45 78 71 79 72 80 80 81 73 82 74 83 78 84 81 85
REMARK SMILES IDX 75 86 76 87 79 88 77 89 56 90 57 91 65 92 58 93 59 94 63 95
REMARK SMILES IDX 66 96 60 97 61 98 64 99 62 100
REMARK H PARENT 86 53 54 64
REMARK Flexibility Score: inf
ROOT
ATOM      1  O   UNL A   1      40.898  23.326  26.361  1.00  0.00    -0.377 OA
ENDROOT
BRANCH   1   2
ATOM      2  C   UNL A   1      39.646  23.068  26.977  1.00  0.00     0.188 C 
BRANCH   2   3
ATOM      3  C   UNL A   1      38.462  23.140  25.996  1.00  0.00     0.188 C 
BRANCH   3   4
ATOM      4  O   UNL A   1      37.922  21.858  25.670  1.00  0.00    -0.376 OA
BRANCH   4   5
ATOM      5  C   UNL A   1      37.151  21.773  24.477  1.00  0.00     0.202 C 
BRANCH   5   6
ATOM      6  C   UNL A   1      36.635  23.109  23.922  1.00  0.00     0.261 C 
BRANCH   6   7
ATOM      7  O   UNL A   1      35.208  23.192  23.801  1.00  0.00    -0.460 OA
BRANCH   7   8
ATOM      8  C   UNL A   1      34.534  23.746  24.827  1.00  0.00     0.338 C 
ATOM      9  O   UNL A   1      34.767  23.605  26.015  1.00  0.00    -0.246 OA
BRANCH   8  10
ATOM     10  C   UNL A   1      33.551  24.696  24.268  1.00  0.00     0.087 C 
ATOM     11  C   UNL A   1      30.378  28.497  23.497  1.00  0.00    -0.026 A 
ATOM     12  C   UNL A   1      30.648  27.291  22.832  1.00  0.00     0.052 A 
ATOM     13  C   UNL A   1      31.312  28.936  24.453  1.00  0.00     0.045 A 
ATOM     14  C   UNL A   1      31.701  26.467  23.234  1.00  0.00     0.128 A 
ATOM     15  C   UNL A   1      32.389  28.127  24.833  1.00  0.00     0.032 A 
ATOM     16  Cl  UNL A   1      31.167  30.475  25.229  1.00  0.00    -0.084 Cl
ATOM     17  C   UNL A   1      32.544  26.861  24.269  1.00  0.00     0.019 A 
ATOM     18  O   UNL A   1      31.815  25.282  22.568  1.00  0.00    -0.475 OA
ATOM     19  C   UNL A   1      33.533  25.931  24.786  1.00  0.00     0.027 C 
ATOM     20  C   UNL A   1      32.678  24.253  23.120  1.00  0.00     0.316 C 
BRANCH  11  21
ATOM     21  C   UNL A   1      29.115  29.294  23.230  1.00  0.00     0.037 C 
BRANCH  21  22
ATOM     22  C   UNL A   1      29.210  30.542  22.338  1.00  0.00     0.001 C 
ATOM     23  C   UNL A   1      28.139  31.592  22.620  1.00  0.00     0.004 C 
ENDBRANCH  21  22
ENDBRANCH  11  21
BRANCH  20  24
ATOM     24  C   UNL A   1      31.820  23.033  23.485  1.00  0.00     0.430 C 
ATOM     25  F   UNL A   1      32.390  21.884  23.052  1.00  0.00    -0.167 F 
ATOM     26  F   UNL A   1      31.665  22.908  24.824  1.00  0.00    -0.167 F 
ATOM     27  F   UNL A   1      30.584  23.105  22.940  1.00  0.00    -0.167 F 
ENDBRANCH  20  24
ENDBRANCH   8  10
ENDBRANCH   7   8
ENDBRANCH   6   7
ENDBRANCH   5   6
ENDBRANCH   4   5
ENDBRANCH   3   4
ENDBRANCH   2   3
ENDBRANCH   1   2
BRANCH   1  28
ATOM     28  C   UNL A   1      41.787  22.223  26.182  1.00  0.00     0.188 C 
BRANCH  28  29
ATOM     29  C   UNL A   1      41.572  20.869  26.898  1.00  0.00     0.188 C 
BRANCH  29  30
ATOM     30  O   UNL A   1      41.458  19.759  26.011  1.00  0.00    -0.376 OA
BRANCH  30  31
ATOM     31  C   UNL A   1      42.235  18.610  26.324  1.00  0.00     0.202 C 
BRANCH  31  32
ATOM     32  C   UNL A   1      43.487  18.467  25.454  1.00  0.00     0.261 C 
BRANCH  32  33
ATOM     33  O   UNL A   1      43.789  19.606  24.634  1.00  0.00    -0.460 OA
BRANCH  33  34
ATOM     34  C   UNL A   1      45.089  19.874  24.378  1.00  0.00     0.338 C 
ATOM     35  O   UNL A   1      45.881  19.188  23.757  1.00  0.00    -0.246 OA
BRANCH  34  36
ATOM     36  C   UNL A   1      45.336  21.260  24.820  1.00  0.00     0.060 A 
ATOM     37  C   UNL A   1      45.547  22.270  23.878  1.00  0.00     0.016 A 
ATOM     38  C   UNL A   1      45.416  21.536  26.191  1.00  0.00     0.016 A 
ATOM     39  C   UNL A   1      45.823  23.567  24.309  1.00  0.00     0.010 A 
ATOM     40  C   UNL A   1      45.707  22.833  26.620  1.00  0.00     0.010 A 
ATOM     41  C   UNL A   1      45.896  23.859  25.682  1.00  0.00    -0.014 A 
BRANCH  41  42
ATOM     42  C   UNL A   1      46.017  25.265  26.128  1.00  0.00     0.031 A 
ATOM     43  C   UNL A   1      44.844  26.035  26.649  1.00  0.00     0.074 A 
ATOM     44  C   UNL A   1      47.230  25.842  26.055  1.00  0.00     0.049 A 
ATOM     45  N   UNL A   1      44.805  27.259  27.111  1.00  0.00    -0.248 NA
ATOM     46  C   UNL A   1      43.547  25.346  26.655  1.00  0.00     0.031 C 
ATOM     47  C   UNL A   1      48.441  25.184  25.561  1.00  0.00     0.029 A 
ATOM     48  N   UNL A   1      47.647  27.102  26.395  1.00  0.00    -0.354 N 
ATOM     49  C   UNL A   1      43.489  27.485  27.485  1.00  0.00     0.074 A 
ATOM     50  C   UNL A   1      42.750  26.282  27.157  1.00  0.00     0.031 C 
ATOM     51  C   UNL A   1      49.467  26.043  25.640  1.00  0.00     0.029 A 
ATOM     52  C   UNL A   1      48.983  27.315  26.166  1.00  0.00     0.049 A 
ATOM     53  H   UNL A   1      47.047  27.788  26.769  1.00  0.00     0.167 HD
ATOM     54  C   UNL A   1      42.957  28.591  28.061  1.00  0.00     0.037 A 
ATOM     55  C   UNL A   1      49.735  28.414  26.356  1.00  0.00     0.037 A 
ATOM     56  C   UNL A   1      43.697  29.792  28.363  1.00  0.00     0.049 A 
ATOM     57  C   UNL A   1      49.102  29.646  26.938  1.00  0.00     0.074 A 
ATOM     58  C   UNL A   1      43.245  30.956  28.964  1.00  0.00     0.029 A 
ATOM     59  N   UNL A   1      45.040  29.993  28.075  1.00  0.00    -0.354 N 
ATOM     60  N   UNL A   1      47.866  29.833  27.332  1.00  0.00    -0.248 NA
ATOM     61  C   UNL A   1      49.973  30.817  27.108  1.00  0.00     0.031 C 
ATOM     62  C   UNL A   1      44.299  31.875  28.995  1.00  0.00     0.029 A 
ATOM     63  C   UNL A   1      45.425  31.269  28.462  1.00  0.00     0.049 A 
ATOM     64  H   UNL A   1      45.632  29.326  27.657  1.00  0.00     0.167 HD
ATOM     65  C   UNL A   1      47.814  31.134  27.812  1.00  0.00     0.074 A 
ATOM     66  C   UNL A   1      49.148  31.682  27.682  1.00  0.00     0.031 C 
ATOM     67  C   UNL A   1      46.752  31.811  28.315  1.00  0.00     0.037 A 
BRANCH  54  68
ATOM     68  C   UNL A   1      41.499  28.562  28.416  1.00  0.00     0.064 A 
ATOM     69  C   UNL A   1      41.069  28.181  29.696  1.00  0.00     0.173 A 
ATOM     70  C   UNL A   1      40.531  29.005  27.504  1.00  0.00     0.173 A 
ATOM     71  F   UNL A   1      41.955  27.747  30.605  1.00  0.00    -0.203 F 
ATOM     72  C   UNL A   1      39.722  28.235  30.045  1.00  0.00     0.198 A 
ATOM     73  C   UNL A   1      39.187  29.081  27.863  1.00  0.00     0.198 A 
ATOM     74  F   UNL A   1      40.890  29.390  26.269  1.00  0.00    -0.203 F 
ATOM     75  F   UNL A   1      39.331  27.848  31.267  1.00  0.00    -0.200 F 
ATOM     76  C   UNL A   1      38.783  28.694  29.132  1.00  0.00     0.200 A 
ATOM     77  F   UNL A   1      38.284  29.539  26.986  1.00  0.00    -0.200 F 
ATOM     78  F   UNL A   1      37.490  28.765  29.476  1.00  0.00    -0.200 F 
ENDBRANCH  54  68
BRANCH  55  79
ATOM     79  C   UNL A   1      51.177  28.380  26.016  1.00  0.00     0.064 A 
ATOM     80  C   UNL A   1      52.142  28.146  27.004  1.00  0.00     0.173 A 
ATOM     81  C   UNL A   1      51.619  28.549  24.695  1.00  0.00     0.173 A 
ATOM     82  F   UNL A   1      51.767  27.997  28.283  1.00  0.00    -0.203 F 
ATOM     83  C   UNL A   1      53.497  28.094  26.687  1.00  0.00     0.198 A 
ATOM     84  C   UNL A   1      52.972  28.470  24.375  1.00  0.00     0.198 A 
ATOM     85  F   UNL A   1      50.732  28.769  23.713  1.00  0.00    -0.203 F 
ATOM     86  F   UNL A   1      54.402  27.903  27.656  1.00  0.00    -0.200 F 
ATOM     87  C   UNL A   1      53.910  28.248  25.372  1.00  0.00     0.200 A 
ATOM     88  F   UNL A   1      53.366  28.604  23.101  1.00  0.00    -0.200 F 
ATOM     89  F   UNL A   1      55.213  28.186  25.065  1.00  0.00    -0.200 F 
ENDBRANCH  55  79
BRANCH  67  90
ATOM     90  C   UNL A   1      46.995  33.222  28.768  1.00  0.00     0.064 A 
ATOM     91  C   UNL A   1      46.815  34.312  27.903  1.00  0.00     0.173 A 
ATOM     92  C   UNL A   1      47.389  33.492  30.089  1.00  0.00     0.173 A 
ATOM     93  F   UNL A   1      46.455  34.107  26.627  1.00  0.00    -0.203 F 
ATOM     94  C   UNL A   1      47.048  35.615  28.334  1.00  0.00     0.198 A 
ATOM     95  C   UNL A   1      47.591  34.798  30.524  1.00  0.00     0.198 A 
ATOM     96  F   UNL A   1      47.571  32.487  30.958  1.00  0.00    -0.203 F 
ATOM     97  F   UNL A   1      46.920  36.636  27.474  1.00  0.00    -0.200 F 
ATOM     98  C   UNL A   1      47.429  35.858  29.645  1.00  0.00     0.200 A 
ATOM     99  F   UNL A   1      47.948  35.032  31.795  1.00  0.00    -0.200 F 
ATOM    100  F   UNL A   1      47.649  37.114  30.058  1.00  0.00    -0.200 F 
ENDBRANCH  67  90
ENDBRANCH  41  42
ENDBRANCH  34  36
ENDBRANCH  33  34
ENDBRANCH  32  33
ENDBRANCH  31  32
ENDBRANCH  30  31
ENDBRANCH  29  30
ENDBRANCH  28  29
ENDBRANCH   1  28
TORSDOF 23
ENDMDL
MODEL 3
REMARK VINA RESULT:      -9.6      1.272      2.218
REMARK SMILES CCCc1cc2c(cc1Cl)C=C(C(=O)OCCOCCOCCOCCOC(=O)c1ccc(-c3c4nc(c(-c5c(F)c(F)c(F)c(F)c5F)c5ccc([nH]5)c(-c5c(F)c(F)c(F)c(F)c5F)c5nc(c(-c6c(F)c(F)c(F)c(F)c6F)c6ccc3[nH]6)C=C5)C=C4)cc1)[C@@H](C(F)(F)F)O2
REMARK SMILES IDX 21 1 20 2 19 3 18 4 17 5 16 6 15 7 13 8 14 9 12 10 4 11 5 12
REMARK SMILES IDX 9 13 6 14 8 15 10 16 7 17 98 18 11 19 93 20 3 21 2 22 1 23
REMARK SMILES IDX 94 24 95 25 96 26 97 27 22 28 23 29 24 30 25 31 26 32 27 33
REMARK SMILES IDX 28 34 29 35 30 36 31 37 92 38 32 39 91 40 33 41 34 42 35 43
REMARK SMILES IDX 85 44 36 45 90 46 84 47 86 48 37 49 89 50 83 51 82 52 38 54
REMARK SMILES IDX 70 55 50 56 69 57 51 58 54 59 68 60 87 61 52 62 53 63 67 65
REMARK SMILES IDX 88 66 55 67 39 68 40 69 48 70 41 71 42 72 46 73 49 74 43 75
REMARK SMILES IDX 44 76 47 77 45 78 71 79 72 80 80 81 73 82 74 83 78 84 81 85
REMARK SMILES IDX 75 86 76 87 79 88 77 89 56 90 57 91 65 92 58 93 59 94 63 95
REMARK SMILES IDX 66 96 60 97 61 98 64 99 62 100
REMARK H PARENT 86 53 54 64
REMARK Flexibility Score: inf
ROOT
ATOM      1  O   UNL A   1      41.297  22.696  26.568  1.00  0.00    -0.377 OA
ENDROOT
BRANCH   1   2
ATOM      2  C   UNL A   1      40.006  22.611  27.150  1.00  0.00     0.188 C 
BRANCH   2   3
ATOM      3  C   UNL A   1      38.873  22.582  26.107  1.00  0.00     0.188 C 
BRANCH   3   4
ATOM      4  O   UNL A   1      38.663  21.287  25.540  1.00  0.00    -0.376 OA
BRANCH   4   5
ATOM      5  C   UNL A   1      37.497  21.120  24.741  1.00  0.00     0.202 C 
BRANCH   5   6
ATOM      6  C   UNL A   1      36.914  22.407  24.138  1.00  0.00     0.261 C 
BRANCH   6   7
ATOM      7  O   UNL A   1      35.524  22.326  23.793  1.00  0.00    -0.460 OA
BRANCH   7   8
ATOM      8  C   UNL A   1      34.633  22.691  24.735  1.00  0.00     0.338 C 
ATOM      9  O   UNL A   1      34.598  22.311  25.892  1.00  0.00    -0.246 OA
BRANCH   8  10
ATOM     10  C   UNL A   1      33.790  23.766  24.174  1.00  0.00     0.087 C 
ATOM     11  C   UNL A   1      30.929  27.821  23.481  1.00  0.00    -0.026 A 
ATOM     12  C   UNL A   1      31.257  26.703  22.700  1.00  0.00     0.052 A 
ATOM     13  C   UNL A   1      31.714  28.069  24.623  1.00  0.00     0.045 A 
ATOM     14  C   UNL A   1      32.199  25.770  23.135  1.00  0.00     0.128 A 
ATOM     15  C   UNL A   1      32.684  27.152  25.043  1.00  0.00     0.032 A 
ATOM     16  Cl  UNL A   1      31.506  29.494  25.582  1.00  0.00    -0.084 Cl
ATOM     17  C   UNL A   1      32.880  25.967  24.333  1.00  0.00     0.019 A 
ATOM     18  O   UNL A   1      32.373  24.682  22.331  1.00  0.00    -0.475 OA
ATOM     19  C   UNL A   1      33.736  24.917  24.857  1.00  0.00     0.027 C 
ATOM     20  C   UNL A   1      33.097  23.537  22.855  1.00  0.00     0.316 C 
BRANCH  11  21
ATOM     21  C   UNL A   1      29.757  28.722  23.142  1.00  0.00     0.037 C 
BRANCH  21  22
ATOM     22  C   UNL A   1      29.986  29.887  22.165  1.00  0.00     0.001 C 
ATOM     23  C   UNL A   1      28.750  30.278  21.361  1.00  0.00     0.004 C 
ENDBRANCH  21  22
ENDBRANCH  11  21
BRANCH  20  24
ATOM     24  C   UNL A   1      32.145  22.333  22.904  1.00  0.00     0.430 C 
ATOM     25  F   UNL A   1      32.480  21.482  23.902  1.00  0.00    -0.167 F 
ATOM     26  F   UNL A   1      30.865  22.711  23.131  1.00  0.00    -0.167 F 
ATOM     27  F   UNL A   1      32.159  21.631  21.748  1.00  0.00    -0.167 F 
ENDBRANCH  20  24
ENDBRANCH   8  10
ENDBRANCH   7   8
ENDBRANCH   6   7
ENDBRANCH   5   6
ENDBRANCH   4   5
ENDBRANCH   3   4
ENDBRANCH   2   3
ENDBRANCH   1   2
BRANCH   1  28
ATOM     28  C   UNL A   1      41.940  21.475  26.204  1.00  0.00     0.188 C 
BRANCH  28  29
ATOM     29  C   UNL A   1      41.565  20.123  26.854  1.00  0.00     0.188 C 
BRANCH  29  30
ATOM     30  O   UNL A   1      41.766  18.997  26.003  1.00  0.00    -0.376 OA
BRANCH  30  31
ATOM     31  C   UNL A   1      42.808  18.101  26.364  1.00  0.00     0.202 C 
BRANCH  31  32
ATOM     32  C   UNL A   1      44.087  18.291  25.541  1.00  0.00     0.261 C 
BRANCH  32  33
ATOM     33  O   UNL A   1      43.980  19.233  24.464  1.00  0.00    -0.460 OA
BRANCH  33  34
ATOM     34  C   UNL A   1      45.121  19.771  23.979  1.00  0.00     0.338 C 
ATOM     35  O   UNL A   1      45.853  19.311  23.120  1.00  0.00    -0.246 OA
BRANCH  34  36
ATOM     36  C   UNL A   1      45.224  21.133  24.537  1.00  0.00     0.060 A 
ATOM     37  C   UNL A   1      45.618  21.319  25.865  1.00  0.00     0.016 A 
ATOM     38  C   UNL A   1      44.865  22.227  23.740  1.00  0.00     0.016 A 
ATOM     39  C   UNL A   1      45.669  22.608  26.395  1.00  0.00     0.010 A 
ATOM     40  C   UNL A   1      44.903  23.517  24.277  1.00  0.00     0.010 A 
ATOM     41  C   UNL A   1      45.320  23.715  25.602  1.00  0.00    -0.014 A 
BRANCH  41  42
ATOM     42  C   UNL A   1      45.543  25.085  26.117  1.00  0.00     0.031 A 
ATOM     43  C   UNL A   1      46.891  25.733  26.089  1.00  0.00     0.074 A 
ATOM     44  C   UNL A   1      44.482  25.745  26.616  1.00  0.00     0.049 A 
ATOM     45  N   UNL A   1      47.230  26.939  26.469  1.00  0.00    -0.248 NA
ATOM     46  C   UNL A   1      48.004  24.928  25.568  1.00  0.00     0.031 C 
ATOM     47  C   UNL A   1      43.123  25.207  26.693  1.00  0.00     0.029 A 
ATOM     48  N   UNL A   1      44.376  27.004  27.147  1.00  0.00    -0.354 N 
ATOM     49  C   UNL A   1      48.589  27.052  26.215  1.00  0.00     0.074 A 
ATOM     50  C   UNL A   1      49.022  25.774  25.685  1.00  0.00     0.031 C 
ATOM     51  C   UNL A   1      42.317  26.134  27.231  1.00  0.00     0.029 A 
ATOM     52  C   UNL A   1      43.104  27.318  27.556  1.00  0.00     0.049 A 
ATOM     53  H   UNL A   1      45.138  27.623  27.227  1.00  0.00     0.167 HD
ATOM     54  C   UNL A   1      49.391  28.129  26.396  1.00  0.00     0.037 A 
ATOM     55  C   UNL A   1      42.627  28.436  28.132  1.00  0.00     0.037 A 
ATOM     56  C   UNL A   1      48.956  29.390  26.945  1.00  0.00     0.049 A 
ATOM     57  C   UNL A   1      43.554  29.591  28.378  1.00  0.00     0.074 A 
ATOM     58  C   UNL A   1      49.695  30.545  27.148  1.00  0.00     0.029 A 
ATOM     59  N   UNL A   1      47.670  29.661  27.393  1.00  0.00    -0.354 N 
ATOM     60  N   UNL A   1      44.828  29.704  28.090  1.00  0.00    -0.248 NA
ATOM     61  C   UNL A   1      42.975  30.777  29.022  1.00  0.00     0.031 C 
ATOM     62  C   UNL A   1      48.871  31.494  27.761  1.00  0.00     0.029 A 
ATOM     63  C   UNL A   1      47.603  30.954  27.895  1.00  0.00     0.049 A 
ATOM     64  H   UNL A   1      46.917  29.028  27.360  1.00  0.00     0.167 HD
ATOM     65  C   UNL A   1      45.199  30.976  28.501  1.00  0.00     0.074 A 
ATOM     66  C   UNL A   1      44.010  31.606  29.037  1.00  0.00     0.031 C 
ATOM     67  C   UNL A   1      46.417  31.567  28.439  1.00  0.00     0.037 A 
BRANCH  54  68
ATOM     68  C   UNL A   1      50.832  28.006  25.991  1.00  0.00     0.064 A 
ATOM     69  C   UNL A   1      51.232  28.191  24.659  1.00  0.00     0.173 A 
ATOM     70  C   UNL A   1      51.830  27.791  26.952  1.00  0.00     0.173 A 
ATOM     71  F   UNL A   1      50.315  28.396  23.701  1.00  0.00    -0.203 F 
ATOM     72  C   UNL A   1      52.578  28.156  24.303  1.00  0.00     0.198 A 
ATOM     73  C   UNL A   1      53.177  27.781  26.597  1.00  0.00     0.198 A 
ATOM     74  F   UNL A   1      51.502  27.617  28.241  1.00  0.00    -0.203 F 
ATOM     75  F   UNL A   1      52.935  28.316  23.022  1.00  0.00    -0.200 F 
ATOM     76  C   UNL A   1      53.550  27.961  25.274  1.00  0.00     0.200 A 
ATOM     77  F   UNL A   1      54.116  27.607  27.538  1.00  0.00    -0.200 F 
ATOM     78  F   UNL A   1      54.846  27.948  24.933  1.00  0.00    -0.200 F 
ENDBRANCH  54  68
BRANCH  55  79
ATOM     79  C   UNL A   1      41.189  28.517  28.485  1.00  0.00     0.064 A 
ATOM     80  C   UNL A   1      40.735  28.101  29.744  1.00  0.00     0.173 A 
ATOM     81  C   UNL A   1      40.245  29.037  27.587  1.00  0.00     0.173 A 
ATOM     82  F   UNL A   1      41.599  27.581  30.628  1.00  0.00    -0.203 F 
ATOM     83  C   UNL A   1      39.388  28.192  30.087  1.00  0.00     0.198 A 
ATOM     84  C   UNL A   1      38.904  29.153  27.941  1.00  0.00     0.198 A 
ATOM     85  F   UNL A   1      40.633  29.453  26.372  1.00  0.00    -0.203 F 
ATOM     86  F   UNL A   1      38.975  27.758  31.285  1.00  0.00    -0.200 F 
ATOM     87  C   UNL A   1      38.476  28.725  29.189  1.00  0.00     0.200 A 
ATOM     88  F   UNL A   1      38.027  29.682  27.077  1.00  0.00    -0.200 F 
ATOM     89  F   UNL A   1      37.182  28.824  29.525  1.00  0.00    -0.200 F 
ENDBRANCH  55  79
BRANCH  67  90
ATOM     90  C   UNL A   1      46.523  32.971  28.960  1.00  0.00     0.064 A 
ATOM     91  C   UNL A   1      46.372  34.081  28.115  1.00  0.00     0.173 A 
ATOM     92  C   UNL A   1      46.756  33.213  30.324  1.00  0.00     0.173 A 
ATOM     93  F   UNL A   1      46.165  33.904  26.801  1.00  0.00    -0.203 F 
ATOM     94  C   UNL A   1      46.478  35.378  28.610  1.00  0.00     0.198 A 
ATOM     95  C   UNL A   1      46.830  34.511  30.820  1.00  0.00     0.198 A 
ATOM     96  F   UNL A   1      46.903  32.188  31.176  1.00  0.00    -0.203 F 
ATOM     97  F   UNL A   1      46.382  36.422  27.773  1.00  0.00    -0.200 F 
ATOM     98  C   UNL A   1      46.700  35.593  29.962  1.00  0.00     0.200 A 
ATOM     99  F   UNL A   1      47.034  34.717  32.128  1.00  0.00    -0.200 F 
ATOM    100  F   UNL A   1      46.798  36.843  30.436  1.00  0.00    -0.200 F 
ENDBRANCH  67  90
ENDBRANCH  41  42
ENDBRANCH  34  36
ENDBRANCH  33  34
ENDBRANCH  32  33
ENDBRANCH  31  32
ENDBRANCH  30  31
ENDBRANCH  29  30
ENDBRANCH  28  29
ENDBRANCH   1  28
TORSDOF 23
ENDMDL
