MODEL 1
REMARK VINA RESULT:      -9.5      0.000      0.000
REMARK SMILES CN(Cc1ccncc1)C(=O)c1cccn1CC(=O)OCCOCCOCCOCCOC(=O)c1ccc(-c2c3nc(c(-c4c(F)c(F)c(F)c(F)c4F)c4ccc([nH]4)c(-c4c(F)c(F)c(F)c(F)c4F)c4nc(c(-c5c(F)c(F)c(F)c(F)c5F)c5ccc2[nH]5)C=C4)C=C3)cc1
REMARK SMILES IDX 24 1 23 2 22 3 21 4 20 5 18 6 19 7 17 8 16 9 12 10 13 11
REMARK SMILES IDX 14 12 15 13 10 14 11 15 2 16 1 17 3 18 4 19 5 20 9 21 6 22
REMARK SMILES IDX 8 23 7 24 25 25 26 26 27 27 28 28 29 29 30 30 31 31 32 32
REMARK SMILES IDX 33 33 34 34 35 35 36 36 97 37 37 38 96 39 38 40 39 41 40 42
REMARK SMILES IDX 90 43 41 44 95 45 89 46 91 47 42 48 94 49 88 50 87 51 43 53
REMARK SMILES IDX 75 54 55 55 74 56 56 57 59 58 73 59 92 60 57 61 58 62 72 64
REMARK SMILES IDX 93 65 60 66 44 67 45 68 53 69 46 70 47 71 51 72 54 73 48 74
REMARK SMILES IDX 49 75 52 76 50 77 76 78 77 79 85 80 78 81 79 82 83 83 86 84
REMARK SMILES IDX 80 85 81 86 84 87 82 88 61 89 62 90 70 91 63 92 64 93 68 94
REMARK SMILES IDX 71 95 65 96 66 97 69 98 67 99
REMARK H PARENT 91 52 59 63
REMARK Flexibility Score: inf
ROOT
ATOM      1  C   UNL A   1      39.354  23.195  26.876  1.00  0.00     0.188 C 
ENDROOT
BRANCH   1   2
ATOM      2  O   UNL A   1      38.125  23.612  26.291  1.00  0.00    -0.376 OA
BRANCH   2   3
ATOM      3  C   UNL A   1      37.505  22.774  25.335  1.00  0.00     0.202 C 
BRANCH   3   4
ATOM      4  C   UNL A   1      36.702  23.454  24.212  1.00  0.00     0.261 C 
BRANCH   4   5
ATOM      5  O   UNL A   1      35.834  22.591  23.443  1.00  0.00    -0.462 OA
BRANCH   5   6
ATOM      6  C   UNL A   1      34.594  23.066  23.160  1.00  0.00     0.326 C 
ATOM      7  O   UNL A   1      34.368  23.866  22.254  1.00  0.00    -0.250 OA
BRANCH   6   8
ATOM      8  C   UNL A   1      33.466  22.499  24.002  1.00  0.00     0.244 C 
BRANCH   8   9
ATOM      9  N   UNL A   1      33.645  22.414  25.457  1.00  0.00    -0.332 N 
ATOM     10  C   UNL A   1      33.642  23.457  26.392  1.00  0.00     0.107 A 
ATOM     11  C   UNL A   1      34.026  22.847  27.583  1.00  0.00     0.033 A 
ATOM     12  C   UNL A   1      33.987  21.444  27.435  1.00  0.00     0.020 A 
ATOM     13  C   UNL A   1      33.690  21.203  26.122  1.00  0.00     0.087 A 
BRANCH  10  14
ATOM     14  C   UNL A   1      33.212  24.824  26.073  1.00  0.00     0.270 C 
ATOM     15  O   UNL A   1      34.011  25.593  25.528  1.00  0.00    -0.267 OA
BRANCH  14  16
ATOM     16  N   UNL A   1      31.905  25.292  26.286  1.00  0.00    -0.336 N 
ATOM     17  C   UNL A   1      30.861  24.274  26.310  1.00  0.00     0.147 C 
BRANCH  16  18
ATOM     18  C   UNL A   1      31.466  26.680  26.375  1.00  0.00     0.155 C 
BRANCH  18  19
ATOM     19  C   UNL A   1      31.225  27.394  25.063  1.00  0.00    -0.026 A 
ATOM     20  C   UNL A   1      30.136  26.985  24.279  1.00  0.00     0.025 A 
ATOM     21  C   UNL A   1      32.104  28.339  24.523  1.00  0.00     0.025 A 
ATOM     22  C   UNL A   1      30.021  27.466  22.985  1.00  0.00     0.111 A 
ATOM     23  C   UNL A   1      31.908  28.755  23.214  1.00  0.00     0.111 A 
ATOM     24  N   UNL A   1      30.892  28.332  22.430  1.00  0.00    -0.265 NA
ENDBRANCH  18  19
ENDBRANCH  16  18
ENDBRANCH  14  16
ENDBRANCH  10  14
ENDBRANCH   8   9
ENDBRANCH   6   8
ENDBRANCH   5   6
ENDBRANCH   4   5
ENDBRANCH   3   4
ENDBRANCH   2   3
ENDBRANCH   1   2
BRANCH   1  25
ATOM     25  C   UNL A   1      40.127  21.966  26.325  1.00  0.00     0.188 C 
BRANCH  25  26
ATOM     26  O   UNL A   1      41.543  22.041  26.395  1.00  0.00    -0.377 OA
BRANCH  26  27
ATOM     27  C   UNL A   1      42.194  20.871  26.862  1.00  0.00     0.188 C 
BRANCH  27  28
ATOM     28  C   UNL A   1      41.717  19.563  26.214  1.00  0.00     0.188 C 
BRANCH  28  29
ATOM     29  O   UNL A   1      42.503  19.154  25.100  1.00  0.00    -0.376 OA
BRANCH  29  30
ATOM     30  C   UNL A   1      43.885  18.879  25.240  1.00  0.00     0.202 C 
BRANCH  30  31
ATOM     31  C   UNL A   1      44.744  19.154  23.999  1.00  0.00     0.261 C 
BRANCH  31  32
ATOM     32  O   UNL A   1      45.703  20.194  24.150  1.00  0.00    -0.460 OA
BRANCH  32  33
ATOM     33  C   UNL A   1      45.171  21.422  24.026  1.00  0.00     0.338 C 
ATOM     34  O   UNL A   1      44.352  21.825  23.223  1.00  0.00    -0.246 OA
BRANCH  33  35
ATOM     35  C   UNL A   1      45.810  22.334  24.949  1.00  0.00     0.060 A 
ATOM     36  C   UNL A   1      45.529  22.113  26.298  1.00  0.00     0.016 A 
ATOM     37  C   UNL A   1      46.162  23.577  24.415  1.00  0.00     0.016 A 
ATOM     38  C   UNL A   1      45.401  23.211  27.106  1.00  0.00     0.010 A 
ATOM     39  C   UNL A   1      45.993  24.678  25.215  1.00  0.00     0.010 A 
ATOM     40  C   UNL A   1      45.569  24.481  26.535  1.00  0.00    -0.014 A 
BRANCH  40  41
ATOM     41  C   UNL A   1      45.463  25.622  27.436  1.00  0.00     0.031 A 
ATOM     42  C   UNL A   1      44.039  26.198  27.348  1.00  0.00     0.074 A 
ATOM     43  C   UNL A   1      46.621  25.956  28.088  1.00  0.00     0.049 A 
ATOM     44  N   UNL A   1      43.608  27.387  27.617  1.00  0.00    -0.248 NA
ATOM     45  C   UNL A   1      42.928  25.341  26.826  1.00  0.00     0.031 C 
ATOM     46  C   UNL A   1      47.898  25.197  28.025  1.00  0.00     0.029 A 
ATOM     47  N   UNL A   1      46.977  26.993  28.919  1.00  0.00    -0.354 N 
ATOM     48  C   UNL A   1      42.200  27.354  27.533  1.00  0.00     0.074 A 
ATOM     49  C   UNL A   1      41.848  26.115  26.921  1.00  0.00     0.031 C 
ATOM     50  C   UNL A   1      48.882  25.837  28.699  1.00  0.00     0.029 A 
ATOM     51  C   UNL A   1      48.353  27.052  29.287  1.00  0.00     0.049 A 
ATOM     52  H   UNL A   1      46.322  27.655  29.240  1.00  0.00     0.167 HD
ATOM     53  C   UNL A   1      41.412  28.294  28.128  1.00  0.00     0.037 A 
ATOM     54  C   UNL A   1      49.008  28.039  29.980  1.00  0.00     0.037 A 
ATOM     55  C   UNL A   1      42.229  29.311  28.693  1.00  0.00     0.049 A 
ATOM     56  C   UNL A   1      47.929  28.922  30.434  1.00  0.00     0.074 A 
ATOM     57  C   UNL A   1      42.983  30.292  28.107  1.00  0.00     0.029 A 
ATOM     58  N   UNL A   1      42.654  29.118  29.985  1.00  0.00    -0.354 N 
ATOM     59  N   UNL A   1      47.109  28.638  31.400  1.00  0.00    -0.248 NA
ATOM     60  C   UNL A   1      47.675  30.162  29.690  1.00  0.00     0.031 C 
ATOM     61  C   UNL A   1      44.148  30.313  28.898  1.00  0.00     0.029 A 
ATOM     62  C   UNL A   1      43.954  29.547  30.054  1.00  0.00     0.049 A 
ATOM     63  H   UNL A   1      42.123  28.741  30.724  1.00  0.00     0.167 HD
ATOM     64  C   UNL A   1      46.068  29.496  31.146  1.00  0.00     0.074 A 
ATOM     65  C   UNL A   1      46.608  30.584  30.361  1.00  0.00     0.031 C 
ATOM     66  C   UNL A   1      44.802  29.008  31.090  1.00  0.00     0.037 A 
BRANCH  53  67
ATOM     67  C   UNL A   1      39.958  28.299  28.494  1.00  0.00     0.064 A 
ATOM     68  C   UNL A   1      39.086  29.081  27.697  1.00  0.00     0.173 A 
ATOM     69  C   UNL A   1      39.481  27.922  29.755  1.00  0.00     0.173 A 
ATOM     70  F   UNL A   1      39.431  29.439  26.450  1.00  0.00    -0.203 F 
ATOM     71  C   UNL A   1      37.895  29.596  28.199  1.00  0.00     0.198 A 
ATOM     72  C   UNL A   1      38.256  28.397  30.234  1.00  0.00     0.198 A 
ATOM     73  F   UNL A   1      40.223  27.184  30.590  1.00  0.00    -0.203 F 
ATOM     74  F   UNL A   1      37.185  30.465  27.467  1.00  0.00    -0.200 F 
ATOM     75  C   UNL A   1      37.492  29.271  29.478  1.00  0.00     0.200 A 
ATOM     76  F   UNL A   1      37.860  28.069  31.472  1.00  0.00    -0.200 F 
ATOM     77  F   UNL A   1      36.389  29.826  29.996  1.00  0.00    -0.200 F 
ENDBRANCH  53  67
BRANCH  54  78
ATOM     78  C   UNL A   1      50.410  28.482  30.352  1.00  0.00     0.064 A 
ATOM     79  C   UNL A   1      51.211  29.393  29.655  1.00  0.00     0.173 A 
ATOM     80  C   UNL A   1      51.012  27.992  31.554  1.00  0.00     0.173 A 
ATOM     81  F   UNL A   1      50.839  29.855  28.455  1.00  0.00    -0.203 F 
ATOM     82  C   UNL A   1      52.446  29.848  30.169  1.00  0.00     0.198 A 
ATOM     83  C   UNL A   1      52.203  28.480  32.089  1.00  0.00     0.198 A 
ATOM     84  F   UNL A   1      50.463  27.004  32.272  1.00  0.00    -0.203 F 
ATOM     85  F   UNL A   1      53.181  30.720  29.464  1.00  0.00    -0.200 F 
ATOM     86  C   UNL A   1      52.919  29.423  31.401  1.00  0.00     0.200 A 
ATOM     87  F   UNL A   1      52.628  28.029  33.279  1.00  0.00    -0.200 F 
ATOM     88  F   UNL A   1      54.060  29.905  31.914  1.00  0.00    -0.200 F 
ENDBRANCH  54  78
BRANCH  66  89
ATOM     89  C   UNL A   1      44.599  27.708  31.854  1.00  0.00     0.064 A 
ATOM     90  C   UNL A   1      44.771  27.682  33.247  1.00  0.00     0.173 A 
ATOM     91  C   UNL A   1      44.364  26.463  31.248  1.00  0.00     0.173 A 
ATOM     92  F   UNL A   1      44.968  28.828  33.916  1.00  0.00    -0.203 F 
ATOM     93  C   UNL A   1      44.742  26.487  33.974  1.00  0.00     0.198 A 
ATOM     94  C   UNL A   1      44.337  25.265  31.967  1.00  0.00     0.198 A 
ATOM     95  F   UNL A   1      44.140  26.375  29.941  1.00  0.00    -0.203 F 
ATOM     96  F   UNL A   1      44.910  26.510  35.303  1.00  0.00    -0.200 F 
ATOM     97  C   UNL A   1      44.532  25.276  33.333  1.00  0.00     0.200 A 
ATOM     98  F   UNL A   1      44.111  24.104  31.331  1.00  0.00    -0.200 F 
ATOM     99  F   UNL A   1      44.495  24.132  34.031  1.00  0.00    -0.200 F 
ENDBRANCH  66  89
ENDBRANCH  40  41
ENDBRANCH  33  35
ENDBRANCH  32  33
ENDBRANCH  31  32
ENDBRANCH  30  31
ENDBRANCH  29  30
ENDBRANCH  28  29
ENDBRANCH  27  28
ENDBRANCH  26  27
ENDBRANCH  25  26
ENDBRANCH   1  25
TORSDOF 25
ENDMDL
MODEL 2
REMARK VINA RESULT:      -9.4      4.396      9.802
REMARK SMILES CN(Cc1ccncc1)C(=O)c1cccn1CC(=O)OCCOCCOCCOCCOC(=O)c1ccc(-c2c3nc(c(-c4c(F)c(F)c(F)c(F)c4F)c4ccc([nH]4)c(-c4c(F)c(F)c(F)c(F)c4F)c4nc(c(-c5c(F)c(F)c(F)c(F)c5F)c5ccc2[nH]5)C=C4)C=C3)cc1
REMARK SMILES IDX 24 1 23 2 22 3 21 4 20 5 18 6 19 7 17 8 16 9 12 10 13 11
REMARK SMILES IDX 14 12 15 13 10 14 11 15 2 16 1 17 3 18 4 19 5 20 9 21 6 22
REMARK SMILES IDX 8 23 7 24 25 25 26 26 27 27 28 28 29 29 30 30 31 31 32 32
REMARK SMILES IDX 33 33 34 34 35 35 36 36 97 37 37 38 96 39 38 40 39 41 40 42
REMARK SMILES IDX 90 43 41 44 95 45 89 46 91 47 42 48 94 49 88 50 87 51 43 53
REMARK SMILES IDX 75 54 55 55 74 56 56 57 59 58 73 59 92 60 57 61 58 62 72 64
REMARK SMILES IDX 93 65 60 66 44 67 45 68 53 69 46 70 47 71 51 72 54 73 48 74
REMARK SMILES IDX 49 75 52 76 50 77 76 78 77 79 85 80 78 81 79 82 83 83 86 84
REMARK SMILES IDX 80 85 81 86 84 87 82 88 61 89 62 90 70 91 63 92 64 93 68 94
REMARK SMILES IDX 71 95 65 96 66 97 69 98 67 99
REMARK H PARENT 91 52 59 63
REMARK Flexibility Score: inf
ROOT
ATOM      1  C   UNL A   1      35.164  32.003  27.711  1.00  0.00     0.188 C 
ENDROOT
BRANCH   1   2
ATOM      2  O   UNL A   1      33.973  31.297  28.042  1.00  0.00    -0.376 OA
BRANCH   2   3
ATOM      3  C   UNL A   1      33.746  30.029  27.456  1.00  0.00     0.202 C 
BRANCH   3   4
ATOM      4  C   UNL A   1      32.776  29.964  26.263  1.00  0.00     0.261 C 
BRANCH   4   5
ATOM      5  O   UNL A   1      33.355  29.574  24.998  1.00  0.00    -0.462 OA
BRANCH   5   6
ATOM      6  C   UNL A   1      33.293  28.257  24.677  1.00  0.00     0.326 C 
ATOM      7  O   UNL A   1      34.004  27.737  23.820  1.00  0.00    -0.250 OA
BRANCH   6   8
ATOM      8  C   UNL A   1      32.320  27.426  25.494  1.00  0.00     0.244 C 
BRANCH   8   9
ATOM      9  N   UNL A   1      32.272  25.976  25.273  1.00  0.00    -0.332 N 
ATOM     10  C   UNL A   1      31.680  25.281  24.210  1.00  0.00     0.107 A 
ATOM     11  C   UNL A   1      31.774  23.943  24.583  1.00  0.00     0.033 A 
ATOM     12  C   UNL A   1      32.640  23.817  25.691  1.00  0.00     0.020 A 
ATOM     13  C   UNL A   1      32.981  25.089  26.061  1.00  0.00     0.087 A 
BRANCH  10  14
ATOM     14  C   UNL A   1      31.197  25.937  22.989  1.00  0.00     0.270 C 
ATOM     15  O   UNL A   1      31.579  25.518  21.891  1.00  0.00    -0.267 OA
BRANCH  14  16
ATOM     16  N   UNL A   1      30.257  26.980  22.993  1.00  0.00    -0.336 N 
ATOM     17  C   UNL A   1      29.045  26.741  23.768  1.00  0.00     0.147 C 
BRANCH  16  18
ATOM     18  C   UNL A   1      30.308  28.220  22.226  1.00  0.00     0.155 C 
BRANCH  18  19
ATOM     19  C   UNL A   1      29.472  29.369  22.748  1.00  0.00    -0.026 A 
ATOM     20  C   UNL A   1      28.308  29.712  22.045  1.00  0.00     0.025 A 
ATOM     21  C   UNL A   1      29.868  30.195  23.806  1.00  0.00     0.025 A 
ATOM     22  C   UNL A   1      27.649  30.886  22.371  1.00  0.00     0.111 A 
ATOM     23  C   UNL A   1      29.145  31.353  24.048  1.00  0.00     0.111 A 
ATOM     24  N   UNL A   1      28.050  31.722  23.348  1.00  0.00    -0.265 NA
ENDBRANCH  18  19
ENDBRANCH  16  18
ENDBRANCH  14  16
ENDBRANCH  10  14
ENDBRANCH   8   9
ENDBRANCH   6   8
ENDBRANCH   5   6
ENDBRANCH   4   5
ENDBRANCH   3   4
ENDBRANCH   2   3
ENDBRANCH   1   2
BRANCH   1  25
ATOM     25  C   UNL A   1      35.323  33.509  28.049  1.00  0.00     0.188 C 
BRANCH  25  26
ATOM     26  O   UNL A   1      34.124  34.269  28.076  1.00  0.00    -0.377 OA
BRANCH  26  27
ATOM     27  C   UNL A   1      33.530  34.428  29.353  1.00  0.00     0.188 C 
BRANCH  27  28
ATOM     28  C   UNL A   1      33.444  35.878  29.852  1.00  0.00     0.188 C 
BRANCH  28  29
ATOM     29  O   UNL A   1      33.567  36.008  31.264  1.00  0.00    -0.376 OA
BRANCH  29  30
ATOM     30  C   UNL A   1      33.699  34.870  32.096  1.00  0.00     0.202 C 
BRANCH  30  31
ATOM     31  C   UNL A   1      35.109  34.610  32.641  1.00  0.00     0.261 C 
BRANCH  31  32
ATOM     32  O   UNL A   1      35.775  33.487  32.073  1.00  0.00    -0.460 OA
BRANCH  32  33
ATOM     33  C   UNL A   1      36.147  32.578  32.991  1.00  0.00     0.338 C 
ATOM     34  O   UNL A   1      36.118  32.657  34.203  1.00  0.00    -0.246 OA
BRANCH  33  35
ATOM     35  C   UNL A   1      36.752  31.436  32.340  1.00  0.00     0.060 A 
ATOM     36  C   UNL A   1      37.707  30.755  33.096  1.00  0.00     0.016 A 
ATOM     37  C   UNL A   1      36.732  31.463  30.943  1.00  0.00     0.016 A 
ATOM     38  C   UNL A   1      38.794  30.249  32.434  1.00  0.00     0.010 A 
ATOM     39  C   UNL A   1      37.841  30.993  30.286  1.00  0.00     0.010 A 
ATOM     40  C   UNL A   1      38.876  30.436  31.048  1.00  0.00    -0.014 A 
BRANCH  40  41
ATOM     41  C   UNL A   1      40.028  29.849  30.376  1.00  0.00     0.031 A 
ATOM     42  C   UNL A   1      41.098  30.937  30.174  1.00  0.00     0.074 A 
ATOM     43  C   UNL A   1      39.889  28.531  30.029  1.00  0.00     0.049 A 
ATOM     44  N   UNL A   1      42.056  31.008  29.309  1.00  0.00    -0.248 NA
ATOM     45  C   UNL A   1      41.067  32.168  31.027  1.00  0.00     0.031 C 
ATOM     46  C   UNL A   1      38.732  27.664  30.375  1.00  0.00     0.029 A 
ATOM     47  N   UNL A   1      40.666  27.651  29.311  1.00  0.00    -0.354 N 
ATOM     48  C   UNL A   1      42.853  32.120  29.653  1.00  0.00     0.074 A 
ATOM     49  C   UNL A   1      42.130  32.865  30.630  1.00  0.00     0.031 C 
ATOM     50  C   UNL A   1      38.847  26.443  29.804  1.00  0.00     0.029 A 
ATOM     51  C   UNL A   1      40.086  26.374  29.055  1.00  0.00     0.049 A 
ATOM     52  H   UNL A   1      41.568  27.888  28.994  1.00  0.00     0.167 HD
ATOM     53  C   UNL A   1      44.138  32.258  29.218  1.00  0.00     0.037 A 
ATOM     54  C   UNL A   1      40.567  25.364  28.260  1.00  0.00     0.037 A 
ATOM     55  C   UNL A   1      44.447  31.209  28.309  1.00  0.00     0.049 A 
ATOM     56  C   UNL A   1      41.913  25.817  27.896  1.00  0.00     0.074 A 
ATOM     57  C   UNL A   1      44.024  30.969  27.030  1.00  0.00     0.029 A 
ATOM     58  N   UNL A   1      44.951  30.051  28.849  1.00  0.00    -0.354 N 
ATOM     59  N   UNL A   1      42.930  25.812  28.703  1.00  0.00    -0.248 NA
ATOM     60  C   UNL A   1      42.118  26.420  26.573  1.00  0.00     0.031 C 
ATOM     61  C   UNL A   1      43.835  29.575  27.013  1.00  0.00     0.029 A 
ATOM     62  C   UNL A   1      44.383  29.005  28.170  1.00  0.00     0.049 A 
ATOM     63  H   UNL A   1      45.601  29.985  29.586  1.00  0.00     0.167 HD
ATOM     64  C   UNL A   1      43.777  26.705  28.095  1.00  0.00     0.074 A 
ATOM     65  C   UNL A   1      43.400  26.750  26.699  1.00  0.00     0.031 C 
ATOM     66  C   UNL A   1      44.308  27.720  28.824  1.00  0.00     0.037 A 
BRANCH  53  67
ATOM     67  C   UNL A   1      45.276  33.105  29.702  1.00  0.00     0.064 A 
ATOM     68  C   UNL A   1      45.744  32.880  31.021  1.00  0.00     0.173 A 
ATOM     69  C   UNL A   1      45.634  34.324  29.113  1.00  0.00     0.173 A 
ATOM     70  F   UNL A   1      45.503  31.717  31.645  1.00  0.00    -0.203 F 
ATOM     71  C   UNL A   1      46.372  33.878  31.758  1.00  0.00     0.198 A 
ATOM     72  C   UNL A   1      46.316  35.304  29.840  1.00  0.00     0.198 A 
ATOM     73  F   UNL A   1      45.246  34.639  27.871  1.00  0.00    -0.203 F 
ATOM     74  F   UNL A   1      46.647  33.677  33.054  1.00  0.00    -0.200 F 
ATOM     75  C   UNL A   1      46.638  35.100  31.173  1.00  0.00     0.200 A 
ATOM     76  F   UNL A   1      46.586  36.484  29.266  1.00  0.00    -0.200 F 
ATOM     77  F   UNL A   1      47.170  36.091  31.899  1.00  0.00    -0.200 F 
ENDBRANCH  53  67
BRANCH  54  78
ATOM     78  C   UNL A   1      40.140  24.041  27.654  1.00  0.00     0.064 A 
ATOM     79  C   UNL A   1      39.066  23.829  26.783  1.00  0.00     0.173 A 
ATOM     80  C   UNL A   1      40.903  22.860  27.921  1.00  0.00     0.173 A 
ATOM     81  F   UNL A   1      38.190  24.807  26.523  1.00  0.00    -0.203 F 
ATOM     82  C   UNL A   1      38.845  22.580  26.160  1.00  0.00     0.198 A 
ATOM     83  C   UNL A   1      40.720  21.644  27.267  1.00  0.00     0.198 A 
ATOM     84  F   UNL A   1      41.873  22.835  28.845  1.00  0.00    -0.203 F 
ATOM     85  F   UNL A   1      37.800  22.423  25.334  1.00  0.00    -0.200 F 
ATOM     86  C   UNL A   1      39.694  21.504  26.370  1.00  0.00     0.200 A 
ATOM     87  F   UNL A   1      41.559  20.626  27.512  1.00  0.00    -0.200 F 
ATOM     88  F   UNL A   1      39.518  20.341  25.729  1.00  0.00    -0.200 F 
ENDBRANCH  54  78
BRANCH  66  89
ATOM     89  C   UNL A   1      44.371  27.450  30.319  1.00  0.00     0.064 A 
ATOM     90  C   UNL A   1      45.153  26.390  30.805  1.00  0.00     0.173 A 
ATOM     91  C   UNL A   1      43.591  28.118  31.277  1.00  0.00     0.173 A 
ATOM     92  F   UNL A   1      45.956  25.715  29.968  1.00  0.00    -0.203 F 
ATOM     93  C   UNL A   1      45.129  26.009  32.151  1.00  0.00     0.198 A 
ATOM     94  C   UNL A   1      43.558  27.741  32.622  1.00  0.00     0.198 A 
ATOM     95  F   UNL A   1      42.848  29.166  30.937  1.00  0.00    -0.203 F 
ATOM     96  F   UNL A   1      45.893  24.992  32.571  1.00  0.00    -0.200 F 
ATOM     97  C   UNL A   1      44.325  26.680  33.059  1.00  0.00     0.200 A 
ATOM     98  F   UNL A   1      42.790  28.416  33.492  1.00  0.00    -0.200 F 
ATOM     99  F   UNL A   1      44.308  26.321  34.351  1.00  0.00    -0.200 F 
ENDBRANCH  66  89
ENDBRANCH  40  41
ENDBRANCH  33  35
ENDBRANCH  32  33
ENDBRANCH  31  32
ENDBRANCH  30  31
ENDBRANCH  29  30
ENDBRANCH  28  29
ENDBRANCH  27  28
ENDBRANCH  26  27
ENDBRANCH  25  26
ENDBRANCH   1  25
TORSDOF 25
ENDMDL
MODEL 3
REMARK VINA RESULT:      -9.3      5.273     10.516
REMARK SMILES CN(Cc1ccncc1)C(=O)c1cccn1CC(=O)OCCOCCOCCOCCOC(=O)c1ccc(-c2c3nc(c(-c4c(F)c(F)c(F)c(F)c4F)c4ccc([nH]4)c(-c4c(F)c(F)c(F)c(F)c4F)c4nc(c(-c5c(F)c(F)c(F)c(F)c5F)c5ccc2[nH]5)C=C4)C=C3)cc1
REMARK SMILES IDX 24 1 23 2 22 3 21 4 20 5 18 6 19 7 17 8 16 9 12 10 13 11
REMARK SMILES IDX 14 12 15 13 10 14 11 15 2 16 1 17 3 18 4 19 5 20 9 21 6 22
REMARK SMILES IDX 8 23 7 24 25 25 26 26 27 27 28 28 29 29 30 30 31 31 32 32
REMARK SMILES IDX 33 33 34 34 35 35 36 36 97 37 37 38 96 39 38 40 39 41 40 42
REMARK SMILES IDX 90 43 41 44 95 45 89 46 91 47 42 48 94 49 88 50 87 51 43 53
REMARK SMILES IDX 75 54 55 55 74 56 56 57 59 58 73 59 92 60 57 61 58 62 72 64
REMARK SMILES IDX 93 65 60 66 44 67 45 68 53 69 46 70 47 71 51 72 54 73 48 74
REMARK SMILES IDX 49 75 52 76 50 77 76 78 77 79 85 80 78 81 79 82 83 83 86 84
REMARK SMILES IDX 80 85 81 86 84 87 82 88 61 89 62 90 70 91 63 92 64 93 68 94
REMARK SMILES IDX 71 95 65 96 66 97 69 98 67 99
REMARK H PARENT 91 52 59 63
REMARK Flexibility Score: inf
ROOT
ATOM      1  C   UNL A   1      35.858  32.672  27.945  1.00  0.00     0.188 C 
ENDROOT
BRANCH   1   2
ATOM      2  O   UNL A   1      35.133  31.488  28.258  1.00  0.00    -0.376 OA
BRANCH   2   3
ATOM      3  C   UNL A   1      34.739  30.630  27.204  1.00  0.00     0.202 C 
BRANCH   3   4
ATOM      4  C   UNL A   1      33.963  29.355  27.580  1.00  0.00     0.261 C 
BRANCH   4   5
ATOM      5  O   UNL A   1      32.523  29.443  27.494  1.00  0.00    -0.462 OA
BRANCH   5   6
ATOM      6  C   UNL A   1      31.857  28.292  27.221  1.00  0.00     0.326 C 
ATOM      7  O   UNL A   1      31.022  27.800  27.977  1.00  0.00    -0.250 OA
BRANCH   6   8
ATOM      8  C   UNL A   1      32.159  27.662  25.874  1.00  0.00     0.244 C 
BRANCH   8   9
ATOM      9  N   UNL A   1      31.051  27.436  24.937  1.00  0.00    -0.332 N 
ATOM     10  C   UNL A   1      30.268  26.284  24.782  1.00  0.00     0.107 A 
ATOM     11  C   UNL A   1      29.495  26.546  23.655  1.00  0.00     0.033 A 
ATOM     12  C   UNL A   1      29.602  27.911  23.310  1.00  0.00     0.020 A 
ATOM     13  C   UNL A   1      30.529  28.452  24.159  1.00  0.00     0.087 A 
BRANCH  10  14
ATOM     14  C   UNL A   1      30.289  25.164  25.731  1.00  0.00     0.270 C 
ATOM     15  O   UNL A   1      29.522  25.183  26.700  1.00  0.00    -0.267 OA
BRANCH  14  16
ATOM     16  N   UNL A   1      31.088  24.022  25.561  1.00  0.00    -0.336 N 
ATOM     17  C   UNL A   1      31.256  23.182  26.741  1.00  0.00     0.147 C 
BRANCH  16  18
ATOM     18  C   UNL A   1      31.851  23.645  24.376  1.00  0.00     0.155 C 
BRANCH  18  19
ATOM     19  C   UNL A   1      33.349  23.525  24.552  1.00  0.00    -0.026 A 
ATOM     20  C   UNL A   1      33.940  22.270  24.344  1.00  0.00     0.025 A 
ATOM     21  C   UNL A   1      34.155  24.556  25.045  1.00  0.00     0.025 A 
ATOM     22  C   UNL A   1      35.264  22.082  24.708  1.00  0.00     0.111 A 
ATOM     23  C   UNL A   1      35.468  24.266  25.387  1.00  0.00     0.111 A 
ATOM     24  N   UNL A   1      36.037  23.050  25.239  1.00  0.00    -0.265 NA
ENDBRANCH  18  19
ENDBRANCH  16  18
ENDBRANCH  14  16
ENDBRANCH  10  14
ENDBRANCH   8   9
ENDBRANCH   6   8
ENDBRANCH   5   6
ENDBRANCH   4   5
ENDBRANCH   3   4
ENDBRANCH   2   3
ENDBRANCH   1   2
BRANCH   1  25
ATOM     25  C   UNL A   1      35.141  34.045  27.835  1.00  0.00     0.188 C 
BRANCH  25  26
ATOM     26  O   UNL A   1      33.724  34.012  27.901  1.00  0.00    -0.377 OA
BRANCH  26  27
ATOM     27  C   UNL A   1      33.149  34.671  29.018  1.00  0.00     0.188 C 
BRANCH  27  28
ATOM     28  C   UNL A   1      33.314  36.199  29.022  1.00  0.00     0.188 C 
BRANCH  28  29
ATOM     29  O   UNL A   1      32.909  36.816  30.239  1.00  0.00    -0.376 OA
BRANCH  29  30
ATOM     30  C   UNL A   1      32.396  36.051  31.314  1.00  0.00     0.202 C 
BRANCH  30  31
ATOM     31  C   UNL A   1      33.128  36.216  32.652  1.00  0.00     0.261 C 
BRANCH  31  32
ATOM     32  O   UNL A   1      34.293  35.412  32.804  1.00  0.00    -0.460 OA
BRANCH  32  33
ATOM     33  C   UNL A   1      34.025  34.095  32.807  1.00  0.00     0.338 C 
ATOM     34  O   UNL A   1      33.115  33.500  33.350  1.00  0.00    -0.246 OA
BRANCH  33  35
ATOM     35  C   UNL A   1      35.085  33.372  32.140  1.00  0.00     0.060 A 
ATOM     36  C   UNL A   1      35.566  32.253  32.823  1.00  0.00     0.016 A 
ATOM     37  C   UNL A   1      35.840  34.119  31.231  1.00  0.00     0.016 A 
ATOM     38  C   UNL A   1      36.908  31.991  32.743  1.00  0.00     0.010 A 
ATOM     39  C   UNL A   1      37.190  33.881  31.186  1.00  0.00     0.010 A 
ATOM     40  C   UNL A   1      37.709  32.851  31.979  1.00  0.00    -0.014 A 
BRANCH  40  41
ATOM     41  C   UNL A   1      39.125  32.516  31.888  1.00  0.00     0.031 A 
ATOM     42  C   UNL A   1      39.937  33.555  32.682  1.00  0.00     0.074 A 
ATOM     43  C   UNL A   1      39.416  31.434  31.100  1.00  0.00     0.049 A 
ATOM     44  N   UNL A   1      41.174  33.909  32.559  1.00  0.00    -0.248 NA
ATOM     45  C   UNL A   1      39.258  34.372  33.737  1.00  0.00     0.031 C 
ATOM     46  C   UNL A   1      38.417  30.548  30.446  1.00  0.00     0.029 A 
ATOM     47  N   UNL A   1      40.591  30.860  30.672  1.00  0.00    -0.354 N 
ATOM     48  C   UNL A   1      41.473  34.775  33.633  1.00  0.00     0.074 A 
ATOM     49  C   UNL A   1      40.233  35.123  34.244  1.00  0.00     0.031 C 
ATOM     50  C   UNL A   1      39.021  29.630  29.655  1.00  0.00     0.029 A 
ATOM     51  C   UNL A   1      40.458  29.799  29.729  1.00  0.00     0.049 A 
ATOM     52  H   UNL A   1      41.470  31.163  30.997  1.00  0.00     0.167 HD
ATOM     53  C   UNL A   1      42.751  35.016  34.041  1.00  0.00     0.037 A 
ATOM     54  C   UNL A   1      41.447  29.147  29.035  1.00  0.00     0.037 A 
ATOM     55  C   UNL A   1      43.661  34.377  33.155  1.00  0.00     0.049 A 
ATOM     56  C   UNL A   1      42.686  29.650  29.639  1.00  0.00     0.074 A 
ATOM     57  C   UNL A   1      44.006  34.657  31.860  1.00  0.00     0.029 A 
ATOM     58  N   UNL A   1      44.008  33.082  33.451  1.00  0.00    -0.354 N 
ATOM     59  N   UNL A   1      43.125  29.298  30.809  1.00  0.00    -0.248 NA
ATOM     60  C   UNL A   1      43.434  30.699  28.937  1.00  0.00     0.031 C 
ATOM     61  C   UNL A   1      44.100  33.381  31.273  1.00  0.00     0.029 A 
ATOM     62  C   UNL A   1      44.062  32.394  32.267  1.00  0.00     0.049 A 
ATOM     63  H   UNL A   1      44.185  32.715  34.348  1.00  0.00     0.167 HD
ATOM     64  C   UNL A   1      43.993  30.320  31.103  1.00  0.00     0.074 A 
ATOM     65  C   UNL A   1      44.388  30.905  29.840  1.00  0.00     0.031 C 
ATOM     66  C   UNL A   1      43.887  30.962  32.295  1.00  0.00     0.037 A 
BRANCH  53  67
ATOM     67  C   UNL A   1      43.310  35.569  35.317  1.00  0.00     0.064 A 
ATOM     68  C   UNL A   1      43.070  34.839  36.507  1.00  0.00     0.173 A 
ATOM     69  C   UNL A   1      43.693  36.907  35.473  1.00  0.00     0.173 A 
ATOM     70  F   UNL A   1      42.758  33.534  36.460  1.00  0.00    -0.203 F 
ATOM     71  C   UNL A   1      43.044  35.454  37.755  1.00  0.00     0.198 A 
ATOM     72  C   UNL A   1      43.720  37.507  36.736  1.00  0.00     0.198 A 
ATOM     73  F   UNL A   1      43.943  37.689  34.416  1.00  0.00    -0.203 F 
ATOM     74  F   UNL A   1      42.650  34.760  38.831  1.00  0.00    -0.200 F 
ATOM     75  C   UNL A   1      43.347  36.796  37.865  1.00  0.00     0.200 A 
ATOM     76  F   UNL A   1      44.028  38.807  36.842  1.00  0.00    -0.200 F 
ATOM     77  F   UNL A   1      43.246  37.412  39.050  1.00  0.00    -0.200 F 
ENDBRANCH  53  67
BRANCH  54  78
ATOM     78  C   UNL A   1      41.632  28.170  27.890  1.00  0.00     0.064 A 
ATOM     79  C   UNL A   1      42.056  28.475  26.593  1.00  0.00     0.173 A 
ATOM     80  C   UNL A   1      41.414  26.773  28.109  1.00  0.00     0.173 A 
ATOM     81  F   UNL A   1      42.193  29.746  26.196  1.00  0.00    -0.203 F 
ATOM     82  C   UNL A   1      42.336  27.467  25.642  1.00  0.00     0.198 A 
ATOM     83  C   UNL A   1      41.742  25.776  27.192  1.00  0.00     0.198 A 
ATOM     84  F   UNL A   1      40.865  26.308  29.238  1.00  0.00    -0.203 F 
ATOM     85  F   UNL A   1      42.738  27.807  24.409  1.00  0.00    -0.200 F 
ATOM     86  C   UNL A   1      42.218  26.122  25.956  1.00  0.00     0.200 A 
ATOM     87  F   UNL A   1      41.599  24.486  27.536  1.00  0.00    -0.200 F 
ATOM     88  F   UNL A   1      42.546  25.169  25.073  1.00  0.00    -0.200 F 
ENDBRANCH  54  78
BRANCH  66  89
ATOM     89  C   UNL A   1      43.217  30.144  33.387  1.00  0.00     0.064 A 
ATOM     90  C   UNL A   1      43.811  28.952  33.832  1.00  0.00     0.173 A 
ATOM     91  C   UNL A   1      41.949  30.426  33.923  1.00  0.00     0.173 A 
ATOM     92  F   UNL A   1      45.036  28.616  33.399  1.00  0.00    -0.203 F 
ATOM     93  C   UNL A   1      43.164  28.090  34.725  1.00  0.00     0.198 A 
ATOM     94  C   UNL A   1      41.295  29.569  34.812  1.00  0.00     0.198 A 
ATOM     95  F   UNL A   1      41.314  31.550  33.608  1.00  0.00    -0.203 F 
ATOM     96  F   UNL A   1      43.771  26.964  35.123  1.00  0.00    -0.200 F 
ATOM     97  C   UNL A   1      41.902  28.395  35.210  1.00  0.00     0.200 A 
ATOM     98  F   UNL A   1      40.082  29.891  35.288  1.00  0.00    -0.200 F 
ATOM     99  F   UNL A   1      41.287  27.574  36.073  1.00  0.00    -0.200 F 
ENDBRANCH  66  89
ENDBRANCH  40  41
ENDBRANCH  33  35
ENDBRANCH  32  33
ENDBRANCH  31  32
ENDBRANCH  30  31
ENDBRANCH  29  30
ENDBRANCH  28  29
ENDBRANCH  27  28
ENDBRANCH  26  27
ENDBRANCH  25  26
ENDBRANCH   1  25
TORSDOF 25
ENDMDL
