MODEL 1
REMARK VINA RESULT:     -10.9      0.000      0.000
REMARK SMILES Cc1nn(C)c(=O)c(C(=O)N2CCCC[C@H]2C(=O)OCCOCCOCCOCCOC(=O)c2ccc(-c3c4nc(c(-c5c(F)c(F)c(F)c(F)c5F)c5ccc([nH]5)c(-c5c(F)c(F)c(F)c(F)c5F)c5nc(c(-c6c(F)c(F)c(F)c(F)c6F)c6ccc3[nH]6)C=C5)C=C4)cc2)c1C
REMARK SMILES IDX 25 1 24 2 23 3 22 4 21 5 20 6 19 7 17 8 18 9 16 10 11 11
REMARK SMILES IDX 12 12 13 13 15 14 14 15 9 16 10 17 8 18 1 19 2 20 3 21 97 22
REMARK SMILES IDX 4 23 98 24 5 25 6 26 7 27 26 28 27 29 28 30 29 31 30 32
REMARK SMILES IDX 31 33 32 34 33 35 34 36 35 37 96 38 36 39 95 40 37 41 38 42
REMARK SMILES IDX 39 43 89 44 40 45 94 46 88 47 90 48 41 49 93 50 87 51 86 52
REMARK SMILES IDX 42 54 74 55 54 56 73 57 55 58 58 59 72 60 91 61 56 62 57 63
REMARK SMILES IDX 71 65 92 66 59 67 43 68 44 69 52 70 45 71 46 72 50 73 53 74
REMARK SMILES IDX 47 75 48 76 51 77 49 78 75 79 76 80 84 81 77 82 78 83 82 84
REMARK SMILES IDX 85 85 79 86 80 87 83 88 81 89 60 90 61 91 69 92 62 93 63 94
REMARK SMILES IDX 67 95 70 96 64 97 65 98 68 99 66 100
REMARK H PARENT 90 53 58 64
REMARK Flexibility Score: inf
ROOT
ATOM      1  O   UNL A   1      42.710  20.166  25.465  1.00  0.00    -0.377 OA
ENDROOT
BRANCH   1   2
ATOM      2  C   UNL A   1      41.873  20.165  26.604  1.00  0.00     0.188 C 
BRANCH   2   3
ATOM      3  C   UNL A   1      41.052  21.419  26.929  1.00  0.00     0.188 C 
BRANCH   3   4
ATOM      4  O   UNL A   1      39.933  21.762  26.136  1.00  0.00    -0.376 OA
BRANCH   4   5
ATOM      5  C   UNL A   1      39.023  20.746  25.736  1.00  0.00     0.202 C 
BRANCH   5   6
ATOM      6  C   UNL A   1      37.736  21.108  24.985  1.00  0.00     0.261 C 
BRANCH   6   7
ATOM      7  O   UNL A   1      36.847  22.007  25.680  1.00  0.00    -0.462 OA
BRANCH   7   8
ATOM      8  C   UNL A   1      36.117  22.826  24.876  1.00  0.00     0.328 C 
ATOM      9  O   UNL A   1      36.568  23.355  23.863  1.00  0.00    -0.250 OA
BRANCH   8  10
ATOM     10  C   UNL A   1      34.637  22.983  25.302  1.00  0.00     0.195 C 
ATOM     11  N   UNL A   1      33.635  23.330  24.271  1.00  0.00    -0.325 N 
ATOM     12  C   UNL A   1      33.414  22.304  23.252  1.00  0.00     0.121 C 
ATOM     13  C   UNL A   1      33.070  20.943  23.847  1.00  0.00     0.022 C 
ATOM     14  C   UNL A   1      34.214  21.653  25.968  1.00  0.00     0.037 C 
ATOM     15  C   UNL A   1      34.076  20.542  24.919  1.00  0.00     0.005 C 
BRANCH  11  16
ATOM     16  C   UNL A   1      32.504  24.070  24.640  1.00  0.00     0.260 C 
ATOM     17  O   UNL A   1      31.369  23.609  24.544  1.00  0.00    -0.269 OA
BRANCH  16  18
ATOM     18  C   UNL A   1      32.716  25.520  24.940  1.00  0.00     0.111 A 
ATOM     19  C   UNL A   1      33.981  28.717  23.450  1.00  0.00     0.069 C 
ATOM     20  C   UNL A   1      33.233  27.780  24.343  1.00  0.00     0.062 A 
ATOM     21  N   UNL A   1      32.738  28.306  25.412  1.00  0.00    -0.175 NA
ATOM     22  C   UNL A   1      33.150  26.349  23.968  1.00  0.00    -0.010 A 
ATOM     23  N   UNL A   1      32.134  27.479  26.303  1.00  0.00    -0.232 N 
ATOM     24  C   UNL A   1      33.454  25.985  22.545  1.00  0.00     0.047 C 
ATOM     25  C   UNL A   1      31.528  28.147  27.442  1.00  0.00     0.178 C 
ATOM     26  C   UNL A   1      32.197  26.089  26.228  1.00  0.00     0.279 A 
ATOM     27  O   UNL A   1      31.848  25.359  27.153  1.00  0.00    -0.267 OA
ENDBRANCH  16  18
ENDBRANCH  11  16
ENDBRANCH   8  10
ENDBRANCH   7   8
ENDBRANCH   6   7
ENDBRANCH   5   6
ENDBRANCH   4   5
ENDBRANCH   3   4
ENDBRANCH   2   3
ENDBRANCH   1   2
BRANCH   1  28
ATOM     28  C   UNL A   1      43.697  19.148  25.325  1.00  0.00     0.188 C 
BRANCH  28  29
ATOM     29  C   UNL A   1      44.849  19.264  24.317  1.00  0.00     0.188 C 
BRANCH  29  30
ATOM     30  O   UNL A   1      45.911  20.175  24.561  1.00  0.00    -0.376 OA
BRANCH  30  31
ATOM     31  C   UNL A   1      45.684  21.573  24.424  1.00  0.00     0.202 C 
BRANCH  31  32
ATOM     32  C   UNL A   1      45.597  22.346  25.741  1.00  0.00     0.261 C 
BRANCH  32  33
ATOM     33  O   UNL A   1      44.444  23.210  25.715  1.00  0.00    -0.460 OA
BRANCH  33  34
ATOM     34  C   UNL A   1      44.648  24.509  25.427  1.00  0.00     0.338 C 
ATOM     35  O   UNL A   1      45.366  24.968  24.554  1.00  0.00    -0.246 OA
BRANCH  34  36
ATOM     36  C   UNL A   1      43.703  25.334  26.211  1.00  0.00     0.060 A 
ATOM     37  C   UNL A   1      44.105  26.636  26.520  1.00  0.00     0.016 A 
ATOM     38  C   UNL A   1      42.471  24.853  26.670  1.00  0.00     0.016 A 
ATOM     39  C   UNL A   1      43.314  27.437  27.341  1.00  0.00     0.010 A 
ATOM     40  C   UNL A   1      41.667  25.665  27.486  1.00  0.00     0.010 A 
ATOM     41  C   UNL A   1      42.118  26.938  27.876  1.00  0.00    -0.014 A 
BRANCH  41  42
ATOM     42  C   UNL A   1      41.545  27.634  29.058  1.00  0.00     0.031 A 
ATOM     43  C   UNL A   1      42.296  27.532  30.362  1.00  0.00     0.074 A 
ATOM     44  C   UNL A   1      40.480  28.453  28.973  1.00  0.00     0.049 A 
ATOM     45  N   UNL A   1      42.087  28.153  31.494  1.00  0.00    -0.248 NA
ATOM     46  C   UNL A   1      43.451  26.618  30.383  1.00  0.00     0.031 C 
ATOM     47  C   UNL A   1      39.690  28.701  27.771  1.00  0.00     0.029 A 
ATOM     48  N   UNL A   1      39.898  29.251  29.930  1.00  0.00    -0.354 N 
ATOM     49  C   UNL A   1      43.095  27.724  32.347  1.00  0.00     0.074 A 
ATOM     50  C   UNL A   1      43.882  26.750  31.626  1.00  0.00     0.031 C 
ATOM     51  C   UNL A   1      38.735  29.604  28.058  1.00  0.00     0.029 A 
ATOM     52  C   UNL A   1      38.835  29.987  29.468  1.00  0.00     0.049 A 
ATOM     53  H   UNL A   1      40.216  29.292  30.862  1.00  0.00     0.167 HD
ATOM     54  C   UNL A   1      43.367  28.123  33.610  1.00  0.00     0.037 A 
ATOM     55  C   UNL A   1      38.038  30.868  30.108  1.00  0.00     0.037 A 
ATOM     56  C   UNL A   1      42.603  29.088  34.346  1.00  0.00     0.049 A 
ATOM     57  C   UNL A   1      38.280  31.194  31.563  1.00  0.00     0.074 A 
ATOM     58  C   UNL A   1      42.827  29.561  35.627  1.00  0.00     0.029 A 
ATOM     59  N   UNL A   1      41.464  29.717  33.876  1.00  0.00    -0.354 N 
ATOM     60  N   UNL A   1      39.258  30.813  32.346  1.00  0.00    -0.248 NA
ATOM     61  C   UNL A   1      37.298  32.071  32.223  1.00  0.00     0.031 C 
ATOM     62  C   UNL A   1      41.789  30.439  35.954  1.00  0.00     0.029 A 
ATOM     63  C   UNL A   1      40.946  30.544  34.859  1.00  0.00     0.049 A 
ATOM     64  H   UNL A   1      41.079  29.596  32.979  1.00  0.00     0.167 HD
ATOM     65  C   UNL A   1      39.022  31.416  33.577  1.00  0.00     0.074 A 
ATOM     66  C   UNL A   1      37.815  32.200  33.438  1.00  0.00     0.031 C 
ATOM     67  C   UNL A   1      39.744  31.323  34.720  1.00  0.00     0.037 A 
BRANCH  54  68
ATOM     68  C   UNL A   1      44.550  27.503  34.284  1.00  0.00     0.064 A 
ATOM     69  C   UNL A   1      45.813  28.109  34.243  1.00  0.00     0.173 A 
ATOM     70  C   UNL A   1      44.408  26.314  35.013  1.00  0.00     0.173 A 
ATOM     71  F   UNL A   1      45.998  29.239  33.541  1.00  0.00    -0.203 F 
ATOM     72  C   UNL A   1      46.900  27.539  34.898  1.00  0.00     0.198 A 
ATOM     73  C   UNL A   1      45.491  25.759  35.687  1.00  0.00     0.198 A 
ATOM     74  F   UNL A   1      43.218  25.699  35.078  1.00  0.00    -0.203 F 
ATOM     75  F   UNL A   1      48.106  28.114  34.818  1.00  0.00    -0.200 F 
ATOM     76  C   UNL A   1      46.736  26.369  35.626  1.00  0.00     0.200 A 
ATOM     77  F   UNL A   1      45.330  24.634  36.396  1.00  0.00    -0.200 F 
ATOM     78  F   UNL A   1      47.780  25.825  36.265  1.00  0.00    -0.200 F 
ENDBRANCH  54  68
BRANCH  55  79
ATOM     79  C   UNL A   1      36.912  31.513  29.384  1.00  0.00     0.064 A 
ATOM     80  C   UNL A   1      36.926  32.885  29.099  1.00  0.00     0.173 A 
ATOM     81  C   UNL A   1      35.780  30.778  29.002  1.00  0.00     0.173 A 
ATOM     82  F   UNL A   1      37.972  33.636  29.473  1.00  0.00    -0.203 F 
ATOM     83  C   UNL A   1      35.845  33.500  28.468  1.00  0.00     0.198 A 
ATOM     84  C   UNL A   1      34.710  31.389  28.352  1.00  0.00     0.198 A 
ATOM     85  F   UNL A   1      35.714  29.464  29.264  1.00  0.00    -0.203 F 
ATOM     86  F   UNL A   1      35.865  34.821  28.244  1.00  0.00    -0.200 F 
ATOM     87  C   UNL A   1      34.740  32.751  28.092  1.00  0.00     0.200 A 
ATOM     88  F   UNL A   1      33.649  30.660  27.985  1.00  0.00    -0.200 F 
ATOM     89  F   UNL A   1      33.702  33.341  27.485  1.00  0.00    -0.200 F 
ENDBRANCH  55  79
BRANCH  67  90
ATOM     90  C   UNL A   1      39.268  32.074  35.930  1.00  0.00     0.064 A 
ATOM     91  C   UNL A   1      39.646  33.404  36.153  1.00  0.00     0.173 A 
ATOM     92  C   UNL A   1      38.334  31.499  36.807  1.00  0.00     0.173 A 
ATOM     93  F   UNL A   1      40.543  33.996  35.350  1.00  0.00    -0.203 F 
ATOM     94  C   UNL A   1      39.106  34.134  37.210  1.00  0.00     0.198 A 
ATOM     95  C   UNL A   1      37.778  32.239  37.847  1.00  0.00     0.198 A 
ATOM     96  F   UNL A   1      37.933  30.231  36.631  1.00  0.00    -0.203 F 
ATOM     97  F   UNL A   1      39.492  35.401  37.414  1.00  0.00    -0.200 F 
ATOM     98  C   UNL A   1      38.164  33.556  38.047  1.00  0.00     0.200 A 
ATOM     99  F   UNL A   1      36.854  31.685  38.644  1.00  0.00    -0.200 F 
ATOM    100  F   UNL A   1      37.624  34.269  39.046  1.00  0.00    -0.200 F 
ENDBRANCH  67  90
ENDBRANCH  41  42
ENDBRANCH  34  36
ENDBRANCH  33  34
ENDBRANCH  32  33
ENDBRANCH  31  32
ENDBRANCH  30  31
ENDBRANCH  29  30
ENDBRANCH  28  29
ENDBRANCH   1  28
TORSDOF 22
ENDMDL
MODEL 2
REMARK VINA RESULT:     -10.7      5.193     10.932
REMARK SMILES Cc1nn(C)c(=O)c(C(=O)N2CCCC[C@H]2C(=O)OCCOCCOCCOCCOC(=O)c2ccc(-c3c4nc(c(-c5c(F)c(F)c(F)c(F)c5F)c5ccc([nH]5)c(-c5c(F)c(F)c(F)c(F)c5F)c5nc(c(-c6c(F)c(F)c(F)c(F)c6F)c6ccc3[nH]6)C=C5)C=C4)cc2)c1C
REMARK SMILES IDX 25 1 24 2 23 3 22 4 21 5 20 6 19 7 17 8 18 9 16 10 11 11
REMARK SMILES IDX 12 12 13 13 15 14 14 15 9 16 10 17 8 18 1 19 2 20 3 21 97 22
REMARK SMILES IDX 4 23 98 24 5 25 6 26 7 27 26 28 27 29 28 30 29 31 30 32
REMARK SMILES IDX 31 33 32 34 33 35 34 36 35 37 96 38 36 39 95 40 37 41 38 42
REMARK SMILES IDX 39 43 89 44 40 45 94 46 88 47 90 48 41 49 93 50 87 51 86 52
REMARK SMILES IDX 42 54 74 55 54 56 73 57 55 58 58 59 72 60 91 61 56 62 57 63
REMARK SMILES IDX 71 65 92 66 59 67 43 68 44 69 52 70 45 71 46 72 50 73 53 74
REMARK SMILES IDX 47 75 48 76 51 77 49 78 75 79 76 80 84 81 77 82 78 83 82 84
REMARK SMILES IDX 85 85 79 86 80 87 83 88 81 89 60 90 61 91 69 92 62 93 63 94
REMARK SMILES IDX 67 95 70 96 64 97 65 98 68 99 66 100
REMARK H PARENT 90 53 58 64
REMARK Flexibility Score: inf
ROOT
ATOM      1  O   UNL A   1      33.572  33.973  28.974  1.00  0.00    -0.377 OA
ENDROOT
BRANCH   1   2
ATOM      2  C   UNL A   1      34.417  33.386  28.004  1.00  0.00     0.188 C 
BRANCH   2   3
ATOM      3  C   UNL A   1      34.741  31.890  28.103  1.00  0.00     0.188 C 
BRANCH   3   4
ATOM      4  O   UNL A   1      34.069  30.960  27.278  1.00  0.00    -0.376 OA
BRANCH   4   5
ATOM      5  C   UNL A   1      34.430  29.587  27.334  1.00  0.00     0.202 C 
BRANCH   5   6
ATOM      6  C   UNL A   1      33.453  28.507  26.855  1.00  0.00     0.261 C 
BRANCH   6   7
ATOM      7  O   UNL A   1      34.061  27.350  26.242  1.00  0.00    -0.462 OA
BRANCH   7   8
ATOM      8  C   UNL A   1      33.632  27.078  24.980  1.00  0.00     0.328 C 
ATOM      9  O   UNL A   1      33.922  27.768  24.005  1.00  0.00    -0.250 OA
BRANCH   8  10
ATOM     10  C   UNL A   1      32.802  25.777  24.857  1.00  0.00     0.195 C 
ATOM     11  N   UNL A   1      31.893  25.408  25.964  1.00  0.00    -0.325 N 
ATOM     12  C   UNL A   1      30.764  26.314  26.166  1.00  0.00     0.121 C 
ATOM     13  C   UNL A   1      29.947  26.534  24.898  1.00  0.00     0.022 C 
ATOM     14  C   UNL A   1      31.971  25.892  23.558  1.00  0.00     0.037 C 
ATOM     15  C   UNL A   1      30.842  26.916  23.726  1.00  0.00     0.005 C 
BRANCH  11  16
ATOM     16  C   UNL A   1      31.634  24.054  26.211  1.00  0.00     0.260 C 
ATOM     17  O   UNL A   1      30.888  23.692  27.117  1.00  0.00    -0.269 OA
BRANCH  16  18
ATOM     18  C   UNL A   1      32.479  23.061  25.475  1.00  0.00     0.111 A 
ATOM     19  C   UNL A   1      35.717  21.186  25.662  1.00  0.00     0.069 C 
ATOM     20  C   UNL A   1      34.318  21.543  25.273  1.00  0.00     0.062 A 
ATOM     21  N   UNL A   1      33.846  20.912  24.252  1.00  0.00    -0.175 NA
ATOM     22  C   UNL A   1      33.609  22.593  26.043  1.00  0.00    -0.010 A 
ATOM     23  N   UNL A   1      32.617  21.270  23.800  1.00  0.00    -0.232 N 
ATOM     24  C   UNL A   1      34.152  22.950  27.394  1.00  0.00     0.047 C 
ATOM     25  C   UNL A   1      32.113  20.465  22.700  1.00  0.00     0.178 C 
ATOM     26  C   UNL A   1      31.933  22.400  24.244  1.00  0.00     0.279 A 
ATOM     27  O   UNL A   1      30.937  22.839  23.672  1.00  0.00    -0.267 OA
ENDBRANCH  16  18
ENDBRANCH  11  16
ENDBRANCH   8  10
ENDBRANCH   7   8
ENDBRANCH   6   7
ENDBRANCH   5   6
ENDBRANCH   4   5
ENDBRANCH   3   4
ENDBRANCH   2   3
ENDBRANCH   1   2
BRANCH   1  28
ATOM     28  C   UNL A   1      33.860  35.288  29.443  1.00  0.00     0.188 C 
BRANCH  28  29
ATOM     29  C   UNL A   1      33.047  35.946  30.567  1.00  0.00     0.188 C 
BRANCH  29  30
ATOM     30  O   UNL A   1      33.542  35.931  31.898  1.00  0.00    -0.376 OA
BRANCH  30  31
ATOM     31  C   UNL A   1      34.159  34.755  32.406  1.00  0.00     0.202 C 
BRANCH  31  32
ATOM     32  C   UNL A   1      35.485  34.983  33.134  1.00  0.00     0.261 C 
BRANCH  32  33
ATOM     33  O   UNL A   1      36.486  34.097  32.596  1.00  0.00    -0.460 OA
BRANCH  33  34
ATOM     34  C   UNL A   1      36.673  32.920  33.222  1.00  0.00     0.338 C 
ATOM     35  O   UNL A   1      36.182  32.558  34.278  1.00  0.00    -0.246 OA
BRANCH  34  36
ATOM     36  C   UNL A   1      37.428  32.012  32.330  1.00  0.00     0.060 A 
ATOM     37  C   UNL A   1      38.478  31.290  32.904  1.00  0.00     0.016 A 
ATOM     38  C   UNL A   1      37.154  31.884  30.963  1.00  0.00     0.016 A 
ATOM     39  C   UNL A   1      39.299  30.495  32.108  1.00  0.00     0.010 A 
ATOM     40  C   UNL A   1      37.973  31.072  30.162  1.00  0.00     0.010 A 
ATOM     41  C   UNL A   1      39.087  30.424  30.724  1.00  0.00    -0.014 A 
BRANCH  41  42
ATOM     42  C   UNL A   1      40.208  29.938  29.876  1.00  0.00     0.031 A 
ATOM     43  C   UNL A   1      41.385  30.859  29.677  1.00  0.00     0.074 A 
ATOM     44  C   UNL A   1      40.271  28.677  29.408  1.00  0.00     0.049 A 
ATOM     45  N   UNL A   1      42.538  30.625  29.105  1.00  0.00    -0.248 NA
ATOM     46  C   UNL A   1      41.248  32.223  30.215  1.00  0.00     0.031 C 
ATOM     47  C   UNL A   1      39.242  27.656  29.571  1.00  0.00     0.029 A 
ATOM     48  N   UNL A   1      41.273  28.039  28.716  1.00  0.00    -0.354 N 
ATOM     49  C   UNL A   1      43.266  31.801  29.239  1.00  0.00     0.074 A 
ATOM     50  C   UNL A   1      42.411  32.764  29.893  1.00  0.00     0.031 C 
ATOM     51  C   UNL A   1      39.672  26.512  29.008  1.00  0.00     0.029 A 
ATOM     52  C   UNL A   1      41.001  26.723  28.431  1.00  0.00     0.049 A 
ATOM     53  H   UNL A   1      42.111  28.484  28.449  1.00  0.00     0.167 HD
ATOM     54  C   UNL A   1      44.545  32.054  28.877  1.00  0.00     0.037 A 
ATOM     55  C   UNL A   1      41.740  25.799  27.782  1.00  0.00     0.037 A 
ATOM     56  C   UNL A   1      45.414  31.116  28.230  1.00  0.00     0.049 A 
ATOM     57  C   UNL A   1      43.115  26.150  27.267  1.00  0.00     0.074 A 
ATOM     58  C   UNL A   1      46.733  31.291  27.849  1.00  0.00     0.029 A 
ATOM     59  N   UNL A   1      45.052  29.833  27.855  1.00  0.00    -0.354 N 
ATOM     60  N   UNL A   1      43.807  27.249  27.433  1.00  0.00    -0.248 NA
ATOM     61  C   UNL A   1      43.809  25.126  26.466  1.00  0.00     0.031 C 
ATOM     62  C   UNL A   1      47.154  30.131  27.192  1.00  0.00     0.029 A 
ATOM     63  C   UNL A   1      46.110  29.220  27.206  1.00  0.00     0.049 A 
ATOM     64  H   UNL A   1      44.175  29.420  28.023  1.00  0.00     0.167 HD
ATOM     65  C   UNL A   1      45.017  27.045  26.779  1.00  0.00     0.074 A 
ATOM     66  C   UNL A   1      44.975  25.711  26.222  1.00  0.00     0.031 C 
ATOM     67  C   UNL A   1      46.067  27.892  26.652  1.00  0.00     0.037 A 
BRANCH  54  68
ATOM     68  C   UNL A   1      45.081  33.418  29.175  1.00  0.00     0.064 A 
ATOM     69  C   UNL A   1      45.717  33.702  30.392  1.00  0.00     0.173 A 
ATOM     70  C   UNL A   1      44.997  34.438  28.217  1.00  0.00     0.173 A 
ATOM     71  F   UNL A   1      45.804  32.761  31.345  1.00  0.00    -0.203 F 
ATOM     72  C   UNL A   1      46.240  34.967  30.645  1.00  0.00     0.198 A 
ATOM     73  C   UNL A   1      45.542  35.693  28.464  1.00  0.00     0.198 A 
ATOM     74  F   UNL A   1      44.396  34.210  27.039  1.00  0.00    -0.203 F 
ATOM     75  F   UNL A   1      46.812  35.229  31.827  1.00  0.00    -0.200 F 
ATOM     76  C   UNL A   1      46.158  35.958  29.678  1.00  0.00     0.200 A 
ATOM     77  F   UNL A   1      45.469  36.648  27.527  1.00  0.00    -0.200 F 
ATOM     78  F   UNL A   1      46.670  37.173  29.919  1.00  0.00    -0.200 F 
ENDBRANCH  54  68
BRANCH  55  79
ATOM     79  C   UNL A   1      41.195  24.433  27.564  1.00  0.00     0.064 A 
ATOM     80  C   UNL A   1      41.750  23.321  28.213  1.00  0.00     0.173 A 
ATOM     81  C   UNL A   1      40.139  24.208  26.670  1.00  0.00     0.173 A 
ATOM     82  F   UNL A   1      42.782  23.482  29.052  1.00  0.00    -0.203 F 
ATOM     83  C   UNL A   1      41.274  22.034  27.966  1.00  0.00     0.198 A 
ATOM     84  C   UNL A   1      39.650  22.924  26.441  1.00  0.00     0.198 A 
ATOM     85  F   UNL A   1      39.583  25.239  26.015  1.00  0.00    -0.203 F 
ATOM     86  F   UNL A   1      41.849  20.983  28.568  1.00  0.00    -0.200 F 
ATOM     87  C   UNL A   1      40.222  21.837  27.084  1.00  0.00     0.200 A 
ATOM     88  F   UNL A   1      38.629  22.740  25.593  1.00  0.00    -0.200 F 
ATOM     89  F   UNL A   1      39.765  20.600  26.848  1.00  0.00    -0.200 F 
ENDBRANCH  55  79
BRANCH  67  90
ATOM     90  C   UNL A   1      47.270  27.430  25.881  1.00  0.00     0.064 A 
ATOM     91  C   UNL A   1      47.355  27.606  24.494  1.00  0.00     0.173 A 
ATOM     92  C   UNL A   1      48.393  26.916  26.549  1.00  0.00     0.173 A 
ATOM     93  F   UNL A   1      46.305  28.084  23.808  1.00  0.00    -0.203 F 
ATOM     94  C   UNL A   1      48.521  27.288  23.801  1.00  0.00     0.198 A 
ATOM     95  C   UNL A   1      49.566  26.622  25.857  1.00  0.00     0.198 A 
ATOM     96  F   UNL A   1      48.366  26.737  27.878  1.00  0.00    -0.203 F 
ATOM     97  F   UNL A   1      48.576  27.452  22.472  1.00  0.00    -0.200 F 
ATOM     98  C   UNL A   1      49.628  26.809  24.485  1.00  0.00     0.200 A 
ATOM     99  F   UNL A   1      50.641  26.176  26.522  1.00  0.00    -0.200 F 
ATOM    100  F   UNL A   1      50.759  26.530  23.820  1.00  0.00    -0.200 F 
ENDBRANCH  67  90
ENDBRANCH  41  42
ENDBRANCH  34  36
ENDBRANCH  33  34
ENDBRANCH  32  33
ENDBRANCH  31  32
ENDBRANCH  30  31
ENDBRANCH  29  30
ENDBRANCH  28  29
ENDBRANCH   1  28
TORSDOF 22
ENDMDL
MODEL 3
REMARK VINA RESULT:     -10.7      1.105      7.153
REMARK SMILES Cc1nn(C)c(=O)c(C(=O)N2CCCC[C@H]2C(=O)OCCOCCOCCOCCOC(=O)c2ccc(-c3c4nc(c(-c5c(F)c(F)c(F)c(F)c5F)c5ccc([nH]5)c(-c5c(F)c(F)c(F)c(F)c5F)c5nc(c(-c6c(F)c(F)c(F)c(F)c6F)c6ccc3[nH]6)C=C5)C=C4)cc2)c1C
REMARK SMILES IDX 25 1 24 2 23 3 22 4 21 5 20 6 19 7 17 8 18 9 16 10 11 11
REMARK SMILES IDX 12 12 13 13 15 14 14 15 9 16 10 17 8 18 1 19 2 20 3 21 97 22
REMARK SMILES IDX 4 23 98 24 5 25 6 26 7 27 26 28 27 29 28 30 29 31 30 32
REMARK SMILES IDX 31 33 32 34 33 35 34 36 35 37 96 38 36 39 95 40 37 41 38 42
REMARK SMILES IDX 39 43 89 44 40 45 94 46 88 47 90 48 41 49 93 50 87 51 86 52
REMARK SMILES IDX 42 54 74 55 54 56 73 57 55 58 58 59 72 60 91 61 56 62 57 63
REMARK SMILES IDX 71 65 92 66 59 67 43 68 44 69 52 70 45 71 46 72 50 73 53 74
REMARK SMILES IDX 47 75 48 76 51 77 49 78 75 79 76 80 84 81 77 82 78 83 82 84
REMARK SMILES IDX 85 85 79 86 80 87 83 88 81 89 60 90 61 91 69 92 62 93 63 94
REMARK SMILES IDX 67 95 70 96 64 97 65 98 68 99 66 100
REMARK H PARENT 90 53 58 64
REMARK Flexibility Score: inf
ROOT
ATOM      1  O   UNL A   1      41.985  20.141  25.340  1.00  0.00    -0.377 OA
ENDROOT
BRANCH   1   2
ATOM      2  C   UNL A   1      40.847  19.882  26.138  1.00  0.00     0.188 C 
BRANCH   2   3
ATOM      3  C   UNL A   1      40.188  21.040  26.898  1.00  0.00     0.188 C 
BRANCH   3   4
ATOM      4  O   UNL A   1      39.392  21.983  26.208  1.00  0.00    -0.376 OA
BRANCH   4   5
ATOM      5  C   UNL A   1      38.327  21.528  25.385  1.00  0.00     0.202 C 
BRANCH   5   6
ATOM      6  C   UNL A   1      37.231  22.497  24.927  1.00  0.00     0.261 C 
BRANCH   6   7
ATOM      7  O   UNL A   1      36.205  21.921  24.092  1.00  0.00    -0.462 OA
BRANCH   7   8
ATOM      8  C   UNL A   1      35.235  21.240  24.762  1.00  0.00     0.328 C 
ATOM      9  O   UNL A   1      35.294  20.034  24.992  1.00  0.00    -0.250 OA
BRANCH   8  10
ATOM     10  C   UNL A   1      34.077  22.126  25.281  1.00  0.00     0.195 C 
ATOM     11  N   UNL A   1      33.778  23.389  24.570  1.00  0.00    -0.325 N 
ATOM     12  C   UNL A   1      33.274  23.226  23.206  1.00  0.00     0.121 C 
ATOM     13  C   UNL A   1      32.061  22.307  23.128  1.00  0.00     0.022 C 
ATOM     14  C   UNL A   1      32.803  21.250  25.283  1.00  0.00     0.037 C 
ATOM     15  C   UNL A   1      32.322  20.990  23.849  1.00  0.00     0.005 C 
BRANCH  11  16
ATOM     16  C   UNL A   1      33.243  24.465  25.288  1.00  0.00     0.260 C 
ATOM     17  O   UNL A   1      33.323  24.530  26.513  1.00  0.00    -0.269 OA
BRANCH  16  18
ATOM     18  C   UNL A   1      32.374  25.418  24.529  1.00  0.00     0.111 A 
ATOM     19  C   UNL A   1      28.796  26.331  23.898  1.00  0.00     0.069 C 
ATOM     20  C   UNL A   1      30.283  26.452  23.993  1.00  0.00     0.062 A 
ATOM     21  N   UNL A   1      30.799  27.468  23.390  1.00  0.00    -0.175 NA
ATOM     22  C   UNL A   1      31.039  25.405  24.720  1.00  0.00    -0.010 A 
ATOM     23  N   UNL A   1      32.153  27.569  23.364  1.00  0.00    -0.232 N 
ATOM     24  C   UNL A   1      30.273  24.517  25.655  1.00  0.00     0.047 C 
ATOM     25  C   UNL A   1      32.663  28.777  22.739  1.00  0.00     0.178 C 
ATOM     26  C   UNL A   1      33.008  26.547  23.770  1.00  0.00     0.279 A 
ATOM     27  O   UNL A   1      34.214  26.558  23.531  1.00  0.00    -0.267 OA
ENDBRANCH  16  18
ENDBRANCH  11  16
ENDBRANCH   8  10
ENDBRANCH   7   8
ENDBRANCH   6   7
ENDBRANCH   5   6
ENDBRANCH   4   5
ENDBRANCH   3   4
ENDBRANCH   2   3
ENDBRANCH   1   2
BRANCH   1  28
ATOM     28  C   UNL A   1      43.267  19.721  25.799  1.00  0.00     0.188 C 
BRANCH  28  29
ATOM     29  C   UNL A   1      44.520  19.823  24.917  1.00  0.00     0.188 C 
BRANCH  29  30
ATOM     30  O   UNL A   1      45.619  20.615  25.340  1.00  0.00    -0.376 OA
BRANCH  30  31
ATOM     31  C   UNL A   1      46.032  21.725  24.552  1.00  0.00     0.202 C 
BRANCH  31  32
ATOM     32  C   UNL A   1      45.875  23.090  25.225  1.00  0.00     0.261 C 
BRANCH  32  33
ATOM     33  O   UNL A   1      44.650  23.113  25.984  1.00  0.00    -0.460 OA
BRANCH  33  34
ATOM     34  C   UNL A   1      43.543  23.555  25.361  1.00  0.00     0.338 C 
ATOM     35  O   UNL A   1      43.043  23.113  24.340  1.00  0.00    -0.246 OA
BRANCH  34  36
ATOM     36  C   UNL A   1      42.876  24.564  26.214  1.00  0.00     0.060 A 
ATOM     37  C   UNL A   1      43.436  25.844  26.236  1.00  0.00     0.016 A 
ATOM     38  C   UNL A   1      41.757  24.274  27.005  1.00  0.00     0.016 A 
ATOM     39  C   UNL A   1      42.927  26.817  27.094  1.00  0.00     0.010 A 
ATOM     40  C   UNL A   1      41.235  25.258  27.859  1.00  0.00     0.010 A 
ATOM     41  C   UNL A   1      41.860  26.514  27.951  1.00  0.00    -0.014 A 
BRANCH  41  42
ATOM     42  C   UNL A   1      41.639  27.404  29.122  1.00  0.00     0.031 A 
ATOM     43  C   UNL A   1      40.456  28.338  29.078  1.00  0.00     0.074 A 
ATOM     44  C   UNL A   1      42.359  27.306  30.255  1.00  0.00     0.049 A 
ATOM     45  N   UNL A   1      39.967  29.108  30.016  1.00  0.00    -0.248 NA
ATOM     46  C   UNL A   1      39.714  28.395  27.807  1.00  0.00     0.031 C 
ATOM     47  C   UNL A   1      43.491  26.409  30.470  1.00  0.00     0.029 A 
ATOM     48  N   UNL A   1      42.216  27.962  31.455  1.00  0.00    -0.354 N 
ATOM     49  C   UNL A   1      38.851  29.716  29.456  1.00  0.00     0.074 A 
ATOM     50  C   UNL A   1      38.765  29.273  28.083  1.00  0.00     0.031 C 
ATOM     51  C   UNL A   1      43.931  26.560  31.733  1.00  0.00     0.029 A 
ATOM     52  C   UNL A   1      43.122  27.575  32.412  1.00  0.00     0.049 A 
ATOM     53  H   UNL A   1      41.526  28.647  31.615  1.00  0.00     0.167 HD
ATOM     54  C   UNL A   1      37.956  30.547  30.035  1.00  0.00     0.037 A 
ATOM     55  C   UNL A   1      43.278  27.990  33.686  1.00  0.00     0.037 A 
ATOM     56  C   UNL A   1      38.018  30.999  31.395  1.00  0.00     0.049 A 
ATOM     57  C   UNL A   1      42.344  29.025  34.268  1.00  0.00     0.074 A 
ATOM     58  C   UNL A   1      37.135  31.828  32.063  1.00  0.00     0.029 A 
ATOM     59  N   UNL A   1      39.023  30.673  32.289  1.00  0.00    -0.354 N 
ATOM     60  N   UNL A   1      41.272  29.562  33.743  1.00  0.00    -0.248 NA
ATOM     61  C   UNL A   1      42.652  29.514  35.623  1.00  0.00     0.031 C 
ATOM     62  C   UNL A   1      37.635  32.049  33.350  1.00  0.00     0.029 A 
ATOM     63  C   UNL A   1      38.805  31.320  33.494  1.00  0.00     0.049 A 
ATOM     64  H   UNL A   1      39.778  30.072  32.098  1.00  0.00     0.167 HD
ATOM     65  C   UNL A   1      40.768  30.432  34.704  1.00  0.00     0.074 A 
ATOM     66  C   UNL A   1      41.643  30.344  35.852  1.00  0.00     0.031 C 
ATOM     67  C   UNL A   1      39.677  31.233  34.635  1.00  0.00     0.037 A 
BRANCH  54  68
ATOM     68  C   UNL A   1      36.823  31.030  29.187  1.00  0.00     0.064 A 
ATOM     69  C   UNL A   1      35.772  30.178  28.818  1.00  0.00     0.173 A 
ATOM     70  C   UNL A   1      36.765  32.369  28.775  1.00  0.00     0.173 A 
ATOM     71  F   UNL A   1      35.795  28.883  29.175  1.00  0.00    -0.203 F 
ATOM     72  C   UNL A   1      34.708  30.646  28.053  1.00  0.00     0.198 A 
ATOM     73  C   UNL A   1      35.688  32.840  28.032  1.00  0.00     0.198 A 
ATOM     74  F   UNL A   1      37.749  33.219  29.104  1.00  0.00    -0.203 F 
ATOM     75  F   UNL A   1      33.732  29.808  27.681  1.00  0.00    -0.200 F 
ATOM     76  C   UNL A   1      34.663  31.978  27.668  1.00  0.00     0.200 A 
ATOM     77  F   UNL A   1      35.642  34.128  27.666  1.00  0.00    -0.200 F 
ATOM     78  F   UNL A   1      33.634  32.431  26.940  1.00  0.00    -0.200 F 
ENDBRANCH  54  68
BRANCH  55  79
ATOM     79  C   UNL A   1      44.378  27.436  34.518  1.00  0.00     0.064 A 
ATOM     80  C   UNL A   1      44.126  26.465  35.497  1.00  0.00     0.173 A 
ATOM     81  C   UNL A   1      45.694  27.900  34.381  1.00  0.00     0.173 A 
ATOM     82  F   UNL A   1      42.878  26.014  35.687  1.00  0.00    -0.203 F 
ATOM     83  C   UNL A   1      45.150  25.986  36.314  1.00  0.00     0.198 A 
ATOM     84  C   UNL A   1      46.719  27.404  35.183  1.00  0.00     0.198 A 
ATOM     85  F   UNL A   1      45.983  28.838  33.467  1.00  0.00    -0.203 F 
ATOM     86  F   UNL A   1      44.875  25.086  37.269  1.00  0.00    -0.200 F 
ATOM     87  C   UNL A   1      46.445  26.452  36.153  1.00  0.00     0.200 A 
ATOM     88  F   UNL A   1      47.971  27.853  35.020  1.00  0.00    -0.200 F 
ATOM     89  F   UNL A   1      47.428  25.991  36.938  1.00  0.00    -0.200 F 
ENDBRANCH  55  79
BRANCH  67  90
ATOM     90  C   UNL A   1      39.346  32.094  35.820  1.00  0.00     0.064 A 
ATOM     91  C   UNL A   1      39.830  33.405  35.922  1.00  0.00     0.173 A 
ATOM     92  C   UNL A   1      38.443  31.648  36.799  1.00  0.00     0.173 A 
ATOM     93  F   UNL A   1      40.702  33.875  35.018  1.00  0.00    -0.203 F 
ATOM     94  C   UNL A   1      39.422  34.240  36.960  1.00  0.00     0.198 A 
ATOM     95  C   UNL A   1      38.018  32.493  37.820  1.00  0.00     0.198 A 
ATOM     96  F   UNL A   1      37.943  30.404  36.741  1.00  0.00    -0.203 F 
ATOM     97  F   UNL A   1      39.909  35.486  37.047  1.00  0.00    -0.200 F 
ATOM     98  C   UNL A   1      38.508  33.788  37.900  1.00  0.00     0.200 A 
ATOM     99  F   UNL A   1      37.122  32.061  38.718  1.00  0.00    -0.200 F 
ATOM    100  F   UNL A   1      38.095  34.603  38.881  1.00  0.00    -0.200 F 
ENDBRANCH  67  90
ENDBRANCH  41  42
ENDBRANCH  34  36
ENDBRANCH  33  34
ENDBRANCH  32  33
ENDBRANCH  31  32
ENDBRANCH  30  31
ENDBRANCH  29  30
ENDBRANCH  28  29
ENDBRANCH   1  28
TORSDOF 22
ENDMDL
