MODEL 1
REMARK VINA RESULT:     -10.2      0.000      0.000
REMARK SMILES Cc1cc(N2N=C(C(=O)OCCOCCOCCOCCOC(=O)c3ccc(-c4c5nc(c(-c6c(F)c(F)c(F)c(F)c6F)c6ccc([nH]6)c(-c6c(F)c(F)c(F)c(F)c6F)c6nc(c(-c7c(F)c(F)c(F)c(F)c7F)c7ccc4[nH]7)C=C6)C=C5)cc3)C[C@H]2c2ccccc2)c([N+](=O)[O-])cc1C
REMARK SMILES IDX 16 1 15 2 14 3 13 4 12 5 11 6 10 7 8 8 9 9 7 10 5 11 6 12
REMARK SMILES IDX 89 13 88 14 4 15 1 16 2 17 3 18 101 19 100 20 102 21 96 22
REMARK SMILES IDX 97 23 98 24 99 25 90 26 91 27 95 28 92 29 94 30 93 31 17 32
REMARK SMILES IDX 18 33 19 34 20 35 21 36 22 37 23 38 24 39 25 40 26 41 87 42
REMARK SMILES IDX 27 43 86 44 28 45 29 46 30 47 80 48 31 49 85 50 79 51 81 52
REMARK SMILES IDX 32 53 84 54 78 55 77 56 33 58 65 59 45 60 64 61 46 62 49 63
REMARK SMILES IDX 63 64 82 65 47 66 48 67 62 69 83 70 50 71 34 72 35 73 43 74
REMARK SMILES IDX 36 75 37 76 41 77 44 78 38 79 39 80 42 81 40 82 66 83 67 84
REMARK SMILES IDX 75 85 68 86 69 87 73 88 76 89 70 90 71 91 74 92 72 93 51 94
REMARK SMILES IDX 52 95 60 96 53 97 54 98 58 99 61 100 55 101 56 102 59 103
REMARK SMILES IDX 57 104
REMARK H PARENT 81 57 49 68
REMARK Flexibility Score: inf
ROOT
ATOM      1  O   UNL A   1      42.309  21.597  27.498  1.00  0.00    -0.377 OA
ENDROOT
BRANCH   1   2
ATOM      2  C   UNL A   1      41.074  22.205  27.851  1.00  0.00     0.188 C 
BRANCH   2   3
ATOM      3  C   UNL A   1      41.160  23.725  28.070  1.00  0.00     0.188 C 
BRANCH   3   4
ATOM      4  O   UNL A   1      39.956  24.396  27.742  1.00  0.00    -0.376 OA
BRANCH   4   5
ATOM      5  C   UNL A   1      38.842  23.689  27.227  1.00  0.00     0.202 C 
BRANCH   5   6
ATOM      6  C   UNL A   1      38.230  23.949  25.837  1.00  0.00     0.261 C 
BRANCH   6   7
ATOM      7  O   UNL A   1      36.894  23.493  25.636  1.00  0.00    -0.459 OA
BRANCH   7   8
ATOM      8  C   UNL A   1      36.496  23.262  24.380  1.00  0.00     0.354 C 
ATOM      9  O   UNL A   1      37.028  22.560  23.544  1.00  0.00    -0.245 OA
BRANCH   8  10
ATOM     10  C   UNL A   1      35.158  23.934  24.189  1.00  0.00     0.148 C 
ATOM     11  N   UNL A   1      33.624  25.378  24.260  1.00  0.00    -0.250 N 
ATOM     12  N   UNL A   1      34.937  25.163  24.549  1.00  0.00    -0.169 NA
ATOM     13  C   UNL A   1      32.885  24.132  23.971  1.00  0.00     0.144 C 
ATOM     14  C   UNL A   1      34.033  23.244  23.469  1.00  0.00     0.098 C 
BRANCH  11  15
ATOM     15  C   UNL A   1      33.072  26.628  24.486  1.00  0.00     0.138 A 
ATOM     16  C   UNL A   1      31.404  28.301  27.481  1.00  0.00     0.045 C 
ATOM     17  C   UNL A   1      31.965  28.143  26.095  1.00  0.00    -0.046 A 
ATOM     18  C   UNL A   1      32.621  26.940  25.777  1.00  0.00     0.039 A 
ATOM     19  C   UNL A   1      31.843  29.137  25.113  1.00  0.00    -0.041 A 
ATOM     20  C   UNL A   1      32.357  28.882  23.831  1.00  0.00     0.091 A 
ATOM     21  C   UNL A   1      31.214  30.478  25.376  1.00  0.00     0.045 C 
ATOM     22  C   UNL A   1      32.948  27.638  23.521  1.00  0.00     0.294 A 
BRANCH  22  23
ATOM     23  N   UNL A   1      33.425  27.448  22.151  1.00  0.00     0.065 N 
ATOM     24  O   UNL A   1      32.864  26.573  21.470  1.00  0.00    -0.258 OA
ATOM     25  O   UNL A   1      34.403  28.106  21.763  1.00  0.00    -0.258 OA
ENDBRANCH  22  23
ENDBRANCH  11  15
BRANCH  13  26
ATOM     26  C   UNL A   1      32.162  23.564  25.196  1.00  0.00    -0.023 A 
ATOM     27  C   UNL A   1      32.755  23.458  26.467  1.00  0.00     0.006 A 
ATOM     28  C   UNL A   1      30.832  23.128  25.064  1.00  0.00     0.006 A 
ATOM     29  C   UNL A   1      32.048  22.953  27.560  1.00  0.00     0.000 A 
ATOM     30  C   UNL A   1      30.108  22.669  26.169  1.00  0.00     0.000 A 
ATOM     31  C   UNL A   1      30.719  22.578  27.415  1.00  0.00     0.000 A 
ENDBRANCH  13  26
ENDBRANCH   8  10
ENDBRANCH   7   8
ENDBRANCH   6   7
ENDBRANCH   5   6
ENDBRANCH   4   5
ENDBRANCH   3   4
ENDBRANCH   2   3
ENDBRANCH   1   2
BRANCH   1  32
ATOM     32  C   UNL A   1      42.608  21.422  26.111  1.00  0.00     0.188 C 
BRANCH  32  33
ATOM     33  C   UNL A   1      43.025  22.598  25.193  1.00  0.00     0.188 C 
BRANCH  33  34
ATOM     34  O   UNL A   1      43.794  22.229  24.063  1.00  0.00    -0.376 OA
BRANCH  34  35
ATOM     35  C   UNL A   1      45.069  22.819  23.881  1.00  0.00     0.202 C 
BRANCH  35  36
ATOM     36  C   UNL A   1      45.474  23.935  24.856  1.00  0.00     0.261 C 
BRANCH  36  37
ATOM     37  O   UNL A   1      44.813  25.199  24.677  1.00  0.00    -0.460 OA
BRANCH  37  38
ATOM     38  C   UNL A   1      45.457  26.310  25.087  1.00  0.00     0.338 C 
ATOM     39  O   UNL A   1      46.422  26.844  24.566  1.00  0.00    -0.246 OA
BRANCH  38  40
ATOM     40  C   UNL A   1      44.672  26.893  26.196  1.00  0.00     0.060 A 
ATOM     41  C   UNL A   1      44.809  28.257  26.487  1.00  0.00     0.016 A 
ATOM     42  C   UNL A   1      43.790  26.098  26.931  1.00  0.00     0.016 A 
ATOM     43  C   UNL A   1      44.075  28.825  27.531  1.00  0.00     0.010 A 
ATOM     44  C   UNL A   1      43.073  26.664  27.989  1.00  0.00     0.010 A 
ATOM     45  C   UNL A   1      43.229  28.026  28.310  1.00  0.00    -0.014 A 
BRANCH  45  46
ATOM     46  C   UNL A   1      42.618  28.568  29.548  1.00  0.00     0.031 A 
ATOM     47  C   UNL A   1      41.238  29.161  29.474  1.00  0.00     0.074 A 
ATOM     48  C   UNL A   1      43.277  28.539  30.721  1.00  0.00     0.049 A 
ATOM     49  N   UNL A   1      40.538  29.762  30.401  1.00  0.00    -0.248 NA
ATOM     50  C   UNL A   1      40.557  29.065  28.172  1.00  0.00     0.031 C 
ATOM     51  C   UNL A   1      44.601  27.961  30.932  1.00  0.00     0.029 A 
ATOM     52  N   UNL A   1      42.922  29.028  31.956  1.00  0.00    -0.354 N 
ATOM     53  C   UNL A   1      39.343  30.126  29.794  1.00  0.00     0.074 A 
ATOM     54  C   UNL A   1      39.421  29.701  28.414  1.00  0.00     0.031 C 
ATOM     55  C   UNL A   1      44.958  28.146  32.214  1.00  0.00     0.029 A 
ATOM     56  C   UNL A   1      43.905  28.891  32.904  1.00  0.00     0.049 A 
ATOM     57  H   UNL A   1      42.045  29.437  32.142  1.00  0.00     0.167 HD
ATOM     58  C   UNL A   1      38.277  30.755  30.342  1.00  0.00     0.037 A 
ATOM     59  C   UNL A   1      43.962  29.345  34.172  1.00  0.00     0.037 A 
ATOM     60  C   UNL A   1      38.202  31.175  31.718  1.00  0.00     0.049 A 
ATOM     61  C   UNL A   1      42.789  30.111  34.737  1.00  0.00     0.074 A 
ATOM     62  C   UNL A   1      37.148  31.784  32.376  1.00  0.00     0.029 A 
ATOM     63  N   UNL A   1      39.229  31.045  32.641  1.00  0.00    -0.354 N 
ATOM     64  N   UNL A   1      41.646  30.415  34.171  1.00  0.00    -0.248 NA
ATOM     65  C   UNL A   1      42.918  30.601  36.117  1.00  0.00     0.031 C 
ATOM     66  C   UNL A   1      37.562  32.085  33.678  1.00  0.00     0.029 A 
ATOM     67  C   UNL A   1      38.849  31.601  33.852  1.00  0.00     0.049 A 
ATOM     68  H   UNL A   1      40.099  30.620  32.462  1.00  0.00     0.167 HD
ATOM     69  C   UNL A   1      40.914  31.104  35.129  1.00  0.00     0.074 A 
ATOM     70  C   UNL A   1      41.733  31.157  36.321  1.00  0.00     0.031 C 
ATOM     71  C   UNL A   1      39.675  31.648  35.032  1.00  0.00     0.037 A 
BRANCH  58  72
ATOM     72  C   UNL A   1      37.112  31.063  29.446  1.00  0.00     0.064 A 
ATOM     73  C   UNL A   1      36.899  32.346  28.920  1.00  0.00     0.173 A 
ATOM     74  C   UNL A   1      36.221  30.045  29.071  1.00  0.00     0.173 A 
ATOM     75  F   UNL A   1      37.713  33.358  29.256  1.00  0.00    -0.203 F 
ATOM     76  C   UNL A   1      35.824  32.602  28.071  1.00  0.00     0.198 A 
ATOM     77  C   UNL A   1      35.169  30.298  28.197  1.00  0.00     0.198 A 
ATOM     78  F   UNL A   1      36.381  28.799  29.543  1.00  0.00    -0.203 F 
ATOM     79  F   UNL A   1      35.614  33.845  27.616  1.00  0.00    -0.200 F 
ATOM     80  C   UNL A   1      34.967  31.577  27.703  1.00  0.00     0.200 A 
ATOM     81  F   UNL A   1      34.350  29.302  27.831  1.00  0.00    -0.200 F 
ATOM     82  F   UNL A   1      33.941  31.823  26.876  1.00  0.00    -0.200 F 
ENDBRANCH  58  72
BRANCH  59  83
ATOM     83  C   UNL A   1      45.183  29.122  34.991  1.00  0.00     0.064 A 
ATOM     84  C   UNL A   1      46.263  30.015  34.945  1.00  0.00     0.173 A 
ATOM     85  C   UNL A   1      45.311  27.991  35.812  1.00  0.00     0.173 A 
ATOM     86  F   UNL A   1      46.204  31.097  34.154  1.00  0.00    -0.203 F 
ATOM     87  C   UNL A   1      47.430  29.775  35.670  1.00  0.00     0.198 A 
ATOM     88  C   UNL A   1      46.463  27.769  36.563  1.00  0.00     0.198 A 
ATOM     89  F   UNL A   1      44.311  27.101  35.890  1.00  0.00    -0.203 F 
ATOM     90  F   UNL A   1      48.468  30.616  35.562  1.00  0.00    -0.200 F 
ATOM     91  C   UNL A   1      47.527  28.655  36.483  1.00  0.00     0.200 A 
ATOM     92  F   UNL A   1      46.546  26.694  37.357  1.00  0.00    -0.200 F 
ATOM     93  F   UNL A   1      48.647  28.426  37.181  1.00  0.00    -0.200 F 
ENDBRANCH  59  83
BRANCH  71  94
ATOM     94  C   UNL A   1      39.116  32.327  36.252  1.00  0.00     0.064 A 
ATOM     95  C   UNL A   1      38.222  31.675  37.115  1.00  0.00     0.173 A 
ATOM     96  C   UNL A   1      39.516  33.630  36.587  1.00  0.00     0.173 A 
ATOM     97  F   UNL A   1      37.797  30.434  36.834  1.00  0.00    -0.203 F 
ATOM     98  C   UNL A   1      37.729  32.312  38.251  1.00  0.00     0.198 A 
ATOM     99  C   UNL A   1      39.049  34.250  37.743  1.00  0.00     0.198 A 
ATOM    100  F   UNL A   1      40.376  34.297  35.802  1.00  0.00    -0.203 F 
ATOM    101  F   UNL A   1      36.837  31.688  39.032  1.00  0.00    -0.200 F 
ATOM    102  C   UNL A   1      38.150  33.595  38.570  1.00  0.00     0.200 A 
ATOM    103  F   UNL A   1      39.471  35.483  38.057  1.00  0.00    -0.200 F 
ATOM    104  F   UNL A   1      37.684  34.201  39.669  1.00  0.00    -0.200 F 
ENDBRANCH  71  94
ENDBRANCH  45  46
ENDBRANCH  38  40
ENDBRANCH  37  38
ENDBRANCH  36  37
ENDBRANCH  35  36
ENDBRANCH  34  35
ENDBRANCH  33  34
ENDBRANCH  32  33
ENDBRANCH   1  32
TORSDOF 23
ENDMDL
MODEL 2
REMARK VINA RESULT:     -10.2      1.560      6.994
REMARK SMILES Cc1cc(N2N=C(C(=O)OCCOCCOCCOCCOC(=O)c3ccc(-c4c5nc(c(-c6c(F)c(F)c(F)c(F)c6F)c6ccc([nH]6)c(-c6c(F)c(F)c(F)c(F)c6F)c6nc(c(-c7c(F)c(F)c(F)c(F)c7F)c7ccc4[nH]7)C=C6)C=C5)cc3)C[C@H]2c2ccccc2)c([N+](=O)[O-])cc1C
REMARK SMILES IDX 16 1 15 2 14 3 13 4 12 5 11 6 10 7 8 8 9 9 7 10 5 11 6 12
REMARK SMILES IDX 89 13 88 14 4 15 1 16 2 17 3 18 101 19 100 20 102 21 96 22
REMARK SMILES IDX 97 23 98 24 99 25 90 26 91 27 95 28 92 29 94 30 93 31 17 32
REMARK SMILES IDX 18 33 19 34 20 35 21 36 22 37 23 38 24 39 25 40 26 41 87 42
REMARK SMILES IDX 27 43 86 44 28 45 29 46 30 47 80 48 31 49 85 50 79 51 81 52
REMARK SMILES IDX 32 53 84 54 78 55 77 56 33 58 65 59 45 60 64 61 46 62 49 63
REMARK SMILES IDX 63 64 82 65 47 66 48 67 62 69 83 70 50 71 34 72 35 73 43 74
REMARK SMILES IDX 36 75 37 76 41 77 44 78 38 79 39 80 42 81 40 82 66 83 67 84
REMARK SMILES IDX 75 85 68 86 69 87 73 88 76 89 70 90 71 91 74 92 72 93 51 94
REMARK SMILES IDX 52 95 60 96 53 97 54 98 58 99 61 100 55 101 56 102 59 103
REMARK SMILES IDX 57 104
REMARK H PARENT 81 57 49 68
REMARK Flexibility Score: inf
ROOT
ATOM      1  O   UNL A   1      42.589  21.120  27.451  1.00  0.00    -0.377 OA
ENDROOT
BRANCH   1   2
ATOM      2  C   UNL A   1      41.730  21.888  28.283  1.00  0.00     0.188 C 
BRANCH   2   3
ATOM      3  C   UNL A   1      42.315  23.246  28.707  1.00  0.00     0.188 C 
BRANCH   3   4
ATOM      4  O   UNL A   1      41.508  24.340  28.307  1.00  0.00    -0.376 OA
BRANCH   4   5
ATOM      5  C   UNL A   1      40.118  24.181  28.085  1.00  0.00     0.202 C 
BRANCH   5   6
ATOM      6  C   UNL A   1      39.379  24.733  26.851  1.00  0.00     0.261 C 
BRANCH   6   7
ATOM      7  O   UNL A   1      38.047  24.265  26.647  1.00  0.00    -0.459 OA
BRANCH   7   8
ATOM      8  C   UNL A   1      37.868  23.247  25.798  1.00  0.00     0.354 C 
ATOM      9  O   UNL A   1      38.448  22.180  25.775  1.00  0.00    -0.245 OA
BRANCH   8  10
ATOM     10  C   UNL A   1      36.695  23.588  24.910  1.00  0.00     0.148 C 
ATOM     11  N   UNL A   1      34.894  24.444  24.229  1.00  0.00    -0.250 N 
ATOM     12  N   UNL A   1      35.789  24.453  25.254  1.00  0.00    -0.169 NA
ATOM     13  C   UNL A   1      35.078  23.298  23.313  1.00  0.00     0.144 C 
ATOM     14  C   UNL A   1      36.571  23.016  23.525  1.00  0.00     0.098 C 
BRANCH  11  15
ATOM     15  C   UNL A   1      33.809  25.304  24.262  1.00  0.00     0.138 A 
ATOM     16  C   UNL A   1      32.999  28.636  22.590  1.00  0.00     0.045 C 
ATOM     17  C   UNL A   1      32.809  27.409  23.439  1.00  0.00    -0.046 A 
ATOM     18  C   UNL A   1      33.815  26.427  23.421  1.00  0.00     0.039 A 
ATOM     19  C   UNL A   1      31.682  27.221  24.253  1.00  0.00    -0.041 A 
ATOM     20  C   UNL A   1      31.613  26.066  25.048  1.00  0.00     0.091 A 
ATOM     21  C   UNL A   1      30.528  28.185  24.292  1.00  0.00     0.045 C 
ATOM     22  C   UNL A   1      32.670  25.131  25.063  1.00  0.00     0.294 A 
BRANCH  22  23
ATOM     23  N   UNL A   1      32.527  23.974  25.947  1.00  0.00     0.065 N 
ATOM     24  O   UNL A   1      31.558  23.222  25.747  1.00  0.00    -0.258 OA
ATOM     25  O   UNL A   1      33.323  23.841  26.888  1.00  0.00    -0.258 OA
ENDBRANCH  22  23
ENDBRANCH  11  15
BRANCH  13  26
ATOM     26  C   UNL A   1      34.175  22.108  23.652  1.00  0.00    -0.023 A 
ATOM     27  C   UNL A   1      34.471  21.171  24.658  1.00  0.00     0.006 A 
ATOM     28  C   UNL A   1      32.979  21.930  22.934  1.00  0.00     0.006 A 
ATOM     29  C   UNL A   1      33.606  20.113  24.945  1.00  0.00     0.000 A 
ATOM     30  C   UNL A   1      32.089  20.901  23.255  1.00  0.00     0.000 A 
ATOM     31  C   UNL A   1      32.406  19.991  24.257  1.00  0.00     0.000 A 
ENDBRANCH  13  26
ENDBRANCH   8  10
ENDBRANCH   7   8
ENDBRANCH   6   7
ENDBRANCH   5   6
ENDBRANCH   4   5
ENDBRANCH   3   4
ENDBRANCH   2   3
ENDBRANCH   1   2
BRANCH   1  32
ATOM     32  C   UNL A   1      42.494  21.293  26.034  1.00  0.00     0.188 C 
BRANCH  32  33
ATOM     33  C   UNL A   1      43.072  22.531  25.306  1.00  0.00     0.188 C 
BRANCH  33  34
ATOM     34  O   UNL A   1      43.659  22.263  24.045  1.00  0.00    -0.376 OA
BRANCH  34  35
ATOM     35  C   UNL A   1      45.033  22.553  23.854  1.00  0.00     0.202 C 
BRANCH  35  36
ATOM     36  C   UNL A   1      45.687  23.537  24.836  1.00  0.00     0.261 C 
BRANCH  36  37
ATOM     37  O   UNL A   1      45.474  24.932  24.567  1.00  0.00    -0.460 OA
BRANCH  37  38
ATOM     38  C   UNL A   1      46.276  25.822  25.185  1.00  0.00     0.338 C 
ATOM     39  O   UNL A   1      47.440  26.080  24.925  1.00  0.00    -0.246 OA
BRANCH  38  40
ATOM     40  C   UNL A   1      45.441  26.584  26.138  1.00  0.00     0.060 A 
ATOM     41  C   UNL A   1      45.619  27.970  26.246  1.00  0.00     0.016 A 
ATOM     42  C   UNL A   1      44.473  25.933  26.907  1.00  0.00     0.016 A 
ATOM     43  C   UNL A   1      44.839  28.706  27.141  1.00  0.00     0.010 A 
ATOM     44  C   UNL A   1      43.709  26.669  27.817  1.00  0.00     0.010 A 
ATOM     45  C   UNL A   1      43.903  28.056  27.956  1.00  0.00    -0.014 A 
BRANCH  45  46
ATOM     46  C   UNL A   1      43.230  28.789  29.056  1.00  0.00     0.031 A 
ATOM     47  C   UNL A   1      43.955  28.957  30.362  1.00  0.00     0.074 A 
ATOM     48  C   UNL A   1      41.993  29.297  28.900  1.00  0.00     0.049 A 
ATOM     49  N   UNL A   1      43.539  29.488  31.484  1.00  0.00    -0.248 NA
ATOM     50  C   UNL A   1      45.336  28.453  30.411  1.00  0.00     0.031 C 
ATOM     51  C   UNL A   1      41.202  29.232  27.674  1.00  0.00     0.029 A 
ATOM     52  N   UNL A   1      41.180  29.952  29.793  1.00  0.00    -0.354 N 
ATOM     53  C   UNL A   1      44.600  29.371  32.372  1.00  0.00     0.074 A 
ATOM     54  C   UNL A   1      45.669  28.697  31.669  1.00  0.00     0.031 C 
ATOM     55  C   UNL A   1      40.008  29.806  27.897  1.00  0.00     0.029 A 
ATOM     56  C   UNL A   1      39.935  30.242  29.291  1.00  0.00     0.049 A 
ATOM     57  H   UNL A   1      41.464  30.192  30.706  1.00  0.00     0.167 HD
ATOM     58  C   UNL A   1      44.674  29.792  33.657  1.00  0.00     0.037 A 
ATOM     59  C   UNL A   1      38.852  30.767  29.899  1.00  0.00     0.037 A 
ATOM     60  C   UNL A   1      43.608  30.464  34.352  1.00  0.00     0.049 A 
ATOM     61  C   UNL A   1      38.936  31.157  31.355  1.00  0.00     0.074 A 
ATOM     62  C   UNL A   1      43.602  30.964  35.643  1.00  0.00     0.029 A 
ATOM     63  N   UNL A   1      42.351  30.714  33.821  1.00  0.00    -0.354 N 
ATOM     64  N   UNL A   1      39.956  31.084  32.177  1.00  0.00    -0.248 NA
ATOM     65  C   UNL A   1      37.717  31.703  31.968  1.00  0.00     0.031 C 
ATOM     66  C   UNL A   1      42.321  31.454  35.915  1.00  0.00     0.029 A 
ATOM     67  C   UNL A   1      41.548  31.324  34.772  1.00  0.00     0.049 A 
ATOM     68  H   UNL A   1      42.072  30.492  32.903  1.00  0.00     0.167 HD
ATOM     69  C   UNL A   1      39.510  31.593  33.389  1.00  0.00     0.074 A 
ATOM     70  C   UNL A   1      38.133  31.994  33.191  1.00  0.00     0.031 C 
ATOM     71  C   UNL A   1      40.178  31.717  34.563  1.00  0.00     0.037 A 
BRANCH  58  72
ATOM     72  C   UNL A   1      45.941  29.507  34.412  1.00  0.00     0.064 A 
ATOM     73  C   UNL A   1      47.075  30.323  34.293  1.00  0.00     0.173 A 
ATOM     74  C   UNL A   1      46.001  28.427  35.306  1.00  0.00     0.173 A 
ATOM     75  F   UNL A   1      47.075  31.361  33.444  1.00  0.00    -0.203 F 
ATOM     76  C   UNL A   1      48.231  30.053  35.023  1.00  0.00     0.198 A 
ATOM     77  C   UNL A   1      47.146  28.180  36.058  1.00  0.00     0.198 A 
ATOM     78  F   UNL A   1      44.942  27.617  35.462  1.00  0.00    -0.203 F 
ATOM     79  F   UNL A   1      49.319  30.819  34.859  1.00  0.00    -0.200 F 
ATOM     80  C   UNL A   1      48.262  28.988  35.911  1.00  0.00     0.200 A 
ATOM     81  F   UNL A   1      47.168  27.160  36.927  1.00  0.00    -0.200 F 
ATOM     82  F   UNL A   1      49.370  28.738  36.621  1.00  0.00    -0.200 F 
ENDBRANCH  58  72
BRANCH  59  83
ATOM     83  C   UNL A   1      37.578  30.923  29.147  1.00  0.00     0.064 A 
ATOM     84  C   UNL A   1      37.163  32.175  28.671  1.00  0.00     0.173 A 
ATOM     85  C   UNL A   1      36.729  29.829  28.920  1.00  0.00     0.173 A 
ATOM     86  F   UNL A   1      37.924  33.259  28.886  1.00  0.00    -0.203 F 
ATOM     87  C   UNL A   1      35.942  32.330  28.017  1.00  0.00     0.198 A 
ATOM     88  C   UNL A   1      35.525  29.978  28.236  1.00  0.00     0.198 A 
ATOM     89  F   UNL A   1      37.073  28.609  29.359  1.00  0.00    -0.203 F 
ATOM     90  F   UNL A   1      35.545  33.548  27.622  1.00  0.00    -0.200 F 
ATOM     91  C   UNL A   1      35.126  31.230  27.794  1.00  0.00     0.200 A 
ATOM     92  F   UNL A   1      34.748  28.910  28.012  1.00  0.00    -0.200 F 
ATOM     93  F   UNL A   1      33.954  31.379  27.164  1.00  0.00    -0.200 F 
ENDBRANCH  59  83
BRANCH  71  94
ATOM     94  C   UNL A   1      39.442  32.332  35.721  1.00  0.00     0.064 A 
ATOM     95  C   UNL A   1      38.617  31.568  36.560  1.00  0.00     0.173 A 
ATOM     96  C   UNL A   1      39.602  33.693  36.024  1.00  0.00     0.173 A 
ATOM     97  F   UNL A   1      38.419  30.265  36.308  1.00  0.00    -0.203 F 
ATOM     98  C   UNL A   1      37.957  32.150  37.641  1.00  0.00     0.198 A 
ATOM     99  C   UNL A   1      38.970  34.264  37.126  1.00  0.00     0.198 A 
ATOM    100  F   UNL A   1      40.387  34.469  35.260  1.00  0.00    -0.203 F 
ATOM    101  F   UNL A   1      37.135  31.411  38.396  1.00  0.00    -0.200 F 
ATOM    102  C   UNL A   1      38.143  33.494  37.929  1.00  0.00     0.200 A 
ATOM    103  F   UNL A   1      39.164  35.558  37.412  1.00  0.00    -0.200 F 
ATOM    104  F   UNL A   1      37.517  34.049  38.975  1.00  0.00    -0.200 F 
ENDBRANCH  71  94
ENDBRANCH  45  46
ENDBRANCH  38  40
ENDBRANCH  37  38
ENDBRANCH  36  37
ENDBRANCH  35  36
ENDBRANCH  34  35
ENDBRANCH  33  34
ENDBRANCH  32  33
ENDBRANCH   1  32
TORSDOF 23
ENDMDL
MODEL 3
REMARK VINA RESULT:     -10.0      1.621      2.194
REMARK SMILES Cc1cc(N2N=C(C(=O)OCCOCCOCCOCCOC(=O)c3ccc(-c4c5nc(c(-c6c(F)c(F)c(F)c(F)c6F)c6ccc([nH]6)c(-c6c(F)c(F)c(F)c(F)c6F)c6nc(c(-c7c(F)c(F)c(F)c(F)c7F)c7ccc4[nH]7)C=C6)C=C5)cc3)C[C@H]2c2ccccc2)c([N+](=O)[O-])cc1C
REMARK SMILES IDX 16 1 15 2 14 3 13 4 12 5 11 6 10 7 8 8 9 9 7 10 5 11 6 12
REMARK SMILES IDX 89 13 88 14 4 15 1 16 2 17 3 18 101 19 100 20 102 21 96 22
REMARK SMILES IDX 97 23 98 24 99 25 90 26 91 27 95 28 92 29 94 30 93 31 17 32
REMARK SMILES IDX 18 33 19 34 20 35 21 36 22 37 23 38 24 39 25 40 26 41 87 42
REMARK SMILES IDX 27 43 86 44 28 45 29 46 30 47 80 48 31 49 85 50 79 51 81 52
REMARK SMILES IDX 32 53 84 54 78 55 77 56 33 58 65 59 45 60 64 61 46 62 49 63
REMARK SMILES IDX 63 64 82 65 47 66 48 67 62 69 83 70 50 71 34 72 35 73 43 74
REMARK SMILES IDX 36 75 37 76 41 77 44 78 38 79 39 80 42 81 40 82 66 83 67 84
REMARK SMILES IDX 75 85 68 86 69 87 73 88 76 89 70 90 71 91 74 92 72 93 51 94
REMARK SMILES IDX 52 95 60 96 53 97 54 98 58 99 61 100 55 101 56 102 59 103
REMARK SMILES IDX 57 104
REMARK H PARENT 81 57 49 68
REMARK Flexibility Score: inf
ROOT
ATOM      1  O   UNL A   1      39.711  21.077  26.791  1.00  0.00    -0.377 OA
ENDROOT
BRANCH   1   2
ATOM      2  C   UNL A   1      39.197  22.178  26.053  1.00  0.00     0.188 C 
BRANCH   2   3
ATOM      3  C   UNL A   1      37.667  22.169  25.895  1.00  0.00     0.188 C 
BRANCH   3   4
ATOM      4  O   UNL A   1      37.219  21.212  24.951  1.00  0.00    -0.376 OA
BRANCH   4   5
ATOM      5  C   UNL A   1      35.939  20.616  25.066  1.00  0.00     0.202 C 
BRANCH   5   6
ATOM      6  C   UNL A   1      34.616  21.378  24.853  1.00  0.00     0.261 C 
BRANCH   6   7
ATOM      7  O   UNL A   1      34.360  21.848  23.532  1.00  0.00    -0.459 OA
BRANCH   7   8
ATOM      8  C   UNL A   1      34.804  23.068  23.207  1.00  0.00     0.354 C 
ATOM      9  O   UNL A   1      35.887  23.374  22.753  1.00  0.00    -0.245 OA
BRANCH   8  10
ATOM     10  C   UNL A   1      33.659  24.036  23.380  1.00  0.00     0.148 C 
ATOM     11  N   UNL A   1      32.552  25.731  23.969  1.00  0.00    -0.250 N 
ATOM     12  N   UNL A   1      33.799  25.185  23.970  1.00  0.00    -0.169 NA
ATOM     13  C   UNL A   1      31.497  24.756  23.623  1.00  0.00     0.144 C 
ATOM     14  C   UNL A   1      32.307  23.763  22.779  1.00  0.00     0.098 C 
BRANCH  11  15
ATOM     15  C   UNL A   1      32.362  26.998  24.493  1.00  0.00     0.138 A 
ATOM     16  C   UNL A   1      33.988  28.985  27.315  1.00  0.00     0.045 C 
ATOM     17  C   UNL A   1      33.074  28.678  26.160  1.00  0.00    -0.046 A 
ATOM     18  C   UNL A   1      33.232  27.447  25.498  1.00  0.00     0.039 A 
ATOM     19  C   UNL A   1      32.070  29.561  25.736  1.00  0.00    -0.041 A 
ATOM     20  C   UNL A   1      31.234  29.169  24.678  1.00  0.00     0.091 A 
ATOM     21  C   UNL A   1      31.866  30.924  26.341  1.00  0.00     0.045 C 
ATOM     22  C   UNL A   1      31.369  27.899  24.078  1.00  0.00     0.294 A 
BRANCH  22  23
ATOM     23  N   UNL A   1      30.432  27.562  23.006  1.00  0.00     0.065 N 
ATOM     24  O   UNL A   1      30.867  27.587  21.843  1.00  0.00    -0.258 OA
ATOM     25  O   UNL A   1      29.246  27.347  23.297  1.00  0.00    -0.258 OA
ENDBRANCH  22  23
ENDBRANCH  11  15
BRANCH  13  26
ATOM     26  C   UNL A   1      30.839  24.122  24.852  1.00  0.00    -0.023 A 
ATOM     27  C   UNL A   1      31.021  22.778  25.224  1.00  0.00     0.006 A 
ATOM     28  C   UNL A   1      30.010  24.912  25.669  1.00  0.00     0.006 A 
ATOM     29  C   UNL A   1      30.417  22.250  26.367  1.00  0.00     0.000 A 
ATOM     30  C   UNL A   1      29.446  24.397  26.840  1.00  0.00     0.000 A 
ATOM     31  C   UNL A   1      29.646  23.065  27.185  1.00  0.00     0.000 A 
ENDBRANCH  13  26
ENDBRANCH   8  10
ENDBRANCH   7   8
ENDBRANCH   6   7
ENDBRANCH   5   6
ENDBRANCH   4   5
ENDBRANCH   3   4
ENDBRANCH   2   3
ENDBRANCH   1   2
BRANCH   1  32
ATOM     32  C   UNL A   1      41.012  20.586  26.459  1.00  0.00     0.188 C 
BRANCH  32  33
ATOM     33  C   UNL A   1      42.265  20.903  27.313  1.00  0.00     0.188 C 
BRANCH  33  34
ATOM     34  O   UNL A   1      43.160  21.837  26.735  1.00  0.00    -0.376 OA
BRANCH  34  35
ATOM     35  C   UNL A   1      42.672  22.736  25.755  1.00  0.00     0.202 C 
BRANCH  35  36
ATOM     36  C   UNL A   1      43.659  23.773  25.198  1.00  0.00     0.261 C 
BRANCH  36  37
ATOM     37  O   UNL A   1      43.678  25.047  25.863  1.00  0.00    -0.460 OA
BRANCH  37  38
ATOM     38  C   UNL A   1      42.604  25.849  25.718  1.00  0.00     0.338 C 
ATOM     39  O   UNL A   1      41.842  25.905  24.767  1.00  0.00    -0.246 OA
BRANCH  38  40
ATOM     40  C   UNL A   1      42.389  26.538  27.007  1.00  0.00     0.060 A 
ATOM     41  C   UNL A   1      41.508  25.979  27.943  1.00  0.00     0.016 A 
ATOM     42  C   UNL A   1      43.071  27.722  27.298  1.00  0.00     0.016 A 
ATOM     43  C   UNL A   1      41.292  26.617  29.167  1.00  0.00     0.010 A 
ATOM     44  C   UNL A   1      42.837  28.369  28.515  1.00  0.00     0.010 A 
ATOM     45  C   UNL A   1      41.929  27.833  29.446  1.00  0.00    -0.014 A 
BRANCH  45  46
ATOM     46  C   UNL A   1      41.542  28.623  30.641  1.00  0.00     0.031 A 
ATOM     47  C   UNL A   1      40.364  29.552  30.543  1.00  0.00     0.074 A 
ATOM     48  C   UNL A   1      42.228  28.523  31.795  1.00  0.00     0.049 A 
ATOM     49  N   UNL A   1      39.892  30.395  31.425  1.00  0.00    -0.248 NA
ATOM     50  C   UNL A   1      39.619  29.527  29.274  1.00  0.00     0.031 C 
ATOM     51  C   UNL A   1      43.364  27.635  32.027  1.00  0.00     0.029 A 
ATOM     52  N   UNL A   1      42.074  29.193  32.984  1.00  0.00    -0.354 N 
ATOM     53  C   UNL A   1      38.805  31.009  30.815  1.00  0.00     0.074 A 
ATOM     54  C   UNL A   1      38.702  30.460  29.481  1.00  0.00     0.031 C 
ATOM     55  C   UNL A   1      43.819  27.829  33.276  1.00  0.00     0.029 A 
ATOM     56  C   UNL A   1      43.033  28.883  33.917  1.00  0.00     0.049 A 
ATOM     57  H   UNL A   1      41.345  29.835  33.151  1.00  0.00     0.167 HD
ATOM     58  C   UNL A   1      37.969  31.943  31.326  1.00  0.00     0.037 A 
ATOM     59  C   UNL A   1      43.268  29.415  35.133  1.00  0.00     0.037 A 
ATOM     60  C   UNL A   1      38.074  32.485  32.656  1.00  0.00     0.049 A 
ATOM     61  C   UNL A   1      42.366  30.510  35.650  1.00  0.00     0.074 A 
ATOM     62  C   UNL A   1      37.250  33.406  33.278  1.00  0.00     0.029 A 
ATOM     63  N   UNL A   1      39.076  32.168  33.562  1.00  0.00    -0.354 N 
ATOM     64  N   UNL A   1      41.315  31.055  35.086  1.00  0.00    -0.248 NA
ATOM     65  C   UNL A   1      42.686  31.066  36.973  1.00  0.00     0.031 C 
ATOM     66  C   UNL A   1      37.792  33.698  34.534  1.00  0.00     0.029 A 
ATOM     67  C   UNL A   1      38.914  32.908  34.723  1.00  0.00     0.049 A 
ATOM     68  H   UNL A   1      39.794  31.514  33.403  1.00  0.00     0.167 HD
ATOM     69  C   UNL A   1      40.837  31.994  35.991  1.00  0.00     0.074 A 
ATOM     70  C   UNL A   1      41.700  31.931  37.151  1.00  0.00     0.031 C 
ATOM     71  C   UNL A   1      39.781  32.836  35.872  1.00  0.00     0.037 A 
BRANCH  58  72
ATOM     72  C   UNL A   1      36.882  32.470  30.433  1.00  0.00     0.064 A 
ATOM     73  C   UNL A   1      36.943  33.752  29.867  1.00  0.00     0.173 A 
ATOM     74  C   UNL A   1      35.786  31.658  30.102  1.00  0.00     0.173 A 
ATOM     75  F   UNL A   1      37.962  34.572  30.160  1.00  0.00    -0.203 F 
ATOM     76  C   UNL A   1      35.934  34.210  29.022  1.00  0.00     0.198 A 
ATOM     77  C   UNL A   1      34.798  32.107  29.231  1.00  0.00     0.198 A 
ATOM     78  F   UNL A   1      35.681  30.422  30.612  1.00  0.00    -0.203 F 
ATOM     79  F   UNL A   1      35.990  35.454  28.529  1.00  0.00    -0.200 F 
ATOM     80  C   UNL A   1      34.869  33.385  28.698  1.00  0.00     0.200 A 
ATOM     81  F   UNL A   1      33.776  31.302  28.907  1.00  0.00    -0.200 F 
ATOM     82  F   UNL A   1      33.906  33.823  27.875  1.00  0.00    -0.200 F 
ENDBRANCH  58  72
BRANCH  59  83
ATOM     83  C   UNL A   1      44.428  28.948  35.940  1.00  0.00     0.064 A 
ATOM     84  C   UNL A   1      45.709  29.486  35.751  1.00  0.00     0.173 A 
ATOM     85  C   UNL A   1      44.286  27.929  36.894  1.00  0.00     0.173 A 
ATOM     86  F   UNL A   1      45.905  30.443  34.832  1.00  0.00    -0.203 F 
ATOM     87  C   UNL A   1      46.805  29.008  36.468  1.00  0.00     0.198 A 
ATOM     88  C   UNL A   1      45.375  27.475  37.634  1.00  0.00     0.198 A 
ATOM     89  F   UNL A   1      43.084  27.374  37.111  1.00  0.00    -0.203 F 
ATOM     90  F   UNL A   1      48.028  29.500  36.226  1.00  0.00    -0.200 F 
ATOM     91  C   UNL A   1      46.636  28.007  37.413  1.00  0.00     0.200 A 
ATOM     92  F   UNL A   1      45.204  26.518  38.556  1.00  0.00    -0.200 F 
ATOM     93  F   UNL A   1      47.689  27.548  38.104  1.00  0.00    -0.200 F 
ENDBRANCH  59  83
BRANCH  71  94
ATOM     94  C   UNL A   1      39.479  33.742  37.033  1.00  0.00     0.064 A 
ATOM     95  C   UNL A   1      38.676  33.326  38.105  1.00  0.00     0.173 A 
ATOM     96  C   UNL A   1      40.040  35.028  37.097  1.00  0.00     0.173 A 
ATOM     97  F   UNL A   1      38.105  32.112  38.088  1.00  0.00    -0.203 F 
ATOM     98  C   UNL A   1      38.422  34.171  39.183  1.00  0.00     0.198 A 
ATOM     99  C   UNL A   1      39.814  35.857  38.194  1.00  0.00     0.198 A 
ATOM    100  F   UNL A   1      40.823  35.475  36.104  1.00  0.00    -0.203 F 
ATOM    101  F   UNL A   1      37.611  33.769  40.170  1.00  0.00    -0.200 F 
ATOM    102  C   UNL A   1      39.000  35.431  39.231  1.00  0.00     0.200 A 
ATOM    103  F   UNL A   1      40.387  37.067  38.245  1.00  0.00    -0.200 F 
ATOM    104  F   UNL A   1      38.764  36.239  40.274  1.00  0.00    -0.200 F 
ENDBRANCH  71  94
ENDBRANCH  45  46
ENDBRANCH  38  40
ENDBRANCH  37  38
ENDBRANCH  36  37
ENDBRANCH  35  36
ENDBRANCH  34  35
ENDBRANCH  33  34
ENDBRANCH  32  33
ENDBRANCH   1  32
TORSDOF 23
ENDMDL
