MODEL 1
REMARK VINA RESULT:      -9.9      0.000      0.000
REMARK SMILES O=C(CCCN1C(=O)C(=O)/C(=C(/[O-])c2ccc(Cl)cc2)[C@@H]1c1ccccc1[N+](=O)[O-])OCCOCCOCCOCCOC(=O)c1ccc(-c2c3nc(c(-c4c(F)c(F)c(F)c(F)c4F)c4ccc([nH]4)c(-c4c(F)c(F)c(F)c(F)c4F)c4nc(c(-c5c(F)c(F)c(F)c(F)c5F)c5ccc2[nH]5)C=C4)C=C3)cc1
REMARK SMILES IDX 35 1 34 2 33 3 32 4 31 5 2 6 1 7 3 8 4 9 5 10 6 11 7 12
REMARK SMILES IDX 21 13 8 14 9 15 11 16 10 17 12 18 13 19 22 20 23 21 27 22
REMARK SMILES IDX 24 23 26 24 25 25 28 26 29 27 30 28 14 29 15 30 20 31 16 32
REMARK SMILES IDX 19 33 17 34 18 35 36 36 37 37 38 38 39 39 40 40 41 41 42 42
REMARK SMILES IDX 43 43 44 44 45 45 46 46 47 47 108 48 48 49 107 50 49 51
REMARK SMILES IDX 50 52 51 53 101 54 52 55 106 56 100 57 102 58 53 59 105 60
REMARK SMILES IDX 99 61 98 62 54 64 86 65 66 66 85 67 67 68 70 69 84 70 103 71
REMARK SMILES IDX 68 72 69 73 83 75 104 76 71 77 55 78 56 79 64 80 57 81 58 82
REMARK SMILES IDX 62 83 65 84 59 85 60 86 63 87 61 88 87 89 88 90 96 91 89 92
REMARK SMILES IDX 90 93 94 94 97 95 91 96 92 97 95 98 93 99 72 100 73 101
REMARK SMILES IDX 81 102 74 103 75 104 79 105 82 106 76 107 77 108 80 109
REMARK SMILES IDX 78 110
REMARK H PARENT 102 63 70 74
REMARK Flexibility Score: inf
ROOT
ATOM      1  C   UNL A   1      34.066  33.566  29.313  1.00  0.00     0.188 C 
ENDROOT
BRANCH   1   2
ATOM      2  O   UNL A   1      35.269  33.633  28.556  1.00  0.00    -0.376 OA
BRANCH   2   3
ATOM      3  C   UNL A   1      35.784  32.428  28.017  1.00  0.00     0.202 C 
BRANCH   3   4
ATOM      4  C   UNL A   1      34.854  31.251  28.350  1.00  0.00     0.261 C 
BRANCH   4   5
ATOM      5  O   UNL A   1      34.676  30.393  27.211  1.00  0.00    -0.463 OA
BRANCH   5   6
ATOM      6  C   UNL A   1      33.389  30.279  26.792  1.00  0.00     0.305 C 
ATOM      7  O   UNL A   1      32.484  31.038  27.129  1.00  0.00    -0.252 OA
BRANCH   6   8
ATOM      8  C   UNL A   1      33.130  29.010  26.007  1.00  0.00     0.124 C 
BRANCH   8   9
ATOM      9  C   UNL A   1      33.705  27.671  26.476  1.00  0.00     0.033 C 
BRANCH   9  10
ATOM     10  C   UNL A   1      34.493  26.755  25.531  1.00  0.00     0.121 C 
BRANCH  10  11
ATOM     11  N   UNL A   1      34.215  25.321  25.461  1.00  0.00    -0.324 N 
ATOM     12  C   UNL A   1      35.171  24.341  25.319  1.00  0.00     0.295 C 
ATOM     13  C   UNL A   1      32.872  24.734  25.405  1.00  0.00     0.157 C 
ATOM     14  O   UNL A   1      36.284  24.294  25.768  1.00  0.00    -0.265 OA
ATOM     15  C   UNL A   1      34.478  23.167  24.624  1.00  0.00     0.248 C 
ATOM     16  C   UNL A   1      33.065  23.280  25.018  1.00  0.00     0.025 C 
ATOM     17  O   UNL A   1      34.985  22.380  23.859  1.00  0.00    -0.283 OA
ATOM     18  C   UNL A   1      32.240  22.229  25.136  1.00  0.00    -0.092 C 
ATOM     19  O   UNL A   1      30.999  22.385  25.726  1.00  0.00    -0.872 OA
BRANCH  13  20
ATOM     20  C   UNL A   1      31.814  25.461  24.588  1.00  0.00     0.057 A 
ATOM     21  C   UNL A   1      30.662  25.872  25.298  1.00  0.00     0.013 A 
ATOM     22  C   UNL A   1      31.831  25.749  23.208  1.00  0.00     0.275 A 
ATOM     23  C   UNL A   1      29.611  26.555  24.680  1.00  0.00     0.001 A 
ATOM     24  C   UNL A   1      30.790  26.468  22.589  1.00  0.00     0.086 A 
ATOM     25  C   UNL A   1      29.682  26.868  23.330  1.00  0.00     0.007 A 
BRANCH  22  26
ATOM     26  N   UNL A   1      32.902  25.311  22.323  1.00  0.00     0.063 N 
ATOM     27  O   UNL A   1      33.841  26.100  22.139  1.00  0.00    -0.258 OA
ATOM     28  O   UNL A   1      32.786  24.202  21.793  1.00  0.00    -0.258 OA
ENDBRANCH  22  26
ENDBRANCH  13  20
BRANCH  18  29
ATOM     29  C   UNL A   1      32.522  20.858  24.659  1.00  0.00    -0.033 A 
ATOM     30  C   UNL A   1      32.310  20.452  23.334  1.00  0.00     0.009 A 
ATOM     31  C   UNL A   1      33.013  19.920  25.582  1.00  0.00     0.009 A 
ATOM     32  C   UNL A   1      32.532  19.123  22.954  1.00  0.00     0.021 A 
ATOM     33  C   UNL A   1      33.252  18.597  25.199  1.00  0.00     0.021 A 
ATOM     34  C   UNL A   1      32.996  18.201  23.889  1.00  0.00     0.041 A 
ATOM     35  Cl  UNL A   1      33.248  16.562  23.429  1.00  0.00    -0.084 Cl
ENDBRANCH  18  29
ENDBRANCH  10  11
ENDBRANCH   9  10
ENDBRANCH   8   9
ENDBRANCH   6   8
ENDBRANCH   5   6
ENDBRANCH   4   5
ENDBRANCH   3   4
ENDBRANCH   2   3
ENDBRANCH   1   2
BRANCH   1  36
ATOM     36  C   UNL A   1      34.044  34.539  30.498  1.00  0.00     0.188 C 
BRANCH  36  37
ATOM     37  O   UNL A   1      34.938  34.269  31.579  1.00  0.00    -0.377 OA
BRANCH  37  38
ATOM     38  C   UNL A   1      35.140  35.296  32.538  1.00  0.00     0.188 C 
BRANCH  38  39
ATOM     39  C   UNL A   1      34.729  34.867  33.957  1.00  0.00     0.188 C 
BRANCH  39  40
ATOM     40  O   UNL A   1      35.118  33.567  34.396  1.00  0.00    -0.376 OA
BRANCH  40  41
ATOM     41  C   UNL A   1      36.435  33.419  34.929  1.00  0.00     0.202 C 
BRANCH  41  42
ATOM     42  C   UNL A   1      37.258  32.223  34.422  1.00  0.00     0.261 C 
BRANCH  42  43
ATOM     43  O   UNL A   1      36.979  31.910  33.042  1.00  0.00    -0.460 OA
BRANCH  43  44
ATOM     44  C   UNL A   1      37.330  30.673  32.622  1.00  0.00     0.338 C 
ATOM     45  O   UNL A   1      36.689  29.642  32.740  1.00  0.00    -0.246 OA
BRANCH  44  46
ATOM     46  C   UNL A   1      38.554  30.752  31.796  1.00  0.00     0.060 A 
ATOM     47  C   UNL A   1      39.796  30.807  32.449  1.00  0.00     0.016 A 
ATOM     48  C   UNL A   1      38.485  30.847  30.406  1.00  0.00     0.016 A 
ATOM     49  C   UNL A   1      40.969  31.006  31.721  1.00  0.00     0.010 A 
ATOM     50  C   UNL A   1      39.655  31.083  29.680  1.00  0.00     0.010 A 
ATOM     51  C   UNL A   1      40.893  31.205  30.338  1.00  0.00    -0.014 A 
BRANCH  51  52
ATOM     52  C   UNL A   1      42.034  31.794  29.598  1.00  0.00     0.031 A 
ATOM     53  C   UNL A   1      43.111  30.862  29.117  1.00  0.00     0.074 A 
ATOM     54  C   UNL A   1      42.159  33.119  29.426  1.00  0.00     0.049 A 
ATOM     55  N   UNL A   1      44.297  31.133  28.639  1.00  0.00    -0.248 NA
ATOM     56  C   UNL A   1      42.808  29.424  29.204  1.00  0.00     0.031 C 
ATOM     57  C   UNL A   1      41.163  34.118  29.802  1.00  0.00     0.029 A 
ATOM     58  N   UNL A   1      43.205  33.851  28.923  1.00  0.00    -0.354 N 
ATOM     59  C   UNL A   1      44.890  29.901  28.392  1.00  0.00     0.074 A 
ATOM     60  C   UNL A   1      43.936  28.884  28.773  1.00  0.00     0.031 C 
ATOM     61  C   UNL A   1      41.666  35.341  29.560  1.00  0.00     0.029 A 
ATOM     62  C   UNL A   1      43.032  35.207  29.052  1.00  0.00     0.049 A 
ATOM     63  H   UNL A   1      44.001  33.444  28.509  1.00  0.00     0.167 HD
ATOM     64  C   UNL A   1      46.127  29.642  27.907  1.00  0.00     0.037 A 
ATOM     65  C   UNL A   1      43.897  36.216  28.832  1.00  0.00     0.037 A 
ATOM     66  C   UNL A   1      47.080  30.655  27.549  1.00  0.00     0.049 A 
ATOM     67  C   UNL A   1      45.292  35.909  28.350  1.00  0.00     0.074 A 
ATOM     68  C   UNL A   1      48.354  30.500  27.035  1.00  0.00     0.029 A 
ATOM     69  N   UNL A   1      46.861  32.019  27.682  1.00  0.00    -0.354 N 
ATOM     70  N   UNL A   1      45.847  34.746  28.104  1.00  0.00    -0.248 NA
ATOM     71  C   UNL A   1      46.185  37.055  28.121  1.00  0.00     0.031 C 
ATOM     72  C   UNL A   1      48.925  31.771  26.900  1.00  0.00     0.029 A 
ATOM     73  C   UNL A   1      47.988  32.717  27.285  1.00  0.00     0.049 A 
ATOM     74  H   UNL A   1      46.029  32.428  28.011  1.00  0.00     0.167 HD
ATOM     75  C   UNL A   1      47.139  35.018  27.672  1.00  0.00     0.074 A 
ATOM     76  C   UNL A   1      47.287  36.458  27.686  1.00  0.00     0.031 C 
ATOM     77  C   UNL A   1      48.112  34.153  27.295  1.00  0.00     0.037 A 
BRANCH  64  78
ATOM     78  C   UNL A   1      46.524  28.202  27.799  1.00  0.00     0.064 A 
ATOM     79  C   UNL A   1      47.269  27.563  28.801  1.00  0.00     0.173 A 
ATOM     80  C   UNL A   1      46.173  27.457  26.663  1.00  0.00     0.173 A 
ATOM     81  F   UNL A   1      47.646  28.240  29.897  1.00  0.00    -0.203 F 
ATOM     82  C   UNL A   1      47.680  26.242  28.653  1.00  0.00     0.198 A 
ATOM     83  C   UNL A   1      46.563  26.127  26.530  1.00  0.00     0.198 A 
ATOM     84  F   UNL A   1      45.461  28.022  25.677  1.00  0.00    -0.203 F 
ATOM     85  F   UNL A   1      48.441  25.668  29.596  1.00  0.00    -0.200 F 
ATOM     86  C   UNL A   1      47.325  25.525  27.519  1.00  0.00     0.200 A 
ATOM     87  F   UNL A   1      46.214  25.434  25.439  1.00  0.00    -0.200 F 
ATOM     88  F   UNL A   1      47.727  24.254  27.376  1.00  0.00    -0.200 F 
ENDBRANCH  64  78
BRANCH  65  89
ATOM     89  C   UNL A   1      43.477  37.613  29.107  1.00  0.00     0.064 A 
ATOM     90  C   UNL A   1      43.795  38.238  30.319  1.00  0.00     0.173 A 
ATOM     91  C   UNL A   1      42.759  38.356  28.156  1.00  0.00     0.173 A 
ATOM     92  F   UNL A   1      44.453  37.559  31.270  1.00  0.00    -0.203 F 
ATOM     93  C   UNL A   1      43.407  39.552  30.573  1.00  0.00     0.198 A 
ATOM     94  C   UNL A   1      42.392  39.677  28.402  1.00  0.00     0.198 A 
ATOM     95  F   UNL A   1      42.426  37.799  26.982  1.00  0.00    -0.203 F 
ATOM     96  F   UNL A   1      43.696  40.117  31.754  1.00  0.00    -0.200 F 
ATOM     97  C   UNL A   1      42.714  40.273  29.612  1.00  0.00     0.200 A 
ATOM     98  F   UNL A   1      41.730  40.371  27.467  1.00  0.00    -0.200 F 
ATOM     99  F   UNL A   1      42.349  41.539  29.853  1.00  0.00    -0.200 F 
ENDBRANCH  65  89
BRANCH  77 100
ATOM    100  C   UNL A   1      49.414  34.731  26.826  1.00  0.00     0.064 A 
ATOM    101  C   UNL A   1      49.576  35.218  25.522  1.00  0.00     0.173 A 
ATOM    102  C   UNL A   1      50.486  34.873  27.721  1.00  0.00     0.173 A 
ATOM    103  F   UNL A   1      48.584  35.095  24.628  1.00  0.00    -0.203 F 
ATOM    104  C   UNL A   1      50.769  35.820  25.127  1.00  0.00     0.198 A 
ATOM    105  C   UNL A   1      51.668  35.496  27.330  1.00  0.00     0.198 A 
ATOM    106  F   UNL A   1      50.376  34.428  28.982  1.00  0.00    -0.203 F 
ATOM    107  F   UNL A   1      50.913  36.257  23.869  1.00  0.00    -0.200 F 
ATOM    108  C   UNL A   1      51.809  35.966  26.034  1.00  0.00     0.200 A 
ATOM    109  F   UNL A   1      52.667  35.647  28.210  1.00  0.00    -0.200 F 
ATOM    110  F   UNL A   1      52.950  36.560  25.656  1.00  0.00    -0.200 F 
ENDBRANCH  77 100
ENDBRANCH  51  52
ENDBRANCH  44  46
ENDBRANCH  43  44
ENDBRANCH  42  43
ENDBRANCH  41  42
ENDBRANCH  40  41
ENDBRANCH  39  40
ENDBRANCH  38  39
ENDBRANCH  37  38
ENDBRANCH  36  37
ENDBRANCH   1  36
TORSDOF 26
ENDMDL
MODEL 2
REMARK VINA RESULT:      -9.6      1.187      2.200
REMARK SMILES O=C(CCCN1C(=O)C(=O)/C(=C(/[O-])c2ccc(Cl)cc2)[C@@H]1c1ccccc1[N+](=O)[O-])OCCOCCOCCOCCOC(=O)c1ccc(-c2c3nc(c(-c4c(F)c(F)c(F)c(F)c4F)c4ccc([nH]4)c(-c4c(F)c(F)c(F)c(F)c4F)c4nc(c(-c5c(F)c(F)c(F)c(F)c5F)c5ccc2[nH]5)C=C4)C=C3)cc1
REMARK SMILES IDX 35 1 34 2 33 3 32 4 31 5 2 6 1 7 3 8 4 9 5 10 6 11 7 12
REMARK SMILES IDX 21 13 8 14 9 15 11 16 10 17 12 18 13 19 22 20 23 21 27 22
REMARK SMILES IDX 24 23 26 24 25 25 28 26 29 27 30 28 14 29 15 30 20 31 16 32
REMARK SMILES IDX 19 33 17 34 18 35 36 36 37 37 38 38 39 39 40 40 41 41 42 42
REMARK SMILES IDX 43 43 44 44 45 45 46 46 47 47 108 48 48 49 107 50 49 51
REMARK SMILES IDX 50 52 51 53 101 54 52 55 106 56 100 57 102 58 53 59 105 60
REMARK SMILES IDX 99 61 98 62 54 64 86 65 66 66 85 67 67 68 70 69 84 70 103 71
REMARK SMILES IDX 68 72 69 73 83 75 104 76 71 77 55 78 56 79 64 80 57 81 58 82
REMARK SMILES IDX 62 83 65 84 59 85 60 86 63 87 61 88 87 89 88 90 96 91 89 92
REMARK SMILES IDX 90 93 94 94 97 95 91 96 92 97 95 98 93 99 72 100 73 101
REMARK SMILES IDX 81 102 74 103 75 104 79 105 82 106 76 107 77 108 80 109
REMARK SMILES IDX 78 110
REMARK H PARENT 102 63 70 74
REMARK Flexibility Score: inf
ROOT
ATOM      1  C   UNL A   1      32.894  33.518  28.229  1.00  0.00     0.188 C 
ENDROOT
BRANCH   1   2
ATOM      2  O   UNL A   1      32.164  33.343  27.020  1.00  0.00    -0.376 OA
BRANCH   2   3
ATOM      3  C   UNL A   1      31.430  32.143  26.853  1.00  0.00     0.202 C 
BRANCH   3   4
ATOM      4  C   UNL A   1      32.373  30.931  26.874  1.00  0.00     0.261 C 
BRANCH   4   5
ATOM      5  O   UNL A   1      31.665  29.729  27.224  1.00  0.00    -0.463 OA
BRANCH   5   6
ATOM      6  C   UNL A   1      32.444  28.618  27.278  1.00  0.00     0.305 C 
ATOM      7  O   UNL A   1      33.670  28.630  27.209  1.00  0.00    -0.252 OA
BRANCH   6   8
ATOM      8  C   UNL A   1      31.645  27.331  27.250  1.00  0.00     0.124 C 
BRANCH   8   9
ATOM      9  C   UNL A   1      31.034  26.822  25.942  1.00  0.00     0.033 C 
BRANCH   9  10
ATOM     10  C   UNL A   1      30.102  25.604  25.907  1.00  0.00     0.121 C 
BRANCH  10  11
ATOM     11  N   UNL A   1      30.618  24.263  25.640  1.00  0.00    -0.324 N 
ATOM     12  C   UNL A   1      30.785  23.280  26.591  1.00  0.00     0.295 C 
ATOM     13  C   UNL A   1      31.152  23.817  24.349  1.00  0.00     0.157 C 
ATOM     14  O   UNL A   1      30.110  23.033  27.553  1.00  0.00    -0.265 OA
ATOM     15  C   UNL A   1      31.915  22.382  26.082  1.00  0.00     0.248 C 
ATOM     16  C   UNL A   1      31.857  22.501  24.617  1.00  0.00     0.025 C 
ATOM     17  O   UNL A   1      32.718  21.782  26.757  1.00  0.00    -0.283 OA
ATOM     18  C   UNL A   1      32.227  21.522  23.777  1.00  0.00    -0.092 C 
ATOM     19  O   UNL A   1      31.935  21.618  22.429  1.00  0.00    -0.872 OA
BRANCH  13  20
ATOM     20  C   UNL A   1      31.973  24.810  23.540  1.00  0.00     0.057 A 
ATOM     21  C   UNL A   1      31.329  25.367  22.411  1.00  0.00     0.013 A 
ATOM     22  C   UNL A   1      33.303  25.220  23.764  1.00  0.00     0.275 A 
ATOM     23  C   UNL A   1      31.957  26.297  21.578  1.00  0.00     0.001 A 
ATOM     24  C   UNL A   1      33.928  26.184  22.948  1.00  0.00     0.086 A 
ATOM     25  C   UNL A   1      33.251  26.718  21.856  1.00  0.00     0.007 A 
BRANCH  22  26
ATOM     26  N   UNL A   1      34.131  24.670  24.829  1.00  0.00     0.063 N 
ATOM     27  O   UNL A   1      33.992  25.156  25.960  1.00  0.00    -0.258 OA
ATOM     28  O   UNL A   1      34.934  23.783  24.525  1.00  0.00    -0.258 OA
ENDBRANCH  22  26
ENDBRANCH  13  20
BRANCH  18  29
ATOM     29  C   UNL A   1      32.973  20.303  24.156  1.00  0.00    -0.033 A 
ATOM     30  C   UNL A   1      34.345  20.306  24.442  1.00  0.00     0.009 A 
ATOM     31  C   UNL A   1      32.273  19.087  24.216  1.00  0.00     0.009 A 
ATOM     32  C   UNL A   1      35.013  19.109  24.730  1.00  0.00     0.021 A 
ATOM     33  C   UNL A   1      32.935  17.894  24.520  1.00  0.00     0.021 A 
ATOM     34  C   UNL A   1      34.306  17.909  24.762  1.00  0.00     0.041 A 
ATOM     35  Cl  UNL A   1      35.130  16.434  25.093  1.00  0.00    -0.084 Cl
ENDBRANCH  18  29
ENDBRANCH  10  11
ENDBRANCH   9  10
ENDBRANCH   8   9
ENDBRANCH   6   8
ENDBRANCH   5   6
ENDBRANCH   4   5
ENDBRANCH   3   4
ENDBRANCH   2   3
ENDBRANCH   1   2
BRANCH   1  36
ATOM     36  C   UNL A   1      34.401  33.682  28.006  1.00  0.00     0.188 C 
BRANCH  36  37
ATOM     37  O   UNL A   1      35.250  32.641  28.494  1.00  0.00    -0.377 OA
BRANCH  37  38
ATOM     38  C   UNL A   1      35.368  32.494  29.901  1.00  0.00     0.188 C 
BRANCH  38  39
ATOM     39  C   UNL A   1      35.746  33.811  30.602  1.00  0.00     0.188 C 
BRANCH  39  40
ATOM     40  O   UNL A   1      35.566  33.887  32.014  1.00  0.00    -0.376 OA
BRANCH  40  41
ATOM     41  C   UNL A   1      35.846  32.714  32.778  1.00  0.00     0.202 C 
BRANCH  41  42
ATOM     42  C   UNL A   1      37.162  32.701  33.573  1.00  0.00     0.261 C 
BRANCH  42  43
ATOM     43  O   UNL A   1      37.621  31.362  33.853  1.00  0.00    -0.460 OA
BRANCH  43  44
ATOM     44  C   UNL A   1      37.583  30.485  32.824  1.00  0.00     0.338 C 
ATOM     45  O   UNL A   1      36.637  29.800  32.471  1.00  0.00    -0.246 OA
BRANCH  44  46
ATOM     46  C   UNL A   1      38.820  30.598  32.023  1.00  0.00     0.060 A 
ATOM     47  C   UNL A   1      40.035  30.798  32.698  1.00  0.00     0.016 A 
ATOM     48  C   UNL A   1      38.784  30.584  30.628  1.00  0.00     0.016 A 
ATOM     49  C   UNL A   1      41.210  31.033  31.983  1.00  0.00     0.010 A 
ATOM     50  C   UNL A   1      39.952  30.856  29.913  1.00  0.00     0.010 A 
ATOM     51  C   UNL A   1      41.158  31.122  30.588  1.00  0.00    -0.014 A 
BRANCH  51  52
ATOM     52  C   UNL A   1      42.272  31.742  29.831  1.00  0.00     0.031 A 
ATOM     53  C   UNL A   1      43.376  30.843  29.350  1.00  0.00     0.074 A 
ATOM     54  C   UNL A   1      42.350  33.069  29.645  1.00  0.00     0.049 A 
ATOM     55  N   UNL A   1      44.548  31.149  28.859  1.00  0.00    -0.248 NA
ATOM     56  C   UNL A   1      43.124  29.396  29.455  1.00  0.00     0.031 C 
ATOM     57  C   UNL A   1      41.323  34.037  30.019  1.00  0.00     0.029 A 
ATOM     58  N   UNL A   1      43.366  33.831  29.124  1.00  0.00    -0.354 N 
ATOM     59  C   UNL A   1      45.181  29.935  28.620  1.00  0.00     0.074 A 
ATOM     60  C   UNL A   1      44.266  28.890  29.019  1.00  0.00     0.031 C 
ATOM     61  C   UNL A   1      41.782  35.274  29.760  1.00  0.00     0.029 A 
ATOM     62  C   UNL A   1      43.148  35.181  29.241  1.00  0.00     0.049 A 
ATOM     63  H   UNL A   1      44.172  33.447  28.708  1.00  0.00     0.167 HD
ATOM     64  C   UNL A   1      46.421  29.714  28.126  1.00  0.00     0.037 A 
ATOM     65  C   UNL A   1      43.976  36.217  29.002  1.00  0.00     0.037 A 
ATOM     66  C   UNL A   1      47.336  30.755  27.748  1.00  0.00     0.049 A 
ATOM     67  C   UNL A   1      45.376  35.952  28.511  1.00  0.00     0.074 A 
ATOM     68  C   UNL A   1      48.610  30.638  27.225  1.00  0.00     0.029 A 
ATOM     69  N   UNL A   1      47.072  32.111  27.870  1.00  0.00    -0.354 N 
ATOM     70  N   UNL A   1      45.968  34.807  28.272  1.00  0.00    -0.248 NA
ATOM     71  C   UNL A   1      46.227  37.126  28.262  1.00  0.00     0.031 C 
ATOM     72  C   UNL A   1      49.136  31.926  27.071  1.00  0.00     0.029 A 
ATOM     73  C   UNL A   1      48.171  32.844  27.454  1.00  0.00     0.049 A 
ATOM     74  H   UNL A   1      46.229  32.496  28.202  1.00  0.00     0.167 HD
ATOM     75  C   UNL A   1      47.246  35.118  27.826  1.00  0.00     0.074 A 
ATOM     76  C   UNL A   1      47.345  36.563  27.823  1.00  0.00     0.031 C 
ATOM     77  C   UNL A   1      48.245  34.283  27.449  1.00  0.00     0.037 A 
BRANCH  64  78
ATOM     78  C   UNL A   1      46.867  28.287  28.029  1.00  0.00     0.064 A 
ATOM     79  C   UNL A   1      47.516  27.641  29.092  1.00  0.00     0.173 A 
ATOM     80  C   UNL A   1      46.662  27.563  26.845  1.00  0.00     0.173 A 
ATOM     81  F   UNL A   1      47.752  28.298  30.238  1.00  0.00    -0.203 F 
ATOM     82  C   UNL A   1      47.976  26.334  28.960  1.00  0.00     0.198 A 
ATOM     83  C   UNL A   1      47.100  26.247  26.725  1.00  0.00     0.198 A 
ATOM     84  F   UNL A   1      46.046  28.135  25.800  1.00  0.00    -0.203 F 
ATOM     85  F   UNL A   1      48.645  25.755  29.967  1.00  0.00    -0.200 F 
ATOM     86  C   UNL A   1      47.766  25.638  27.778  1.00  0.00     0.200 A 
ATOM     87  F   UNL A   1      46.890  25.573  25.587  1.00  0.00    -0.200 F 
ATOM     88  F   UNL A   1      48.215  24.381  27.651  1.00  0.00    -0.200 F 
ENDBRANCH  64  78
BRANCH  65  89
ATOM     89  C   UNL A   1      43.511  37.602  29.266  1.00  0.00     0.064 A 
ATOM     90  C   UNL A   1      43.868  38.272  30.443  1.00  0.00     0.173 A 
ATOM     91  C   UNL A   1      42.708  38.287  28.341  1.00  0.00     0.173 A 
ATOM     92  F   UNL A   1      44.609  37.649  31.370  1.00  0.00    -0.203 F 
ATOM     93  C   UNL A   1      43.437  39.575  30.686  1.00  0.00     0.198 A 
ATOM     94  C   UNL A   1      42.297  39.597  28.575  1.00  0.00     0.198 A 
ATOM     95  F   UNL A   1      42.333  37.684  27.202  1.00  0.00    -0.203 F 
ATOM     96  F   UNL A   1      43.768  40.184  31.834  1.00  0.00    -0.200 F 
ATOM     97  C   UNL A   1      42.660  40.239  29.750  1.00  0.00     0.200 A 
ATOM     98  F   UNL A   1      41.552  40.237  27.663  1.00  0.00    -0.200 F 
ATOM     99  F   UNL A   1      42.254  41.494  29.980  1.00  0.00    -0.200 F 
ENDBRANCH  65  89
BRANCH  77 100
ATOM    100  C   UNL A   1      49.523  34.900  26.962  1.00  0.00     0.064 A 
ATOM    101  C   UNL A   1      50.630  35.063  27.807  1.00  0.00     0.173 A 
ATOM    102  C   UNL A   1      49.665  35.257  25.613  1.00  0.00     0.173 A 
ATOM    103  F   UNL A   1      50.538  34.747  29.108  1.00  0.00    -0.203 F 
ATOM    104  C   UNL A   1      51.832  35.568  27.319  1.00  0.00     0.198 A 
ATOM    105  C   UNL A   1      50.875  35.739  25.123  1.00  0.00     0.198 A 
ATOM    106  F   UNL A   1      48.636  35.113  24.764  1.00  0.00    -0.203 F 
ATOM    107  F   UNL A   1      52.871  35.739  28.147  1.00  0.00    -0.200 F 
ATOM    108  C   UNL A   1      51.956  35.897  25.977  1.00  0.00     0.200 A 
ATOM    109  F   UNL A   1      50.997  36.045  23.824  1.00  0.00    -0.200 F 
ATOM    110  F   UNL A   1      53.120  36.368  25.506  1.00  0.00    -0.200 F 
ENDBRANCH  77 100
ENDBRANCH  51  52
ENDBRANCH  44  46
ENDBRANCH  43  44
ENDBRANCH  42  43
ENDBRANCH  41  42
ENDBRANCH  40  41
ENDBRANCH  39  40
ENDBRANCH  38  39
ENDBRANCH  37  38
ENDBRANCH  36  37
ENDBRANCH   1  36
TORSDOF 26
ENDMDL
MODEL 3
REMARK VINA RESULT:      -9.4      1.787      2.507
REMARK SMILES O=C(CCCN1C(=O)C(=O)/C(=C(/[O-])c2ccc(Cl)cc2)[C@@H]1c1ccccc1[N+](=O)[O-])OCCOCCOCCOCCOC(=O)c1ccc(-c2c3nc(c(-c4c(F)c(F)c(F)c(F)c4F)c4ccc([nH]4)c(-c4c(F)c(F)c(F)c(F)c4F)c4nc(c(-c5c(F)c(F)c(F)c(F)c5F)c5ccc2[nH]5)C=C4)C=C3)cc1
REMARK SMILES IDX 35 1 34 2 33 3 32 4 31 5 2 6 1 7 3 8 4 9 5 10 6 11 7 12
REMARK SMILES IDX 21 13 8 14 9 15 11 16 10 17 12 18 13 19 22 20 23 21 27 22
REMARK SMILES IDX 24 23 26 24 25 25 28 26 29 27 30 28 14 29 15 30 20 31 16 32
REMARK SMILES IDX 19 33 17 34 18 35 36 36 37 37 38 38 39 39 40 40 41 41 42 42
REMARK SMILES IDX 43 43 44 44 45 45 46 46 47 47 108 48 48 49 107 50 49 51
REMARK SMILES IDX 50 52 51 53 101 54 52 55 106 56 100 57 102 58 53 59 105 60
REMARK SMILES IDX 99 61 98 62 54 64 86 65 66 66 85 67 67 68 70 69 84 70 103 71
REMARK SMILES IDX 68 72 69 73 83 75 104 76 71 77 55 78 56 79 64 80 57 81 58 82
REMARK SMILES IDX 62 83 65 84 59 85 60 86 63 87 61 88 87 89 88 90 96 91 89 92
REMARK SMILES IDX 90 93 94 94 97 95 91 96 92 97 95 98 93 99 72 100 73 101
REMARK SMILES IDX 81 102 74 103 75 104 79 105 82 106 76 107 77 108 80 109
REMARK SMILES IDX 78 110
REMARK H PARENT 102 63 70 74
REMARK Flexibility Score: inf
ROOT
ATOM      1  C   UNL A   1      33.437  32.836  28.323  1.00  0.00     0.188 C 
ENDROOT
BRANCH   1   2
ATOM      2  O   UNL A   1      32.599  33.099  27.203  1.00  0.00    -0.376 OA
BRANCH   2   3
ATOM      3  C   UNL A   1      31.609  32.140  26.872  1.00  0.00     0.202 C 
BRANCH   3   4
ATOM      4  C   UNL A   1      32.261  30.791  26.537  1.00  0.00     0.261 C 
BRANCH   4   5
ATOM      5  O   UNL A   1      31.493  29.698  27.068  1.00  0.00    -0.463 OA
BRANCH   5   6
ATOM      6  C   UNL A   1      32.226  28.596  27.374  1.00  0.00     0.305 C 
ATOM      7  O   UNL A   1      33.424  28.618  27.645  1.00  0.00    -0.252 OA
BRANCH   6   8
ATOM      8  C   UNL A   1      31.465  27.302  27.172  1.00  0.00     0.124 C 
BRANCH   8   9
ATOM      9  C   UNL A   1      30.854  26.962  25.810  1.00  0.00     0.033 C 
BRANCH   9  10
ATOM     10  C   UNL A   1      30.813  25.523  25.280  1.00  0.00     0.121 C 
BRANCH  10  11
ATOM     11  N   UNL A   1      32.026  24.710  25.202  1.00  0.00    -0.324 N 
ATOM     12  C   UNL A   1      32.447  23.830  26.174  1.00  0.00     0.295 C 
ATOM     13  C   UNL A   1      33.032  24.813  24.139  1.00  0.00     0.157 C 
ATOM     14  O   UNL A   1      31.794  23.122  26.891  1.00  0.00    -0.265 OA
ATOM     15  C   UNL A   1      33.970  23.748  26.045  1.00  0.00     0.248 C 
ATOM     16  C   UNL A   1      34.241  24.040  24.629  1.00  0.00     0.025 C 
ATOM     17  O   UNL A   1      34.760  23.562  26.940  1.00  0.00    -0.283 OA
ATOM     18  C   UNL A   1      35.290  23.542  23.955  1.00  0.00    -0.092 C 
ATOM     19  O   UNL A   1      35.356  23.674  22.580  1.00  0.00    -0.872 OA
BRANCH  13  20
ATOM     20  C   UNL A   1      33.355  26.200  23.601  1.00  0.00     0.057 A 
ATOM     21  C   UNL A   1      33.931  27.101  24.526  1.00  0.00     0.013 A 
ATOM     22  C   UNL A   1      33.127  26.700  22.303  1.00  0.00     0.275 A 
ATOM     23  C   UNL A   1      34.286  28.405  24.173  1.00  0.00     0.001 A 
ATOM     24  C   UNL A   1      33.516  28.003  21.933  1.00  0.00     0.086 A 
ATOM     25  C   UNL A   1      34.095  28.851  22.872  1.00  0.00     0.007 A 
BRANCH  22  26
ATOM     26  N   UNL A   1      32.460  25.927  21.264  1.00  0.00     0.063 N 
ATOM     27  O   UNL A   1      33.179  25.262  20.505  1.00  0.00    -0.258 OA
ATOM     28  O   UNL A   1      31.230  26.014  21.191  1.00  0.00    -0.258 OA
ENDBRANCH  22  26
ENDBRANCH  13  20
BRANCH  18  29
ATOM     29  C   UNL A   1      36.450  22.853  24.560  1.00  0.00    -0.033 A 
ATOM     30  C   UNL A   1      36.625  21.463  24.508  1.00  0.00     0.009 A 
ATOM     31  C   UNL A   1      37.411  23.630  25.227  1.00  0.00     0.009 A 
ATOM     32  C   UNL A   1      37.709  20.859  25.156  1.00  0.00     0.021 A 
ATOM     33  C   UNL A   1      38.503  23.030  25.859  1.00  0.00     0.021 A 
ATOM     34  C   UNL A   1      38.640  21.644  25.833  1.00  0.00     0.041 A 
ATOM     35  Cl  UNL A   1      39.961  20.901  26.649  1.00  0.00    -0.084 Cl
ENDBRANCH  18  29
ENDBRANCH  10  11
ENDBRANCH   9  10
ENDBRANCH   8   9
ENDBRANCH   6   8
ENDBRANCH   5   6
ENDBRANCH   4   5
ENDBRANCH   3   4
ENDBRANCH   2   3
ENDBRANCH   1   2
BRANCH   1  36
ATOM     36  C   UNL A   1      34.929  32.998  28.012  1.00  0.00     0.188 C 
BRANCH  36  37
ATOM     37  O   UNL A   1      35.771  31.870  28.253  1.00  0.00    -0.377 OA
BRANCH  37  38
ATOM     38  C   UNL A   1      36.300  31.712  29.562  1.00  0.00     0.188 C 
BRANCH  38  39
ATOM     39  C   UNL A   1      36.653  33.056  30.221  1.00  0.00     0.188 C 
BRANCH  39  40
ATOM     40  O   UNL A   1      36.138  33.312  31.525  1.00  0.00    -0.376 OA
BRANCH  40  41
ATOM     41  C   UNL A   1      36.212  32.254  32.482  1.00  0.00     0.202 C 
BRANCH  41  42
ATOM     42  C   UNL A   1      37.335  32.342  33.528  1.00  0.00     0.261 C 
BRANCH  42  43
ATOM     43  O   UNL A   1      37.910  31.053  33.827  1.00  0.00    -0.460 OA
BRANCH  43  44
ATOM     44  C   UNL A   1      37.939  30.157  32.813  1.00  0.00     0.338 C 
ATOM     45  O   UNL A   1      37.036  29.421  32.450  1.00  0.00    -0.246 OA
BRANCH  44  46
ATOM     46  C   UNL A   1      39.189  30.317  32.040  1.00  0.00     0.060 A 
ATOM     47  C   UNL A   1      40.349  30.714  32.723  1.00  0.00     0.016 A 
ATOM     48  C   UNL A   1      39.209  30.154  30.654  1.00  0.00     0.016 A 
ATOM     49  C   UNL A   1      41.521  30.997  32.021  1.00  0.00     0.010 A 
ATOM     50  C   UNL A   1      40.371  30.471  29.947  1.00  0.00     0.010 A 
ATOM     51  C   UNL A   1      41.515  30.934  30.623  1.00  0.00    -0.014 A 
BRANCH  51  52
ATOM     52  C   UNL A   1      42.589  31.586  29.836  1.00  0.00     0.031 A 
ATOM     53  C   UNL A   1      43.741  30.733  29.384  1.00  0.00     0.074 A 
ATOM     54  C   UNL A   1      42.589  32.906  29.596  1.00  0.00     0.049 A 
ATOM     55  N   UNL A   1      44.892  31.086  28.873  1.00  0.00    -0.248 NA
ATOM     56  C   UNL A   1      43.573  29.280  29.547  1.00  0.00     0.031 C 
ATOM     57  C   UNL A   1      41.510  33.828  29.938  1.00  0.00     0.029 A 
ATOM     58  N   UNL A   1      43.558  33.704  29.040  1.00  0.00    -0.354 N 
ATOM     59  C   UNL A   1      45.592  29.903  28.678  1.00  0.00     0.074 A 
ATOM     60  C   UNL A   1      44.740  28.823  29.124  1.00  0.00     0.031 C 
ATOM     61  C   UNL A   1      41.896  35.078  29.628  1.00  0.00     0.029 A 
ATOM     62  C   UNL A   1      43.262  35.044  29.105  1.00  0.00     0.049 A 
ATOM     63  H   UNL A   1      44.383  33.351  28.634  1.00  0.00     0.167 HD
ATOM     64  C   UNL A   1      46.841  29.733  28.185  1.00  0.00     0.037 A 
ATOM     65  C   UNL A   1      44.028  36.115  28.820  1.00  0.00     0.037 A 
ATOM     66  C   UNL A   1      47.693  30.809  27.761  1.00  0.00     0.049 A 
ATOM     67  C   UNL A   1      45.440  35.912  28.331  1.00  0.00     0.074 A 
ATOM     68  C   UNL A   1      48.970  30.745  27.235  1.00  0.00     0.029 A 
ATOM     69  N   UNL A   1      47.351  32.152  27.831  1.00  0.00    -0.354 N 
ATOM     70  N   UNL A   1      46.096  34.794  28.134  1.00  0.00    -0.248 NA
ATOM     71  C   UNL A   1      46.221  37.122  28.030  1.00  0.00     0.031 C 
ATOM     72  C   UNL A   1      49.420  32.054  27.027  1.00  0.00     0.029 A 
ATOM     73  C   UNL A   1      48.404  32.929  27.380  1.00  0.00     0.049 A 
ATOM     74  H   UNL A   1      46.489  32.501  28.153  1.00  0.00     0.167 HD
ATOM     75  C   UNL A   1      47.352  35.160  27.667  1.00  0.00     0.074 A 
ATOM     76  C   UNL A   1      47.368  36.607  27.607  1.00  0.00     0.031 C 
ATOM     77  C   UNL A   1      48.396  34.369  27.317  1.00  0.00     0.037 A 
BRANCH  64  78
ATOM     78  C   UNL A   1      47.368  28.332  28.142  1.00  0.00     0.064 A 
ATOM     79  C   UNL A   1      48.149  27.803  29.181  1.00  0.00     0.173 A 
ATOM     80  C   UNL A   1      47.106  27.514  27.033  1.00  0.00     0.173 A 
ATOM     81  F   UNL A   1      48.443  28.554  30.254  1.00  0.00    -0.203 F 
ATOM     82  C   UNL A   1      48.679  26.519  29.093  1.00  0.00     0.198 A 
ATOM     83  C   UNL A   1      47.616  26.220  26.961  1.00  0.00     0.198 A 
ATOM     84  F   UNL A   1      46.364  27.972  26.014  1.00  0.00    -0.203 F 
ATOM     85  F   UNL A   1      49.471  26.054  30.070  1.00  0.00    -0.200 F 
ATOM     86  C   UNL A   1      48.411  25.728  27.985  1.00  0.00     0.200 A 
ATOM     87  F   UNL A   1      47.350  25.456  25.894  1.00  0.00    -0.200 F 
ATOM     88  F   UNL A   1      48.927  24.495  27.900  1.00  0.00    -0.200 F 
ENDBRANCH  64  78
BRANCH  65  89
ATOM     89  C   UNL A   1      43.485  37.480  29.032  1.00  0.00     0.064 A 
ATOM     90  C   UNL A   1      43.786  38.205  30.192  1.00  0.00     0.173 A 
ATOM     91  C   UNL A   1      42.663  38.091  28.073  1.00  0.00     0.173 A 
ATOM     92  F   UNL A   1      44.543  37.652  31.150  1.00  0.00    -0.203 F 
ATOM     93  C   UNL A   1      43.282  39.490  30.387  1.00  0.00     0.198 A 
ATOM     94  C   UNL A   1      42.179  39.384  28.258  1.00  0.00     0.198 A 
ATOM     95  F   UNL A   1      42.341  37.434  26.948  1.00  0.00    -0.203 F 
ATOM     96  F   UNL A   1      43.560  40.151  31.519  1.00  0.00    -0.200 F 
ATOM     97  C   UNL A   1      42.486  40.081  29.417  1.00  0.00     0.200 A 
ATOM     98  F   UNL A   1      41.416  39.954  27.315  1.00  0.00    -0.200 F 
ATOM     99  F   UNL A   1      42.009  41.320  29.601  1.00  0.00    -0.200 F 
ENDBRANCH  65  89
BRANCH  77 100
ATOM    100  C   UNL A   1      49.634  35.039  26.799  1.00  0.00     0.064 A 
ATOM    101  C   UNL A   1      49.749  35.438  25.460  1.00  0.00     0.173 A 
ATOM    102  C   UNL A   1      50.683  35.357  27.674  1.00  0.00     0.173 A 
ATOM    103  F   UNL A   1      48.777  35.146  24.583  1.00  0.00    -0.203 F 
ATOM    104  C   UNL A   1      50.875  36.125  25.014  1.00  0.00     0.198 A 
ATOM    105  C   UNL A   1      51.796  36.065  27.231  1.00  0.00     0.198 A 
ATOM    106  F   UNL A   1      50.616  35.002  28.966  1.00  0.00    -0.203 F 
ATOM    107  F   UNL A   1      50.977  36.477  23.725  1.00  0.00    -0.200 F 
ATOM    108  C   UNL A   1      51.893  36.446  25.901  1.00  0.00     0.200 A 
ATOM    109  F   UNL A   1      52.772  36.384  28.091  1.00  0.00    -0.200 F 
ATOM    110  F   UNL A   1      52.968  37.122  25.473  1.00  0.00    -0.200 F 
ENDBRANCH  77 100
ENDBRANCH  51  52
ENDBRANCH  44  46
ENDBRANCH  43  44
ENDBRANCH  42  43
ENDBRANCH  41  42
ENDBRANCH  40  41
ENDBRANCH  39  40
ENDBRANCH  38  39
ENDBRANCH  37  38
ENDBRANCH  36  37
ENDBRANCH   1  36
TORSDOF 26
ENDMDL
