MODEL 1
REMARK VINA RESULT:     -12.0      0.000      0.000
REMARK SMILES O=C(OCCOCCOCCOCCOC(=O)c1ccc(C(F)(F)F)nc1SC1CCOCC1)c1ccc(-c2c3nc(c(-c4c(F)c(F)c(F)c(F)c4F)c4ccc([nH]4)c(-c4c(F)c(F)c(F)c(F)c4F)c4nc(c(-c5c(F)c(F)c(F)c(F)c5F)c5ccc2[nH]5)C=C4)C=C3)cc1
REMARK SMILES IDX 9 1 8 2 7 3 6 4 5 5 4 6 3 7 2 8 1 9 35 10 36 11 97 12 37 13
REMARK SMILES IDX 96 14 38 15 39 16 40 17 90 18 41 19 95 20 89 21 91 22 42 23
REMARK SMILES IDX 94 24 88 25 87 26 43 28 75 29 55 30 74 31 56 32 59 33 73 34
REMARK SMILES IDX 92 35 57 36 58 37 72 39 93 40 60 41 44 42 45 43 53 44 46 45
REMARK SMILES IDX 47 46 51 47 54 48 48 49 49 50 52 51 50 52 76 53 77 54 85 55
REMARK SMILES IDX 78 56 79 57 83 58 86 59 80 60 81 61 84 62 82 63 61 64 62 65
REMARK SMILES IDX 70 66 63 67 64 68 68 69 71 70 65 71 66 72 69 73 67 74 10 75
REMARK SMILES IDX 11 76 12 77 13 78 14 79 15 80 16 81 17 82 18 83 19 84 27 85
REMARK SMILES IDX 20 86 26 87 21 88 28 89 29 90 30 91 34 92 31 93 33 94 32 95
REMARK SMILES IDX 22 96 23 97 24 98 25 99
REMARK H PARENT 91 27 59 38
REMARK Flexibility Score: inf
ROOT
ATOM      1  O   UNL A   1      37.992  23.102  25.771  1.00  0.00    -0.377 OA
ENDROOT
BRANCH   1   2
ATOM      2  C   UNL A   1      38.692  21.861  25.860  1.00  0.00     0.188 C 
BRANCH   2   3
ATOM      3  C   UNL A   1      40.109  21.791  26.417  1.00  0.00     0.188 C 
BRANCH   3   4
ATOM      4  O   UNL A   1      40.343  20.613  27.154  1.00  0.00    -0.376 OA
BRANCH   4   5
ATOM      5  C   UNL A   1      40.866  19.527  26.388  1.00  0.00     0.202 C 
BRANCH   5   6
ATOM      6  C   UNL A   1      42.394  19.546  26.357  1.00  0.00     0.261 C 
BRANCH   6   7
ATOM      7  O   UNL A   1      42.827  19.322  25.005  1.00  0.00    -0.460 OA
BRANCH   7   8
ATOM      8  C   UNL A   1      44.167  19.398  24.795  1.00  0.00     0.338 C 
ATOM      9  O   UNL A   1      44.948  18.479  24.628  1.00  0.00    -0.246 OA
BRANCH   8  10
ATOM     10  C   UNL A   1      44.544  20.822  24.924  1.00  0.00     0.060 A 
ATOM     11  C   UNL A   1      45.261  21.209  26.062  1.00  0.00     0.016 A 
ATOM     12  C   UNL A   1      44.217  21.762  23.948  1.00  0.00     0.016 A 
ATOM     13  C   UNL A   1      45.615  22.525  26.266  1.00  0.00     0.010 A 
ATOM     14  C   UNL A   1      44.546  23.104  24.165  1.00  0.00     0.010 A 
ATOM     15  C   UNL A   1      45.223  23.482  25.338  1.00  0.00    -0.014 A 
BRANCH  15  16
ATOM     16  C   UNL A   1      45.337  24.884  25.764  1.00  0.00     0.031 A 
ATOM     17  C   UNL A   1      46.671  25.543  25.592  1.00  0.00     0.074 A 
ATOM     18  C   UNL A   1      44.246  25.576  26.131  1.00  0.00     0.049 A 
ATOM     19  N   UNL A   1      47.074  26.718  25.991  1.00  0.00    -0.248 NA
ATOM     20  C   UNL A   1      47.689  24.778  24.846  1.00  0.00     0.031 C 
ATOM     21  C   UNL A   1      42.876  25.057  26.129  1.00  0.00     0.029 A 
ATOM     22  N   UNL A   1      44.117  26.867  26.568  1.00  0.00    -0.354 N 
ATOM     23  C   UNL A   1      48.400  26.808  25.594  1.00  0.00     0.074 A 
ATOM     24  C   UNL A   1      48.733  25.590  24.894  1.00  0.00     0.031 C 
ATOM     25  C   UNL A   1      42.049  26.014  26.583  1.00  0.00     0.029 A 
ATOM     26  C   UNL A   1      42.842  27.176  26.972  1.00  0.00     0.049 A 
ATOM     27  H   UNL A   1      44.863  27.509  26.589  1.00  0.00     0.167 HD
ATOM     28  C   UNL A   1      49.261  27.823  25.827  1.00  0.00     0.037 A 
ATOM     29  C   UNL A   1      42.400  28.251  27.653  1.00  0.00     0.037 A 
ATOM     30  C   UNL A   1      48.878  29.025  26.512  1.00  0.00     0.049 A 
ATOM     31  C   UNL A   1      43.412  29.312  28.014  1.00  0.00     0.074 A 
ATOM     32  C   UNL A   1      49.654  30.120  26.835  1.00  0.00     0.029 A 
ATOM     33  N   UNL A   1      47.596  29.280  26.982  1.00  0.00    -0.354 N 
ATOM     34  N   UNL A   1      44.684  29.386  27.696  1.00  0.00    -0.248 NA
ATOM     35  C   UNL A   1      42.939  30.426  28.845  1.00  0.00     0.031 C 
ATOM     36  C   UNL A   1      48.859  31.007  27.567  1.00  0.00     0.029 A 
ATOM     37  C   UNL A   1      47.570  30.495  27.639  1.00  0.00     0.049 A 
ATOM     38  H   UNL A   1      46.822  28.684  26.865  1.00  0.00     0.167 HD
ATOM     39  C   UNL A   1      45.158  30.555  28.274  1.00  0.00     0.074 A 
ATOM     40  C   UNL A   1      44.028  31.175  28.936  1.00  0.00     0.031 C 
ATOM     41  C   UNL A   1      46.412  31.072  28.274  1.00  0.00     0.037 A 
BRANCH  28  42
ATOM     42  C   UNL A   1      50.695  27.632  25.440  1.00  0.00     0.064 A 
ATOM     43  C   UNL A   1      51.169  27.887  24.147  1.00  0.00     0.173 A 
ATOM     44  C   UNL A   1      51.620  27.209  26.408  1.00  0.00     0.173 A 
ATOM     45  F   UNL A   1      50.322  28.264  23.177  1.00  0.00    -0.203 F 
ATOM     46  C   UNL A   1      52.517  27.717  23.834  1.00  0.00     0.198 A 
ATOM     47  C   UNL A   1      52.969  27.066  26.099  1.00  0.00     0.198 A 
ATOM     48  F   UNL A   1      51.214  26.938  27.658  1.00  0.00    -0.203 F 
ATOM     49  F   UNL A   1      52.945  27.929  22.582  1.00  0.00    -0.200 F 
ATOM     50  C   UNL A   1      53.417  27.318  24.812  1.00  0.00     0.200 A 
ATOM     51  F   UNL A   1      53.835  26.685  27.049  1.00  0.00    -0.200 F 
ATOM     52  F   UNL A   1      54.714  27.169  24.512  1.00  0.00    -0.200 F 
ENDBRANCH  28  42
BRANCH  29  53
ATOM     53  C   UNL A   1      40.993  28.326  28.136  1.00  0.00     0.064 A 
ATOM     54  C   UNL A   1      39.980  28.906  27.360  1.00  0.00     0.173 A 
ATOM     55  C   UNL A   1      40.643  27.880  29.422  1.00  0.00     0.173 A 
ATOM     56  F   UNL A   1      40.259  29.371  26.134  1.00  0.00    -0.203 F 
ATOM     57  C   UNL A   1      38.689  29.071  27.863  1.00  0.00     0.198 A 
ATOM     58  C   UNL A   1      39.344  28.007  29.908  1.00  0.00     0.198 A 
ATOM     59  F   UNL A   1      41.568  27.320  30.217  1.00  0.00    -0.203 F 
ATOM     60  F   UNL A   1      37.761  29.698  27.126  1.00  0.00    -0.200 F 
ATOM     61  C   UNL A   1      38.371  28.618  29.135  1.00  0.00     0.200 A 
ATOM     62  F   UNL A   1      39.040  27.551  31.131  1.00  0.00    -0.200 F 
ATOM     63  F   UNL A   1      37.133  28.786  29.620  1.00  0.00    -0.200 F 
ENDBRANCH  29  53
BRANCH  41  64
ATOM     64  C   UNL A   1      46.613  32.370  28.994  1.00  0.00     0.064 A 
ATOM     65  C   UNL A   1      47.018  32.407  30.335  1.00  0.00     0.173 A 
ATOM     66  C   UNL A   1      46.472  33.588  28.311  1.00  0.00     0.173 A 
ATOM     67  F   UNL A   1      47.153  31.267  31.032  1.00  0.00    -0.203 F 
ATOM     68  C   UNL A   1      47.258  33.619  30.974  1.00  0.00     0.198 A 
ATOM     69  C   UNL A   1      46.749  34.796  28.942  1.00  0.00     0.198 A 
ATOM     70  F   UNL A   1      46.096  33.602  27.023  1.00  0.00    -0.203 F 
ATOM     71  F   UNL A   1      47.603  33.634  32.268  1.00  0.00    -0.200 F 
ATOM     72  C   UNL A   1      47.135  34.810  30.274  1.00  0.00     0.200 A 
ATOM     73  F   UNL A   1      46.651  35.943  28.259  1.00  0.00    -0.200 F 
ATOM     74  F   UNL A   1      47.387  35.975  30.885  1.00  0.00    -0.200 F 
ENDBRANCH  41  64
ENDBRANCH  15  16
ENDBRANCH   8  10
ENDBRANCH   7   8
ENDBRANCH   6   7
ENDBRANCH   5   6
ENDBRANCH   4   5
ENDBRANCH   3   4
ENDBRANCH   2   3
ENDBRANCH   1   2
BRANCH   1  75
ATOM     75  C   UNL A   1      36.605  23.357  26.120  1.00  0.00     0.188 C 
BRANCH  75  76
ATOM     76  C   UNL A   1      35.485  22.094  26.061  1.00  0.00     0.188 C 
BRANCH  76  77
ATOM     77  O   UNL A   1      34.116  21.439  24.750  1.00  0.00    -0.376 OA
BRANCH  77  78
ATOM     78  C   UNL A   1      33.857  22.380  23.163  1.00  0.00     0.202 C 
BRANCH  78  79
ATOM     79  C   UNL A   1      34.736  24.034  22.940  1.00  0.00     0.261 C 
BRANCH  79  80
ATOM     80  O   UNL A   1      34.022  25.381  22.176  1.00  0.00    -0.460 OA
BRANCH  80  81
ATOM     81  C   UNL A   1      32.950  26.147  22.705  1.00  0.00     0.340 C 
ATOM     82  O   UNL A   1      32.725  27.264  22.243  1.00  0.00    -0.246 OA
BRANCH  81  83
ATOM     83  C   UNL A   1      32.059  25.653  23.988  1.00  0.00     0.092 A 
ATOM     84  C   UNL A   1      31.191  24.623  23.572  1.00  0.00     0.021 A 
ATOM     85  C   UNL A   1      32.109  25.852  25.482  1.00  0.00     0.112 A 
ATOM     86  C   UNL A   1      30.502  23.809  24.491  1.00  0.00     0.034 A 
ATOM     87  N   UNL A   1      31.448  24.998  26.332  1.00  0.00    -0.236 NA
ATOM     88  C   UNL A   1      30.689  23.982  25.860  1.00  0.00     0.145 A 
BRANCH  85  89
ATOM     89  S   UNL A   1      32.561  27.329  26.853  1.00  0.00    -0.102 SA
BRANCH  89  90
ATOM     90  C   UNL A   1      33.966  28.903  26.258  1.00  0.00     0.058 C 
ATOM     91  C   UNL A   1      34.736  30.369  27.244  1.00  0.00     0.043 C 
ATOM     92  C   UNL A   1      33.087  29.326  25.007  1.00  0.00     0.043 C 
ATOM     93  C   UNL A   1      33.472  31.802  27.787  1.00  0.00     0.161 C 
ATOM     94  C   UNL A   1      31.749  30.246  25.402  1.00  0.00     0.161 C 
ATOM     95  O   UNL A   1      31.791  31.304  26.937  1.00  0.00    -0.381 OA
ENDBRANCH  89  90
ENDBRANCH  85  89
BRANCH  88  96
ATOM     96  C   UNL A   1      30.022  23.051  26.873  1.00  0.00     0.433 C 
ATOM     97  F   UNL A   1      29.702  21.828  26.356  1.00  0.00    -0.165 F 
ATOM     98  F   UNL A   1      30.799  22.803  27.966  1.00  0.00    -0.165 F 
ATOM     99  F   UNL A   1      28.848  23.547  27.368  1.00  0.00    -0.165 F 
ENDBRANCH  88  96
ENDBRANCH  81  83
ENDBRANCH  80  81
ENDBRANCH  79  80
ENDBRANCH  78  79
ENDBRANCH  77  78
ENDBRANCH  76  77
ENDBRANCH  75  76
ENDBRANCH   1  75
TORSDOF 23
ENDMDL
MODEL 2
REMARK VINA RESULT:     -11.9      5.252      9.521
REMARK SMILES O=C(OCCOCCOCCOCCOC(=O)c1ccc(C(F)(F)F)nc1SC1CCOCC1)c1ccc(-c2c3nc(c(-c4c(F)c(F)c(F)c(F)c4F)c4ccc([nH]4)c(-c4c(F)c(F)c(F)c(F)c4F)c4nc(c(-c5c(F)c(F)c(F)c(F)c5F)c5ccc2[nH]5)C=C4)C=C3)cc1
REMARK SMILES IDX 9 1 8 2 7 3 6 4 5 5 4 6 3 7 2 8 1 9 35 10 36 11 97 12 37 13
REMARK SMILES IDX 96 14 38 15 39 16 40 17 90 18 41 19 95 20 89 21 91 22 42 23
REMARK SMILES IDX 94 24 88 25 87 26 43 28 75 29 55 30 74 31 56 32 59 33 73 34
REMARK SMILES IDX 92 35 57 36 58 37 72 39 93 40 60 41 44 42 45 43 53 44 46 45
REMARK SMILES IDX 47 46 51 47 54 48 48 49 49 50 52 51 50 52 76 53 77 54 85 55
REMARK SMILES IDX 78 56 79 57 83 58 86 59 80 60 81 61 84 62 82 63 61 64 62 65
REMARK SMILES IDX 70 66 63 67 64 68 68 69 71 70 65 71 66 72 69 73 67 74 10 75
REMARK SMILES IDX 11 76 12 77 13 78 14 79 15 80 16 81 17 82 18 83 19 84 27 85
REMARK SMILES IDX 20 86 26 87 21 88 28 89 29 90 30 91 34 92 31 93 33 94 32 95
REMARK SMILES IDX 22 96 23 97 24 98 25 99
REMARK H PARENT 91 27 59 38
REMARK Flexibility Score: inf
ROOT
ATOM      1  O   UNL A   1      40.148  23.187  27.068  1.00  0.00    -0.377 OA
ENDROOT
BRANCH   1   2
ATOM      2  C   UNL A   1      40.234  21.779  26.853  1.00  0.00     0.188 C 
BRANCH   2   3
ATOM      3  C   UNL A   1      41.497  21.001  27.206  1.00  0.00     0.188 C 
BRANCH   3   4
ATOM      4  O   UNL A   1      42.671  21.755  27.010  1.00  0.00    -0.376 OA
BRANCH   4   5
ATOM      5  C   UNL A   1      43.337  21.505  25.771  1.00  0.00     0.202 C 
BRANCH   5   6
ATOM      6  C   UNL A   1      43.316  22.735  24.863  1.00  0.00     0.261 C 
BRANCH   6   7
ATOM      7  O   UNL A   1      42.951  23.879  25.653  1.00  0.00    -0.460 OA
BRANCH   7   8
ATOM      8  C   UNL A   1      43.808  24.931  25.597  1.00  0.00     0.338 C 
ATOM      9  O   UNL A   1      44.632  25.175  24.735  1.00  0.00    -0.246 OA
BRANCH   8  10
ATOM     10  C   UNL A   1      43.646  25.687  26.857  1.00  0.00     0.060 A 
ATOM     11  C   UNL A   1      42.986  25.059  27.919  1.00  0.00     0.016 A 
ATOM     12  C   UNL A   1      44.142  26.982  27.008  1.00  0.00     0.016 A 
ATOM     13  C   UNL A   1      42.767  25.716  29.110  1.00  0.00     0.010 A 
ATOM     14  C   UNL A   1      43.895  27.665  28.204  1.00  0.00     0.010 A 
ATOM     15  C   UNL A   1      43.186  27.033  29.242  1.00  0.00    -0.014 A 
BRANCH  15  16
ATOM     16  C   UNL A   1      42.644  27.775  30.389  1.00  0.00     0.031 A 
ATOM     17  C   UNL A   1      41.319  28.447  30.203  1.00  0.00     0.074 A 
ATOM     18  C   UNL A   1      43.241  27.703  31.590  1.00  0.00     0.049 A 
ATOM     19  N   UNL A   1      40.679  29.256  31.002  1.00  0.00    -0.248 NA
ATOM     20  C   UNL A   1      40.603  28.148  28.948  1.00  0.00     0.031 C 
ATOM     21  C   UNL A   1      44.427  26.901  31.899  1.00  0.00     0.029 A 
ATOM     22  N   UNL A   1      42.926  28.307  32.778  1.00  0.00    -0.354 N 
ATOM     23  C   UNL A   1      39.519  29.602  30.325  1.00  0.00     0.074 A 
ATOM     24  C   UNL A   1      39.518  28.897  29.065  1.00  0.00     0.031 C 
ATOM     25  C   UNL A   1      44.760  27.094  33.186  1.00  0.00     0.029 A 
ATOM     26  C   UNL A   1      43.857  28.086  33.761  1.00  0.00     0.049 A 
ATOM     27  H   UNL A   1      42.112  28.845  32.912  1.00  0.00     0.167 HD
ATOM     28  C   UNL A   1      38.558  30.462  30.727  1.00  0.00     0.037 A 
ATOM     29  C   UNL A   1      43.993  28.688  34.959  1.00  0.00     0.037 A 
ATOM     30  C   UNL A   1      38.592  31.127  32.000  1.00  0.00     0.049 A 
ATOM     31  C   UNL A   1      42.975  29.740  35.329  1.00  0.00     0.074 A 
ATOM     32  C   UNL A   1      37.698  32.039  32.523  1.00  0.00     0.029 A 
ATOM     33  N   UNL A   1      39.591  30.945  32.947  1.00  0.00    -0.354 N 
ATOM     34  N   UNL A   1      41.902  30.122  34.674  1.00  0.00    -0.248 NA
ATOM     35  C   UNL A   1      43.194  30.463  36.588  1.00  0.00     0.031 C 
ATOM     36  C   UNL A   1      38.195  32.465  33.758  1.00  0.00     0.029 A 
ATOM     37  C   UNL A   1      39.362  31.766  34.034  1.00  0.00     0.049 A 
ATOM     38  H   UNL A   1      40.349  30.323  32.858  1.00  0.00     0.167 HD
ATOM     39  C   UNL A   1      41.314  31.115  35.445  1.00  0.00     0.074 A 
ATOM     40  C   UNL A   1      42.132  31.254  36.633  1.00  0.00     0.031 C 
ATOM     41  C   UNL A   1      40.207  31.858  35.199  1.00  0.00     0.037 A 
BRANCH  28  42
ATOM     42  C   UNL A   1      37.469  30.805  29.758  1.00  0.00     0.064 A 
ATOM     43  C   UNL A   1      37.396  32.044  29.110  1.00  0.00     0.173 A 
ATOM     44  C   UNL A   1      36.488  29.847  29.455  1.00  0.00     0.173 A 
ATOM     45  F   UNL A   1      38.290  33.006  29.386  1.00  0.00    -0.203 F 
ATOM     46  C   UNL A   1      36.377  32.316  28.198  1.00  0.00     0.198 A 
ATOM     47  C   UNL A   1      35.488  30.111  28.526  1.00  0.00     0.198 A 
ATOM     48  F   UNL A   1      36.504  28.649  30.060  1.00  0.00    -0.203 F 
ATOM     49  F   UNL A   1      36.303  33.520  27.616  1.00  0.00    -0.200 F 
ATOM     50  C   UNL A   1      35.431  31.345  27.899  1.00  0.00     0.200 A 
ATOM     51  F   UNL A   1      34.579  29.169  28.236  1.00  0.00    -0.200 F 
ATOM     52  F   UNL A   1      34.460  31.604  27.012  1.00  0.00    -0.200 F 
ENDBRANCH  28  42
BRANCH  29  53
ATOM     53  C   UNL A   1      45.172  28.413  35.825  1.00  0.00     0.064 A 
ATOM     54  C   UNL A   1      46.374  29.117  35.675  1.00  0.00     0.173 A 
ATOM     55  C   UNL A   1      45.145  27.384  36.782  1.00  0.00     0.173 A 
ATOM     56  F   UNL A   1      46.468  30.095  34.762  1.00  0.00    -0.203 F 
ATOM     57  C   UNL A   1      47.508  28.780  36.415  1.00  0.00     0.198 A 
ATOM     58  C   UNL A   1      46.265  27.075  37.551  1.00  0.00     0.198 A 
ATOM     59  F   UNL A   1      44.026  26.668  36.972  1.00  0.00    -0.203 F 
ATOM     60  F   UNL A   1      48.664  29.421  36.195  1.00  0.00    -0.200 F 
ATOM     61  C   UNL A   1      47.451  27.762  37.356  1.00  0.00     0.200 A 
ATOM     62  F   UNL A   1      46.197  26.102  38.470  1.00  0.00    -0.200 F 
ATOM     63  F   UNL A   1      48.543  27.432  38.060  1.00  0.00    -0.200 F 
ENDBRANCH  29  53
BRANCH  41  64
ATOM     64  C   UNL A   1      39.816  32.865  36.238  1.00  0.00     0.064 A 
ATOM     65  C   UNL A   1      40.373  34.151  36.255  1.00  0.00     0.173 A 
ATOM     66  C   UNL A   1      38.820  32.561  37.178  1.00  0.00     0.173 A 
ATOM     67  F   UNL A   1      41.339  34.480  35.383  1.00  0.00    -0.203 F 
ATOM     68  C   UNL A   1      39.958  35.094  37.189  1.00  0.00     0.198 A 
ATOM     69  C   UNL A   1      38.381  33.519  38.086  1.00  0.00     0.198 A 
ATOM     70  F   UNL A   1      38.250  31.347  37.193  1.00  0.00    -0.203 F 
ATOM     71  F   UNL A   1      40.533  36.304  37.216  1.00  0.00    -0.200 F 
ATOM     72  C   UNL A   1      38.955  34.781  38.094  1.00  0.00     0.200 A 
ATOM     73  F   UNL A   1      37.398  33.222  38.945  1.00  0.00    -0.200 F 
ATOM     74  F   UNL A   1      38.542  35.698  38.980  1.00  0.00    -0.200 F 
ENDBRANCH  41  64
ENDBRANCH  15  16
ENDBRANCH   8  10
ENDBRANCH   7   8
ENDBRANCH   6   7
ENDBRANCH   5   6
ENDBRANCH   4   5
ENDBRANCH   3   4
ENDBRANCH   2   3
ENDBRANCH   1   2
BRANCH   1  75
ATOM     75  C   UNL A   1      39.126  24.092  26.573  1.00  0.00     0.188 C 
BRANCH  75  76
ATOM     76  C   UNL A   1      37.775  23.466  25.774  1.00  0.00     0.188 C 
BRANCH  76  77
ATOM     77  O   UNL A   1      35.863  24.016  25.523  1.00  0.00    -0.376 OA
BRANCH  77  78
ATOM     78  C   UNL A   1      34.627  23.638  26.865  1.00  0.00     0.202 C 
BRANCH  78  79
ATOM     79  C   UNL A   1      34.210  21.834  27.226  1.00  0.00     0.261 C 
BRANCH  79  80
ATOM     80  O   UNL A   1      33.544  20.774  26.066  1.00  0.00    -0.460 OA
BRANCH  80  81
ATOM     81  C   UNL A   1      32.588  21.138  25.082  1.00  0.00     0.340 C 
ATOM     82  O   UNL A   1      31.730  20.323  24.749  1.00  0.00    -0.246 OA
BRANCH  81  83
ATOM     83  C   UNL A   1      32.642  22.566  24.282  1.00  0.00     0.092 A 
ATOM     84  C   UNL A   1      33.479  22.429  23.156  1.00  0.00     0.021 A 
ATOM     85  C   UNL A   1      31.863  23.858  24.316  1.00  0.00     0.112 A 
ATOM     86  C   UNL A   1      33.510  23.386  22.124  1.00  0.00     0.034 A 
ATOM     87  N   UNL A   1      31.900  24.734  23.259  1.00  0.00    -0.236 NA
ATOM     88  C   UNL A   1      32.675  24.498  22.174  1.00  0.00     0.145 A 
BRANCH  85  89
ATOM     89  S   UNL A   1      30.945  25.100  25.688  1.00  0.00    -0.102 SA
BRANCH  89  90
ATOM     90  C   UNL A   1      32.197  26.493  26.827  1.00  0.00     0.058 C 
ATOM     91  C   UNL A   1      31.808  28.206  27.619  1.00  0.00     0.043 C 
ATOM     92  C   UNL A   1      33.330  26.509  25.716  1.00  0.00     0.043 C 
ATOM     93  C   UNL A   1      31.449  29.686  26.341  1.00  0.00     0.161 C 
ATOM     94  C   UNL A   1      32.957  27.452  24.387  1.00  0.00     0.161 C 
ATOM     95  O   UNL A   1      31.804  28.903  24.592  1.00  0.00    -0.381 OA
ENDBRANCH  89  90
ENDBRANCH  85  89
BRANCH  88  96
ATOM     96  C   UNL A   1      32.625  25.503  21.022  1.00  0.00     0.433 C 
ATOM     97  F   UNL A   1      31.405  26.098  20.875  1.00  0.00    -0.165 F 
ATOM     98  F   UNL A   1      33.523  26.521  21.160  1.00  0.00    -0.165 F 
ATOM     99  F   UNL A   1      32.898  24.941  19.807  1.00  0.00    -0.165 F 
ENDBRANCH  88  96
ENDBRANCH  81  83
ENDBRANCH  80  81
ENDBRANCH  79  80
ENDBRANCH  78  79
ENDBRANCH  77  78
ENDBRANCH  76  77
ENDBRANCH  75  76
ENDBRANCH   1  75
TORSDOF 23
ENDMDL
MODEL 3
REMARK VINA RESULT:     -11.5      5.994      9.372
REMARK SMILES O=C(OCCOCCOCCOCCOC(=O)c1ccc(C(F)(F)F)nc1SC1CCOCC1)c1ccc(-c2c3nc(c(-c4c(F)c(F)c(F)c(F)c4F)c4ccc([nH]4)c(-c4c(F)c(F)c(F)c(F)c4F)c4nc(c(-c5c(F)c(F)c(F)c(F)c5F)c5ccc2[nH]5)C=C4)C=C3)cc1
REMARK SMILES IDX 9 1 8 2 7 3 6 4 5 5 4 6 3 7 2 8 1 9 35 10 36 11 97 12 37 13
REMARK SMILES IDX 96 14 38 15 39 16 40 17 90 18 41 19 95 20 89 21 91 22 42 23
REMARK SMILES IDX 94 24 88 25 87 26 43 28 75 29 55 30 74 31 56 32 59 33 73 34
REMARK SMILES IDX 92 35 57 36 58 37 72 39 93 40 60 41 44 42 45 43 53 44 46 45
REMARK SMILES IDX 47 46 51 47 54 48 48 49 49 50 52 51 50 52 76 53 77 54 85 55
REMARK SMILES IDX 78 56 79 57 83 58 86 59 80 60 81 61 84 62 82 63 61 64 62 65
REMARK SMILES IDX 70 66 63 67 64 68 68 69 71 70 65 71 66 72 69 73 67 74 10 75
REMARK SMILES IDX 11 76 12 77 13 78 14 79 15 80 16 81 17 82 18 83 19 84 27 85
REMARK SMILES IDX 20 86 26 87 21 88 28 89 29 90 30 91 34 92 31 93 33 94 32 95
REMARK SMILES IDX 22 96 23 97 24 98 25 99
REMARK H PARENT 91 27 59 38
REMARK Flexibility Score: inf
ROOT
ATOM      1  O   UNL A   1      41.688  21.421  26.457  1.00  0.00    -0.377 OA
ENDROOT
BRANCH   1   2
ATOM      2  C   UNL A   1      43.042  21.124  26.118  1.00  0.00     0.188 C 
BRANCH   2   3
ATOM      3  C   UNL A   1      43.962  22.187  25.530  1.00  0.00     0.188 C 
BRANCH   3   4
ATOM      4  O   UNL A   1      45.300  22.037  25.946  1.00  0.00    -0.376 OA
BRANCH   4   5
ATOM      5  C   UNL A   1      46.012  23.265  26.108  1.00  0.00     0.202 C 
BRANCH   5   6
ATOM      6  C   UNL A   1      46.214  23.977  24.770  1.00  0.00     0.261 C 
BRANCH   6   7
ATOM      7  O   UNL A   1      45.584  25.267  24.840  1.00  0.00    -0.460 OA
BRANCH   7   8
ATOM      8  C   UNL A   1      46.427  26.332  24.883  1.00  0.00     0.338 C 
ATOM      9  O   UNL A   1      47.518  26.439  24.355  1.00  0.00    -0.246 OA
BRANCH   8  10
ATOM     10  C   UNL A   1      45.826  27.321  25.803  1.00  0.00     0.060 A 
ATOM     11  C   UNL A   1      46.677  28.002  26.680  1.00  0.00     0.016 A 
ATOM     12  C   UNL A   1      44.458  27.591  25.802  1.00  0.00     0.016 A 
ATOM     13  C   UNL A   1      46.183  28.910  27.590  1.00  0.00     0.010 A 
ATOM     14  C   UNL A   1      43.946  28.490  26.745  1.00  0.00     0.010 A 
ATOM     15  C   UNL A   1      44.812  29.127  27.652  1.00  0.00    -0.014 A 
BRANCH  15  16
ATOM     16  C   UNL A   1      44.320  29.843  28.838  1.00  0.00     0.031 A 
ATOM     17  C   UNL A   1      44.098  31.317  28.702  1.00  0.00     0.074 A 
ATOM     18  C   UNL A   1      43.934  29.165  29.931  1.00  0.00     0.049 A 
ATOM     19  N   UNL A   1      43.789  32.197  29.614  1.00  0.00    -0.248 NA
ATOM     20  C   UNL A   1      44.221  31.876  27.342  1.00  0.00     0.031 C 
ATOM     21  C   UNL A   1      43.931  27.706  30.064  1.00  0.00     0.029 A 
ATOM     22  N   UNL A   1      43.463  29.613  31.135  1.00  0.00    -0.354 N 
ATOM     23  C   UNL A   1      43.735  33.414  28.949  1.00  0.00     0.074 A 
ATOM     24  C   UNL A   1      44.009  33.165  27.554  1.00  0.00     0.031 C 
ATOM     25  C   UNL A   1      43.512  27.383  31.299  1.00  0.00     0.029 A 
ATOM     26  C   UNL A   1      43.294  28.610  32.058  1.00  0.00     0.049 A 
ATOM     27  H   UNL A   1      43.263  30.559  31.320  1.00  0.00     0.167 HD
ATOM     28  C   UNL A   1      43.500  34.632  29.483  1.00  0.00     0.037 A 
ATOM     29  C   UNL A   1      43.066  28.700  33.383  1.00  0.00     0.037 A 
ATOM     30  C   UNL A   1      43.213  34.829  30.876  1.00  0.00     0.049 A 
ATOM     31  C   UNL A   1      42.936  30.082  33.976  1.00  0.00     0.074 A 
ATOM     32  C   UNL A   1      42.980  36.010  31.553  1.00  0.00     0.029 A 
ATOM     33  N   UNL A   1      43.126  33.801  31.807  1.00  0.00    -0.354 N 
ATOM     34  N   UNL A   1      42.940  31.248  33.370  1.00  0.00    -0.248 NA
ATOM     35  C   UNL A   1      42.794  30.168  35.435  1.00  0.00     0.031 C 
ATOM     36  C   UNL A   1      42.824  35.702  32.908  1.00  0.00     0.029 A 
ATOM     37  C   UNL A   1      42.891  34.324  33.063  1.00  0.00     0.049 A 
ATOM     38  H   UNL A   1      43.217  32.843  31.601  1.00  0.00     0.167 HD
ATOM     39  C   UNL A   1      42.788  32.200  34.368  1.00  0.00     0.074 A 
ATOM     40  C   UNL A   1      42.662  31.475  35.615  1.00  0.00     0.031 C 
ATOM     41  C   UNL A   1      42.764  33.553  34.274  1.00  0.00     0.037 A 
BRANCH  28  42
ATOM     42  C   UNL A   1      43.648  35.830  28.596  1.00  0.00     0.064 A 
ATOM     43  C   UNL A   1      42.557  36.443  27.966  1.00  0.00     0.173 A 
ATOM     44  C   UNL A   1      44.920  36.391  28.399  1.00  0.00     0.173 A 
ATOM     45  F   UNL A   1      41.325  35.929  28.096  1.00  0.00    -0.203 F 
ATOM     46  C   UNL A   1      42.735  37.570  27.165  1.00  0.00     0.198 A 
ATOM     47  C   UNL A   1      45.091  37.531  27.621  1.00  0.00     0.198 A 
ATOM     48  F   UNL A   1      46.000  35.833  28.969  1.00  0.00    -0.203 F 
ATOM     49  F   UNL A   1      41.685  38.120  26.540  1.00  0.00    -0.200 F 
ATOM     50  C   UNL A   1      44.000  38.119  27.002  1.00  0.00     0.200 A 
ATOM     51  F   UNL A   1      46.314  38.060  27.472  1.00  0.00    -0.200 F 
ATOM     52  F   UNL A   1      44.167  39.210  26.243  1.00  0.00    -0.200 F 
ENDBRANCH  28  42
BRANCH  29  53
ATOM     53  C   UNL A   1      43.068  27.485  34.243  1.00  0.00     0.064 A 
ATOM     54  C   UNL A   1      41.891  26.771  34.508  1.00  0.00     0.173 A 
ATOM     55  C   UNL A   1      44.242  27.049  34.881  1.00  0.00     0.173 A 
ATOM     56  F   UNL A   1      40.735  27.153  33.946  1.00  0.00    -0.203 F 
ATOM     57  C   UNL A   1      41.881  25.699  35.401  1.00  0.00     0.198 A 
ATOM     58  C   UNL A   1      44.240  25.952  35.741  1.00  0.00     0.198 A 
ATOM     59  F   UNL A   1      45.401  27.692  34.673  1.00  0.00    -0.203 F 
ATOM     60  F   UNL A   1      40.726  25.084  35.693  1.00  0.00    -0.200 F 
ATOM     61  C   UNL A   1      43.056  25.288  36.014  1.00  0.00     0.200 A 
ATOM     62  F   UNL A   1      45.382  25.551  36.315  1.00  0.00    -0.200 F 
ATOM     63  F   UNL A   1      43.044  24.265  36.879  1.00  0.00    -0.200 F 
ENDBRANCH  29  53
BRANCH  41  64
ATOM     64  C   UNL A   1      42.580  34.321  35.548  1.00  0.00     0.064 A 
ATOM     65  C   UNL A   1      43.670  34.654  36.364  1.00  0.00     0.173 A 
ATOM     66  C   UNL A   1      41.310  34.792  35.913  1.00  0.00     0.173 A 
ATOM     67  F   UNL A   1      44.901  34.213  36.061  1.00  0.00    -0.203 F 
ATOM     68  C   UNL A   1      43.492  35.418  37.513  1.00  0.00     0.198 A 
ATOM     69  C   UNL A   1      41.141  35.586  37.042  1.00  0.00     0.198 A 
ATOM     70  F   UNL A   1      40.239  34.508  35.156  1.00  0.00    -0.203 F 
ATOM     71  F   UNL A   1      44.539  35.688  38.303  1.00  0.00    -0.200 F 
ATOM     72  C   UNL A   1      42.231  35.893  37.843  1.00  0.00     0.200 A 
ATOM     73  F   UNL A   1      39.928  36.063  37.347  1.00  0.00    -0.200 F 
ATOM     74  F   UNL A   1      42.065  36.645  38.939  1.00  0.00    -0.200 F 
ENDBRANCH  41  64
ENDBRANCH  15  16
ENDBRANCH   8  10
ENDBRANCH   7   8
ENDBRANCH   6   7
ENDBRANCH   5   6
ENDBRANCH   4   5
ENDBRANCH   3   4
ENDBRANCH   2   3
ENDBRANCH   1   2
BRANCH   1  75
ATOM     75  C   UNL A   1      41.019  22.706  26.364  1.00  0.00     0.188 C 
BRANCH  75  76
ATOM     76  C   UNL A   1      40.405  23.429  27.762  1.00  0.00     0.188 C 
BRANCH  76  77
ATOM     77  O   UNL A   1      39.419  25.119  28.200  1.00  0.00    -0.376 OA
BRANCH  77  78
ATOM     78  C   UNL A   1      40.389  26.641  28.666  1.00  0.00     0.202 C 
BRANCH  78  79
ATOM     79  C   UNL A   1      39.641  27.841  29.913  1.00  0.00     0.261 C 
BRANCH  79  80
ATOM     80  O   UNL A   1      40.449  29.236  30.474  1.00  0.00    -0.460 OA
BRANCH  80  81
ATOM     81  C   UNL A   1      39.853  30.514  30.636  1.00  0.00     0.340 C 
ATOM     82  O   UNL A   1      39.944  31.338  29.728  1.00  0.00    -0.246 OA
BRANCH  81  83
ATOM     83  C   UNL A   1      39.138  30.986  32.032  1.00  0.00     0.092 A 
ATOM     84  C   UNL A   1      39.464  30.064  33.047  1.00  0.00     0.021 A 
ATOM     85  C   UNL A   1      38.452  32.234  32.531  1.00  0.00     0.112 A 
ATOM     86  C   UNL A   1      39.234  30.337  34.409  1.00  0.00     0.034 A 
ATOM     87  N   UNL A   1      38.294  32.465  33.876  1.00  0.00    -0.236 NA
ATOM     88  C   UNL A   1      38.700  31.562  34.799  1.00  0.00     0.145 A 
BRANCH  85  89
ATOM     89  S   UNL A   1      37.192  33.715  31.834  1.00  0.00    -0.102 SA
BRANCH  89  90
ATOM     90  C   UNL A   1      35.288  33.116  30.925  1.00  0.00     0.058 C 
ATOM     91  C   UNL A   1      34.123  34.022  29.687  1.00  0.00     0.043 C 
ATOM     92  C   UNL A   1      34.636  32.768  32.329  1.00  0.00     0.043 C 
ATOM     93  C   UNL A   1      33.196  35.632  30.394  1.00  0.00     0.161 C 
ATOM     94  C   UNL A   1      34.149  34.111  33.198  1.00  0.00     0.161 C 
ATOM     95  O   UNL A   1      33.671  35.665  32.284  1.00  0.00    -0.381 OA
ENDBRANCH  89  90
ENDBRANCH  85  89
BRANCH  88  96
ATOM     96  C   UNL A   1      38.526  31.915  36.276  1.00  0.00     0.433 C 
ATOM     97  F   UNL A   1      37.790  30.997  36.969  1.00  0.00    -0.165 F 
ATOM     98  F   UNL A   1      39.710  32.026  36.944  1.00  0.00    -0.165 F 
ATOM     99  F   UNL A   1      37.887  33.107  36.472  1.00  0.00    -0.165 F 
ENDBRANCH  88  96
ENDBRANCH  81  83
ENDBRANCH  80  81
ENDBRANCH  79  80
ENDBRANCH  78  79
ENDBRANCH  77  78
ENDBRANCH  76  77
ENDBRANCH  75  76
ENDBRANCH   1  75
TORSDOF 23
ENDMDL
