MODEL 1
REMARK VINA RESULT:     -10.4      0.000      0.000
REMARK SMILES CC[C@@](C)(NS(=O)(=O)Cc1ccccc1)C(=O)OCCOCCOCCOCCOC(=O)c1ccc(-c2c3nc(c(-c4c(F)c(F)c(F)c(F)c4F)c4ccc([nH]4)c(-c4c(F)c(F)c(F)c(F)c4F)c4nc(c(-c5c(F)c(F)c(F)c(F)c5F)c5ccc2[nH]5)C=C4)C=C3)cc1
REMARK SMILES IDX 23 1 22 2 21 3 20 4 19 5 18 6 16 7 17 8 3 9 4 10 2 11 1 12
REMARK SMILES IDX 5 13 6 15 7 16 8 17 9 18 10 19 11 20 15 21 12 22 14 23 13 24
REMARK SMILES IDX 24 25 25 26 26 27 27 28 28 29 29 30 30 31 31 32 32 33 33 34
REMARK SMILES IDX 34 35 95 36 35 37 94 38 36 39 37 40 38 41 88 42 39 43 93 44
REMARK SMILES IDX 87 45 89 46 40 47 92 48 86 49 85 50 41 52 73 53 53 54 72 55
REMARK SMILES IDX 54 56 57 57 71 58 90 59 55 60 56 61 70 63 91 64 58 65 42 66
REMARK SMILES IDX 43 67 51 68 44 69 45 70 49 71 52 72 46 73 47 74 50 75 48 76
REMARK SMILES IDX 74 77 75 78 83 79 76 80 77 81 81 82 84 83 78 84 79 85 82 86
REMARK SMILES IDX 80 87 59 88 60 89 68 90 61 91 62 92 66 93 69 94 63 95 64 96
REMARK SMILES IDX 67 97 65 98
REMARK H PARENT 5 14 89 51 57 62
REMARK Flexibility Score: inf
ROOT
ATOM      1  C   UNL A   1      34.916  24.654  24.887  1.00  0.00     0.188 C 
ENDROOT
BRANCH   1   2
ATOM      2  C   UNL A   1      34.706  23.195  24.139  1.00  0.00     0.188 C 
BRANCH   2   3
ATOM      3  O   UNL A   1      34.765  21.908  24.760  1.00  0.00    -0.376 OA
BRANCH   3   4
ATOM      4  C   UNL A   1      35.928  21.321  25.364  1.00  0.00     0.202 C 
BRANCH   4   5
ATOM      5  C   UNL A   1      37.302  21.149  24.664  1.00  0.00     0.261 C 
BRANCH   5   6
ATOM      6  O   UNL A   1      38.389  20.875  25.548  1.00  0.00    -0.462 OA
BRANCH   6   7
ATOM      7  C   UNL A   1      39.105  21.960  25.942  1.00  0.00     0.327 C 
ATOM      8  O   UNL A   1      38.610  23.071  26.101  1.00  0.00    -0.250 OA
BRANCH   7   9
ATOM      9  C   UNL A   1      40.566  21.606  26.280  1.00  0.00     0.127 C 
ATOM     10  C   UNL A   1      40.781  21.961  27.746  1.00  0.00     0.042 C 
BRANCH   9  11
ATOM     11  C   UNL A   1      40.823  20.039  26.141  1.00  0.00     0.032 C 
ATOM     12  C   UNL A   1      41.551  19.308  27.270  1.00  0.00     0.006 C 
ENDBRANCH   9  11
BRANCH   9  13
ATOM     13  N   UNL A   1      41.606  22.245  25.398  1.00  0.00    -0.198 NA
ATOM     14  H   UNL A   1      41.148  23.085  25.046  1.00  0.00     0.142 HD
BRANCH  13  15
ATOM     15  S   UNL A   1      43.151  22.744  25.747  1.00  0.00     0.216 S 
ATOM     16  O   UNL A   1      43.875  21.584  26.221  1.00  0.00    -0.212 OA
ATOM     17  O   UNL A   1      43.576  23.333  24.489  1.00  0.00    -0.212 OA
BRANCH  15  18
ATOM     18  C   UNL A   1      43.228  24.048  27.079  1.00  0.00     0.189 C 
BRANCH  18  19
ATOM     19  C   UNL A   1      44.477  24.924  27.009  1.00  0.00    -0.032 A 
ATOM     20  C   UNL A   1      44.561  26.243  25.794  1.00  0.00     0.005 A 
ATOM     21  C   UNL A   1      45.959  24.159  27.570  1.00  0.00     0.005 A 
ATOM     22  C   UNL A   1      46.159  26.657  24.987  1.00  0.00     0.000 A 
ATOM     23  C   UNL A   1      47.514  24.492  26.817  1.00  0.00     0.000 A 
ATOM     24  C   UNL A   1      47.642  25.699  25.514  1.00  0.00     0.000 A 
ENDBRANCH  18  19
ENDBRANCH  15  18
ENDBRANCH  13  15
ENDBRANCH   9  13
ENDBRANCH   7   9
ENDBRANCH   6   7
ENDBRANCH   5   6
ENDBRANCH   4   5
ENDBRANCH   3   4
ENDBRANCH   2   3
ENDBRANCH   1   2
BRANCH   1  25
ATOM     25  O   UNL A   1      33.761  25.705  25.359  1.00  0.00    -0.377 OA
BRANCH  25  26
ATOM     26  C   UNL A   1      33.619  27.436  26.369  1.00  0.00     0.188 C 
BRANCH  26  27
ATOM     27  C   UNL A   1      33.230  29.073  25.716  1.00  0.00     0.188 C 
BRANCH  27  28
ATOM     28  O   UNL A   1      33.460  30.390  26.236  1.00  0.00    -0.376 OA
BRANCH  28  29
ATOM     29  C   UNL A   1      32.840  31.100  27.295  1.00  0.00     0.202 C 
BRANCH  29  30
ATOM     30  C   UNL A   1      33.403  32.388  27.933  1.00  0.00     0.261 C 
BRANCH  30  31
ATOM     31  O   UNL A   1      32.699  33.594  27.636  1.00  0.00    -0.460 OA
BRANCH  31  32
ATOM     32  C   UNL A   1      33.008  34.633  28.444  1.00  0.00     0.338 C 
ATOM     33  O   UNL A   1      32.358  35.653  28.598  1.00  0.00    -0.246 OA
BRANCH  32  34
ATOM     34  C   UNL A   1      34.153  34.244  29.309  1.00  0.00     0.060 A 
ATOM     35  C   UNL A   1      35.447  34.410  28.787  1.00  0.00     0.016 A 
ATOM     36  C   UNL A   1      33.987  33.788  30.618  1.00  0.00     0.016 A 
ATOM     37  C   UNL A   1      36.573  34.143  29.559  1.00  0.00     0.010 A 
ATOM     38  C   UNL A   1      35.118  33.427  31.366  1.00  0.00     0.010 A 
ATOM     39  C   UNL A   1      36.413  33.563  30.820  1.00  0.00    -0.014 A 
BRANCH  39  40
ATOM     40  C   UNL A   1      37.536  32.726  31.324  1.00  0.00     0.031 A 
ATOM     41  C   UNL A   1      38.018  33.029  32.721  1.00  0.00     0.074 A 
ATOM     42  C   UNL A   1      38.056  31.682  30.655  1.00  0.00     0.049 A 
ATOM     43  N   UNL A   1      39.000  32.502  33.405  1.00  0.00    -0.248 NA
ATOM     44  C   UNL A   1      37.281  34.082  33.444  1.00  0.00     0.031 C 
ATOM     45  C   UNL A   1      37.628  31.203  29.344  1.00  0.00     0.029 A 
ATOM     46  N   UNL A   1      39.077  30.830  31.010  1.00  0.00    -0.354 N 
ATOM     47  C   UNL A   1      39.010  33.176  34.619  1.00  0.00     0.074 A 
ATOM     48  C   UNL A   1      37.964  34.170  34.571  1.00  0.00     0.031 C 
ATOM     49  C   UNL A   1      38.397  30.154  28.995  1.00  0.00     0.029 A 
ATOM     50  C   UNL A   1      39.392  29.907  30.041  1.00  0.00     0.049 A 
ATOM     51  H   UNL A   1      39.539  30.876  31.878  1.00  0.00     0.167 HD
ATOM     52  C   UNL A   1      39.810  32.981  35.693  1.00  0.00     0.037 A 
ATOM     53  C   UNL A   1      40.385  28.992  29.999  1.00  0.00     0.037 A 
ATOM     54  C   UNL A   1      40.848  31.993  35.758  1.00  0.00     0.049 A 
ATOM     55  C   UNL A   1      41.339  28.864  31.169  1.00  0.00     0.074 A 
ATOM     56  C   UNL A   1      41.710  31.721  36.805  1.00  0.00     0.029 A 
ATOM     57  N   UNL A   1      41.172  31.119  34.732  1.00  0.00    -0.354 N 
ATOM     58  N   UNL A   1      41.347  29.503  32.314  1.00  0.00    -0.248 NA
ATOM     59  C   UNL A   1      42.427  27.881  31.034  1.00  0.00     0.031 C 
ATOM     60  C   UNL A   1      42.605  30.733  36.385  1.00  0.00     0.029 A 
ATOM     61  C   UNL A   1      42.245  30.329  35.110  1.00  0.00     0.049 A 
ATOM     62  H   UNL A   1      40.709  31.068  33.865  1.00  0.00     0.167 HD
ATOM     63  C   UNL A   1      42.406  28.973  33.045  1.00  0.00     0.074 A 
ATOM     64  C   UNL A   1      43.013  27.951  32.221  1.00  0.00     0.031 C 
ATOM     65  C   UNL A   1      42.834  29.301  34.290  1.00  0.00     0.037 A 
BRANCH  52  66
ATOM     66  C   UNL A   1      39.620  33.901  36.865  1.00  0.00     0.064 A 
ATOM     67  C   UNL A   1      40.211  35.172  36.918  1.00  0.00     0.173 A 
ATOM     68  C   UNL A   1      38.831  33.498  37.952  1.00  0.00     0.173 A 
ATOM     69  F   UNL A   1      40.994  35.597  35.914  1.00  0.00    -0.203 F 
ATOM     70  C   UNL A   1      40.050  35.989  38.033  1.00  0.00     0.198 A 
ATOM     71  C   UNL A   1      38.638  34.334  39.046  1.00  0.00     0.198 A 
ATOM     72  F   UNL A   1      38.244  32.291  37.953  1.00  0.00    -0.203 F 
ATOM     73  F   UNL A   1      40.681  37.170  38.093  1.00  0.00    -0.200 F 
ATOM     74  C   UNL A   1      39.257  35.574  39.092  1.00  0.00     0.200 A 
ATOM     75  F   UNL A   1      37.857  33.937  40.061  1.00  0.00    -0.200 F 
ATOM     76  F   UNL A   1      39.097  36.365  40.162  1.00  0.00    -0.200 F 
ENDBRANCH  52  66
BRANCH  53  77
ATOM     77  C   UNL A   1      40.566  28.131  28.795  1.00  0.00     0.064 A 
ATOM     78  C   UNL A   1      41.327  28.562  27.699  1.00  0.00     0.173 A 
ATOM     79  C   UNL A   1      39.926  26.886  28.689  1.00  0.00     0.173 A 
ATOM     80  F   UNL A   1      41.927  29.760  27.730  1.00  0.00    -0.203 F 
ATOM     81  C   UNL A   1      41.422  27.794  26.538  1.00  0.00     0.198 A 
ATOM     82  C   UNL A   1      40.052  26.103  27.544  1.00  0.00     0.198 A 
ATOM     83  F   UNL A   1      39.173  26.429  29.701  1.00  0.00    -0.203 F 
ATOM     84  F   UNL A   1      42.104  28.261  25.482  1.00  0.00    -0.200 F 
ATOM     85  C   UNL A   1      40.792  26.562  26.464  1.00  0.00     0.200 A 
ATOM     86  F   UNL A   1      39.446  24.910  27.480  1.00  0.00    -0.200 F 
ATOM     87  F   UNL A   1      40.883  25.825  25.349  1.00  0.00    -0.200 F 
ENDBRANCH  53  77
BRANCH  65  88
ATOM     88  C   UNL A   1      43.977  28.516  34.878  1.00  0.00     0.064 A 
ATOM     89  C   UNL A   1      43.777  27.326  35.592  1.00  0.00     0.173 A 
ATOM     90  C   UNL A   1      45.302  28.933  34.665  1.00  0.00     0.173 A 
ATOM     91  F   UNL A   1      42.535  26.882  35.831  1.00  0.00    -0.203 F 
ATOM     92  C   UNL A   1      44.856  26.602  36.097  1.00  0.00     0.198 A 
ATOM     93  C   UNL A   1      46.378  28.188  35.137  1.00  0.00     0.198 A 
ATOM     94  F   UNL A   1      45.556  30.056  33.976  1.00  0.00    -0.203 F 
ATOM     95  F   UNL A   1      44.637  25.496  36.823  1.00  0.00    -0.200 F 
ATOM     96  C   UNL A   1      46.155  27.028  35.862  1.00  0.00     0.200 A 
ATOM     97  F   UNL A   1      47.633  28.589  34.886  1.00  0.00    -0.200 F 
ATOM     98  F   UNL A   1      47.191  26.322  36.337  1.00  0.00    -0.200 F 
ENDBRANCH  65  88
ENDBRANCH  39  40
ENDBRANCH  32  34
ENDBRANCH  31  32
ENDBRANCH  30  31
ENDBRANCH  29  30
ENDBRANCH  28  29
ENDBRANCH  27  28
ENDBRANCH  26  27
ENDBRANCH  25  26
ENDBRANCH   1  25
TORSDOF 25
ENDMDL
MODEL 2
REMARK VINA RESULT:     -10.1      3.262     10.455
REMARK SMILES CC[C@@](C)(NS(=O)(=O)Cc1ccccc1)C(=O)OCCOCCOCCOCCOC(=O)c1ccc(-c2c3nc(c(-c4c(F)c(F)c(F)c(F)c4F)c4ccc([nH]4)c(-c4c(F)c(F)c(F)c(F)c4F)c4nc(c(-c5c(F)c(F)c(F)c(F)c5F)c5ccc2[nH]5)C=C4)C=C3)cc1
REMARK SMILES IDX 23 1 22 2 21 3 20 4 19 5 18 6 16 7 17 8 3 9 4 10 2 11 1 12
REMARK SMILES IDX 5 13 6 15 7 16 8 17 9 18 10 19 11 20 15 21 12 22 14 23 13 24
REMARK SMILES IDX 24 25 25 26 26 27 27 28 28 29 29 30 30 31 31 32 32 33 33 34
REMARK SMILES IDX 34 35 95 36 35 37 94 38 36 39 37 40 38 41 88 42 39 43 93 44
REMARK SMILES IDX 87 45 89 46 40 47 92 48 86 49 85 50 41 52 73 53 53 54 72 55
REMARK SMILES IDX 54 56 57 57 71 58 90 59 55 60 56 61 70 63 91 64 58 65 42 66
REMARK SMILES IDX 43 67 51 68 44 69 45 70 49 71 52 72 46 73 47 74 50 75 48 76
REMARK SMILES IDX 74 77 75 78 83 79 76 80 77 81 81 82 84 83 78 84 79 85 82 86
REMARK SMILES IDX 80 87 59 88 60 89 68 90 61 91 62 92 66 93 69 94 63 95 64 96
REMARK SMILES IDX 67 97 65 98
REMARK H PARENT 5 14 89 51 57 62
REMARK Flexibility Score: inf
ROOT
ATOM      1  C   UNL A   1      37.262  21.798  25.505  1.00  0.00     0.188 C 
ENDROOT
BRANCH   1   2
ATOM      2  C   UNL A   1      35.962  22.311  26.388  1.00  0.00     0.188 C 
BRANCH   2   3
ATOM      3  O   UNL A   1      34.586  22.203  26.011  1.00  0.00    -0.376 OA
BRANCH   3   4
ATOM      4  C   UNL A   1      33.898  23.070  25.096  1.00  0.00     0.202 C 
BRANCH   4   5
ATOM      5  C   UNL A   1      34.588  24.025  24.087  1.00  0.00     0.261 C 
BRANCH   5   6
ATOM      6  O   UNL A   1      33.825  25.183  23.748  1.00  0.00    -0.462 OA
BRANCH   6   7
ATOM      7  C   UNL A   1      32.735  24.954  22.970  1.00  0.00     0.327 C 
ATOM      8  O   UNL A   1      32.689  24.069  22.121  1.00  0.00    -0.250 OA
BRANCH   7   9
ATOM      9  C   UNL A   1      31.539  25.841  23.361  1.00  0.00     0.127 C 
ATOM     10  C   UNL A   1      30.279  25.015  23.134  1.00  0.00     0.042 C 
BRANCH   9  11
ATOM     11  C   UNL A   1      31.578  26.206  24.912  1.00  0.00     0.032 C 
ATOM     12  C   UNL A   1      30.955  25.233  25.915  1.00  0.00     0.006 C 
ENDBRANCH   9  11
BRANCH   9  13
ATOM     13  N   UNL A   1      31.463  27.170  22.657  1.00  0.00    -0.198 NA
ATOM     14  H   UNL A   1      30.481  27.256  22.397  1.00  0.00     0.142 HD
BRANCH  13  15
ATOM     15  S   UNL A   1      31.876  28.691  23.182  1.00  0.00     0.216 S 
ATOM     16  O   UNL A   1      33.175  28.585  23.810  1.00  0.00    -0.212 OA
ATOM     17  O   UNL A   1      31.779  29.475  21.963  1.00  0.00    -0.212 OA
BRANCH  15  18
ATOM     18  C   UNL A   1      30.689  29.388  24.442  1.00  0.00     0.189 C 
BRANCH  18  19
ATOM     19  C   UNL A   1      29.487  30.100  23.826  1.00  0.00    -0.032 A 
ATOM     20  C   UNL A   1      28.710  29.409  22.362  1.00  0.00     0.005 A 
ATOM     21  C   UNL A   1      29.415  31.833  24.115  1.00  0.00     0.005 A 
ATOM     22  C   UNL A   1      28.021  30.519  21.070  1.00  0.00     0.000 A 
ATOM     23  C   UNL A   1      28.795  32.949  22.904  1.00  0.00     0.000 A 
ATOM     24  C   UNL A   1      28.128  32.333  21.372  1.00  0.00     0.000 A 
ENDBRANCH  18  19
ENDBRANCH  15  18
ENDBRANCH  13  15
ENDBRANCH   9  13
ENDBRANCH   7   9
ENDBRANCH   6   7
ENDBRANCH   5   6
ENDBRANCH   4   5
ENDBRANCH   3   4
ENDBRANCH   2   3
ENDBRANCH   1   2
BRANCH   1  25
ATOM     25  O   UNL A   1      38.833  22.166  25.745  1.00  0.00    -0.377 OA
BRANCH  25  26
ATOM     26  C   UNL A   1      40.368  21.552  26.887  1.00  0.00     0.188 C 
BRANCH  26  27
ATOM     27  C   UNL A   1      41.489  20.168  26.589  1.00  0.00     0.188 C 
BRANCH  27  28
ATOM     28  O   UNL A   1      42.914  20.106  26.440  1.00  0.00    -0.376 OA
BRANCH  28  29
ATOM     29  C   UNL A   1      43.782  20.695  25.486  1.00  0.00     0.202 C 
BRANCH  29  30
ATOM     30  C   UNL A   1      43.758  22.185  25.083  1.00  0.00     0.261 C 
BRANCH  30  31
ATOM     31  O   UNL A   1      44.285  23.102  26.042  1.00  0.00    -0.460 OA
BRANCH  31  32
ATOM     32  C   UNL A   1      44.335  24.385  25.617  1.00  0.00     0.338 C 
ATOM     33  O   UNL A   1      44.793  24.783  24.559  1.00  0.00    -0.246 OA
BRANCH  32  34
ATOM     34  C   UNL A   1      43.525  25.226  26.536  1.00  0.00     0.060 A 
ATOM     35  C   UNL A   1      43.918  26.564  26.709  1.00  0.00     0.016 A 
ATOM     36  C   UNL A   1      42.374  24.755  27.171  1.00  0.00     0.016 A 
ATOM     37  C   UNL A   1      43.170  27.437  27.491  1.00  0.00     0.010 A 
ATOM     38  C   UNL A   1      41.671  25.607  28.036  1.00  0.00     0.010 A 
ATOM     39  C   UNL A   1      42.095  26.940  28.232  1.00  0.00    -0.014 A 
BRANCH  39  40
ATOM     40  C   UNL A   1      41.743  27.668  29.481  1.00  0.00     0.031 A 
ATOM     41  C   UNL A   1      40.479  28.491  29.438  1.00  0.00     0.074 A 
ATOM     42  C   UNL A   1      42.419  27.550  30.637  1.00  0.00     0.049 A 
ATOM     43  N   UNL A   1      39.947  29.262  30.350  1.00  0.00    -0.248 NA
ATOM     44  C   UNL A   1      39.711  28.431  28.182  1.00  0.00     0.031 C 
ATOM     45  C   UNL A   1      43.596  26.716  30.863  1.00  0.00     0.029 A 
ATOM     46  N   UNL A   1      42.194  28.154  31.854  1.00  0.00    -0.354 N 
ATOM     47  C   UNL A   1      38.804  29.793  29.767  1.00  0.00     0.074 A 
ATOM     48  C   UNL A   1      38.734  29.288  28.416  1.00  0.00     0.031 C 
ATOM     49  C   UNL A   1      44.003  26.877  32.137  1.00  0.00     0.029 A 
ATOM     50  C   UNL A   1      43.136  27.850  32.807  1.00  0.00     0.049 A 
ATOM     51  H   UNL A   1      41.428  28.747  32.026  1.00  0.00     0.167 HD
ATOM     52  C   UNL A   1      37.879  30.620  30.306  1.00  0.00     0.037 A 
ATOM     53  C   UNL A   1      43.291  28.325  34.061  1.00  0.00     0.037 A 
ATOM     54  C   UNL A   1      37.932  31.125  31.648  1.00  0.00     0.049 A 
ATOM     55  C   UNL A   1      42.305  29.336  34.609  1.00  0.00     0.074 A 
ATOM     56  C   UNL A   1      37.040  31.969  32.284  1.00  0.00     0.029 A 
ATOM     57  N   UNL A   1      38.936  30.839  32.560  1.00  0.00    -0.354 N 
ATOM     58  N   UNL A   1      41.227  29.837  34.055  1.00  0.00    -0.248 NA
ATOM     59  C   UNL A   1      42.563  29.849  35.966  1.00  0.00     0.031 C 
ATOM     60  C   UNL A   1      37.542  32.255  33.556  1.00  0.00     0.029 A 
ATOM     61  C   UNL A   1      38.702  31.519  33.744  1.00  0.00     0.049 A 
ATOM     62  H   UNL A   1      39.700  30.243  32.392  1.00  0.00     0.167 HD
ATOM     63  C   UNL A   1      40.662  30.684  35.004  1.00  0.00     0.074 A 
ATOM     64  C   UNL A   1      41.508  30.623  36.175  1.00  0.00     0.031 C 
ATOM     65  C   UNL A   1      39.539  31.441  34.913  1.00  0.00     0.037 A 
BRANCH  52  66
ATOM     66  C   UNL A   1      36.760  31.072  29.413  1.00  0.00     0.064 A 
ATOM     67  C   UNL A   1      35.689  30.229  29.076  1.00  0.00     0.173 A 
ATOM     68  C   UNL A   1      36.763  32.372  28.886  1.00  0.00     0.173 A 
ATOM     69  F   UNL A   1      35.650  28.968  29.534  1.00  0.00    -0.203 F 
ATOM     70  C   UNL A   1      34.684  30.660  28.215  1.00  0.00     0.198 A 
ATOM     71  C   UNL A   1      35.734  32.813  28.061  1.00  0.00     0.198 A 
ATOM     72  F   UNL A   1      37.763  33.217  29.176  1.00  0.00    -0.203 F 
ATOM     73  F   UNL A   1      33.709  29.816  27.851  1.00  0.00    -0.200 F 
ATOM     74  C   UNL A   1      34.702  31.953  27.716  1.00  0.00     0.200 A 
ATOM     75  F   UNL A   1      35.745  34.069  27.593  1.00  0.00    -0.200 F 
ATOM     76  F   UNL A   1      33.730  32.369  26.892  1.00  0.00    -0.200 F 
ENDBRANCH  52  66
BRANCH  53  77
ATOM     77  C   UNL A   1      44.445  27.885  34.898  1.00  0.00     0.064 A 
ATOM     78  C   UNL A   1      45.686  28.534  34.826  1.00  0.00     0.173 A 
ATOM     79  C   UNL A   1      44.349  26.764  35.736  1.00  0.00     0.173 A 
ATOM     80  F   UNL A   1      45.846  29.587  34.012  1.00  0.00    -0.203 F 
ATOM     81  C   UNL A   1      46.788  28.067  35.542  1.00  0.00     0.198 A 
ATOM     82  C   UNL A   1      45.441  26.319  36.479  1.00  0.00     0.198 A 
ATOM     83  F   UNL A   1      43.190  26.094  35.833  1.00  0.00    -0.203 F 
ATOM     84  F   UNL A   1      47.978  28.669  35.405  1.00  0.00    -0.200 F 
ATOM     85  C   UNL A   1      46.663  26.965  36.373  1.00  0.00     0.200 A 
ATOM     86  F   UNL A   1      45.313  25.258  37.286  1.00  0.00    -0.200 F 
ATOM     87  F   UNL A   1      47.723  26.516  37.060  1.00  0.00    -0.200 F 
ENDBRANCH  53  77
BRANCH  65  88
ATOM     88  C   UNL A   1      39.113  32.226  36.126  1.00  0.00     0.064 A 
ATOM     89  C   UNL A   1      38.256  31.690  37.099  1.00  0.00     0.173 A 
ATOM     90  C   UNL A   1      39.624  33.516  36.347  1.00  0.00     0.173 A 
ATOM     91  F   UNL A   1      37.733  30.466  36.939  1.00  0.00    -0.203 F 
ATOM     92  C   UNL A   1      37.903  32.427  38.228  1.00  0.00     0.198 A 
ATOM     93  C   UNL A   1      39.299  34.234  37.495  1.00  0.00     0.198 A 
ATOM     94  F   UNL A   1      40.459  34.075  35.458  1.00  0.00    -0.203 F 
ATOM     95  F   UNL A   1      37.040  31.914  39.117  1.00  0.00    -0.200 F 
ATOM     96  C   UNL A   1      38.431  33.693  38.430  1.00  0.00     0.200 A 
ATOM     97  F   UNL A   1      39.832  35.447  37.699  1.00  0.00    -0.200 F 
ATOM     98  F   UNL A   1      38.101  34.393  39.524  1.00  0.00    -0.200 F 
ENDBRANCH  65  88
ENDBRANCH  39  40
ENDBRANCH  32  34
ENDBRANCH  31  32
ENDBRANCH  30  31
ENDBRANCH  29  30
ENDBRANCH  28  29
ENDBRANCH  27  28
ENDBRANCH  26  27
ENDBRANCH  25  26
ENDBRANCH   1  25
TORSDOF 25
ENDMDL
MODEL 3
REMARK VINA RESULT:     -10.1      3.218     10.303
REMARK SMILES CC[C@@](C)(NS(=O)(=O)Cc1ccccc1)C(=O)OCCOCCOCCOCCOC(=O)c1ccc(-c2c3nc(c(-c4c(F)c(F)c(F)c(F)c4F)c4ccc([nH]4)c(-c4c(F)c(F)c(F)c(F)c4F)c4nc(c(-c5c(F)c(F)c(F)c(F)c5F)c5ccc2[nH]5)C=C4)C=C3)cc1
REMARK SMILES IDX 23 1 22 2 21 3 20 4 19 5 18 6 16 7 17 8 3 9 4 10 2 11 1 12
REMARK SMILES IDX 5 13 6 15 7 16 8 17 9 18 10 19 11 20 15 21 12 22 14 23 13 24
REMARK SMILES IDX 24 25 25 26 26 27 27 28 28 29 29 30 30 31 31 32 32 33 33 34
REMARK SMILES IDX 34 35 95 36 35 37 94 38 36 39 37 40 38 41 88 42 39 43 93 44
REMARK SMILES IDX 87 45 89 46 40 47 92 48 86 49 85 50 41 52 73 53 53 54 72 55
REMARK SMILES IDX 54 56 57 57 71 58 90 59 55 60 56 61 70 63 91 64 58 65 42 66
REMARK SMILES IDX 43 67 51 68 44 69 45 70 49 71 52 72 46 73 47 74 50 75 48 76
REMARK SMILES IDX 74 77 75 78 83 79 76 80 77 81 81 82 84 83 78 84 79 85 82 86
REMARK SMILES IDX 80 87 59 88 60 89 68 90 61 91 62 92 66 93 69 94 63 95 64 96
REMARK SMILES IDX 67 97 65 98
REMARK H PARENT 5 14 89 51 57 62
REMARK Flexibility Score: inf
ROOT
ATOM      1  C   UNL A   1      37.402  21.561  24.685  1.00  0.00     0.188 C 
ENDROOT
BRANCH   1   2
ATOM      2  C   UNL A   1      36.044  20.919  25.374  1.00  0.00     0.188 C 
BRANCH   2   3
ATOM      3  O   UNL A   1      35.219  19.888  24.822  1.00  0.00    -0.376 OA
BRANCH   3   4
ATOM      4  C   UNL A   1      33.797  19.779  24.981  1.00  0.00     0.202 C 
BRANCH   4   5
ATOM      5  C   UNL A   1      32.745  20.417  24.035  1.00  0.00     0.261 C 
BRANCH   5   6
ATOM      6  O   UNL A   1      32.616  21.833  24.160  1.00  0.00    -0.462 OA
BRANCH   6   7
ATOM      7  C   UNL A   1      32.006  22.264  25.295  1.00  0.00     0.327 C 
ATOM      8  O   UNL A   1      30.986  21.753  25.745  1.00  0.00    -0.250 OA
BRANCH   7   9
ATOM      9  C   UNL A   1      32.806  23.372  26.005  1.00  0.00     0.127 C 
ATOM     10  C   UNL A   1      33.371  22.762  27.283  1.00  0.00     0.042 C 
BRANCH   9  11
ATOM     11  C   UNL A   1      34.052  23.834  25.125  1.00  0.00     0.032 C 
ATOM     12  C   UNL A   1      33.954  25.140  24.335  1.00  0.00     0.006 C 
ENDBRANCH   9  11
BRANCH   9  13
ATOM     13  N   UNL A   1      32.044  24.639  26.288  1.00  0.00    -0.198 NA
ATOM     14  H   UNL A   1      32.758  25.367  26.265  1.00  0.00     0.142 HD
BRANCH  13  15
ATOM     15  S   UNL A   1      30.754  25.318  25.492  1.00  0.00     0.216 S 
ATOM     16  O   UNL A   1      30.592  24.594  24.250  1.00  0.00    -0.212 OA
ATOM     17  O   UNL A   1      29.691  25.208  26.477  1.00  0.00    -0.212 OA
BRANCH  15  18
ATOM     18  C   UNL A   1      31.002  27.119  25.074  1.00  0.00     0.189 C 
BRANCH  18  19
ATOM     19  C   UNL A   1      30.254  27.567  23.821  1.00  0.00    -0.032 A 
ATOM     20  C   UNL A   1      30.968  28.840  22.776  1.00  0.00     0.005 A 
ATOM     21  C   UNL A   1      28.507  27.368  23.882  1.00  0.00     0.005 A 
ATOM     22  C   UNL A   1      29.883  30.062  21.933  1.00  0.00     0.000 A 
ATOM     23  C   UNL A   1      27.417  28.521  23.122  1.00  0.00     0.000 A 
ATOM     24  C   UNL A   1      28.066  29.884  22.177  1.00  0.00     0.000 A 
ENDBRANCH  18  19
ENDBRANCH  15  18
ENDBRANCH  13  15
ENDBRANCH   9  13
ENDBRANCH   7   9
ENDBRANCH   6   7
ENDBRANCH   5   6
ENDBRANCH   4   5
ENDBRANCH   3   4
ENDBRANCH   2   3
ENDBRANCH   1   2
BRANCH   1  25
ATOM     25  O   UNL A   1      38.496  22.551  25.381  1.00  0.00    -0.377 OA
BRANCH  25  26
ATOM     26  C   UNL A   1      39.892  22.478  26.825  1.00  0.00     0.188 C 
BRANCH  26  27
ATOM     27  C   UNL A   1      41.253  21.304  26.994  1.00  0.00     0.188 C 
BRANCH  27  28
ATOM     28  O   UNL A   1      42.646  21.400  26.666  1.00  0.00    -0.376 OA
BRANCH  28  29
ATOM     29  C   UNL A   1      43.305  21.612  25.428  1.00  0.00     0.202 C 
BRANCH  29  30
ATOM     30  C   UNL A   1      43.569  22.999  24.804  1.00  0.00     0.261 C 
BRANCH  30  31
ATOM     31  O   UNL A   1      43.825  24.061  25.724  1.00  0.00    -0.460 OA
BRANCH  31  32
ATOM     32  C   UNL A   1      42.853  25.001  25.774  1.00  0.00     0.338 C 
ATOM     33  O   UNL A   1      41.914  25.117  25.005  1.00  0.00    -0.246 OA
BRANCH  32  34
ATOM     34  C   UNL A   1      42.967  25.740  27.058  1.00  0.00     0.060 A 
ATOM     35  C   UNL A   1      42.406  25.146  28.201  1.00  0.00     0.016 A 
ATOM     36  C   UNL A   1      43.654  26.950  27.172  1.00  0.00     0.016 A 
ATOM     37  C   UNL A   1      42.537  25.735  29.454  1.00  0.00     0.010 A 
ATOM     38  C   UNL A   1      43.706  27.594  28.418  1.00  0.00     0.010 A 
ATOM     39  C   UNL A   1      43.107  27.007  29.554  1.00  0.00    -0.014 A 
BRANCH  39  40
ATOM     40  C   UNL A   1      42.673  27.851  30.700  1.00  0.00     0.031 A 
ATOM     41  C   UNL A   1      41.391  28.624  30.509  1.00  0.00     0.074 A 
ATOM     42  C   UNL A   1      43.293  27.878  31.893  1.00  0.00     0.049 A 
ATOM     43  N   UNL A   1      40.793  29.471  31.307  1.00  0.00    -0.248 NA
ATOM     44  C   UNL A   1      40.690  28.407  29.231  1.00  0.00     0.031 C 
ATOM     45  C   UNL A   1      44.478  27.111  32.263  1.00  0.00     0.029 A 
ATOM     46  N   UNL A   1      42.990  28.599  33.026  1.00  0.00    -0.354 N 
ATOM     47  C   UNL A   1      39.667  29.899  30.616  1.00  0.00     0.074 A 
ATOM     48  C   UNL A   1      39.680  29.252  29.325  1.00  0.00     0.031 C 
ATOM     49  C   UNL A   1      44.815  27.419  33.530  1.00  0.00     0.029 A 
ATOM     50  C   UNL A   1      43.890  28.428  34.050  1.00  0.00     0.049 A 
ATOM     51  H   UNL A   1      42.200  29.183  33.096  1.00  0.00     0.167 HD
ATOM     52  C   UNL A   1      38.695  30.749  31.018  1.00  0.00     0.037 A 
ATOM     53  C   UNL A   1      43.968  29.038  35.252  1.00  0.00     0.037 A 
ATOM     54  C   UNL A   1      38.666  31.394  32.300  1.00  0.00     0.049 A 
ATOM     55  C   UNL A   1      42.929  30.070  35.641  1.00  0.00     0.074 A 
ATOM     56  C   UNL A   1      37.720  32.272  32.798  1.00  0.00     0.029 A 
ATOM     57  N   UNL A   1      39.629  31.239  33.284  1.00  0.00    -0.354 N 
ATOM     58  N   UNL A   1      41.868  30.474  34.986  1.00  0.00    -0.248 NA
ATOM     59  C   UNL A   1      43.103  30.731  36.946  1.00  0.00     0.031 C 
ATOM     60  C   UNL A   1      38.149  32.706  34.055  1.00  0.00     0.029 A 
ATOM     61  C   UNL A   1      39.317  32.032  34.376  1.00  0.00     0.049 A 
ATOM     62  H   UNL A   1      40.417  30.653  33.217  1.00  0.00     0.167 HD
ATOM     63  C   UNL A   1      41.232  31.398  35.810  1.00  0.00     0.074 A 
ATOM     64  C   UNL A   1      42.019  31.489  37.020  1.00  0.00     0.031 C 
ATOM     65  C   UNL A   1      40.096  32.105  35.585  1.00  0.00     0.037 A 
BRANCH  52  66
ATOM     66  C   UNL A   1      37.611  31.068  30.030  1.00  0.00     0.064 A 
ATOM     67  C   UNL A   1      36.582  30.160  29.734  1.00  0.00     0.173 A 
ATOM     68  C   UNL A   1      37.605  32.305  29.368  1.00  0.00     0.173 A 
ATOM     69  F   UNL A   1      36.554  28.954  30.322  1.00  0.00    -0.203 F 
ATOM     70  C   UNL A   1      35.610  30.465  28.785  1.00  0.00     0.198 A 
ATOM     71  C   UNL A   1      36.608  32.623  28.452  1.00  0.00     0.198 A 
ATOM     72  F   UNL A   1      38.566  33.208  29.614  1.00  0.00    -0.203 F 
ATOM     73  F   UNL A   1      34.678  29.556  28.466  1.00  0.00    -0.200 F 
ATOM     74  C   UNL A   1      35.619  31.699  28.152  1.00  0.00     0.200 A 
ATOM     75  F   UNL A   1      36.609  33.822  27.854  1.00  0.00    -0.200 F 
ATOM     76  F   UNL A   1      34.679  31.994  27.243  1.00  0.00    -0.200 F 
ENDBRANCH  52  66
BRANCH  53  77
ATOM     77  C   UNL A   1      45.089  28.726  36.185  1.00  0.00     0.064 A 
ATOM     78  C   UNL A   1      44.956  27.747  37.181  1.00  0.00     0.173 A 
ATOM     79  C   UNL A   1      46.293  29.445  36.142  1.00  0.00     0.173 A 
ATOM     80  F   UNL A   1      43.813  27.056  37.294  1.00  0.00    -0.203 F 
ATOM     81  C   UNL A   1      45.972  27.518  38.109  1.00  0.00     0.198 A 
ATOM     82  C   UNL A   1      47.322  29.190  37.046  1.00  0.00     0.198 A 
ATOM     83  F   UNL A   1      46.470  30.403  35.219  1.00  0.00    -0.203 F 
ATOM     84  F   UNL A   1      45.792  26.621  39.089  1.00  0.00    -0.200 F 
ATOM     85  C   UNL A   1      47.157  28.233  38.036  1.00  0.00     0.200 A 
ATOM     86  F   UNL A   1      48.468  29.880  36.967  1.00  0.00    -0.200 F 
ATOM     87  F   UNL A   1      48.132  28.013  38.929  1.00  0.00    -0.200 F 
ENDBRANCH  53  77
BRANCH  65  88
ATOM     88  C   UNL A   1      39.587  32.999  36.686  1.00  0.00     0.064 A 
ATOM     89  C   UNL A   1      38.581  32.592  37.573  1.00  0.00     0.173 A 
ATOM     90  C   UNL A   1      40.165  34.264  36.891  1.00  0.00     0.173 A 
ATOM     91  F   UNL A   1      37.989  31.399  37.423  1.00  0.00    -0.203 F 
ATOM     92  C   UNL A   1      38.151  33.428  38.603  1.00  0.00     0.198 A 
ATOM     93  C   UNL A   1      39.760  35.080  37.943  1.00  0.00     0.198 A 
ATOM     94  F   UNL A   1      41.142  34.701  36.082  1.00  0.00    -0.203 F 
ATOM     95  F   UNL A   1      37.151  33.039  39.405  1.00  0.00    -0.200 F 
ATOM     96  C   UNL A   1      38.747  34.666  38.793  1.00  0.00     0.200 A 
ATOM     97  F   UNL A   1      40.356  36.265  38.139  1.00  0.00    -0.200 F 
ATOM     98  F   UNL A   1      38.341  35.462  39.792  1.00  0.00    -0.200 F 
ENDBRANCH  65  88
ENDBRANCH  39  40
ENDBRANCH  32  34
ENDBRANCH  31  32
ENDBRANCH  30  31
ENDBRANCH  29  30
ENDBRANCH  28  29
ENDBRANCH  27  28
ENDBRANCH  26  27
ENDBRANCH  25  26
ENDBRANCH   1  25
TORSDOF 25
ENDMDL
