MODEL 1
REMARK VINA RESULT:     -10.2      0.000      0.000
REMARK SMILES O=C(Cc1ccc(Cl)nc1)OCCOCCOCCOCCOC(=O)c1ccc(-c2c3nc(c(-c4c(F)c(F)c(F)c(F)c4F)c4ccc([nH]4)c(-c4c(F)c(F)c(F)c(F)c4F)c4nc(c(-c5c(F)c(F)c(F)c(F)c5F)c5ccc2[nH]5)C=C4)C=C3)cc1
REMARK SMILES IDX 18 1 17 2 16 3 15 4 14 5 13 6 12 7 11 8 2 9 1 10 3 11 4 12
REMARK SMILES IDX 5 13 10 14 6 15 9 16 7 17 8 18 19 19 20 20 21 21 22 22 23 23
REMARK SMILES IDX 24 24 25 25 26 26 27 27 88 28 28 29 87 30 29 31 30 32 31 33
REMARK SMILES IDX 81 34 32 35 86 36 80 37 82 38 33 39 85 40 79 41 78 42 34 44
REMARK SMILES IDX 66 45 46 46 65 47 47 48 50 49 64 50 83 51 48 52 49 53 63 55
REMARK SMILES IDX 84 56 51 57 35 58 36 59 44 60 37 61 38 62 42 63 45 64 39 65
REMARK SMILES IDX 40 66 43 67 41 68 67 69 68 70 76 71 69 72 70 73 74 74 77 75
REMARK SMILES IDX 71 76 72 77 75 78 73 79 52 80 53 81 61 82 54 83 55 84 59 85
REMARK SMILES IDX 62 86 56 87 57 88 60 89 58 90
REMARK H PARENT 82 43 50 54
REMARK Flexibility Score: inf
ROOT
ATOM      1  C   UNL A   1      39.948  21.822  26.106  1.00  0.00     0.188 C 
ENDROOT
BRANCH   1   2
ATOM      2  O   UNL A   1      39.259  22.697  26.981  1.00  0.00    -0.377 OA
BRANCH   2   3
ATOM      3  C   UNL A   1      38.697  23.847  26.362  1.00  0.00     0.188 C 
BRANCH   3   4
ATOM      4  C   UNL A   1      37.359  23.654  25.637  1.00  0.00     0.188 C 
BRANCH   4   5
ATOM      5  O   UNL A   1      36.221  23.440  26.449  1.00  0.00    -0.376 OA
BRANCH   5   6
ATOM      6  C   UNL A   1      34.878  23.665  26.087  1.00  0.00     0.202 C 
BRANCH   6   7
ATOM      7  C   UNL A   1      33.711  22.927  26.732  1.00  0.00     0.261 C 
BRANCH   7   8
ATOM      8  O   UNL A   1      32.403  23.113  26.169  1.00  0.00    -0.463 OA
BRANCH   8   9
ATOM      9  C   UNL A   1      31.694  22.290  25.375  1.00  0.00     0.310 C 
ATOM     10  O   UNL A   1      30.646  21.811  25.803  1.00  0.00    -0.252 OA
BRANCH   9  11
ATOM     11  C   UNL A   1      32.240  21.852  24.038  1.00  0.00     0.159 C 
BRANCH  11  12
ATOM     12  C   UNL A   1      32.726  20.441  23.917  1.00  0.00    -0.018 A 
ATOM     13  C   UNL A   1      33.882  20.043  24.601  1.00  0.00     0.009 A 
ATOM     14  C   UNL A   1      32.046  19.481  23.178  1.00  0.00     0.117 A 
ATOM     15  C   UNL A   1      34.342  18.740  24.477  1.00  0.00     0.041 A 
ATOM     16  N   UNL A   1      32.474  18.212  23.036  1.00  0.00    -0.244 NA
ATOM     17  C   UNL A   1      33.606  17.875  23.688  1.00  0.00     0.129 A 
ATOM     18  Cl  UNL A   1      34.102  16.251  23.470  1.00  0.00    -0.062 Cl
ENDBRANCH  11  12
ENDBRANCH   9  11
ENDBRANCH   8   9
ENDBRANCH   7   8
ENDBRANCH   6   7
ENDBRANCH   5   6
ENDBRANCH   4   5
ENDBRANCH   3   4
ENDBRANCH   2   3
ENDBRANCH   1   2
BRANCH   1  19
ATOM     19  C   UNL A   1      41.427  21.599  26.483  1.00  0.00     0.188 C 
BRANCH  19  20
ATOM     20  O   UNL A   1      42.377  21.233  25.502  1.00  0.00    -0.376 OA
BRANCH  20  21
ATOM     21  C   UNL A   1      43.741  21.617  25.570  1.00  0.00     0.202 C 
BRANCH  21  22
ATOM     22  C   UNL A   1      44.406  22.767  24.789  1.00  0.00     0.261 C 
BRANCH  22  23
ATOM     23  O   UNL A   1      43.682  23.985  24.639  1.00  0.00    -0.460 OA
BRANCH  23  24
ATOM     24  C   UNL A   1      44.312  25.088  25.080  1.00  0.00     0.338 C 
ATOM     25  O   UNL A   1      45.417  25.498  24.753  1.00  0.00    -0.246 OA
BRANCH  24  26
ATOM     26  C   UNL A   1      43.358  25.870  25.885  1.00  0.00     0.060 A 
ATOM     27  C   UNL A   1      43.662  27.217  26.127  1.00  0.00     0.016 A 
ATOM     28  C   UNL A   1      42.194  25.294  26.403  1.00  0.00     0.016 A 
ATOM     29  C   UNL A   1      42.843  27.976  26.949  1.00  0.00     0.010 A 
ATOM     30  C   UNL A   1      41.391  26.047  27.262  1.00  0.00     0.010 A 
ATOM     31  C   UNL A   1      41.754  27.367  27.583  1.00  0.00    -0.014 A 
BRANCH  31  32
ATOM     32  C   UNL A   1      41.235  28.016  28.806  1.00  0.00     0.031 A 
ATOM     33  C   UNL A   1      42.019  27.825  30.076  1.00  0.00     0.074 A 
ATOM     34  C   UNL A   1      40.174  28.839  28.769  1.00  0.00     0.049 A 
ATOM     35  N   UNL A   1      41.817  28.326  31.267  1.00  0.00    -0.248 NA
ATOM     36  C   UNL A   1      43.200  26.948  29.988  1.00  0.00     0.031 C 
ATOM     37  C   UNL A   1      39.385  29.148  27.579  1.00  0.00     0.029 A 
ATOM     38  N   UNL A   1      39.592  29.574  29.767  1.00  0.00    -0.354 N 
ATOM     39  C   UNL A   1      42.835  27.819  32.064  1.00  0.00     0.074 A 
ATOM     40  C   UNL A   1      43.633  26.944  31.238  1.00  0.00     0.031 C 
ATOM     41  C   UNL A   1      38.413  30.014  27.920  1.00  0.00     0.029 A 
ATOM     42  C   UNL A   1      38.502  30.296  29.352  1.00  0.00     0.049 A 
ATOM     43  H   UNL A   1      39.924  29.584  30.694  1.00  0.00     0.167 HD
ATOM     44  C   UNL A   1      43.089  28.071  33.369  1.00  0.00     0.037 A 
ATOM     45  C   UNL A   1      37.669  31.082  30.060  1.00  0.00     0.037 A 
ATOM     46  C   UNL A   1      42.291  28.946  34.184  1.00  0.00     0.049 A 
ATOM     47  C   UNL A   1      37.931  31.287  31.532  1.00  0.00     0.074 A 
ATOM     48  C   UNL A   1      42.461  29.279  35.515  1.00  0.00     0.029 A 
ATOM     49  N   UNL A   1      41.162  29.621  33.741  1.00  0.00    -0.354 N 
ATOM     50  N   UNL A   1      38.904  30.823  32.278  1.00  0.00    -0.248 NA
ATOM     51  C   UNL A   1      36.979  32.141  32.256  1.00  0.00     0.031 C 
ATOM     52  C   UNL A   1      41.397  30.103  35.896  1.00  0.00     0.029 A 
ATOM     53  C   UNL A   1      40.609  30.348  34.782  1.00  0.00     0.049 A 
ATOM     54  H   UNL A   1      40.807  29.588  32.823  1.00  0.00     0.167 HD
ATOM     55  C   UNL A   1      38.710  31.361  33.544  1.00  0.00     0.074 A 
ATOM     56  C   UNL A   1      37.530  32.197  33.460  1.00  0.00     0.031 C 
ATOM     57  C   UNL A   1      39.442  31.188  34.673  1.00  0.00     0.037 A 
BRANCH  44  58
ATOM     58  C   UNL A   1      44.248  27.354  34.000  1.00  0.00     0.064 A 
ATOM     59  C   UNL A   1      44.127  26.059  34.527  1.00  0.00     0.173 A 
ATOM     60  C   UNL A   1      45.505  27.974  34.068  1.00  0.00     0.173 A 
ATOM     61  F   UNL A   1      42.944  25.428  34.507  1.00  0.00    -0.203 F 
ATOM     62  C   UNL A   1      45.215  25.425  35.125  1.00  0.00     0.198 A 
ATOM     63  C   UNL A   1      46.597  27.324  34.633  1.00  0.00     0.198 A 
ATOM     64  F   UNL A   1      45.676  29.213  33.582  1.00  0.00    -0.203 F 
ATOM     65  F   UNL A   1      45.062  24.211  35.673  1.00  0.00    -0.200 F 
ATOM     66  C   UNL A   1      46.449  26.054  35.169  1.00  0.00     0.200 A 
ATOM     67  F   UNL A   1      47.793  27.928  34.664  1.00  0.00    -0.200 F 
ATOM     68  F   UNL A   1      47.496  25.439  35.738  1.00  0.00    -0.200 F 
ENDBRANCH  44  58
BRANCH  45  69
ATOM     69  C   UNL A   1      36.512  31.738  29.394  1.00  0.00     0.064 A 
ATOM     70  C   UNL A   1      35.405  30.995  28.962  1.00  0.00     0.173 A 
ATOM     71  C   UNL A   1      36.507  33.119  29.144  1.00  0.00     0.173 A 
ATOM     72  F   UNL A   1      35.373  29.667  29.157  1.00  0.00    -0.203 F 
ATOM     73  C   UNL A   1      34.351  31.600  28.281  1.00  0.00     0.198 A 
ATOM     74  C   UNL A   1      35.437  33.729  28.492  1.00  0.00     0.198 A 
ATOM     75  F   UNL A   1      37.541  33.877  29.535  1.00  0.00    -0.203 F 
ATOM     76  F   UNL A   1      33.333  30.855  27.829  1.00  0.00    -0.200 F 
ATOM     77  C   UNL A   1      34.365  32.967  28.051  1.00  0.00     0.200 A 
ATOM     78  F   UNL A   1      35.448  35.052  28.286  1.00  0.00    -0.200 F 
ATOM     79  F   UNL A   1      33.352  33.550  27.396  1.00  0.00    -0.200 F 
ENDBRANCH  45  69
BRANCH  57  80
ATOM     80  C   UNL A   1      39.032  31.970  35.891  1.00  0.00     0.064 A 
ATOM     81  C   UNL A   1      38.200  31.431  36.881  1.00  0.00     0.173 A 
ATOM     82  C   UNL A   1      39.507  33.279  36.077  1.00  0.00     0.173 A 
ATOM     83  F   UNL A   1      37.711  30.187  36.750  1.00  0.00    -0.203 F 
ATOM     84  C   UNL A   1      37.817  32.186  37.987  1.00  0.00     0.198 A 
ATOM     85  C   UNL A   1      39.157  34.017  37.203  1.00  0.00     0.198 A 
ATOM     86  F   UNL A   1      40.318  33.841  35.169  1.00  0.00    -0.203 F 
ATOM     87  F   UNL A   1      36.964  31.674  38.884  1.00  0.00    -0.200 F 
ATOM     88  C   UNL A   1      38.301  33.476  38.150  1.00  0.00     0.200 A 
ATOM     89  F   UNL A   1      39.644  35.254  37.370  1.00  0.00    -0.200 F 
ATOM     90  F   UNL A   1      37.936  34.200  39.217  1.00  0.00    -0.200 F 
ENDBRANCH  57  80
ENDBRANCH  31  32
ENDBRANCH  24  26
ENDBRANCH  23  24
ENDBRANCH  22  23
ENDBRANCH  21  22
ENDBRANCH  20  21
ENDBRANCH  19  20
ENDBRANCH   1  19
TORSDOF 21
ENDMDL
MODEL 2
REMARK VINA RESULT:     -10.2      2.428      3.335
REMARK SMILES O=C(Cc1ccc(Cl)nc1)OCCOCCOCCOCCOC(=O)c1ccc(-c2c3nc(c(-c4c(F)c(F)c(F)c(F)c4F)c4ccc([nH]4)c(-c4c(F)c(F)c(F)c(F)c4F)c4nc(c(-c5c(F)c(F)c(F)c(F)c5F)c5ccc2[nH]5)C=C4)C=C3)cc1
REMARK SMILES IDX 18 1 17 2 16 3 15 4 14 5 13 6 12 7 11 8 2 9 1 10 3 11 4 12
REMARK SMILES IDX 5 13 10 14 6 15 9 16 7 17 8 18 19 19 20 20 21 21 22 22 23 23
REMARK SMILES IDX 24 24 25 25 26 26 27 27 88 28 28 29 87 30 29 31 30 32 31 33
REMARK SMILES IDX 81 34 32 35 86 36 80 37 82 38 33 39 85 40 79 41 78 42 34 44
REMARK SMILES IDX 66 45 46 46 65 47 47 48 50 49 64 50 83 51 48 52 49 53 63 55
REMARK SMILES IDX 84 56 51 57 35 58 36 59 44 60 37 61 38 62 42 63 45 64 39 65
REMARK SMILES IDX 40 66 43 67 41 68 67 69 68 70 76 71 69 72 70 73 74 74 77 75
REMARK SMILES IDX 71 76 72 77 75 78 73 79 52 80 53 81 61 82 54 83 55 84 59 85
REMARK SMILES IDX 62 86 56 87 57 88 60 89 58 90
REMARK H PARENT 82 43 50 54
REMARK Flexibility Score: inf
ROOT
ATOM      1  C   UNL A   1      39.752  21.723  26.127  1.00  0.00     0.188 C 
ENDROOT
BRANCH   1   2
ATOM      2  O   UNL A   1      39.029  22.587  26.984  1.00  0.00    -0.377 OA
BRANCH   2   3
ATOM      3  C   UNL A   1      38.569  23.789  26.380  1.00  0.00     0.188 C 
BRANCH   3   4
ATOM      4  C   UNL A   1      37.431  23.656  25.359  1.00  0.00     0.188 C 
BRANCH   4   5
ATOM      5  O   UNL A   1      36.183  23.213  25.856  1.00  0.00    -0.376 OA
BRANCH   5   6
ATOM      6  C   UNL A   1      34.988  23.079  25.120  1.00  0.00     0.202 C 
BRANCH   6   7
ATOM      7  C   UNL A   1      34.926  23.237  23.606  1.00  0.00     0.261 C 
BRANCH   7   8
ATOM      8  O   UNL A   1      33.662  23.584  23.018  1.00  0.00    -0.463 OA
BRANCH   8   9
ATOM      9  C   UNL A   1      33.284  24.736  22.433  1.00  0.00     0.310 C 
ATOM     10  O   UNL A   1      33.222  24.785  21.206  1.00  0.00    -0.252 OA
BRANCH   9  11
ATOM     11  C   UNL A   1      33.073  25.983  23.255  1.00  0.00     0.159 C 
BRANCH  11  12
ATOM     12  C   UNL A   1      31.707  26.595  23.247  1.00  0.00    -0.018 A 
ATOM     13  C   UNL A   1      30.731  26.129  24.139  1.00  0.00     0.009 A 
ATOM     14  C   UNL A   1      31.370  27.651  22.411  1.00  0.00     0.117 A 
ATOM     15  C   UNL A   1      29.460  26.685  24.122  1.00  0.00     0.041 A 
ATOM     16  N   UNL A   1      30.142  28.204  22.369  1.00  0.00    -0.244 NA
ATOM     17  C   UNL A   1      29.223  27.710  23.224  1.00  0.00     0.129 A 
ATOM     18  Cl  UNL A   1      27.682  28.450  23.125  1.00  0.00    -0.062 Cl
ENDBRANCH  11  12
ENDBRANCH   9  11
ENDBRANCH   8   9
ENDBRANCH   7   8
ENDBRANCH   6   7
ENDBRANCH   5   6
ENDBRANCH   4   5
ENDBRANCH   3   4
ENDBRANCH   2   3
ENDBRANCH   1   2
BRANCH   1  19
ATOM     19  C   UNL A   1      41.208  21.478  26.570  1.00  0.00     0.188 C 
BRANCH  19  20
ATOM     20  O   UNL A   1      42.193  21.079  25.637  1.00  0.00    -0.376 OA
BRANCH  20  21
ATOM     21  C   UNL A   1      43.562  21.426  25.766  1.00  0.00     0.202 C 
BRANCH  21  22
ATOM     22  C   UNL A   1      44.293  22.552  25.010  1.00  0.00     0.261 C 
BRANCH  22  23
ATOM     23  O   UNL A   1      43.568  23.742  24.709  1.00  0.00    -0.460 OA
BRANCH  23  24
ATOM     24  C   UNL A   1      44.185  24.891  25.034  1.00  0.00     0.338 C 
ATOM     25  O   UNL A   1      45.262  25.302  24.626  1.00  0.00    -0.246 OA
BRANCH  24  26
ATOM     26  C   UNL A   1      43.244  25.710  25.818  1.00  0.00     0.060 A 
ATOM     27  C   UNL A   1      43.594  27.045  26.065  1.00  0.00     0.016 A 
ATOM     28  C   UNL A   1      42.049  25.180  26.312  1.00  0.00     0.016 A 
ATOM     29  C   UNL A   1      42.787  27.836  26.868  1.00  0.00     0.010 A 
ATOM     30  C   UNL A   1      41.257  25.963  27.154  1.00  0.00     0.010 A 
ATOM     31  C   UNL A   1      41.663  27.269  27.481  1.00  0.00    -0.014 A 
BRANCH  31  32
ATOM     32  C   UNL A   1      41.144  27.940  28.692  1.00  0.00     0.031 A 
ATOM     33  C   UNL A   1      41.921  27.761  29.968  1.00  0.00     0.074 A 
ATOM     34  C   UNL A   1      40.089  28.770  28.638  1.00  0.00     0.049 A 
ATOM     35  N   UNL A   1      41.718  28.282  31.151  1.00  0.00    -0.248 NA
ATOM     36  C   UNL A   1      43.096  26.875  29.898  1.00  0.00     0.031 C 
ATOM     37  C   UNL A   1      39.307  29.068  27.441  1.00  0.00     0.029 A 
ATOM     38  N   UNL A   1      39.508  29.524  29.623  1.00  0.00    -0.354 N 
ATOM     39  C   UNL A   1      42.729  27.779  31.959  1.00  0.00     0.074 A 
ATOM     40  C   UNL A   1      43.524  26.886  31.149  1.00  0.00     0.031 C 
ATOM     41  C   UNL A   1      38.340  29.946  27.765  1.00  0.00     0.029 A 
ATOM     42  C   UNL A   1      38.425  30.247  29.193  1.00  0.00     0.049 A 
ATOM     43  H   UNL A   1      39.836  29.544  30.552  1.00  0.00     0.167 HD
ATOM     44  C   UNL A   1      42.979  28.048  33.262  1.00  0.00     0.037 A 
ATOM     45  C   UNL A   1      37.595  31.050  29.886  1.00  0.00     0.037 A 
ATOM     46  C   UNL A   1      42.184  28.940  34.060  1.00  0.00     0.049 A 
ATOM     47  C   UNL A   1      37.852  31.274  31.355  1.00  0.00     0.074 A 
ATOM     48  C   UNL A   1      42.351  29.292  35.387  1.00  0.00     0.029 A 
ATOM     49  N   UNL A   1      41.062  29.617  33.603  1.00  0.00    -0.354 N 
ATOM     50  N   UNL A   1      38.819  30.813  32.113  1.00  0.00    -0.248 NA
ATOM     51  C   UNL A   1      36.904  32.145  32.064  1.00  0.00     0.031 C 
ATOM     52  C   UNL A   1      41.291  30.128  35.751  1.00  0.00     0.029 A 
ATOM     53  C   UNL A   1      40.509  30.363  34.631  1.00  0.00     0.049 A 
ATOM     54  H   UNL A   1      40.710  29.573  32.684  1.00  0.00     0.167 HD
ATOM     55  C   UNL A   1      38.623  31.372  33.370  1.00  0.00     0.074 A 
ATOM     56  C   UNL A   1      37.450  32.215  33.269  1.00  0.00     0.031 C 
ATOM     57  C   UNL A   1      39.349  31.209  34.505  1.00  0.00     0.037 A 
BRANCH  44  58
ATOM     58  C   UNL A   1      44.130  27.332  33.907  1.00  0.00     0.064 A 
ATOM     59  C   UNL A   1      43.979  26.081  34.526  1.00  0.00     0.173 A 
ATOM     60  C   UNL A   1      45.410  27.907  33.897  1.00  0.00     0.173 A 
ATOM     61  F   UNL A   1      42.774  25.496  34.583  1.00  0.00    -0.203 F 
ATOM     62  C   UNL A   1      45.060  25.448  35.136  1.00  0.00     0.198 A 
ATOM     63  C   UNL A   1      46.495  27.255  34.475  1.00  0.00     0.198 A 
ATOM     64  F   UNL A   1      45.610  29.102  33.322  1.00  0.00    -0.203 F 
ATOM     65  F   UNL A   1      44.881  24.281  35.771  1.00  0.00    -0.200 F 
ATOM     66  C   UNL A   1      46.318  26.031  35.102  1.00  0.00     0.200 A 
ATOM     67  F   UNL A   1      47.712  27.814  34.430  1.00  0.00    -0.200 F 
ATOM     68  F   UNL A   1      47.359  25.417  35.682  1.00  0.00    -0.200 F 
ENDBRANCH  44  58
BRANCH  45  69
ATOM     69  C   UNL A   1      36.446  31.704  29.206  1.00  0.00     0.064 A 
ATOM     70  C   UNL A   1      36.415  33.091  29.004  1.00  0.00     0.173 A 
ATOM     71  C   UNL A   1      35.338  30.960  28.774  1.00  0.00     0.173 A 
ATOM     72  F   UNL A   1      37.439  33.852  29.421  1.00  0.00    -0.203 F 
ATOM     73  C   UNL A   1      35.310  33.711  28.425  1.00  0.00     0.198 A 
ATOM     74  C   UNL A   1      34.248  31.577  28.164  1.00  0.00     0.198 A 
ATOM     75  F   UNL A   1      35.316  29.629  28.942  1.00  0.00    -0.203 F 
ATOM     76  F   UNL A   1      35.283  35.045  28.299  1.00  0.00    -0.200 F 
ATOM     77  C   UNL A   1      34.230  32.953  28.001  1.00  0.00     0.200 A 
ATOM     78  F   UNL A   1      33.213  30.838  27.742  1.00  0.00    -0.200 F 
ATOM     79  F   UNL A   1      33.167  33.549  27.443  1.00  0.00    -0.200 F 
ENDBRANCH  45  69
BRANCH  57  80
ATOM     80  C   UNL A   1      38.940  32.013  35.709  1.00  0.00     0.064 A 
ATOM     81  C   UNL A   1      39.294  33.360  35.863  1.00  0.00     0.173 A 
ATOM     82  C   UNL A   1      38.158  31.422  36.715  1.00  0.00     0.173 A 
ATOM     83  F   UNL A   1      40.047  33.973  34.936  1.00  0.00    -0.203 F 
ATOM     84  C   UNL A   1      38.921  34.073  37.000  1.00  0.00     0.198 A 
ATOM     85  C   UNL A   1      37.751  32.148  37.830  1.00  0.00     0.198 A 
ATOM     86  F   UNL A   1      37.779  30.139  36.613  1.00  0.00    -0.203 F 
ATOM     87  F   UNL A   1      39.331  35.340  37.159  1.00  0.00    -0.200 F 
ATOM     88  C   UNL A   1      38.146  33.469  37.979  1.00  0.00     0.200 A 
ATOM     89  F   UNL A   1      36.984  31.569  38.762  1.00  0.00    -0.200 F 
ATOM     90  F   UNL A   1      37.784  34.158  39.071  1.00  0.00    -0.200 F 
ENDBRANCH  57  80
ENDBRANCH  31  32
ENDBRANCH  24  26
ENDBRANCH  23  24
ENDBRANCH  22  23
ENDBRANCH  21  22
ENDBRANCH  20  21
ENDBRANCH  19  20
ENDBRANCH   1  19
TORSDOF 21
ENDMDL
MODEL 3
REMARK VINA RESULT:      -9.8      5.469      7.954
REMARK SMILES O=C(Cc1ccc(Cl)nc1)OCCOCCOCCOCCOC(=O)c1ccc(-c2c3nc(c(-c4c(F)c(F)c(F)c(F)c4F)c4ccc([nH]4)c(-c4c(F)c(F)c(F)c(F)c4F)c4nc(c(-c5c(F)c(F)c(F)c(F)c5F)c5ccc2[nH]5)C=C4)C=C3)cc1
REMARK SMILES IDX 18 1 17 2 16 3 15 4 14 5 13 6 12 7 11 8 2 9 1 10 3 11 4 12
REMARK SMILES IDX 5 13 10 14 6 15 9 16 7 17 8 18 19 19 20 20 21 21 22 22 23 23
REMARK SMILES IDX 24 24 25 25 26 26 27 27 88 28 28 29 87 30 29 31 30 32 31 33
REMARK SMILES IDX 81 34 32 35 86 36 80 37 82 38 33 39 85 40 79 41 78 42 34 44
REMARK SMILES IDX 66 45 46 46 65 47 47 48 50 49 64 50 83 51 48 52 49 53 63 55
REMARK SMILES IDX 84 56 51 57 35 58 36 59 44 60 37 61 38 62 42 63 45 64 39 65
REMARK SMILES IDX 40 66 43 67 41 68 67 69 68 70 76 71 69 72 70 73 74 74 77 75
REMARK SMILES IDX 71 76 72 77 75 78 73 79 52 80 53 81 61 82 54 83 55 84 59 85
REMARK SMILES IDX 62 86 56 87 57 88 60 89 58 90
REMARK H PARENT 82 43 50 54
REMARK Flexibility Score: inf
ROOT
ATOM      1  C   UNL A   1      35.835  23.456  24.956  1.00  0.00     0.188 C 
ENDROOT
BRANCH   1   2
ATOM      2  O   UNL A   1      35.000  24.180  25.842  1.00  0.00    -0.377 OA
BRANCH   2   3
ATOM      3  C   UNL A   1      34.357  25.313  25.272  1.00  0.00     0.188 C 
BRANCH   3   4
ATOM      4  C   UNL A   1      32.884  25.143  24.878  1.00  0.00     0.188 C 
BRANCH   4   5
ATOM      5  O   UNL A   1      32.466  25.789  23.691  1.00  0.00    -0.376 OA
BRANCH   5   6
ATOM      6  C   UNL A   1      33.291  26.457  22.766  1.00  0.00     0.202 C 
BRANCH   6   7
ATOM      7  C   UNL A   1      33.084  27.915  22.372  1.00  0.00     0.261 C 
BRANCH   7   8
ATOM      8  O   UNL A   1      32.999  28.890  23.423  1.00  0.00    -0.463 OA
BRANCH   8   9
ATOM      9  C   UNL A   1      32.117  28.977  24.435  1.00  0.00     0.310 C 
ATOM     10  O   UNL A   1      32.540  29.135  25.579  1.00  0.00    -0.252 OA
BRANCH   9  11
ATOM     11  C   UNL A   1      30.645  28.747  24.194  1.00  0.00     0.159 C 
BRANCH  11  12
ATOM     12  C   UNL A   1      29.916  29.750  23.355  1.00  0.00    -0.018 A 
ATOM     13  C   UNL A   1      29.443  30.933  23.939  1.00  0.00     0.009 A 
ATOM     14  C   UNL A   1      29.721  29.577  21.991  1.00  0.00     0.117 A 
ATOM     15  C   UNL A   1      28.754  31.856  23.166  1.00  0.00     0.041 A 
ATOM     16  N   UNL A   1      29.049  30.453  21.219  1.00  0.00    -0.244 NA
ATOM     17  C   UNL A   1      28.587  31.567  21.824  1.00  0.00     0.129 A 
ATOM     18  Cl  UNL A   1      27.741  32.643  20.794  1.00  0.00    -0.062 Cl
ENDBRANCH  11  12
ENDBRANCH   9  11
ENDBRANCH   8   9
ENDBRANCH   7   8
ENDBRANCH   6   7
ENDBRANCH   5   6
ENDBRANCH   4   5
ENDBRANCH   3   4
ENDBRANCH   2   3
ENDBRANCH   1   2
BRANCH   1  19
ATOM     19  C   UNL A   1      36.691  22.376  25.646  1.00  0.00     0.188 C 
BRANCH  19  20
ATOM     20  O   UNL A   1      37.777  21.771  24.971  1.00  0.00    -0.376 OA
BRANCH  20  21
ATOM     21  C   UNL A   1      38.021  20.374  25.004  1.00  0.00     0.202 C 
BRANCH  21  22
ATOM     22  C   UNL A   1      39.316  19.684  25.472  1.00  0.00     0.261 C 
BRANCH  22  23
ATOM     23  O   UNL A   1      39.962  20.186  26.639  1.00  0.00    -0.460 OA
BRANCH  23  24
ATOM     24  C   UNL A   1      41.181  20.718  26.441  1.00  0.00     0.338 C 
ATOM     25  O   UNL A   1      42.069  20.297  25.713  1.00  0.00    -0.246 OA
BRANCH  24  26
ATOM     26  C   UNL A   1      41.215  22.041  27.087  1.00  0.00     0.060 A 
ATOM     27  C   UNL A   1      40.532  23.090  26.458  1.00  0.00     0.016 A 
ATOM     28  C   UNL A   1      41.913  22.254  28.279  1.00  0.00     0.016 A 
ATOM     29  C   UNL A   1      40.603  24.374  26.976  1.00  0.00     0.010 A 
ATOM     30  C   UNL A   1      42.018  23.554  28.780  1.00  0.00     0.010 A 
ATOM     31  C   UNL A   1      41.414  24.620  28.090  1.00  0.00    -0.014 A 
BRANCH  31  32
ATOM     32  C   UNL A   1      41.877  26.009  28.295  1.00  0.00     0.031 A 
ATOM     33  C   UNL A   1      43.206  26.390  27.702  1.00  0.00     0.074 A 
ATOM     34  C   UNL A   1      41.096  26.930  28.884  1.00  0.00     0.049 A 
ATOM     35  N   UNL A   1      43.815  27.548  27.687  1.00  0.00    -0.248 NA
ATOM     36  C   UNL A   1      43.952  25.313  27.026  1.00  0.00     0.031 C 
ATOM     37  C   UNL A   1      39.764  26.685  29.431  1.00  0.00     0.029 A 
ATOM     38  N   UNL A   1      41.316  28.264  29.104  1.00  0.00    -0.354 N 
ATOM     39  C   UNL A   1      45.010  27.334  27.013  1.00  0.00     0.074 A 
ATOM     40  C   UNL A   1      45.063  25.933  26.665  1.00  0.00     0.031 C 
ATOM     41  C   UNL A   1      39.283  27.839  29.929  1.00  0.00     0.029 A 
ATOM     42  C   UNL A   1      40.285  28.890  29.755  1.00  0.00     0.049 A 
ATOM     43  H   UNL A   1      42.137  28.729  28.821  1.00  0.00     0.167 HD
ATOM     44  C   UNL A   1      45.974  28.230  26.702  1.00  0.00     0.037 A 
ATOM     45  C   UNL A   1      40.177  30.167  30.171  1.00  0.00     0.037 A 
ATOM     46  C   UNL A   1      45.913  29.623  27.049  1.00  0.00     0.049 A 
ATOM     47  C   UNL A   1      41.300  31.130  29.876  1.00  0.00     0.074 A 
ATOM     48  C   UNL A   1      46.829  30.622  26.778  1.00  0.00     0.029 A 
ATOM     49  N   UNL A   1      44.873  30.213  27.756  1.00  0.00    -0.354 N 
ATOM     50  N   UNL A   1      42.420  30.929  29.223  1.00  0.00    -0.248 NA
ATOM     51  C   UNL A   1      41.135  32.504  30.369  1.00  0.00     0.031 C 
ATOM     52  C   UNL A   1      46.377  31.802  27.378  1.00  0.00     0.029 A 
ATOM     53  C   UNL A   1      45.140  31.557  27.954  1.00  0.00     0.049 A 
ATOM     54  H   UNL A   1      44.066  29.744  28.070  1.00  0.00     0.167 HD
ATOM     55  C   UNL A   1      43.070  32.157  29.186  1.00  0.00     0.074 A 
ATOM     56  C   UNL A   1      42.211  33.099  29.875  1.00  0.00     0.031 C 
ATOM     57  C   UNL A   1      44.264  32.481  28.629  1.00  0.00     0.037 A 
BRANCH  44  58
ATOM     58  C   UNL A   1      47.193  27.717  25.991  1.00  0.00     0.064 A 
ATOM     59  C   UNL A   1      48.331  27.277  26.683  1.00  0.00     0.173 A 
ATOM     60  C   UNL A   1      47.215  27.656  24.588  1.00  0.00     0.173 A 
ATOM     61  F   UNL A   1      48.373  27.332  28.023  1.00  0.00    -0.203 F 
ATOM     62  C   UNL A   1      49.457  26.824  25.997  1.00  0.00     0.198 A 
ATOM     63  C   UNL A   1      48.327  27.169  23.909  1.00  0.00     0.198 A 
ATOM     64  F   UNL A   1      46.155  28.067  23.877  1.00  0.00    -0.203 F 
ATOM     65  F   UNL A   1      50.555  26.463  26.677  1.00  0.00    -0.200 F 
ATOM     66  C   UNL A   1      49.450  26.762  24.612  1.00  0.00     0.200 A 
ATOM     67  F   UNL A   1      48.313  27.099  22.571  1.00  0.00    -0.200 F 
ATOM     68  F   UNL A   1      50.530  26.319  23.954  1.00  0.00    -0.200 F 
ENDBRANCH  44  58
BRANCH  45  69
ATOM     69  C   UNL A   1      38.964  30.614  30.906  1.00  0.00     0.064 A 
ATOM     70  C   UNL A   1      38.905  30.568  32.306  1.00  0.00     0.173 A 
ATOM     71  C   UNL A   1      37.826  31.065  30.221  1.00  0.00     0.173 A 
ATOM     72  F   UNL A   1      39.959  30.122  33.006  1.00  0.00    -0.203 F 
ATOM     73  C   UNL A   1      37.746  30.926  32.991  1.00  0.00     0.198 A 
ATOM     74  C   UNL A   1      36.678  31.455  30.909  1.00  0.00     0.198 A 
ATOM     75  F   UNL A   1      37.828  31.129  28.882  1.00  0.00    -0.203 F 
ATOM     76  F   UNL A   1      37.698  30.816  34.325  1.00  0.00    -0.200 F 
ATOM     77  C   UNL A   1      36.635  31.374  32.292  1.00  0.00     0.200 A 
ATOM     78  F   UNL A   1      35.613  31.901  30.230  1.00  0.00    -0.200 F 
ATOM     79  F   UNL A   1      35.520  31.719  32.950  1.00  0.00    -0.200 F 
ENDBRANCH  45  69
BRANCH  57  80
ATOM     80  C   UNL A   1      44.681  33.926  28.677  1.00  0.00     0.064 A 
ATOM     81  C   UNL A   1      44.318  34.842  27.680  1.00  0.00     0.173 A 
ATOM     82  C   UNL A   1      45.439  34.403  29.759  1.00  0.00     0.173 A 
ATOM     83  F   UNL A   1      43.600  34.439  26.620  1.00  0.00    -0.203 F 
ATOM     84  C   UNL A   1      44.737  36.169  27.738  1.00  0.00     0.198 A 
ATOM     85  C   UNL A   1      45.822  35.738  29.836  1.00  0.00     0.198 A 
ATOM     86  F   UNL A   1      45.803  33.574  30.749  1.00  0.00    -0.203 F 
ATOM     87  F   UNL A   1      44.438  37.009  26.738  1.00  0.00    -0.200 F 
ATOM     88  C   UNL A   1      45.483  36.617  28.818  1.00  0.00     0.200 A 
ATOM     89  F   UNL A   1      46.523  36.173  30.891  1.00  0.00    -0.200 F 
ATOM     90  F   UNL A   1      45.883  37.895  28.875  1.00  0.00    -0.200 F 
ENDBRANCH  57  80
ENDBRANCH  31  32
ENDBRANCH  24  26
ENDBRANCH  23  24
ENDBRANCH  22  23
ENDBRANCH  21  22
ENDBRANCH  20  21
ENDBRANCH  19  20
ENDBRANCH   1  19
TORSDOF 21
ENDMDL
