MODEL 1
REMARK VINA RESULT:     -10.9      0.000      0.000
REMARK SMILES Cc1ccc(/C=C/C(=O)N2C[C@@H](O)C[C@H]2C(=O)OCCOCCOCCOCCOC(=O)c2ccc(-c3c4nc(c(-c5c(F)c(F)c(F)c(F)c5F)c5ccc([nH]5)c(-c5c(F)c(F)c(F)c(F)c5F)c5nc(c(-c6c(F)c(F)c(F)c(F)c6F)c6ccc3[nH]6)C=C5)C=C4)cc2)c(C)c1
REMARK SMILES IDX 23 1 22 2 21 3 20 4 19 5 18 6 16 7 17 8 15 9 10 10 11 11
REMARK SMILES IDX 12 12 14 13 8 14 9 15 7 16 6 17 5 18 1 19 2 20 3 21 98 22
REMARK SMILES IDX 4 23 96 24 97 25 13 26 24 28 25 29 26 30 27 31 28 32 29 33
REMARK SMILES IDX 30 34 31 35 32 36 33 37 34 38 95 39 35 40 94 41 36 42 37 43
REMARK SMILES IDX 38 44 88 45 39 46 93 47 87 48 89 49 40 50 92 51 86 52 85 53
REMARK SMILES IDX 41 55 73 56 53 57 72 58 54 59 57 60 71 61 90 62 55 63 56 64
REMARK SMILES IDX 70 66 91 67 58 68 42 69 43 70 51 71 44 72 45 73 49 74 52 75
REMARK SMILES IDX 46 76 47 77 50 78 48 79 74 80 75 81 83 82 76 83 77 84 81 85
REMARK SMILES IDX 84 86 78 87 79 88 82 89 80 90 59 91 60 92 68 93 61 94 62 95
REMARK SMILES IDX 66 96 69 97 63 98 64 99 67 100 65 101
REMARK H PARENT 13 27 89 54 57 65
REMARK Flexibility Score: inf
ROOT
ATOM      1  C   UNL A   1      42.949  19.615  25.959  1.00  0.00     0.188 C 
ENDROOT
BRANCH   1   2
ATOM      2  C   UNL A   1      41.526  19.317  26.458  1.00  0.00     0.188 C 
BRANCH   2   3
ATOM      3  O   UNL A   1      40.756  20.467  26.717  1.00  0.00    -0.376 OA
BRANCH   3   4
ATOM      4  C   UNL A   1      39.879  20.971  25.733  1.00  0.00     0.202 C 
BRANCH   4   5
ATOM      5  C   UNL A   1      38.585  21.757  26.030  1.00  0.00     0.261 C 
BRANCH   5   6
ATOM      6  O   UNL A   1      37.319  21.216  25.617  1.00  0.00    -0.462 OA
BRANCH   6   7
ATOM      7  C   UNL A   1      36.638  21.891  24.655  1.00  0.00     0.329 C 
ATOM      8  O   UNL A   1      37.154  22.272  23.607  1.00  0.00    -0.250 OA
BRANCH   7   9
ATOM      9  C   UNL A   1      35.197  22.298  25.063  1.00  0.00     0.198 C 
ATOM     10  N   UNL A   1      34.079  22.405  24.095  1.00  0.00    -0.323 N 
ATOM     11  C   UNL A   1      33.186  21.272  24.215  1.00  0.00     0.152 C 
ATOM     12  C   UNL A   1      33.252  20.981  25.708  1.00  0.00     0.136 C 
ATOM     13  C   UNL A   1      34.722  21.217  26.049  1.00  0.00     0.071 C 
BRANCH  10  14
ATOM     14  C   UNL A   1      33.760  23.616  23.515  1.00  0.00     0.247 C 
ATOM     15  O   UNL A   1      33.892  23.830  22.311  1.00  0.00    -0.270 OA
BRANCH  14  16
ATOM     16  C   UNL A   1      33.219  24.693  24.386  1.00  0.00     0.072 C 
ATOM     17  C   UNL A   1      32.910  25.849  23.779  1.00  0.00     0.014 C 
BRANCH  17  18
ATOM     18  C   UNL A   1      32.231  27.043  24.322  1.00  0.00    -0.023 A 
ATOM     19  C   UNL A   1      31.241  31.016  25.748  1.00  0.00     0.044 C 
ATOM     20  C   UNL A   1      31.527  29.608  25.314  1.00  0.00    -0.051 A 
ATOM     21  C   UNL A   1      32.423  28.805  26.015  1.00  0.00     0.004 A 
ATOM     22  C   UNL A   1      30.930  29.092  24.158  1.00  0.00     0.007 A 
ATOM     23  C   UNL A   1      32.769  27.543  25.523  1.00  0.00     0.008 A 
ATOM     24  C   UNL A   1      31.264  27.814  23.649  1.00  0.00    -0.044 A 
ATOM     25  C   UNL A   1      30.606  27.432  22.351  1.00  0.00     0.045 C 
ENDBRANCH  17  18
ENDBRANCH  14  16
ENDBRANCH  10  14
BRANCH  12  26
ATOM     26  O   UNL A   1      32.839  19.669  26.040  1.00  0.00    -0.391 OA
ATOM     27  H   UNL A   1      31.914  19.546  25.777  1.00  0.00     0.211 HD
ENDBRANCH  12  26
ENDBRANCH   7   9
ENDBRANCH   6   7
ENDBRANCH   5   6
ENDBRANCH   4   5
ENDBRANCH   3   4
ENDBRANCH   2   3
ENDBRANCH   1   2
BRANCH   1  28
ATOM     28  O   UNL A   1      43.550  18.933  24.868  1.00  0.00    -0.377 OA
BRANCH  28  29
ATOM     29  C   UNL A   1      44.644  19.516  24.190  1.00  0.00     0.188 C 
BRANCH  29  30
ATOM     30  C   UNL A   1      46.017  19.565  24.882  1.00  0.00     0.188 C 
BRANCH  30  31
ATOM     31  O   UNL A   1      46.367  20.836  25.401  1.00  0.00    -0.376 OA
BRANCH  31  32
ATOM     32  C   UNL A   1      46.084  21.980  24.614  1.00  0.00     0.202 C 
BRANCH  32  33
ATOM     33  C   UNL A   1      45.813  23.315  25.329  1.00  0.00     0.261 C 
BRANCH  33  34
ATOM     34  O   UNL A   1      44.849  24.185  24.719  1.00  0.00    -0.460 OA
BRANCH  34  35
ATOM     35  C   UNL A   1      43.552  23.816  24.799  1.00  0.00     0.338 C 
ATOM     36  O   UNL A   1      43.028  22.839  24.312  1.00  0.00    -0.246 OA
BRANCH  35  37
ATOM     37  C   UNL A   1      42.895  24.733  25.754  1.00  0.00     0.060 A 
ATOM     38  C   UNL A   1      43.287  26.078  25.771  1.00  0.00     0.016 A 
ATOM     39  C   UNL A   1      41.897  24.272  26.617  1.00  0.00     0.016 A 
ATOM     40  C   UNL A   1      42.700  26.962  26.671  1.00  0.00     0.010 A 
ATOM     41  C   UNL A   1      41.331  25.153  27.542  1.00  0.00     0.010 A 
ATOM     42  C   UNL A   1      41.759  26.491  27.596  1.00  0.00    -0.014 A 
BRANCH  42  43
ATOM     43  C   UNL A   1      41.419  27.346  28.756  1.00  0.00     0.031 A 
ATOM     44  C   UNL A   1      42.276  27.235  29.987  1.00  0.00     0.074 A 
ATOM     45  C   UNL A   1      40.423  28.246  28.699  1.00  0.00     0.049 A 
ATOM     46  N   UNL A   1      42.198  27.882  31.121  1.00  0.00    -0.248 NA
ATOM     47  C   UNL A   1      43.374  26.257  29.926  1.00  0.00     0.031 C 
ATOM     48  C   UNL A   1      39.556  28.474  27.546  1.00  0.00     0.029 A 
ATOM     49  N   UNL A   1      39.976  29.138  29.642  1.00  0.00    -0.354 N 
ATOM     50  C   UNL A   1      43.236  27.392  31.903  1.00  0.00     0.074 A 
ATOM     51  C   UNL A   1      43.903  26.364  31.134  1.00  0.00     0.031 C 
ATOM     52  C   UNL A   1      38.669  29.437  27.854  1.00  0.00     0.029 A 
ATOM     53  C   UNL A   1      38.891  29.871  29.232  1.00  0.00     0.049 A 
ATOM     54  H   UNL A   1      40.394  29.241  30.528  1.00  0.00     0.167 HD
ATOM     55  C   UNL A   1      43.611  27.776  33.146  1.00  0.00     0.037 A 
ATOM     56  C   UNL A   1      38.152  30.775  29.908  1.00  0.00     0.037 A 
ATOM     57  C   UNL A   1      42.934  28.789  33.911  1.00  0.00     0.049 A 
ATOM     58  C   UNL A   1      38.539  31.130  31.322  1.00  0.00     0.074 A 
ATOM     59  C   UNL A   1      43.229  29.254  35.180  1.00  0.00     0.029 A 
ATOM     60  N   UNL A   1      41.814  29.486  33.479  1.00  0.00    -0.354 N 
ATOM     61  N   UNL A   1      39.536  30.683  32.048  1.00  0.00    -0.248 NA
ATOM     62  C   UNL A   1      37.704  32.128  32.006  1.00  0.00     0.031 C 
ATOM     63  C   UNL A   1      42.250  30.187  35.540  1.00  0.00     0.029 A 
ATOM     64  C   UNL A   1      41.388  30.357  34.467  1.00  0.00     0.049 A 
ATOM     65  H   UNL A   1      41.386  29.376  32.599  1.00  0.00     0.167 HD
ATOM     66  C   UNL A   1      39.465  31.362  33.259  1.00  0.00     0.074 A 
ATOM     67  C   UNL A   1      38.338  32.265  33.161  1.00  0.00     0.031 C 
ATOM     68  C   UNL A   1      40.262  31.250  34.352  1.00  0.00     0.037 A 
BRANCH  55  69
ATOM     69  C   UNL A   1      44.781  27.063  33.762  1.00  0.00     0.064 A 
ATOM     70  C   UNL A   1      46.103  27.492  33.558  1.00  0.00     0.173 A 
ATOM     71  C   UNL A   1      44.578  25.932  34.568  1.00  0.00     0.173 A 
ATOM     72  F   UNL A   1      46.356  28.556  32.780  1.00  0.00    -0.203 F 
ATOM     73  C   UNL A   1      47.176  26.794  34.107  1.00  0.00     0.198 A 
ATOM     74  C   UNL A   1      45.652  25.260  35.145  1.00  0.00     0.198 A 
ATOM     75  F   UNL A   1      43.336  25.479  34.797  1.00  0.00    -0.203 F 
ATOM     76  F   UNL A   1      48.431  27.185  33.845  1.00  0.00    -0.200 F 
ATOM     77  C   UNL A   1      46.950  25.683  34.904  1.00  0.00     0.200 A 
ATOM     78  F   UNL A   1      45.429  24.194  35.926  1.00  0.00    -0.200 F 
ATOM     79  F   UNL A   1      47.983  25.014  35.433  1.00  0.00    -0.200 F 
ENDBRANCH  55  69
BRANCH  56  80
ATOM     80  C   UNL A   1      36.963  31.392  29.261  1.00  0.00     0.064 A 
ATOM     81  C   UNL A   1      35.820  30.639  28.962  1.00  0.00     0.173 A 
ATOM     82  C   UNL A   1      36.955  32.753  28.916  1.00  0.00     0.173 A 
ATOM     83  F   UNL A   1      35.786  29.330  29.249  1.00  0.00    -0.203 F 
ATOM     84  C   UNL A   1      34.723  31.217  28.324  1.00  0.00     0.198 A 
ATOM     85  C   UNL A   1      35.845  33.337  28.308  1.00  0.00     0.198 A 
ATOM     86  F   UNL A   1      38.023  33.520  29.178  1.00  0.00    -0.203 F 
ATOM     87  F   UNL A   1      33.663  30.463  28.004  1.00  0.00    -0.200 F 
ATOM     88  C   UNL A   1      34.734  32.567  28.004  1.00  0.00     0.200 A 
ATOM     89  F   UNL A   1      35.856  34.644  28.015  1.00  0.00    -0.200 F 
ATOM     90  F   UNL A   1      33.677  33.124  27.398  1.00  0.00    -0.200 F 
ENDBRANCH  56  80
BRANCH  68  91
ATOM     91  C   UNL A   1      39.969  32.157  35.515  1.00  0.00     0.064 A 
ATOM     92  C   UNL A   1      40.637  33.377  35.693  1.00  0.00     0.173 A 
ATOM     93  C   UNL A   1      38.979  31.812  36.450  1.00  0.00     0.173 A 
ATOM     94  F   UNL A   1      41.600  33.751  34.836  1.00  0.00    -0.203 F 
ATOM     95  C   UNL A   1      40.354  34.198  36.782  1.00  0.00     0.198 A 
ATOM     96  C   UNL A   1      38.671  32.652  37.516  1.00  0.00     0.198 A 
ATOM     97  F   UNL A   1      38.300  30.661  36.322  1.00  0.00    -0.203 F 
ATOM     98  F   UNL A   1      41.049  35.330  36.965  1.00  0.00    -0.200 F 
ATOM     99  C   UNL A   1      39.366  33.839  37.687  1.00  0.00     0.200 A 
ATOM    100  F   UNL A   1      37.703  32.312  38.378  1.00  0.00    -0.200 F 
ATOM    101  F   UNL A   1      39.091  34.634  38.731  1.00  0.00    -0.200 F 
ENDBRANCH  68  91
ENDBRANCH  42  43
ENDBRANCH  35  37
ENDBRANCH  34  35
ENDBRANCH  33  34
ENDBRANCH  32  33
ENDBRANCH  31  32
ENDBRANCH  30  31
ENDBRANCH  29  30
ENDBRANCH  28  29
ENDBRANCH   1  28
TORSDOF 24
ENDMDL
MODEL 2
REMARK VINA RESULT:     -10.8      1.187      2.300
REMARK SMILES Cc1ccc(/C=C/C(=O)N2C[C@@H](O)C[C@H]2C(=O)OCCOCCOCCOCCOC(=O)c2ccc(-c3c4nc(c(-c5c(F)c(F)c(F)c(F)c5F)c5ccc([nH]5)c(-c5c(F)c(F)c(F)c(F)c5F)c5nc(c(-c6c(F)c(F)c(F)c(F)c6F)c6ccc3[nH]6)C=C5)C=C4)cc2)c(C)c1
REMARK SMILES IDX 23 1 22 2 21 3 20 4 19 5 18 6 16 7 17 8 15 9 10 10 11 11
REMARK SMILES IDX 12 12 14 13 8 14 9 15 7 16 6 17 5 18 1 19 2 20 3 21 98 22
REMARK SMILES IDX 4 23 96 24 97 25 13 26 24 28 25 29 26 30 27 31 28 32 29 33
REMARK SMILES IDX 30 34 31 35 32 36 33 37 34 38 95 39 35 40 94 41 36 42 37 43
REMARK SMILES IDX 38 44 88 45 39 46 93 47 87 48 89 49 40 50 92 51 86 52 85 53
REMARK SMILES IDX 41 55 73 56 53 57 72 58 54 59 57 60 71 61 90 62 55 63 56 64
REMARK SMILES IDX 70 66 91 67 58 68 42 69 43 70 51 71 44 72 45 73 49 74 52 75
REMARK SMILES IDX 46 76 47 77 50 78 48 79 74 80 75 81 83 82 76 83 77 84 81 85
REMARK SMILES IDX 84 86 78 87 79 88 82 89 80 90 59 91 60 92 68 93 61 94 62 95
REMARK SMILES IDX 66 96 69 97 63 98 64 99 67 100 65 101
REMARK H PARENT 13 27 89 54 57 65
REMARK Flexibility Score: inf
ROOT
ATOM      1  C   UNL A   1      42.288  20.119  26.823  1.00  0.00     0.188 C 
ENDROOT
BRANCH   1   2
ATOM      2  C   UNL A   1      40.911  20.169  27.506  1.00  0.00     0.188 C 
BRANCH   2   3
ATOM      3  O   UNL A   1      40.230  21.389  27.336  1.00  0.00    -0.376 OA
BRANCH   3   4
ATOM      4  C   UNL A   1      39.524  21.648  26.142  1.00  0.00     0.202 C 
BRANCH   4   5
ATOM      5  C   UNL A   1      38.230  22.484  26.051  1.00  0.00     0.261 C 
BRANCH   5   6
ATOM      6  O   UNL A   1      36.988  21.831  25.738  1.00  0.00    -0.462 OA
BRANCH   6   7
ATOM      7  C   UNL A   1      36.395  22.154  24.559  1.00  0.00     0.329 C 
ATOM      8  O   UNL A   1      37.005  22.215  23.495  1.00  0.00    -0.250 OA
BRANCH   7   9
ATOM      9  C   UNL A   1      34.918  22.611  24.695  1.00  0.00     0.198 C 
ATOM     10  N   UNL A   1      33.937  22.523  23.587  1.00  0.00    -0.323 N 
ATOM     11  C   UNL A   1      33.022  21.421  23.798  1.00  0.00     0.152 C 
ATOM     12  C   UNL A   1      32.890  21.412  25.315  1.00  0.00     0.136 C 
ATOM     13  C   UNL A   1      34.306  21.725  25.794  1.00  0.00     0.071 C 
BRANCH  10  14
ATOM     14  C   UNL A   1      33.710  23.602  22.757  1.00  0.00     0.247 C 
ATOM     15  O   UNL A   1      33.399  23.475  21.574  1.00  0.00    -0.270 OA
BRANCH  14  16
ATOM     16  C   UNL A   1      33.832  24.969  23.329  1.00  0.00     0.072 C 
ATOM     17  C   UNL A   1      32.752  25.446  23.965  1.00  0.00     0.014 C 
BRANCH  17  18
ATOM     18  C   UNL A   1      32.595  26.684  24.753  1.00  0.00    -0.023 A 
ATOM     19  C   UNL A   1      31.751  30.720  26.096  1.00  0.00     0.044 C 
ATOM     20  C   UNL A   1      32.111  29.322  25.688  1.00  0.00    -0.051 A 
ATOM     21  C   UNL A   1      33.127  29.078  24.768  1.00  0.00     0.004 A 
ATOM     22  C   UNL A   1      31.392  28.232  26.194  1.00  0.00     0.007 A 
ATOM     23  C   UNL A   1      33.362  27.778  24.308  1.00  0.00     0.008 A 
ATOM     24  C   UNL A   1      31.621  26.910  25.744  1.00  0.00    -0.044 A 
ATOM     25  C   UNL A   1      30.710  25.857  26.315  1.00  0.00     0.045 C 
ENDBRANCH  17  18
ENDBRANCH  14  16
ENDBRANCH  10  14
BRANCH  12  26
ATOM     26  O   UNL A   1      32.423  20.179  25.827  1.00  0.00    -0.391 OA
ATOM     27  H   UNL A   1      32.730  20.071  26.740  1.00  0.00     0.211 HD
ENDBRANCH  12  26
ENDBRANCH   7   9
ENDBRANCH   6   7
ENDBRANCH   5   6
ENDBRANCH   4   5
ENDBRANCH   3   4
ENDBRANCH   2   3
ENDBRANCH   1   2
BRANCH   1  28
ATOM     28  O   UNL A   1      42.796  18.961  26.179  1.00  0.00    -0.377 OA
BRANCH  28  29
ATOM     29  C   UNL A   1      43.706  19.094  25.106  1.00  0.00     0.188 C 
BRANCH  29  30
ATOM     30  C   UNL A   1      45.216  19.104  25.398  1.00  0.00     0.188 C 
BRANCH  30  31
ATOM     31  O   UNL A   1      45.899  20.247  24.916  1.00  0.00    -0.376 OA
BRANCH  31  32
ATOM     32  C   UNL A   1      45.269  21.030  23.917  1.00  0.00     0.202 C 
BRANCH  32  33
ATOM     33  C   UNL A   1      45.026  22.523  24.197  1.00  0.00     0.261 C 
BRANCH  33  34
ATOM     34  O   UNL A   1      44.459  22.853  25.473  1.00  0.00    -0.460 OA
BRANCH  34  35
ATOM     35  C   UNL A   1      45.267  23.467  26.363  1.00  0.00     0.338 C 
ATOM     36  O   UNL A   1      46.474  23.397  26.440  1.00  0.00    -0.246 OA
BRANCH  35  37
ATOM     37  C   UNL A   1      44.429  24.405  27.140  1.00  0.00     0.060 A 
ATOM     38  C   UNL A   1      44.824  25.746  27.223  1.00  0.00     0.016 A 
ATOM     39  C   UNL A   1      43.263  23.966  27.772  1.00  0.00     0.016 A 
ATOM     40  C   UNL A   1      44.066  26.650  27.962  1.00  0.00     0.010 A 
ATOM     41  C   UNL A   1      42.521  24.866  28.541  1.00  0.00     0.010 A 
ATOM     42  C   UNL A   1      42.942  26.202  28.668  1.00  0.00    -0.014 A 
BRANCH  42  43
ATOM     43  C   UNL A   1      42.369  27.078  29.715  1.00  0.00     0.031 A 
ATOM     44  C   UNL A   1      43.054  27.115  31.054  1.00  0.00     0.074 A 
ATOM     45  C   UNL A   1      41.313  27.871  29.468  1.00  0.00     0.049 A 
ATOM     46  N   UNL A   1      42.762  27.809  32.122  1.00  0.00    -0.248 NA
ATOM     47  C   UNL A   1      44.233  26.247  31.202  1.00  0.00     0.031 C 
ATOM     48  C   UNL A   1      40.598  27.953  28.197  1.00  0.00     0.029 A 
ATOM     49  N   UNL A   1      40.662  28.763  30.283  1.00  0.00    -0.354 N 
ATOM     50  C   UNL A   1      43.721  27.464  33.066  1.00  0.00     0.074 A 
ATOM     51  C   UNL A   1      44.577  26.468  32.460  1.00  0.00     0.031 C 
ATOM     52  C   UNL A   1      39.594  28.840  28.322  1.00  0.00     0.029 A 
ATOM     53  C   UNL A   1      39.582  29.364  29.687  1.00  0.00     0.049 A 
ATOM     54  H   UNL A   1      40.942  28.952  31.208  1.00  0.00     0.167 HD
ATOM     55  C   UNL A   1      43.884  27.946  34.321  1.00  0.00     0.037 A 
ATOM     56  C   UNL A   1      38.679  30.225  30.198  1.00  0.00     0.037 A 
ATOM     57  C   UNL A   1      43.019  28.926  34.921  1.00  0.00     0.049 A 
ATOM     58  C   UNL A   1      38.833  30.689  31.625  1.00  0.00     0.074 A 
ATOM     59  C   UNL A   1      43.091  29.483  36.186  1.00  0.00     0.029 A 
ATOM     60  N   UNL A   1      41.911  29.487  34.300  1.00  0.00    -0.354 N 
ATOM     61  N   UNL A   1      39.755  30.380  32.505  1.00  0.00    -0.248 NA
ATOM     62  C   UNL A   1      37.824  31.634  32.126  1.00  0.00     0.031 C 
ATOM     63  C   UNL A   1      41.992  30.332  36.352  1.00  0.00     0.029 A 
ATOM     64  C   UNL A   1      41.275  30.362  35.165  1.00  0.00     0.049 A 
ATOM     65  H   UNL A   1      41.621  29.290  33.380  1.00  0.00     0.167 HD
ATOM     66  C   UNL A   1      39.456  31.109  33.649  1.00  0.00     0.074 A 
ATOM     67  C   UNL A   1      38.276  31.891  33.344  1.00  0.00     0.031 C 
ATOM     68  C   UNL A   1      40.100  31.133  34.843  1.00  0.00     0.037 A 
BRANCH  55  69
ATOM     69  C   UNL A   1      45.017  27.384  35.132  1.00  0.00     0.064 A 
ATOM     70  C   UNL A   1      44.854  26.258  35.954  1.00  0.00     0.173 A 
ATOM     71  C   UNL A   1      46.284  27.985  35.088  1.00  0.00     0.173 A 
ATOM     72  F   UNL A   1      43.658  25.657  36.048  1.00  0.00    -0.203 F 
ATOM     73  C   UNL A   1      45.907  25.776  36.728  1.00  0.00     0.198 A 
ATOM     74  C   UNL A   1      47.344  27.478  35.835  1.00  0.00     0.198 A 
ATOM     75  F   UNL A   1      46.497  29.063  34.319  1.00  0.00    -0.203 F 
ATOM     76  F   UNL A   1      45.709  24.739  37.553  1.00  0.00    -0.200 F 
ATOM     77  C   UNL A   1      47.152  26.382  36.663  1.00  0.00     0.200 A 
ATOM     78  F   UNL A   1      48.550  28.057  35.761  1.00  0.00    -0.200 F 
ATOM     79  F   UNL A   1      48.165  25.917  37.408  1.00  0.00    -0.200 F 
ENDBRANCH  55  69
BRANCH  56  80
ATOM     80  C   UNL A   1      37.540  30.689  29.360  1.00  0.00     0.064 A 
ATOM     81  C   UNL A   1      37.494  31.991  28.846  1.00  0.00     0.173 A 
ATOM     82  C   UNL A   1      36.463  29.836  29.072  1.00  0.00     0.173 A 
ATOM     83  F   UNL A   1      38.485  32.853  29.112  1.00  0.00    -0.203 F 
ATOM     84  C   UNL A   1      36.406  32.429  28.091  1.00  0.00     0.198 A 
ATOM     85  C   UNL A   1      35.392  30.265  28.290  1.00  0.00     0.198 A 
ATOM     86  F   UNL A   1      36.456  28.580  29.541  1.00  0.00    -0.203 F 
ATOM     87  F   UNL A   1      36.364  33.695  27.652  1.00  0.00    -0.200 F 
ATOM     88  C   UNL A   1      35.360  31.563  27.808  1.00  0.00     0.200 A 
ATOM     89  F   UNL A   1      34.392  29.419  28.007  1.00  0.00    -0.200 F 
ATOM     90  F   UNL A   1      34.318  31.982  27.076  1.00  0.00    -0.200 F 
ENDBRANCH  56  80
BRANCH  68  91
ATOM     91  C   UNL A   1      39.568  32.066  35.896  1.00  0.00     0.064 A 
ATOM     92  C   UNL A   1      38.533  31.691  36.766  1.00  0.00     0.173 A 
ATOM     93  C   UNL A   1      40.127  33.344  36.058  1.00  0.00     0.173 A 
ATOM     94  F   UNL A   1      37.956  30.485  36.649  1.00  0.00    -0.203 F 
ATOM     95  C   UNL A   1      38.051  32.573  37.730  1.00  0.00     0.198 A 
ATOM     96  C   UNL A   1      39.670  34.210  37.047  1.00  0.00     0.198 A 
ATOM     97  F   UNL A   1      41.127  33.751  35.261  1.00  0.00    -0.203 F 
ATOM     98  F   UNL A   1      37.021  32.216  38.508  1.00  0.00    -0.200 F 
ATOM     99  C   UNL A   1      38.625  33.828  37.875  1.00  0.00     0.200 A 
ATOM    100  F   UNL A   1      40.238  35.414  37.197  1.00  0.00    -0.200 F 
ATOM    101  F   UNL A   1      38.164  34.673  38.807  1.00  0.00    -0.200 F 
ENDBRANCH  68  91
ENDBRANCH  42  43
ENDBRANCH  35  37
ENDBRANCH  34  35
ENDBRANCH  33  34
ENDBRANCH  32  33
ENDBRANCH  31  32
ENDBRANCH  30  31
ENDBRANCH  29  30
ENDBRANCH  28  29
ENDBRANCH   1  28
TORSDOF 24
ENDMDL
MODEL 3
REMARK VINA RESULT:     -10.5      3.681      9.606
REMARK SMILES Cc1ccc(/C=C/C(=O)N2C[C@@H](O)C[C@H]2C(=O)OCCOCCOCCOCCOC(=O)c2ccc(-c3c4nc(c(-c5c(F)c(F)c(F)c(F)c5F)c5ccc([nH]5)c(-c5c(F)c(F)c(F)c(F)c5F)c5nc(c(-c6c(F)c(F)c(F)c(F)c6F)c6ccc3[nH]6)C=C5)C=C4)cc2)c(C)c1
REMARK SMILES IDX 23 1 22 2 21 3 20 4 19 5 18 6 16 7 17 8 15 9 10 10 11 11
REMARK SMILES IDX 12 12 14 13 8 14 9 15 7 16 6 17 5 18 1 19 2 20 3 21 98 22
REMARK SMILES IDX 4 23 96 24 97 25 13 26 24 28 25 29 26 30 27 31 28 32 29 33
REMARK SMILES IDX 30 34 31 35 32 36 33 37 34 38 95 39 35 40 94 41 36 42 37 43
REMARK SMILES IDX 38 44 88 45 39 46 93 47 87 48 89 49 40 50 92 51 86 52 85 53
REMARK SMILES IDX 41 55 73 56 53 57 72 58 54 59 57 60 71 61 90 62 55 63 56 64
REMARK SMILES IDX 70 66 91 67 58 68 42 69 43 70 51 71 44 72 45 73 49 74 52 75
REMARK SMILES IDX 46 76 47 77 50 78 48 79 74 80 75 81 83 82 76 83 77 84 81 85
REMARK SMILES IDX 84 86 78 87 79 88 82 89 80 90 59 91 60 92 68 93 61 94 62 95
REMARK SMILES IDX 66 96 69 97 63 98 64 99 67 100 65 101
REMARK H PARENT 13 27 89 54 57 65
REMARK Flexibility Score: inf
ROOT
ATOM      1  C   UNL A   1      30.602  28.176  23.480  1.00  0.00     0.188 C 
ENDROOT
BRANCH   1   2
ATOM      2  C   UNL A   1      29.300  27.360  23.530  1.00  0.00     0.188 C 
BRANCH   2   3
ATOM      3  O   UNL A   1      29.430  26.110  24.166  1.00  0.00    -0.376 OA
BRANCH   3   4
ATOM      4  C   UNL A   1      30.233  25.979  25.318  1.00  0.00     0.202 C 
BRANCH   4   5
ATOM      5  C   UNL A   1      30.642  24.635  25.955  1.00  0.00     0.261 C 
BRANCH   5   6
ATOM      6  O   UNL A   1      31.986  24.459  26.434  1.00  0.00    -0.462 OA
BRANCH   6   7
ATOM      7  C   UNL A   1      32.943  25.269  25.910  1.00  0.00     0.329 C 
ATOM      8  O   UNL A   1      33.206  26.380  26.364  1.00  0.00    -0.250 OA
BRANCH   7   9
ATOM      9  C   UNL A   1      33.557  24.751  24.582  1.00  0.00     0.198 C 
ATOM     10  N   UNL A   1      32.798  23.943  23.597  1.00  0.00    -0.323 N 
ATOM     11  C   UNL A   1      32.428  24.748  22.452  1.00  0.00     0.152 C 
ATOM     12  C   UNL A   1      33.617  25.692  22.336  1.00  0.00     0.136 C 
ATOM     13  C   UNL A   1      33.961  26.007  23.790  1.00  0.00     0.071 C 
BRANCH  10  14
ATOM     14  C   UNL A   1      32.852  22.565  23.621  1.00  0.00     0.247 C 
ATOM     15  O   UNL A   1      32.121  21.860  22.927  1.00  0.00    -0.270 OA
BRANCH  14  16
ATOM     16  C   UNL A   1      33.849  21.914  24.512  1.00  0.00     0.072 C 
ATOM     17  C   UNL A   1      35.137  22.053  24.165  1.00  0.00     0.014 C 
BRANCH  17  18
ATOM     18  C   UNL A   1      36.356  21.661  24.899  1.00  0.00    -0.023 A 
ATOM     19  C   UNL A   1      40.326  20.328  26.022  1.00  0.00     0.044 C 
ATOM     20  C   UNL A   1      38.922  20.752  25.708  1.00  0.00    -0.051 A 
ATOM     21  C   UNL A   1      38.015  19.870  25.125  1.00  0.00     0.004 A 
ATOM     22  C   UNL A   1      38.511  22.068  25.952  1.00  0.00     0.007 A 
ATOM     23  C   UNL A   1      36.753  20.321  24.726  1.00  0.00     0.008 A 
ATOM     24  C   UNL A   1      37.236  22.539  25.561  1.00  0.00    -0.044 A 
ATOM     25  C   UNL A   1      36.971  23.999  25.811  1.00  0.00     0.045 C 
ENDBRANCH  17  18
ENDBRANCH  14  16
ENDBRANCH  10  14
BRANCH  12  26
ATOM     26  O   UNL A   1      33.331  26.863  21.598  1.00  0.00    -0.391 OA
ATOM     27  H   UNL A   1      33.309  27.625  22.197  1.00  0.00     0.211 HD
ENDBRANCH  12  26
ENDBRANCH   7   9
ENDBRANCH   6   7
ENDBRANCH   5   6
ENDBRANCH   4   5
ENDBRANCH   3   4
ENDBRANCH   2   3
ENDBRANCH   1   2
BRANCH   1  28
ATOM     28  O   UNL A   1      30.828  29.331  24.275  1.00  0.00    -0.377 OA
BRANCH  28  29
ATOM     29  C   UNL A   1      32.011  29.437  25.040  1.00  0.00     0.188 C 
BRANCH  29  30
ATOM     30  C   UNL A   1      32.067  30.443  26.202  1.00  0.00     0.188 C 
BRANCH  30  31
ATOM     31  O   UNL A   1      31.084  31.461  26.144  1.00  0.00    -0.376 OA
BRANCH  31  32
ATOM     32  C   UNL A   1      31.477  32.788  26.450  1.00  0.00     0.202 C 
BRANCH  32  33
ATOM     33  C   UNL A   1      32.481  33.012  27.594  1.00  0.00     0.261 C 
BRANCH  33  34
ATOM     34  O   UNL A   1      33.846  33.238  27.216  1.00  0.00    -0.460 OA
BRANCH  34  35
ATOM     35  C   UNL A   1      34.595  33.996  28.044  1.00  0.00     0.338 C 
ATOM     36  O   UNL A   1      34.310  35.070  28.527  1.00  0.00    -0.246 OA
BRANCH  35  37
ATOM     37  C   UNL A   1      35.781  33.196  28.417  1.00  0.00     0.060 A 
ATOM     38  C   UNL A   1      35.643  31.807  28.533  1.00  0.00     0.016 A 
ATOM     39  C   UNL A   1      37.016  33.810  28.640  1.00  0.00     0.016 A 
ATOM     40  C   UNL A   1      36.737  31.028  28.900  1.00  0.00     0.010 A 
ATOM     41  C   UNL A   1      38.105  33.031  29.040  1.00  0.00     0.010 A 
ATOM     42  C   UNL A   1      37.957  31.643  29.207  1.00  0.00    -0.014 A 
BRANCH  42  43
ATOM     43  C   UNL A   1      38.985  30.856  29.928  1.00  0.00     0.031 A 
ATOM     44  C   UNL A   1      39.182  31.133  31.393  1.00  0.00     0.074 A 
ATOM     45  C   UNL A   1      39.674  29.876  29.321  1.00  0.00     0.049 A 
ATOM     46  N   UNL A   1      39.999  30.572  32.246  1.00  0.00    -0.248 NA
ATOM     47  C   UNL A   1      38.337  32.190  31.973  1.00  0.00     0.031 C 
ATOM     48  C   UNL A   1      39.535  29.489  27.920  1.00  0.00     0.029 A 
ATOM     49  N   UNL A   1      40.633  29.027  29.815  1.00  0.00    -0.354 N 
ATOM     50  C   UNL A   1      39.764  31.205  33.460  1.00  0.00     0.074 A 
ATOM     51  C   UNL A   1      38.761  32.221  33.225  1.00  0.00     0.031 C 
ATOM     52  C   UNL A   1      40.390  28.483  27.661  1.00  0.00     0.029 A 
ATOM     53  C   UNL A   1      41.152  28.177  28.871  1.00  0.00     0.049 A 
ATOM     54  H   UNL A   1      40.920  29.027  30.757  1.00  0.00     0.167 HD
ATOM     55  C   UNL A   1      40.322  30.952  34.667  1.00  0.00     0.037 A 
ATOM     56  C   UNL A   1      42.145  27.271  28.974  1.00  0.00     0.037 A 
ATOM     57  C   UNL A   1      41.330  29.949  34.890  1.00  0.00     0.049 A 
ATOM     58  C   UNL A   1      42.811  27.061  30.312  1.00  0.00     0.074 A 
ATOM     59  C   UNL A   1      41.965  29.610  36.072  1.00  0.00     0.029 A 
ATOM     60  N   UNL A   1      41.860  29.131  33.902  1.00  0.00    -0.354 N 
ATOM     61  N   UNL A   1      42.568  27.643  31.461  1.00  0.00    -0.248 NA
ATOM     62  C   UNL A   1      43.881  26.054  30.367  1.00  0.00     0.031 C 
ATOM     63  C   UNL A   1      42.923  28.631  35.786  1.00  0.00     0.029 A 
ATOM     64  C   UNL A   1      42.835  28.308  34.441  1.00  0.00     0.049 A 
ATOM     65  H   UNL A   1      41.584  29.136  32.956  1.00  0.00     0.167 HD
ATOM     66  C   UNL A   1      43.431  27.058  32.380  1.00  0.00     0.074 A 
ATOM     67  C   UNL A   1      44.191  26.060  31.655  1.00  0.00     0.031 C 
ATOM     68  C   UNL A   1      43.581  27.319  33.703  1.00  0.00     0.037 A 
BRANCH  55  69
ATOM     69  C   UNL A   1      39.879  31.803  35.823  1.00  0.00     0.064 A 
ATOM     70  C   UNL A   1      38.721  31.509  36.561  1.00  0.00     0.173 A 
ATOM     71  C   UNL A   1      40.623  32.933  36.196  1.00  0.00     0.173 A 
ATOM     72  F   UNL A   1      37.963  30.452  36.235  1.00  0.00    -0.203 F 
ATOM     73  C   UNL A   1      38.307  32.334  37.604  1.00  0.00     0.198 A 
ATOM     74  C   UNL A   1      40.226  33.734  37.263  1.00  0.00     0.198 A 
ATOM     75  F   UNL A   1      41.738  33.261  35.526  1.00  0.00    -0.203 F 
ATOM     76  F   UNL A   1      37.165  32.069  38.252  1.00  0.00    -0.200 F 
ATOM     77  C   UNL A   1      39.063  33.441  37.958  1.00  0.00     0.200 A 
ATOM     78  F   UNL A   1      40.964  34.797  37.612  1.00  0.00    -0.200 F 
ATOM     79  F   UNL A   1      38.663  34.233  38.963  1.00  0.00    -0.200 F 
ENDBRANCH  55  69
BRANCH  56  80
ATOM     80  C   UNL A   1      42.583  26.510  27.773  1.00  0.00     0.064 A 
ATOM     81  C   UNL A   1      42.035  25.259  27.461  1.00  0.00     0.173 A 
ATOM     82  C   UNL A   1      43.574  27.018  26.919  1.00  0.00     0.173 A 
ATOM     83  F   UNL A   1      41.102  24.718  28.258  1.00  0.00    -0.203 F 
ATOM     84  C   UNL A   1      42.476  24.536  26.353  1.00  0.00     0.198 A 
ATOM     85  C   UNL A   1      43.991  26.308  25.794  1.00  0.00     0.198 A 
ATOM     86  F   UNL A   1      44.134  28.210  27.172  1.00  0.00    -0.203 F 
ATOM     87  F   UNL A   1      41.970  23.320  26.106  1.00  0.00    -0.200 F 
ATOM     88  C   UNL A   1      43.448  25.065  25.517  1.00  0.00     0.200 A 
ATOM     89  F   UNL A   1      44.919  26.831  24.982  1.00  0.00    -0.200 F 
ATOM     90  F   UNL A   1      43.865  24.372  24.448  1.00  0.00    -0.200 F 
ENDBRANCH  56  80
BRANCH  68  91
ATOM     91  C   UNL A   1      44.575  26.485  34.463  1.00  0.00     0.064 A 
ATOM     92  C   UNL A   1      44.206  25.298  35.113  1.00  0.00     0.173 A 
ATOM     93  C   UNL A   1      45.926  26.865  34.515  1.00  0.00     0.173 A 
ATOM     94  F   UNL A   1      42.926  24.893  35.105  1.00  0.00    -0.203 F 
ATOM     95  C   UNL A   1      45.142  24.544  35.817  1.00  0.00     0.198 A 
ATOM     96  C   UNL A   1      46.867  26.090  35.187  1.00  0.00     0.198 A 
ATOM     97  F   UNL A   1      46.337  27.986  33.902  1.00  0.00    -0.203 F 
ATOM     98  F   UNL A   1      44.754  23.447  36.481  1.00  0.00    -0.200 F 
ATOM     99  C   UNL A   1      46.472  24.937  35.847  1.00  0.00     0.200 A 
ATOM    100  F   UNL A   1      48.154  26.462  35.198  1.00  0.00    -0.200 F 
ATOM    101  F   UNL A   1      47.373  24.207  36.520  1.00  0.00    -0.200 F 
ENDBRANCH  68  91
ENDBRANCH  42  43
ENDBRANCH  35  37
ENDBRANCH  34  35
ENDBRANCH  33  34
ENDBRANCH  32  33
ENDBRANCH  31  32
ENDBRANCH  30  31
ENDBRANCH  29  30
ENDBRANCH  28  29
ENDBRANCH   1  28
TORSDOF 24
ENDMDL
