MODEL 1
REMARK VINA RESULT:     -10.8      0.000      0.000
REMARK SMILES O=C(OCCOCCOCCOCCOC(=O)[C@H]1O[C@@H](Oc2c(-c3cc(O)c(O)c(O)c3)oc3cc(O)cc(O)c3c2=O)[C@H](O)[C@@H](O)[C@@H]1O)c1ccc(-c2c3nc(c(-c4c(F)c(F)c(F)c(F)c4F)c4ccc([nH]4)c(-c4c(F)c(F)c(F)c(F)c4F)c4nc(c(-c5c(F)c(F)c(F)c(F)c5F)c5ccc2[nH]5)C=C4)C=C3)cc1
REMARK SMILES IDX 10 1 9 2 8 3 7 4 6 5 5 6 4 7 3 8 2 9 1 10 50 11 51 12 112 13
REMARK SMILES IDX 52 14 111 15 53 16 54 17 55 18 105 19 56 20 110 21 104 22
REMARK SMILES IDX 106 23 57 24 109 25 103 26 102 27 58 29 90 30 70 31 89 32
REMARK SMILES IDX 71 33 74 34 88 35 107 36 72 37 73 38 87 40 108 41 75 42
REMARK SMILES IDX 59 43 60 44 68 45 61 46 62 47 66 48 69 49 63 50 64 51 67 52
REMARK SMILES IDX 65 53 91 54 92 55 100 56 93 57 94 58 98 59 101 60 95 61
REMARK SMILES IDX 96 62 99 63 97 64 76 65 77 66 85 67 78 68 79 69 83 70 86 71
REMARK SMILES IDX 80 72 81 73 84 74 82 75 11 76 12 77 13 78 14 79 15 80 16 81
REMARK SMILES IDX 17 82 18 83 19 84 48 85 20 86 46 87 44 88 49 89 21 91 22 92
REMARK SMILES IDX 23 93 42 94 33 95 41 96 43 97 34 98 39 99 35 100 38 101
REMARK SMILES IDX 36 102 24 103 25 104 32 105 26 106 30 107 28 108 27 109
REMARK SMILES IDX 31 111 29 113 40 115 37 117 47 119 45 121
REMARK H PARENT 106 28 74 39 49 90 27 110 31 112 29 114 40 116 37 118 47 120
REMARK H PARENT 45 122
REMARK Flexibility Score: inf
ROOT
ATOM      1  C   UNL A   1      34.757  24.280  25.068  1.00  0.00     0.188 C 
ENDROOT
BRANCH   1   2
ATOM      2  O   UNL A   1      35.877  23.485  24.740  1.00  0.00    -0.377 OA
BRANCH   2   3
ATOM      3  C   UNL A   1      36.998  23.640  25.598  1.00  0.00     0.188 C 
BRANCH   3   4
ATOM      4  C   UNL A   1      37.940  22.434  25.702  1.00  0.00     0.188 C 
BRANCH   4   5
ATOM      5  O   UNL A   1      37.692  21.437  24.702  1.00  0.00    -0.376 OA
BRANCH   5   6
ATOM      6  C   UNL A   1      38.187  20.117  24.948  1.00  0.00     0.202 C 
BRANCH   6   7
ATOM      7  C   UNL A   1      39.251  19.978  26.036  1.00  0.00     0.261 C 
BRANCH   7   8
ATOM      8  O   UNL A   1      40.416  19.251  25.631  1.00  0.00    -0.460 OA
BRANCH   8   9
ATOM      9  C   UNL A   1      41.709  19.446  25.984  1.00  0.00     0.338 C 
ATOM     10  O   UNL A   1      42.434  18.456  26.079  1.00  0.00    -0.246 OA
BRANCH   9  11
ATOM     11  C   UNL A   1      42.311  20.776  26.326  1.00  0.00     0.060 A 
ATOM     12  C   UNL A   1      42.586  21.234  27.612  1.00  0.00     0.016 A 
ATOM     13  C   UNL A   1      42.683  21.606  25.253  1.00  0.00     0.016 A 
ATOM     14  C   UNL A   1      43.218  22.436  27.852  1.00  0.00     0.010 A 
ATOM     15  C   UNL A   1      43.276  22.852  25.476  1.00  0.00     0.010 A 
ATOM     16  C   UNL A   1      43.523  23.266  26.787  1.00  0.00    -0.014 A 
BRANCH  16  17
ATOM     17  C   UNL A   1      43.815  24.655  27.149  1.00  0.00     0.031 A 
ATOM     18  C   UNL A   1      45.175  25.166  26.793  1.00  0.00     0.074 A 
ATOM     19  C   UNL A   1      42.815  25.465  27.530  1.00  0.00     0.049 A 
ATOM     20  N   UNL A   1      45.709  26.333  27.011  1.00  0.00    -0.248 NA
ATOM     21  C   UNL A   1      46.048  24.235  26.050  1.00  0.00     0.031 C 
ATOM     22  C   UNL A   1      41.410  25.068  27.660  1.00  0.00     0.029 A 
ATOM     23  N   UNL A   1      42.818  26.797  27.831  1.00  0.00    -0.354 N 
ATOM     24  C   UNL A   1      46.987  26.261  26.474  1.00  0.00     0.074 A 
ATOM     25  C   UNL A   1      47.151  24.948  25.903  1.00  0.00     0.031 C 
ATOM     26  C   UNL A   1      40.685  26.140  28.019  1.00  0.00     0.029 A 
ATOM     27  C   UNL A   1      41.587  27.267  28.218  1.00  0.00     0.049 A 
ATOM     28  H   UNL A   1      43.620  27.363  27.775  1.00  0.00     0.167 HD
ATOM     29  C   UNL A   1      47.939  27.219  26.487  1.00  0.00     0.037 A 
ATOM     30  C   UNL A   1      41.265  28.468  28.732  1.00  0.00     0.037 A 
ATOM     31  C   UNL A   1      47.718  28.509  27.077  1.00  0.00     0.049 A 
ATOM     32  C   UNL A   1      42.383  29.468  28.881  1.00  0.00     0.074 A 
ATOM     33  C   UNL A   1      48.609  29.546  27.264  1.00  0.00     0.029 A 
ATOM     34  N   UNL A   1      46.491  28.928  27.583  1.00  0.00    -0.354 N 
ATOM     35  N   UNL A   1      43.635  29.373  28.494  1.00  0.00    -0.248 NA
ATOM     36  C   UNL A   1      42.056  30.728  29.554  1.00  0.00     0.031 C 
ATOM     37  C   UNL A   1      47.933  30.572  27.935  1.00  0.00     0.029 A 
ATOM     38  C   UNL A   1      46.604  30.201  28.105  1.00  0.00     0.049 A 
ATOM     39  H   UNL A   1      45.664  28.394  27.571  1.00  0.00     0.167 HD
ATOM     40  C   UNL A   1      44.242  30.565  28.855  1.00  0.00     0.074 A 
ATOM     41  C   UNL A   1      43.210  31.375  29.477  1.00  0.00     0.031 C 
ATOM     42  C   UNL A   1      45.531  30.961  28.698  1.00  0.00     0.037 A 
BRANCH  29  43
ATOM     43  C   UNL A   1      49.292  26.843  25.964  1.00  0.00     0.064 A 
ATOM     44  C   UNL A   1      49.674  27.069  24.632  1.00  0.00     0.173 A 
ATOM     45  C   UNL A   1      50.200  26.172  26.798  1.00  0.00     0.173 A 
ATOM     46  F   UNL A   1      48.828  27.667  23.779  1.00  0.00    -0.203 F 
ATOM     47  C   UNL A   1      50.899  26.610  24.149  1.00  0.00     0.198 A 
ATOM     48  C   UNL A   1      51.435  25.741  26.320  1.00  0.00     0.198 A 
ATOM     49  F   UNL A   1      49.879  25.912  28.075  1.00  0.00    -0.203 F 
ATOM     50  F   UNL A   1      51.211  26.772  22.856  1.00  0.00    -0.200 F 
ATOM     51  C   UNL A   1      51.779  25.950  24.994  1.00  0.00     0.200 A 
ATOM     52  F   UNL A   1      52.281  25.102  27.139  1.00  0.00    -0.200 F 
ATOM     53  F   UNL A   1      52.950  25.498  24.525  1.00  0.00    -0.200 F 
ENDBRANCH  29  43
BRANCH  30  54
ATOM     54  C   UNL A   1      39.884  28.745  29.208  1.00  0.00     0.064 A 
ATOM     55  C   UNL A   1      39.487  28.447  30.518  1.00  0.00     0.173 A 
ATOM     56  C   UNL A   1      38.915  29.292  28.348  1.00  0.00     0.173 A 
ATOM     57  F   UNL A   1      40.362  27.904  31.377  1.00  0.00    -0.203 F 
ATOM     58  C   UNL A   1      38.175  28.664  30.942  1.00  0.00     0.198 A 
ATOM     59  C   UNL A   1      37.615  29.539  28.782  1.00  0.00     0.198 A 
ATOM     60  F   UNL A   1      39.233  29.591  27.080  1.00  0.00    -0.203 F 
ATOM     61  F   UNL A   1      37.809  28.317  32.184  1.00  0.00    -0.200 F 
ATOM     62  C   UNL A   1      37.241  29.214  30.075  1.00  0.00     0.200 A 
ATOM     63  F   UNL A   1      36.722  30.082  27.942  1.00  0.00    -0.200 F 
ATOM     64  F   UNL A   1      35.981  29.417  30.482  1.00  0.00    -0.200 F 
ENDBRANCH  30  54
BRANCH  42  65
ATOM     65  C   UNL A   1      45.868  32.345  29.161  1.00  0.00     0.064 A 
ATOM     66  C   UNL A   1      46.421  32.583  30.426  1.00  0.00     0.173 A 
ATOM     67  C   UNL A   1      45.692  33.435  28.296  1.00  0.00     0.173 A 
ATOM     68  F   UNL A   1      46.593  31.572  31.291  1.00  0.00    -0.203 F 
ATOM     69  C   UNL A   1      46.763  33.873  30.819  1.00  0.00     0.198 A 
ATOM     70  C   UNL A   1      46.070  34.715  28.678  1.00  0.00     0.198 A 
ATOM     71  F   UNL A   1      45.175  33.250  27.072  1.00  0.00    -0.203 F 
ATOM     72  F   UNL A   1      47.245  34.090  32.051  1.00  0.00    -0.200 F 
ATOM     73  C   UNL A   1      46.598  34.935  29.942  1.00  0.00     0.200 A 
ATOM     74  F   UNL A   1      45.929  35.736  27.822  1.00  0.00    -0.200 F 
ATOM     75  F   UNL A   1      46.945  36.174  30.316  1.00  0.00    -0.200 F 
ENDBRANCH  42  65
ENDBRANCH  16  17
ENDBRANCH   9  11
ENDBRANCH   8   9
ENDBRANCH   7   8
ENDBRANCH   6   7
ENDBRANCH   5   6
ENDBRANCH   4   5
ENDBRANCH   3   4
ENDBRANCH   2   3
ENDBRANCH   1   2
BRANCH   1  76
ATOM     76  C   UNL A   1      33.904  23.902  26.300  1.00  0.00     0.188 C 
BRANCH  76  77
ATOM     77  O   UNL A   1      33.817  22.504  26.516  1.00  0.00    -0.376 OA
BRANCH  77  78
ATOM     78  C   UNL A   1      32.909  21.768  25.700  1.00  0.00     0.202 C 
BRANCH  78  79
ATOM     79  C   UNL A   1      31.412  22.129  25.699  1.00  0.00     0.261 C 
BRANCH  79  80
ATOM     80  O   UNL A   1      31.058  23.256  24.878  1.00  0.00    -0.461 OA
BRANCH  80  81
ATOM     81  C   UNL A   1      31.280  23.204  23.541  1.00  0.00     0.338 C 
ATOM     82  O   UNL A   1      31.522  22.165  22.939  1.00  0.00    -0.249 OA
BRANCH  81  83
ATOM     83  C   UNL A   1      31.160  24.596  22.862  1.00  0.00     0.263 C 
ATOM     84  O   UNL A   1      30.787  25.582  23.852  1.00  0.00    -0.322 OA
ATOM     85  C   UNL A   1      32.438  25.121  22.208  1.00  0.00     0.186 C 
ATOM     86  C   UNL A   1      30.388  26.823  23.268  1.00  0.00     0.340 C 
ATOM     87  C   UNL A   1      32.219  26.426  21.475  1.00  0.00     0.181 C 
ATOM     88  C   UNL A   1      31.477  27.426  22.345  1.00  0.00     0.214 C 
BRANCH  85  89
ATOM     89  O   UNL A   1      33.046  24.231  21.282  1.00  0.00    -0.387 OA
ATOM     90  H   UNL A   1      32.399  23.976  20.606  1.00  0.00     0.211 HD
ENDBRANCH  85  89
BRANCH  86  91
ATOM     91  O   UNL A   1      29.941  27.830  24.209  1.00  0.00    -0.454 OA
BRANCH  91  92
ATOM     92  C   UNL A   1      30.804  28.816  24.667  1.00  0.00     0.214 A 
ATOM     93  C   UNL A   1      30.568  30.144  24.538  1.00  0.00     0.181 A 
ATOM     94  C   UNL A   1      31.904  28.416  25.607  1.00  0.00     0.239 A 
ATOM     95  O   UNL A   1      31.328  31.144  25.107  1.00  0.00    -0.452 OA
ATOM     96  C   UNL A   1      32.536  29.497  26.414  1.00  0.00     0.111 A 
ATOM     97  O   UNL A   1      32.228  27.235  25.713  1.00  0.00    -0.285 OA
ATOM     98  C   UNL A   1      32.191  30.814  26.113  1.00  0.00     0.146 A 
ATOM     99  C   UNL A   1      33.433  29.273  27.472  1.00  0.00     0.134 A 
ATOM    100  C   UNL A   1      32.714  31.887  26.841  1.00  0.00     0.094 A 
ATOM    101  C   UNL A   1      33.958  30.344  28.211  1.00  0.00     0.093 A 
ATOM    102  C   UNL A   1      33.588  31.644  27.889  1.00  0.00     0.123 A 
BRANCH  93 103
ATOM    103  C   UNL A   1      29.506  30.702  23.684  1.00  0.00     0.029 A 
ATOM    104  C   UNL A   1      29.216  32.076  23.797  1.00  0.00     0.062 A 
ATOM    105  C   UNL A   1      28.886  29.943  22.682  1.00  0.00     0.062 A 
ATOM    106  C   UNL A   1      28.438  32.702  22.831  1.00  0.00     0.162 A 
ATOM    107  C   UNL A   1      28.081  30.582  21.743  1.00  0.00     0.162 A 
ATOM    108  C   UNL A   1      27.887  31.961  21.793  1.00  0.00     0.200 A 
BRANCH 106 109
ATOM    109  O   UNL A   1      28.310  34.059  22.893  1.00  0.00    -0.504 OA
ATOM    110  H   UNL A   1      27.632  34.488  22.409  1.00  0.00     0.293 HD
ENDBRANCH 106 109
BRANCH 107 111
ATOM    111  O   UNL A   1      27.591  29.855  20.696  1.00  0.00    -0.504 OA
ATOM    112  H   UNL A   1      26.868  29.272  20.827  1.00  0.00     0.293 HD
ENDBRANCH 107 111
BRANCH 108 113
ATOM    113  O   UNL A   1      27.222  32.568  20.762  1.00  0.00    -0.502 OA
ATOM    114  H   UNL A   1      27.703  32.934  20.046  1.00  0.00     0.293 HD
ENDBRANCH 108 113
ENDBRANCH  93 103
BRANCH  99 115
ATOM    115  O   UNL A   1      33.800  28.005  27.819  1.00  0.00    -0.507 OA
ATOM    116  H   UNL A   1      34.551  27.866  28.361  1.00  0.00     0.293 HD
ENDBRANCH  99 115
BRANCH 102 117
ATOM    117  O   UNL A   1      34.056  32.720  28.583  1.00  0.00    -0.508 OA
ATOM    118  H   UNL A   1      33.466  33.241  29.092  1.00  0.00     0.293 HD
ENDBRANCH 102 117
ENDBRANCH  91  92
ENDBRANCH  86  91
BRANCH  87 119
ATOM    119  O   UNL A   1      33.522  26.947  21.093  1.00  0.00    -0.387 OA
ATOM    120  H   UNL A   1      33.410  27.805  20.654  1.00  0.00     0.211 HD
ENDBRANCH  87 119
BRANCH  88 121
ATOM    121  O   UNL A   1      30.969  28.457  21.495  1.00  0.00    -0.384 OA
ATOM    122  H   UNL A   1      31.693  29.051  21.240  1.00  0.00     0.211 HD
ENDBRANCH  88 121
ENDBRANCH  81  83
ENDBRANCH  80  81
ENDBRANCH  79  80
ENDBRANCH  78  79
ENDBRANCH  77  78
ENDBRANCH  76  77
ENDBRANCH   1  76
TORSDOF 31
ENDMDL
MODEL 2
REMARK VINA RESULT:     -10.0      5.882     10.991
REMARK SMILES O=C(OCCOCCOCCOCCOC(=O)[C@H]1O[C@@H](Oc2c(-c3cc(O)c(O)c(O)c3)oc3cc(O)cc(O)c3c2=O)[C@H](O)[C@@H](O)[C@@H]1O)c1ccc(-c2c3nc(c(-c4c(F)c(F)c(F)c(F)c4F)c4ccc([nH]4)c(-c4c(F)c(F)c(F)c(F)c4F)c4nc(c(-c5c(F)c(F)c(F)c(F)c5F)c5ccc2[nH]5)C=C4)C=C3)cc1
REMARK SMILES IDX 10 1 9 2 8 3 7 4 6 5 5 6 4 7 3 8 2 9 1 10 50 11 51 12 112 13
REMARK SMILES IDX 52 14 111 15 53 16 54 17 55 18 105 19 56 20 110 21 104 22
REMARK SMILES IDX 106 23 57 24 109 25 103 26 102 27 58 29 90 30 70 31 89 32
REMARK SMILES IDX 71 33 74 34 88 35 107 36 72 37 73 38 87 40 108 41 75 42
REMARK SMILES IDX 59 43 60 44 68 45 61 46 62 47 66 48 69 49 63 50 64 51 67 52
REMARK SMILES IDX 65 53 91 54 92 55 100 56 93 57 94 58 98 59 101 60 95 61
REMARK SMILES IDX 96 62 99 63 97 64 76 65 77 66 85 67 78 68 79 69 83 70 86 71
REMARK SMILES IDX 80 72 81 73 84 74 82 75 11 76 12 77 13 78 14 79 15 80 16 81
REMARK SMILES IDX 17 82 18 83 19 84 48 85 20 86 46 87 44 88 49 89 21 91 22 92
REMARK SMILES IDX 23 93 42 94 33 95 41 96 43 97 34 98 39 99 35 100 38 101
REMARK SMILES IDX 36 102 24 103 25 104 32 105 26 106 30 107 28 108 27 109
REMARK SMILES IDX 31 111 29 113 40 115 37 117 47 119 45 121
REMARK H PARENT 106 28 74 39 49 90 27 110 31 112 29 114 40 116 37 118 47 120
REMARK H PARENT 45 122
REMARK Flexibility Score: inf
ROOT
ATOM      1  C   UNL A   1      45.560  24.904  30.019  1.00  0.00     0.188 C 
ENDROOT
BRANCH   1   2
ATOM      2  O   UNL A   1      44.838  24.353  28.937  1.00  0.00    -0.377 OA
BRANCH   2   3
ATOM      3  C   UNL A   1      43.576  23.797  29.277  1.00  0.00     0.188 C 
BRANCH   3   4
ATOM      4  C   UNL A   1      43.088  22.643  28.392  1.00  0.00     0.188 C 
BRANCH   4   5
ATOM      5  O   UNL A   1      43.762  22.576  27.129  1.00  0.00    -0.376 OA
BRANCH   5   6
ATOM      6  C   UNL A   1      43.043  22.019  26.024  1.00  0.00     0.202 C 
BRANCH   6   7
ATOM      7  C   UNL A   1      41.749  21.276  26.357  1.00  0.00     0.261 C 
BRANCH   7   8
ATOM      8  O   UNL A   1      40.576  21.840  25.759  1.00  0.00    -0.460 OA
BRANCH   8   9
ATOM      9  C   UNL A   1      39.639  22.645  26.313  1.00  0.00     0.338 C 
ATOM     10  O   UNL A   1      38.478  22.235  26.349  1.00  0.00    -0.246 OA
BRANCH   9  11
ATOM     11  C   UNL A   1      39.898  24.027  26.833  1.00  0.00     0.060 A 
ATOM     12  C   UNL A   1      40.264  25.127  26.062  1.00  0.00     0.016 A 
ATOM     13  C   UNL A   1      39.695  24.243  28.208  1.00  0.00     0.016 A 
ATOM     14  C   UNL A   1      40.405  26.392  26.593  1.00  0.00     0.010 A 
ATOM     15  C   UNL A   1      39.885  25.506  28.776  1.00  0.00     0.010 A 
ATOM     16  C   UNL A   1      40.260  26.573  27.958  1.00  0.00    -0.014 A 
BRANCH  16  17
ATOM     17  C   UNL A   1      40.809  27.829  28.476  1.00  0.00     0.031 A 
ATOM     18  C   UNL A   1      42.276  28.047  28.280  1.00  0.00     0.074 A 
ATOM     19  C   UNL A   1      39.976  28.812  28.854  1.00  0.00     0.049 A 
ATOM     20  N   UNL A   1      43.026  29.044  28.653  1.00  0.00    -0.248 NA
ATOM     21  C   UNL A   1      42.995  27.004  27.521  1.00  0.00     0.031 C 
ATOM     22  C   UNL A   1      38.513  28.732  28.833  1.00  0.00     0.029 A 
ATOM     23  N   UNL A   1      40.238  30.081  29.283  1.00  0.00    -0.354 N 
ATOM     24  C   UNL A   1      44.305  28.727  28.214  1.00  0.00     0.074 A 
ATOM     25  C   UNL A   1      44.235  27.460  27.532  1.00  0.00     0.031 C 
ATOM     26  C   UNL A   1      38.006  29.908  29.236  1.00  0.00     0.029 A 
ATOM     27  C   UNL A   1      39.107  30.785  29.616  1.00  0.00     0.049 A 
ATOM     28  H   UNL A   1      41.146  30.454  29.346  1.00  0.00     0.167 HD
ATOM     29  C   UNL A   1      45.436  29.443  28.395  1.00  0.00     0.037 A 
ATOM     30  C   UNL A   1      39.004  31.983  30.217  1.00  0.00     0.037 A 
ATOM     31  C   UNL A   1      45.443  30.700  29.089  1.00  0.00     0.049 A 
ATOM     32  C   UNL A   1      40.292  32.692  30.551  1.00  0.00     0.074 A 
ATOM     33  C   UNL A   1      46.515  31.493  29.446  1.00  0.00     0.029 A 
ATOM     34  N   UNL A   1      44.293  31.343  29.535  1.00  0.00    -0.354 N 
ATOM     35  N   UNL A   1      41.525  32.348  30.256  1.00  0.00    -0.248 NA
ATOM     36  C   UNL A   1      40.181  33.937  31.316  1.00  0.00     0.031 C 
ATOM     37  C   UNL A   1      46.014  32.589  30.158  1.00  0.00     0.029 A 
ATOM     38  C   UNL A   1      44.627  32.515  30.186  1.00  0.00     0.049 A 
ATOM     39  H   UNL A   1      43.375  31.012  29.405  1.00  0.00     0.167 HD
ATOM     40  C   UNL A   1      42.338  33.341  30.779  1.00  0.00     0.074 A 
ATOM     41  C   UNL A   1      41.450  34.312  31.393  1.00  0.00     0.031 C 
ATOM     42  C   UNL A   1      43.691  33.448  30.764  1.00  0.00     0.037 A 
BRANCH  29  43
ATOM     43  C   UNL A   1      46.720  28.814  27.947  1.00  0.00     0.064 A 
ATOM     44  C   UNL A   1      47.151  28.853  26.611  1.00  0.00     0.173 A 
ATOM     45  C   UNL A   1      47.500  28.091  28.863  1.00  0.00     0.173 A 
ATOM     46  F   UNL A   1      46.421  29.492  25.684  1.00  0.00    -0.203 F 
ATOM     47  C   UNL A   1      48.295  28.166  26.206  1.00  0.00     0.198 A 
ATOM     48  C   UNL A   1      48.657  27.431  28.461  1.00  0.00     0.198 A 
ATOM     49  F   UNL A   1      47.124  28.004  30.148  1.00  0.00    -0.203 F 
ATOM     50  F   UNL A   1      48.646  28.156  24.913  1.00  0.00    -0.200 F 
ATOM     51  C   UNL A   1      49.048  27.459  27.132  1.00  0.00     0.200 A 
ATOM     52  F   UNL A   1      49.381  26.747  29.357  1.00  0.00    -0.200 F 
ATOM     53  F   UNL A   1      50.140  26.789  26.739  1.00  0.00    -0.200 F 
ENDBRANCH  29  43
BRANCH  30  54
ATOM     54  C   UNL A   1      37.675  32.526  30.607  1.00  0.00     0.064 A 
ATOM     55  C   UNL A   1      36.933  33.338  29.740  1.00  0.00     0.173 A 
ATOM     56  C   UNL A   1      37.128  32.266  31.875  1.00  0.00     0.173 A 
ATOM     57  F   UNL A   1      37.414  33.638  28.525  1.00  0.00    -0.203 F 
ATOM     58  C   UNL A   1      35.710  33.885  30.132  1.00  0.00     0.198 A 
ATOM     59  C   UNL A   1      35.893  32.785  32.254  1.00  0.00     0.198 A 
ATOM     60  F   UNL A   1      37.796  31.502  32.752  1.00  0.00    -0.203 F 
ATOM     61  F   UNL A   1      35.048  34.704  29.303  1.00  0.00    -0.200 F 
ATOM     62  C   UNL A   1      35.188  33.604  31.387  1.00  0.00     0.200 A 
ATOM     63  F   UNL A   1      35.390  32.498  33.463  1.00  0.00    -0.200 F 
ATOM     64  F   UNL A   1      34.017  34.134  31.764  1.00  0.00    -0.200 F 
ENDBRANCH  30  54
BRANCH  42  65
ATOM     65  C   UNL A   1      44.273  34.680  31.384  1.00  0.00     0.064 A 
ATOM     66  C   UNL A   1      44.594  34.736  32.747  1.00  0.00     0.173 A 
ATOM     67  C   UNL A   1      44.569  35.794  30.585  1.00  0.00     0.173 A 
ATOM     68  F   UNL A   1      44.315  33.700  33.552  1.00  0.00    -0.203 F 
ATOM     69  C   UNL A   1      45.171  35.878  33.293  1.00  0.00     0.198 A 
ATOM     70  C   UNL A   1      45.181  36.917  31.126  1.00  0.00     0.198 A 
ATOM     71  F   UNL A   1      44.288  35.779  29.273  1.00  0.00    -0.203 F 
ATOM     72  F   UNL A   1      45.427  35.933  34.607  1.00  0.00    -0.200 F 
ATOM     73  C   UNL A   1      45.474  36.962  32.481  1.00  0.00     0.200 A 
ATOM     74  F   UNL A   1      45.491  37.955  30.337  1.00  0.00    -0.200 F 
ATOM     75  F   UNL A   1      46.046  38.054  33.006  1.00  0.00    -0.200 F 
ENDBRANCH  42  65
ENDBRANCH  16  17
ENDBRANCH   9  11
ENDBRANCH   8   9
ENDBRANCH   7   8
ENDBRANCH   6   7
ENDBRANCH   5   6
ENDBRANCH   4   5
ENDBRANCH   3   4
ENDBRANCH   2   3
ENDBRANCH   1   2
BRANCH   1  76
ATOM     76  C   UNL A   1      44.785  25.573  31.176  1.00  0.00     0.188 C 
BRANCH  76  77
ATOM     77  O   UNL A   1      45.628  26.165  32.149  1.00  0.00    -0.376 OA
BRANCH  77  78
ATOM     78  C   UNL A   1      45.297  25.958  33.520  1.00  0.00     0.202 C 
BRANCH  78  79
ATOM     79  C   UNL A   1      46.414  25.873  34.576  1.00  0.00     0.261 C 
BRANCH  79  80
ATOM     80  O   UNL A   1      46.331  26.848  35.631  1.00  0.00    -0.461 OA
BRANCH  80  81
ATOM     81  C   UNL A   1      45.951  26.457  36.873  1.00  0.00     0.338 C 
ATOM     82  O   UNL A   1      46.730  26.000  37.701  1.00  0.00    -0.249 OA
BRANCH  81  83
ATOM     83  C   UNL A   1      44.437  26.685  37.134  1.00  0.00     0.263 C 
ATOM     84  O   UNL A   1      43.889  27.512  36.081  1.00  0.00    -0.322 OA
ATOM     85  C   UNL A   1      43.578  25.422  37.166  1.00  0.00     0.186 C 
ATOM     86  C   UNL A   1      42.581  27.996  36.389  1.00  0.00     0.340 C 
ATOM     87  C   UNL A   1      42.138  25.710  37.533  1.00  0.00     0.181 C 
ATOM     88  C   UNL A   1      41.581  26.854  36.704  1.00  0.00     0.214 C 
BRANCH  85  89
ATOM     89  O   UNL A   1      44.030  24.412  38.058  1.00  0.00    -0.387 OA
ATOM     90  H   UNL A   1      43.460  23.632  37.980  1.00  0.00     0.211 HD
ENDBRANCH  85  89
BRANCH  86  91
ATOM     91  O   UNL A   1      42.004  28.884  35.400  1.00  0.00    -0.454 OA
BRANCH  91  92
ATOM     92  C   UNL A   1      41.733  30.212  35.700  1.00  0.00     0.214 A 
ATOM     93  C   UNL A   1      42.633  31.215  35.561  1.00  0.00     0.181 A 
ATOM     94  C   UNL A   1      40.302  30.615  35.906  1.00  0.00     0.239 A 
ATOM     95  O   UNL A   1      42.355  32.557  35.710  1.00  0.00    -0.452 OA
ATOM     96  C   UNL A   1      39.982  32.065  35.798  1.00  0.00     0.111 A 
ATOM     97  O   UNL A   1      39.443  29.761  36.120  1.00  0.00    -0.285 OA
ATOM     98  C   UNL A   1      41.049  32.957  35.694  1.00  0.00     0.146 A 
ATOM     99  C   UNL A   1      38.678  32.588  35.768  1.00  0.00     0.134 A 
ATOM    100  C   UNL A   1      40.837  34.332  35.558  1.00  0.00     0.094 A 
ATOM    101  C   UNL A   1      38.456  33.967  35.627  1.00  0.00     0.093 A 
ATOM    102  C   UNL A   1      39.542  34.827  35.518  1.00  0.00     0.123 A 
BRANCH  93 103
ATOM    103  C   UNL A   1      44.069  30.992  35.321  1.00  0.00     0.029 A 
ATOM    104  C   UNL A   1      44.452  30.369  34.117  1.00  0.00     0.062 A 
ATOM    105  C   UNL A   1      45.052  31.500  36.182  1.00  0.00     0.062 A 
ATOM    106  C   UNL A   1      45.783  30.393  33.717  1.00  0.00     0.162 A 
ATOM    107  C   UNL A   1      46.384  31.484  35.779  1.00  0.00     0.162 A 
ATOM    108  C   UNL A   1      46.746  30.967  34.537  1.00  0.00     0.200 A 
BRANCH 106 109
ATOM    109  O   UNL A   1      46.086  29.915  32.475  1.00  0.00    -0.504 OA
ATOM    110  H   UNL A   1      46.957  29.626  32.284  1.00  0.00     0.293 HD
ENDBRANCH 106 109
BRANCH 107 111
ATOM    111  O   UNL A   1      47.314  32.101  36.567  1.00  0.00    -0.504 OA
ATOM    112  H   UNL A   1      47.069  32.836  37.094  1.00  0.00     0.293 HD
ENDBRANCH 107 111
BRANCH 108 113
ATOM    113  O   UNL A   1      48.040  31.116  34.116  1.00  0.00    -0.502 OA
ATOM    114  H   UNL A   1      48.448  30.441  33.610  1.00  0.00     0.293 HD
ENDBRANCH 108 113
ENDBRANCH  93 103
BRANCH  99 115
ATOM    115  O   UNL A   1      37.593  31.763  35.856  1.00  0.00    -0.507 OA
ATOM    116  H   UNL A   1      37.713  30.848  36.023  1.00  0.00     0.293 HD
ENDBRANCH  99 115
BRANCH 102 117
ATOM    117  O   UNL A   1      39.384  36.171  35.364  1.00  0.00    -0.508 OA
ATOM    118  H   UNL A   1      38.849  36.652  35.965  1.00  0.00     0.293 HD
ENDBRANCH 102 117
ENDBRANCH  91  92
ENDBRANCH  86  91
BRANCH  87 119
ATOM    119  O   UNL A   1      41.370  24.496  37.312  1.00  0.00    -0.387 OA
ATOM    120  H   UNL A   1      41.817  23.748  37.740  1.00  0.00     0.211 HD
ENDBRANCH  87 119
BRANCH  88 121
ATOM    121  O   UNL A   1      40.392  27.324  37.345  1.00  0.00    -0.384 OA
ATOM    122  H   UNL A   1      40.466  27.185  38.303  1.00  0.00     0.211 HD
ENDBRANCH  88 121
ENDBRANCH  81  83
ENDBRANCH  80  81
ENDBRANCH  79  80
ENDBRANCH  78  79
ENDBRANCH  77  78
ENDBRANCH  76  77
ENDBRANCH   1  76
TORSDOF 31
ENDMDL
MODEL 3
REMARK VINA RESULT:      -9.9      1.141      2.199
REMARK SMILES O=C(OCCOCCOCCOCCOC(=O)[C@H]1O[C@@H](Oc2c(-c3cc(O)c(O)c(O)c3)oc3cc(O)cc(O)c3c2=O)[C@H](O)[C@@H](O)[C@@H]1O)c1ccc(-c2c3nc(c(-c4c(F)c(F)c(F)c(F)c4F)c4ccc([nH]4)c(-c4c(F)c(F)c(F)c(F)c4F)c4nc(c(-c5c(F)c(F)c(F)c(F)c5F)c5ccc2[nH]5)C=C4)C=C3)cc1
REMARK SMILES IDX 10 1 9 2 8 3 7 4 6 5 5 6 4 7 3 8 2 9 1 10 50 11 51 12 112 13
REMARK SMILES IDX 52 14 111 15 53 16 54 17 55 18 105 19 56 20 110 21 104 22
REMARK SMILES IDX 106 23 57 24 109 25 103 26 102 27 58 29 90 30 70 31 89 32
REMARK SMILES IDX 71 33 74 34 88 35 107 36 72 37 73 38 87 40 108 41 75 42
REMARK SMILES IDX 59 43 60 44 68 45 61 46 62 47 66 48 69 49 63 50 64 51 67 52
REMARK SMILES IDX 65 53 91 54 92 55 100 56 93 57 94 58 98 59 101 60 95 61
REMARK SMILES IDX 96 62 99 63 97 64 76 65 77 66 85 67 78 68 79 69 83 70 86 71
REMARK SMILES IDX 80 72 81 73 84 74 82 75 11 76 12 77 13 78 14 79 15 80 16 81
REMARK SMILES IDX 17 82 18 83 19 84 48 85 20 86 46 87 44 88 49 89 21 91 22 92
REMARK SMILES IDX 23 93 42 94 33 95 41 96 43 97 34 98 39 99 35 100 38 101
REMARK SMILES IDX 36 102 24 103 25 104 32 105 26 106 30 107 28 108 27 109
REMARK SMILES IDX 31 111 29 113 40 115 37 117 47 119 45 121
REMARK H PARENT 106 28 74 39 49 90 27 110 31 112 29 114 40 116 37 118 47 120
REMARK H PARENT 45 122
REMARK Flexibility Score: inf
ROOT
ATOM      1  C   UNL A   1      35.893  23.941  25.425  1.00  0.00     0.188 C 
ENDROOT
BRANCH   1   2
ATOM      2  O   UNL A   1      37.213  23.621  25.034  1.00  0.00    -0.377 OA
BRANCH   2   3
ATOM      3  C   UNL A   1      38.117  23.385  26.104  1.00  0.00     0.188 C 
BRANCH   3   4
ATOM      4  C   UNL A   1      38.777  22.001  26.136  1.00  0.00     0.188 C 
BRANCH   4   5
ATOM      5  O   UNL A   1      38.461  21.198  24.990  1.00  0.00    -0.376 OA
BRANCH   5   6
ATOM      6  C   UNL A   1      38.572  19.778  25.127  1.00  0.00     0.202 C 
BRANCH   6   7
ATOM      7  C   UNL A   1      39.649  19.266  26.082  1.00  0.00     0.261 C 
BRANCH   7   8
ATOM      8  O   UNL A   1      40.974  19.281  25.537  1.00  0.00    -0.460 OA
BRANCH   8   9
ATOM      9  C   UNL A   1      42.086  19.890  26.014  1.00  0.00     0.338 C 
ATOM     10  O   UNL A   1      43.079  19.192  26.220  1.00  0.00    -0.246 OA
BRANCH   9  11
ATOM     11  C   UNL A   1      42.179  21.345  26.366  1.00  0.00     0.060 A 
ATOM     12  C   UNL A   1      42.214  22.398  25.455  1.00  0.00     0.016 A 
ATOM     13  C   UNL A   1      42.170  21.675  27.733  1.00  0.00     0.016 A 
ATOM     14  C   UNL A   1      42.216  23.719  25.849  1.00  0.00     0.010 A 
ATOM     15  C   UNL A   1      42.226  23.006  28.155  1.00  0.00     0.010 A 
ATOM     16  C   UNL A   1      42.267  24.024  27.199  1.00  0.00    -0.014 A 
BRANCH  16  17
ATOM     17  C   UNL A   1      42.664  25.400  27.508  1.00  0.00     0.031 A 
ATOM     18  C   UNL A   1      43.941  25.879  26.895  1.00  0.00     0.074 A 
ATOM     19  C   UNL A   1      41.781  26.232  28.084  1.00  0.00     0.049 A 
ATOM     20  N   UNL A   1      44.541  27.029  27.012  1.00  0.00    -0.248 NA
ATOM     21  C   UNL A   1      44.625  24.934  25.988  1.00  0.00     0.031 C 
ATOM     22  C   UNL A   1      40.419  25.871  28.484  1.00  0.00     0.029 A 
ATOM     23  N   UNL A   1      41.881  27.559  28.387  1.00  0.00    -0.354 N 
ATOM     24  C   UNL A   1      45.686  26.929  26.234  1.00  0.00     0.074 A 
ATOM     25  C   UNL A   1      45.697  25.620  25.632  1.00  0.00     0.031 C 
ATOM     26  C   UNL A   1      39.809  26.957  28.986  1.00  0.00     0.029 A 
ATOM     27  C   UNL A   1      40.765  28.057  29.013  1.00  0.00     0.049 A 
ATOM     28  H   UNL A   1      42.673  28.104  28.179  1.00  0.00     0.167 HD
ATOM     29  C   UNL A   1      46.649  27.861  26.067  1.00  0.00     0.037 A 
ATOM     30  C   UNL A   1      40.585  29.259  29.588  1.00  0.00     0.037 A 
ATOM     31  C   UNL A   1      46.586  29.149  26.698  1.00  0.00     0.049 A 
ATOM     32  C   UNL A   1      41.738  30.227  29.522  1.00  0.00     0.074 A 
ATOM     33  C   UNL A   1      47.525  30.160  26.714  1.00  0.00     0.029 A 
ATOM     34  N   UNL A   1      45.495  29.594  27.438  1.00  0.00    -0.354 N 
ATOM     35  N   UNL A   1      42.886  30.103  28.896  1.00  0.00    -0.248 NA
ATOM     36  C   UNL A   1      41.585  31.487  30.256  1.00  0.00     0.031 C 
ATOM     37  C   UNL A   1      47.023  31.195  27.512  1.00  0.00     0.029 A 
ATOM     38  C   UNL A   1      45.744  30.858  27.937  1.00  0.00     0.049 A 
ATOM     39  H   UNL A   1      44.666  29.083  27.585  1.00  0.00     0.167 HD
ATOM     40  C   UNL A   1      43.586  31.275  29.139  1.00  0.00     0.074 A 
ATOM     41  C   UNL A   1      42.720  32.104  29.957  1.00  0.00     0.031 C 
ATOM     42  C   UNL A   1      44.830  31.638  28.735  1.00  0.00     0.037 A 
BRANCH  29  43
ATOM     43  C   UNL A   1      47.862  27.456  25.285  1.00  0.00     0.064 A 
ATOM     44  C   UNL A   1      49.002  26.905  25.894  1.00  0.00     0.173 A 
ATOM     45  C   UNL A   1      47.912  27.695  23.903  1.00  0.00     0.173 A 
ATOM     46  F   UNL A   1      49.025  26.696  27.220  1.00  0.00    -0.203 F 
ATOM     47  C   UNL A   1      50.152  26.640  25.154  1.00  0.00     0.198 A 
ATOM     48  C   UNL A   1      49.054  27.401  23.162  1.00  0.00     0.198 A 
ATOM     49  F   UNL A   1      46.860  28.239  23.273  1.00  0.00    -0.203 F 
ATOM     50  F   UNL A   1      51.252  26.183  25.770  1.00  0.00    -0.200 F 
ATOM     51  C   UNL A   1      50.176  26.885  23.789  1.00  0.00     0.200 A 
ATOM     52  F   UNL A   1      49.074  27.642  21.844  1.00  0.00    -0.200 F 
ATOM     53  F   UNL A   1      51.288  26.641  23.082  1.00  0.00    -0.200 F 
ENDBRANCH  29  43
BRANCH  30  54
ATOM     54  C   UNL A   1      39.331  29.567  30.329  1.00  0.00     0.064 A 
ATOM     55  C   UNL A   1      38.345  30.400  29.785  1.00  0.00     0.173 A 
ATOM     56  C   UNL A   1      39.104  29.052  31.617  1.00  0.00     0.173 A 
ATOM     57  F   UNL A   1      38.518  30.937  28.568  1.00  0.00    -0.203 F 
ATOM     58  C   UNL A   1      37.196  30.725  30.506  1.00  0.00     0.198 A 
ATOM     59  C   UNL A   1      37.941  29.350  32.323  1.00  0.00     0.198 A 
ATOM     60  F   UNL A   1      40.015  28.255  32.193  1.00  0.00    -0.203 F 
ATOM     61  F   UNL A   1      36.296  31.570  29.984  1.00  0.00    -0.200 F 
ATOM     62  C   UNL A   1      36.992  30.195  31.773  1.00  0.00     0.200 A 
ATOM     63  F   UNL A   1      37.746  28.824  33.541  1.00  0.00    -0.200 F 
ATOM     64  F   UNL A   1      35.890  30.512  32.466  1.00  0.00    -0.200 F 
ENDBRANCH  30  54
BRANCH  42  65
ATOM     65  C   UNL A   1      45.291  33.006  29.133  1.00  0.00     0.064 A 
ATOM     66  C   UNL A   1      45.115  34.115  28.293  1.00  0.00     0.173 A 
ATOM     67  C   UNL A   1      45.859  33.214  30.398  1.00  0.00     0.173 A 
ATOM     68  F   UNL A   1      44.589  33.960  27.069  1.00  0.00    -0.203 F 
ATOM     69  C   UNL A   1      45.515  35.382  28.701  1.00  0.00     0.198 A 
ATOM     70  C   UNL A   1      46.222  34.488  30.816  1.00  0.00     0.198 A 
ATOM     71  F   UNL A   1      46.036  32.182  31.237  1.00  0.00    -0.203 F 
ATOM     72  F   UNL A   1      45.385  36.424  27.867  1.00  0.00    -0.200 F 
ATOM     73  C   UNL A   1      46.058  35.570  29.964  1.00  0.00     0.200 A 
ATOM     74  F   UNL A   1      46.727  34.669  32.043  1.00  0.00    -0.200 F 
ATOM     75  F   UNL A   1      46.426  36.795  30.360  1.00  0.00    -0.200 F 
ENDBRANCH  42  65
ENDBRANCH  16  17
ENDBRANCH   9  11
ENDBRANCH   8   9
ENDBRANCH   7   8
ENDBRANCH   6   7
ENDBRANCH   5   6
ENDBRANCH   4   5
ENDBRANCH   3   4
ENDBRANCH   2   3
ENDBRANCH   1   2
BRANCH   1  76
ATOM     76  C   UNL A   1      35.135  22.977  26.365  1.00  0.00     0.188 C 
BRANCH  76  77
ATOM     77  O   UNL A   1      35.003  21.667  25.840  1.00  0.00    -0.376 OA
BRANCH  77  78
ATOM     78  C   UNL A   1      33.692  21.224  25.497  1.00  0.00     0.202 C 
BRANCH  78  79
ATOM     79  C   UNL A   1      32.462  21.945  26.079  1.00  0.00     0.261 C 
BRANCH  79  80
ATOM     80  O   UNL A   1      31.898  22.965  25.236  1.00  0.00    -0.461 OA
BRANCH  80  81
ATOM     81  C   UNL A   1      31.764  22.735  23.906  1.00  0.00     0.338 C 
ATOM     82  O   UNL A   1      31.843  21.619  23.406  1.00  0.00    -0.249 OA
BRANCH  81  83
ATOM     83  C   UNL A   1      31.465  24.031  23.104  1.00  0.00     0.263 C 
ATOM     84  O   UNL A   1      31.101  25.090  24.019  1.00  0.00    -0.322 OA
ATOM     85  C   UNL A   1      32.629  24.574  22.275  1.00  0.00     0.186 C 
ATOM     86  C   UNL A   1      30.547  26.225  23.354  1.00  0.00     0.340 C 
ATOM     87  C   UNL A   1      32.234  25.770  21.437  1.00  0.00     0.181 C 
ATOM     88  C   UNL A   1      31.493  26.801  22.269  1.00  0.00     0.214 C 
BRANCH  85  89
ATOM     89  O   UNL A   1      33.223  23.635  21.389  1.00  0.00    -0.387 OA
ATOM     90  H   UNL A   1      32.533  23.078  20.996  1.00  0.00     0.211 HD
ENDBRANCH  85  89
BRANCH  86  91
ATOM     91  O   UNL A   1      30.103  27.293  24.225  1.00  0.00    -0.454 OA
BRANCH  91  92
ATOM     92  C   UNL A   1      30.969  28.308  24.613  1.00  0.00     0.214 A 
ATOM     93  C   UNL A   1      30.738  29.623  24.388  1.00  0.00     0.181 A 
ATOM     94  C   UNL A   1      32.064  27.973  25.584  1.00  0.00     0.239 A 
ATOM     95  O   UNL A   1      31.500  30.660  24.885  1.00  0.00    -0.452 OA
ATOM     96  C   UNL A   1      32.698  29.107  26.311  1.00  0.00     0.111 A 
ATOM     97  O   UNL A   1      32.383  26.801  25.777  1.00  0.00    -0.285 OA
ATOM     98  C   UNL A   1      32.358  30.400  25.914  1.00  0.00     0.146 A 
ATOM     99  C   UNL A   1      33.591  28.958  27.386  1.00  0.00     0.134 A 
ATOM    100  C   UNL A   1      32.883  31.522  26.564  1.00  0.00     0.094 A 
ATOM    101  C   UNL A   1      34.118  30.079  28.047  1.00  0.00     0.093 A 
ATOM    102  C   UNL A   1      33.753  31.353  27.630  1.00  0.00     0.123 A 
BRANCH  93 103
ATOM    103  C   UNL A   1      29.681  30.121  23.491  1.00  0.00     0.029 A 
ATOM    104  C   UNL A   1      28.531  30.689  24.072  1.00  0.00     0.062 A 
ATOM    105  C   UNL A   1      29.851  30.168  22.100  1.00  0.00     0.062 A 
ATOM    106  C   UNL A   1      27.647  31.421  23.288  1.00  0.00     0.162 A 
ATOM    107  C   UNL A   1      28.936  30.877  21.327  1.00  0.00     0.162 A 
ATOM    108  C   UNL A   1      27.859  31.533  21.919  1.00  0.00     0.200 A 
BRANCH 106 109
ATOM    109  O   UNL A   1      26.631  32.083  23.915  1.00  0.00    -0.504 OA
ATOM    110  H   UNL A   1      26.778  32.484  24.749  1.00  0.00     0.293 HD
ENDBRANCH 106 109
BRANCH 107 111
ATOM    111  O   UNL A   1      29.184  31.027  19.992  1.00  0.00    -0.504 OA
ATOM    112  H   UNL A   1      30.029  30.814  19.645  1.00  0.00     0.293 HD
ENDBRANCH 107 111
BRANCH 108 113
ATOM    113  O   UNL A   1      27.079  32.347  21.144  1.00  0.00    -0.502 OA
ATOM    114  H   UNL A   1      27.038  32.212  20.218  1.00  0.00     0.293 HD
ENDBRANCH 108 113
ENDBRANCH  93 103
BRANCH  99 115
ATOM    115  O   UNL A   1      33.952  27.717  27.826  1.00  0.00    -0.507 OA
ATOM    116  H   UNL A   1      33.960  27.529  28.744  1.00  0.00     0.293 HD
ENDBRANCH  99 115
BRANCH 102 117
ATOM    117  O   UNL A   1      34.223  32.475  28.245  1.00  0.00    -0.508 OA
ATOM    118  H   UNL A   1      33.913  32.705  29.099  1.00  0.00     0.293 HD
ENDBRANCH 102 117
ENDBRANCH  91  92
ENDBRANCH  86  91
BRANCH  87 119
ATOM    119  O   UNL A   1      33.448  26.341  20.876  1.00  0.00    -0.387 OA
ATOM    120  H   UNL A   1      33.227  27.148  20.384  1.00  0.00     0.211 HD
ENDBRANCH  87 119
BRANCH  88 121
ATOM    121  O   UNL A   1      30.824  27.692  21.373  1.00  0.00    -0.384 OA
ATOM    122  H   UNL A   1      29.865  27.620  21.502  1.00  0.00     0.211 HD
ENDBRANCH  88 121
ENDBRANCH  81  83
ENDBRANCH  80  81
ENDBRANCH  79  80
ENDBRANCH  78  79
ENDBRANCH  77  78
ENDBRANCH  76  77
ENDBRANCH   1  76
TORSDOF 31
ENDMDL
