MODEL 1
REMARK VINA RESULT:     -10.1      0.000      0.000
REMARK SMILES COC(=O)[C@H]1CCN(C(=O)N2CCC[C@@H]2C(=O)OCCOCCOCCOCCOC(=O)c2ccc(-c3c4nc(c(-c5c(F)c(F)c(F)c(F)c5F)c5ccc([nH]5)c(-c5c(F)c(F)c(F)c(F)c5F)c5nc(c(-c6c(F)c(F)c(F)c(F)c6F)c6ccc3[nH]6)C=C5)C=C4)cc2)C1
REMARK SMILES IDX 23 1 22 2 21 3 20 4 19 5 18 6 16 7 17 8 15 9 11 10 12 11
REMARK SMILES IDX 13 12 14 13 9 14 10 15 8 16 5 17 6 18 96 19 7 20 3 21 4 22
REMARK SMILES IDX 2 23 1 24 24 25 25 26 26 27 27 28 28 29 29 30 30 31 31 32
REMARK SMILES IDX 32 33 33 34 34 35 95 36 35 37 94 38 36 39 37 40 38 41 88 42
REMARK SMILES IDX 39 43 93 44 87 45 89 46 40 47 92 48 86 49 85 50 41 52 73 53
REMARK SMILES IDX 53 54 72 55 54 56 57 57 71 58 90 59 55 60 56 61 70 63 91 64
REMARK SMILES IDX 58 65 42 66 43 67 51 68 44 69 45 70 49 71 52 72 46 73 47 74
REMARK SMILES IDX 50 75 48 76 74 77 75 78 83 79 76 80 77 81 81 82 84 83 78 84
REMARK SMILES IDX 79 85 82 86 80 87 59 88 60 89 68 90 61 91 62 92 66 93 69 94
REMARK SMILES IDX 63 95 64 96 67 97 65 98
REMARK H PARENT 89 51 57 62
REMARK Flexibility Score: inf
ROOT
ATOM      1  C   UNL A   1      41.082  19.847  26.547  1.00  0.00     0.188 C 
ENDROOT
BRANCH   1   2
ATOM      2  C   UNL A   1      40.274  21.118  26.839  1.00  0.00     0.188 C 
BRANCH   2   3
ATOM      3  O   UNL A   1      39.663  21.853  25.795  1.00  0.00    -0.376 OA
BRANCH   3   4
ATOM      4  C   UNL A   1      38.444  22.561  25.943  1.00  0.00     0.202 C 
BRANCH   4   5
ATOM      5  C   UNL A   1      37.244  22.499  24.978  1.00  0.00     0.261 C 
BRANCH   5   6
ATOM      6  O   UNL A   1      36.088  23.281  25.295  1.00  0.00    -0.462 OA
BRANCH   6   7
ATOM      7  C   UNL A   1      35.351  23.645  24.219  1.00  0.00     0.329 C 
ATOM      8  O   UNL A   1      35.643  23.328  23.068  1.00  0.00    -0.250 OA
BRANCH   7   9
ATOM      9  C   UNL A   1      34.162  24.566  24.548  1.00  0.00     0.197 C 
ATOM     10  N   UNL A   1      32.979  23.768  24.761  1.00  0.00    -0.311 N 
ATOM     11  C   UNL A   1      31.785  24.537  24.536  1.00  0.00     0.122 C 
ATOM     12  C   UNL A   1      32.174  25.355  23.327  1.00  0.00     0.024 C 
ATOM     13  C   UNL A   1      33.675  25.605  23.519  1.00  0.00     0.039 C 
BRANCH  10  14
ATOM     14  C   UNL A   1      33.015  22.608  25.475  1.00  0.00     0.320 C 
ATOM     15  O   UNL A   1      33.065  22.574  26.697  1.00  0.00    -0.248 OA
BRANCH  14  16
ATOM     16  N   UNL A   1      33.128  21.507  24.658  1.00  0.00    -0.324 N 
ATOM     17  C   UNL A   1      33.372  19.237  24.092  1.00  0.00     0.120 C 
ATOM     18  C   UNL A   1      32.224  19.891  23.305  1.00  0.00     0.039 C 
ATOM     19  C   UNL A   1      33.869  20.328  25.045  1.00  0.00     0.136 C 
ATOM     20  C   UNL A   1      32.598  21.354  23.318  1.00  0.00     0.122 C 
BRANCH  17  21
ATOM     21  C   UNL A   1      33.016  18.021  24.904  1.00  0.00     0.310 C 
ATOM     22  O   UNL A   1      32.374  18.083  25.946  1.00  0.00    -0.252 OA
BRANCH  21  23
ATOM     23  O   UNL A   1      33.462  16.870  24.339  1.00  0.00    -0.469 OA
ATOM     24  C   UNL A   1      33.178  15.694  25.093  1.00  0.00     0.282 C 
ENDBRANCH  21  23
ENDBRANCH  17  21
ENDBRANCH  14  16
ENDBRANCH  10  14
ENDBRANCH   7   9
ENDBRANCH   6   7
ENDBRANCH   5   6
ENDBRANCH   4   5
ENDBRANCH   3   4
ENDBRANCH   2   3
ENDBRANCH   1   2
BRANCH   1  25
ATOM     25  O   UNL A   1      42.146  20.013  25.633  1.00  0.00    -0.377 OA
BRANCH  25  26
ATOM     26  C   UNL A   1      43.162  19.022  25.596  1.00  0.00     0.188 C 
BRANCH  26  27
ATOM     27  C   UNL A   1      44.369  19.210  24.655  1.00  0.00     0.188 C 
BRANCH  27  28
ATOM     28  O   UNL A   1      45.618  19.315  25.320  1.00  0.00    -0.376 OA
BRANCH  28  29
ATOM     29  C   UNL A   1      46.271  20.574  25.362  1.00  0.00     0.202 C 
BRANCH  29  30
ATOM     30  C   UNL A   1      45.584  21.772  24.686  1.00  0.00     0.261 C 
BRANCH  30  31
ATOM     31  O   UNL A   1      44.720  22.577  25.506  1.00  0.00    -0.460 OA
BRANCH  31  32
ATOM     32  C   UNL A   1      43.660  23.181  24.925  1.00  0.00     0.338 C 
ATOM     33  O   UNL A   1      43.117  22.875  23.887  1.00  0.00    -0.246 OA
BRANCH  32  34
ATOM     34  C   UNL A   1      43.136  24.180  25.888  1.00  0.00     0.060 A 
ATOM     35  C   UNL A   1      43.443  25.533  25.695  1.00  0.00     0.016 A 
ATOM     36  C   UNL A   1      42.339  23.785  26.964  1.00  0.00     0.016 A 
ATOM     37  C   UNL A   1      42.974  26.494  26.593  1.00  0.00     0.010 A 
ATOM     38  C   UNL A   1      41.891  24.746  27.877  1.00  0.00     0.010 A 
ATOM     39  C   UNL A   1      42.225  26.102  27.711  1.00  0.00    -0.014 A 
BRANCH  39  40
ATOM     40  C   UNL A   1      41.922  27.080  28.785  1.00  0.00     0.031 A 
ATOM     41  C   UNL A   1      42.783  27.087  30.018  1.00  0.00     0.074 A 
ATOM     42  C   UNL A   1      40.905  27.951  28.670  1.00  0.00     0.049 A 
ATOM     43  N   UNL A   1      42.664  27.794  31.113  1.00  0.00    -0.248 NA
ATOM     44  C   UNL A   1      43.934  26.172  30.013  1.00  0.00     0.031 C 
ATOM     45  C   UNL A   1      40.029  28.076  27.508  1.00  0.00     0.029 A 
ATOM     46  N   UNL A   1      40.430  28.889  29.554  1.00  0.00    -0.354 N 
ATOM     47  C   UNL A   1      43.717  27.402  31.931  1.00  0.00     0.074 A 
ATOM     48  C   UNL A   1      44.447  26.376  31.219  1.00  0.00     0.031 C 
ATOM     49  C   UNL A   1      39.110  29.025  27.757  1.00  0.00     0.029 A 
ATOM     50  C   UNL A   1      39.307  29.544  29.110  1.00  0.00     0.049 A 
ATOM     51  H   UNL A   1      40.854  29.075  30.423  1.00  0.00     0.167 HD
ATOM     52  C   UNL A   1      44.046  27.860  33.161  1.00  0.00     0.037 A 
ATOM     53  C   UNL A   1      38.513  30.433  29.739  1.00  0.00     0.037 A 
ATOM     54  C   UNL A   1      43.314  28.879  33.870  1.00  0.00     0.049 A 
ATOM     55  C   UNL A   1      38.847  30.858  31.148  1.00  0.00     0.074 A 
ATOM     56  C   UNL A   1      43.586  29.432  35.109  1.00  0.00     0.029 A 
ATOM     57  N   UNL A   1      42.157  29.486  33.407  1.00  0.00    -0.354 N 
ATOM     58  N   UNL A   1      39.862  30.511  31.901  1.00  0.00    -0.248 NA
ATOM     59  C   UNL A   1      37.920  31.800  31.794  1.00  0.00     0.031 C 
ATOM     60  C   UNL A   1      42.555  30.322  35.426  1.00  0.00     0.029 A 
ATOM     61  C   UNL A   1      41.677  30.376  34.356  1.00  0.00     0.049 A 
ATOM     62  H   UNL A   1      41.737  29.311  32.533  1.00  0.00     0.167 HD
ATOM     63  C   UNL A   1      39.708  31.203  33.096  1.00  0.00     0.074 A 
ATOM     64  C   UNL A   1      38.515  32.010  32.959  1.00  0.00     0.031 C 
ATOM     65  C   UNL A   1      40.484  31.172  34.209  1.00  0.00     0.037 A 
BRANCH  52  66
ATOM     66  C   UNL A   1      45.233  27.239  33.841  1.00  0.00     0.064 A 
ATOM     67  C   UNL A   1      45.102  26.147  34.711  1.00  0.00     0.173 A 
ATOM     68  C   UNL A   1      46.527  27.723  33.588  1.00  0.00     0.173 A 
ATOM     69  F   UNL A   1      43.887  25.654  34.998  1.00  0.00    -0.203 F 
ATOM     70  C   UNL A   1      46.218  25.580  35.323  1.00  0.00     0.198 A 
ATOM     71  C   UNL A   1      47.642  27.132  34.175  1.00  0.00     0.198 A 
ATOM     72  F   UNL A   1      46.710  28.763  32.760  1.00  0.00    -0.203 F 
ATOM     73  F   UNL A   1      46.063  24.569  36.191  1.00  0.00    -0.200 F 
ATOM     74  C   UNL A   1      47.487  26.068  35.048  1.00  0.00     0.200 A 
ATOM     75  F   UNL A   1      48.868  27.596  33.896  1.00  0.00    -0.200 F 
ATOM     76  F   UNL A   1      48.559  25.515  35.631  1.00  0.00    -0.200 F 
ENDBRANCH  52  66
BRANCH  53  77
ATOM     77  C   UNL A   1      37.302  30.964  29.057  1.00  0.00     0.064 A 
ATOM     78  C   UNL A   1      37.233  32.299  28.633  1.00  0.00     0.173 A 
ATOM     79  C   UNL A   1      36.177  30.154  28.837  1.00  0.00     0.173 A 
ATOM     80  F   UNL A   1      38.270  33.122  28.845  1.00  0.00    -0.203 F 
ATOM     81  C   UNL A   1      36.080  32.808  28.037  1.00  0.00     0.198 A 
ATOM     82  C   UNL A   1      35.037  30.655  28.210  1.00  0.00     0.198 A 
ATOM     83  F   UNL A   1      36.186  28.870  29.226  1.00  0.00    -0.203 F 
ATOM     84  F   UNL A   1      36.024  34.101  27.690  1.00  0.00    -0.200 F 
ATOM     85  C   UNL A   1      34.987  31.984  27.818  1.00  0.00     0.200 A 
ATOM     86  F   UNL A   1      33.990  29.850  27.987  1.00  0.00    -0.200 F 
ATOM     87  F   UNL A   1      33.881  32.471  27.239  1.00  0.00    -0.200 F 
ENDBRANCH  53  77
BRANCH  65  88
ATOM     88  C   UNL A   1      40.080  32.046  35.363  1.00  0.00     0.064 A 
ATOM     89  C   UNL A   1      40.629  33.324  35.548  1.00  0.00     0.173 A 
ATOM     90  C   UNL A   1      39.098  31.620  36.271  1.00  0.00     0.173 A 
ATOM     91  F   UNL A   1      41.582  33.775  34.719  1.00  0.00    -0.203 F 
ATOM     92  C   UNL A   1      40.229  34.130  36.612  1.00  0.00     0.198 A 
ATOM     93  C   UNL A   1      38.675  32.442  37.312  1.00  0.00     0.198 A 
ATOM     94  F   UNL A   1      38.532  30.410  36.137  1.00  0.00    -0.203 F 
ATOM     95  F   UNL A   1      40.807  35.325  36.797  1.00  0.00    -0.200 F 
ATOM     96  C   UNL A   1      39.247  33.692  37.488  1.00  0.00     0.200 A 
ATOM     97  F   UNL A   1      37.712  32.024  38.145  1.00  0.00    -0.200 F 
ATOM     98  F   UNL A   1      38.856  34.474  38.503  1.00  0.00    -0.200 F 
ENDBRANCH  65  88
ENDBRANCH  39  40
ENDBRANCH  32  34
ENDBRANCH  31  32
ENDBRANCH  30  31
ENDBRANCH  29  30
ENDBRANCH  28  29
ENDBRANCH  27  28
ENDBRANCH  26  27
ENDBRANCH  25  26
ENDBRANCH   1  25
TORSDOF 24
ENDMDL
MODEL 2
REMARK VINA RESULT:     -10.1      3.260      9.029
REMARK SMILES COC(=O)[C@H]1CCN(C(=O)N2CCC[C@@H]2C(=O)OCCOCCOCCOCCOC(=O)c2ccc(-c3c4nc(c(-c5c(F)c(F)c(F)c(F)c5F)c5ccc([nH]5)c(-c5c(F)c(F)c(F)c(F)c5F)c5nc(c(-c6c(F)c(F)c(F)c(F)c6F)c6ccc3[nH]6)C=C5)C=C4)cc2)C1
REMARK SMILES IDX 23 1 22 2 21 3 20 4 19 5 18 6 16 7 17 8 15 9 11 10 12 11
REMARK SMILES IDX 13 12 14 13 9 14 10 15 8 16 5 17 6 18 96 19 7 20 3 21 4 22
REMARK SMILES IDX 2 23 1 24 24 25 25 26 26 27 27 28 28 29 29 30 30 31 31 32
REMARK SMILES IDX 32 33 33 34 34 35 95 36 35 37 94 38 36 39 37 40 38 41 88 42
REMARK SMILES IDX 39 43 93 44 87 45 89 46 40 47 92 48 86 49 85 50 41 52 73 53
REMARK SMILES IDX 53 54 72 55 54 56 57 57 71 58 90 59 55 60 56 61 70 63 91 64
REMARK SMILES IDX 58 65 42 66 43 67 51 68 44 69 45 70 49 71 52 72 46 73 47 74
REMARK SMILES IDX 50 75 48 76 74 77 75 78 83 79 76 80 77 81 81 82 84 83 78 84
REMARK SMILES IDX 79 85 82 86 80 87 59 88 60 89 68 90 61 91 62 92 66 93 69 94
REMARK SMILES IDX 63 95 64 96 67 97 65 98
REMARK H PARENT 89 51 57 62
REMARK Flexibility Score: inf
ROOT
ATOM      1  C   UNL A   1      33.640  27.566  24.551  1.00  0.00     0.188 C 
ENDROOT
BRANCH   1   2
ATOM      2  C   UNL A   1      33.210  26.934  23.222  1.00  0.00     0.188 C 
BRANCH   2   3
ATOM      3  O   UNL A   1      32.121  26.033  23.158  1.00  0.00    -0.376 OA
BRANCH   3   4
ATOM      4  C   UNL A   1      32.117  24.863  22.358  1.00  0.00     0.202 C 
BRANCH   4   5
ATOM      5  C   UNL A   1      33.258  23.832  22.263  1.00  0.00     0.261 C 
BRANCH   5   6
ATOM      6  O   UNL A   1      33.479  22.971  23.385  1.00  0.00    -0.462 OA
BRANCH   6   7
ATOM      7  C   UNL A   1      34.712  23.079  23.935  1.00  0.00     0.329 C 
ATOM      8  O   UNL A   1      35.740  23.147  23.266  1.00  0.00    -0.250 OA
BRANCH   7   9
ATOM      9  C   UNL A   1      34.726  23.018  25.473  1.00  0.00     0.197 C 
ATOM     10  N   UNL A   1      34.654  21.641  25.901  1.00  0.00    -0.311 N 
ATOM     11  C   UNL A   1      34.132  21.539  27.237  1.00  0.00     0.122 C 
ATOM     12  C   UNL A   1      33.043  22.586  27.219  1.00  0.00     0.024 C 
ATOM     13  C   UNL A   1      33.594  23.674  26.288  1.00  0.00     0.039 C 
BRANCH  10  14
ATOM     14  C   UNL A   1      35.372  20.660  25.286  1.00  0.00     0.320 C 
ATOM     15  O   UNL A   1      36.589  20.694  25.167  1.00  0.00    -0.248 OA
BRANCH  14  16
ATOM     16  N   UNL A   1      34.556  19.716  24.706  1.00  0.00    -0.324 N 
ATOM     17  C   UNL A   1      33.791  17.571  24.119  1.00  0.00     0.120 C 
ATOM     18  C   UNL A   1      32.647  18.447  24.658  1.00  0.00     0.039 C 
ATOM     19  C   UNL A   1      35.050  18.431  24.267  1.00  0.00     0.136 C 
ATOM     20  C   UNL A   1      33.146  19.847  24.399  1.00  0.00     0.122 C 
BRANCH  17  21
ATOM     21  C   UNL A   1      34.021  16.263  24.828  1.00  0.00     0.310 C 
ATOM     22  O   UNL A   1      35.042  16.022  25.461  1.00  0.00    -0.252 OA
BRANCH  21  23
ATOM     23  O   UNL A   1      32.970  15.413  24.704  1.00  0.00    -0.469 OA
ATOM     24  C   UNL A   1      32.464  14.916  25.941  1.00  0.00     0.282 C 
ENDBRANCH  21  23
ENDBRANCH  17  21
ENDBRANCH  14  16
ENDBRANCH  10  14
ENDBRANCH   7   9
ENDBRANCH   6   7
ENDBRANCH   5   6
ENDBRANCH   4   5
ENDBRANCH   3   4
ENDBRANCH   2   3
ENDBRANCH   1   2
BRANCH   1  25
ATOM     25  O   UNL A   1      32.767  27.327  25.636  1.00  0.00    -0.377 OA
BRANCH  25  26
ATOM     26  C   UNL A   1      31.781  28.305  25.934  1.00  0.00     0.188 C 
BRANCH  26  27
ATOM     27  C   UNL A   1      31.886  29.112  27.244  1.00  0.00     0.188 C 
BRANCH  27  28
ATOM     28  O   UNL A   1      32.477  30.393  27.093  1.00  0.00    -0.376 OA
BRANCH  28  29
ATOM     29  C   UNL A   1      31.721  31.434  26.496  1.00  0.00     0.202 C 
BRANCH  29  30
ATOM     30  C   UNL A   1      31.773  32.831  27.138  1.00  0.00     0.261 C 
BRANCH  30  31
ATOM     31  O   UNL A   1      33.076  33.391  27.375  1.00  0.00    -0.460 OA
BRANCH  31  32
ATOM     32  C   UNL A   1      33.222  34.278  28.385  1.00  0.00     0.338 C 
ATOM     33  O   UNL A   1      32.464  35.169  28.696  1.00  0.00    -0.246 OA
BRANCH  32  34
ATOM     34  C   UNL A   1      34.390  33.845  29.190  1.00  0.00     0.060 A 
ATOM     35  C   UNL A   1      35.672  34.247  28.793  1.00  0.00     0.016 A 
ATOM     36  C   UNL A   1      34.219  33.060  30.332  1.00  0.00     0.016 A 
ATOM     37  C   UNL A   1      36.791  33.844  29.526  1.00  0.00     0.010 A 
ATOM     38  C   UNL A   1      35.343  32.637  31.049  1.00  0.00     0.010 A 
ATOM     39  C   UNL A   1      36.636  33.005  30.637  1.00  0.00    -0.014 A 
BRANCH  39  40
ATOM     40  C   UNL A   1      37.825  32.389  31.277  1.00  0.00     0.031 A 
ATOM     41  C   UNL A   1      38.549  31.290  30.548  1.00  0.00     0.074 A 
ATOM     42  C   UNL A   1      38.262  32.798  32.481  1.00  0.00     0.049 A 
ATOM     43  N   UNL A   1      39.559  30.555  30.939  1.00  0.00    -0.248 NA
ATOM     44  C   UNL A   1      38.064  30.978  29.195  1.00  0.00     0.031 C 
ATOM     45  C   UNL A   1      37.678  33.883  33.265  1.00  0.00     0.029 A 
ATOM     46  N   UNL A   1      39.294  32.335  33.259  1.00  0.00    -0.354 N 
ATOM     47  C   UNL A   1      39.824  29.689  29.885  1.00  0.00     0.074 A 
ATOM     48  C   UNL A   1      38.852  29.969  28.852  1.00  0.00     0.031 C 
ATOM     49  C   UNL A   1      38.351  33.991  34.424  1.00  0.00     0.029 A 
ATOM     50  C   UNL A   1      39.384  32.958  34.480  1.00  0.00     0.049 A 
ATOM     51  H   UNL A   1      39.911  31.624  32.970  1.00  0.00     0.167 HD
ATOM     52  C   UNL A   1      40.793  28.749  29.789  1.00  0.00     0.037 A 
ATOM     53  C   UNL A   1      40.185  32.698  35.533  1.00  0.00     0.037 A 
ATOM     54  C   UNL A   1      41.756  28.469  30.823  1.00  0.00     0.049 A 
ATOM     55  C   UNL A   1      41.196  31.581  35.437  1.00  0.00     0.074 A 
ATOM     56  C   UNL A   1      42.797  27.556  30.809  1.00  0.00     0.029 A 
ATOM     57  N   UNL A   1      41.787  29.090  32.063  1.00  0.00    -0.354 N 
ATOM     58  N   UNL A   1      41.465  30.790  34.427  1.00  0.00    -0.248 NA
ATOM     59  C   UNL A   1      42.013  31.321  36.632  1.00  0.00     0.031 C 
ATOM     60  C   UNL A   1      43.413  27.575  32.064  1.00  0.00     0.029 A 
ATOM     61  C   UNL A   1      42.801  28.547  32.838  1.00  0.00     0.049 A 
ATOM     62  H   UNL A   1      41.180  29.809  32.350  1.00  0.00     0.167 HD
ATOM     63  C   UNL A   1      42.491  29.956  34.855  1.00  0.00     0.074 A 
ATOM     64  C   UNL A   1      42.814  30.354  36.208  1.00  0.00     0.031 C 
ATOM     65  C   UNL A   1      43.110  28.950  34.188  1.00  0.00     0.037 A 
BRANCH  52  66
ATOM     66  C   UNL A   1      40.842  27.925  28.535  1.00  0.00     0.064 A 
ATOM     67  C   UNL A   1      41.609  28.308  27.425  1.00  0.00     0.173 A 
ATOM     68  C   UNL A   1      40.139  26.712  28.457  1.00  0.00     0.173 A 
ATOM     69  F   UNL A   1      42.290  29.465  27.440  1.00  0.00    -0.203 F 
ATOM     70  C   UNL A   1      41.648  27.523  26.274  1.00  0.00     0.198 A 
ATOM     71  C   UNL A   1      40.207  25.914  27.319  1.00  0.00     0.198 A 
ATOM     72  F   UNL A   1      39.393  26.295  29.492  1.00  0.00    -0.203 F 
ATOM     73  F   UNL A   1      42.347  27.935  25.207  1.00  0.00    -0.200 F 
ATOM     74  C   UNL A   1      40.954  26.323  26.226  1.00  0.00     0.200 A 
ATOM     75  F   UNL A   1      39.548  24.747  27.281  1.00  0.00    -0.200 F 
ATOM     76  F   UNL A   1      41.000  25.565  25.122  1.00  0.00    -0.200 F 
ENDBRANCH  52  66
BRANCH  53  77
ATOM     77  C   UNL A   1      40.049  33.488  36.786  1.00  0.00     0.064 A 
ATOM     78  C   UNL A   1      40.836  34.627  37.016  1.00  0.00     0.173 A 
ATOM     79  C   UNL A   1      39.150  33.106  37.793  1.00  0.00     0.173 A 
ATOM     80  F   UNL A   1      41.731  35.017  36.097  1.00  0.00    -0.203 F 
ATOM     81  C   UNL A   1      40.741  35.338  38.210  1.00  0.00     0.198 A 
ATOM     82  C   UNL A   1      39.032  33.839  38.973  1.00  0.00     0.198 A 
ATOM     83  F   UNL A   1      38.376  32.022  37.629  1.00  0.00    -0.203 F 
ATOM     84  F   UNL A   1      41.542  36.392  38.424  1.00  0.00    -0.200 F 
ATOM     85  C   UNL A   1      39.834  34.950  39.184  1.00  0.00     0.200 A 
ATOM     86  F   UNL A   1      38.143  33.468  39.903  1.00  0.00    -0.200 F 
ATOM     87  F   UNL A   1      39.739  35.638  40.330  1.00  0.00    -0.200 F 
ENDBRANCH  53  77
BRANCH  65  88
ATOM     88  C   UNL A   1      44.210  28.215  34.903  1.00  0.00     0.064 A 
ATOM     89  C   UNL A   1      43.961  27.039  35.626  1.00  0.00     0.173 A 
ATOM     90  C   UNL A   1      45.537  28.667  34.826  1.00  0.00     0.173 A 
ATOM     91  F   UNL A   1      42.709  26.572  35.745  1.00  0.00    -0.203 F 
ATOM     92  C   UNL A   1      44.995  26.359  36.268  1.00  0.00     0.198 A 
ATOM     93  C   UNL A   1      46.572  27.965  35.438  1.00  0.00     0.198 A 
ATOM     94  F   UNL A   1      45.833  29.781  34.140  1.00  0.00    -0.203 F 
ATOM     95  F   UNL A   1      44.723  25.267  36.996  1.00  0.00    -0.200 F 
ATOM     96  C   UNL A   1      46.300  26.817  36.165  1.00  0.00     0.200 A 
ATOM     97  F   UNL A   1      47.835  28.399  35.321  1.00  0.00    -0.200 F 
ATOM     98  F   UNL A   1      47.293  26.154  36.773  1.00  0.00    -0.200 F 
ENDBRANCH  65  88
ENDBRANCH  39  40
ENDBRANCH  32  34
ENDBRANCH  31  32
ENDBRANCH  30  31
ENDBRANCH  29  30
ENDBRANCH  28  29
ENDBRANCH  27  28
ENDBRANCH  26  27
ENDBRANCH  25  26
ENDBRANCH   1  25
TORSDOF 24
ENDMDL
MODEL 3
REMARK VINA RESULT:     -10.0      1.221      3.467
REMARK SMILES COC(=O)[C@H]1CCN(C(=O)N2CCC[C@@H]2C(=O)OCCOCCOCCOCCOC(=O)c2ccc(-c3c4nc(c(-c5c(F)c(F)c(F)c(F)c5F)c5ccc([nH]5)c(-c5c(F)c(F)c(F)c(F)c5F)c5nc(c(-c6c(F)c(F)c(F)c(F)c6F)c6ccc3[nH]6)C=C5)C=C4)cc2)C1
REMARK SMILES IDX 23 1 22 2 21 3 20 4 19 5 18 6 16 7 17 8 15 9 11 10 12 11
REMARK SMILES IDX 13 12 14 13 9 14 10 15 8 16 5 17 6 18 96 19 7 20 3 21 4 22
REMARK SMILES IDX 2 23 1 24 24 25 25 26 26 27 27 28 28 29 29 30 30 31 31 32
REMARK SMILES IDX 32 33 33 34 34 35 95 36 35 37 94 38 36 39 37 40 38 41 88 42
REMARK SMILES IDX 39 43 93 44 87 45 89 46 40 47 92 48 86 49 85 50 41 52 73 53
REMARK SMILES IDX 53 54 72 55 54 56 57 57 71 58 90 59 55 60 56 61 70 63 91 64
REMARK SMILES IDX 58 65 42 66 43 67 51 68 44 69 45 70 49 71 52 72 46 73 47 74
REMARK SMILES IDX 50 75 48 76 74 77 75 78 83 79 76 80 77 81 81 82 84 83 78 84
REMARK SMILES IDX 79 85 82 86 80 87 59 88 60 89 68 90 61 91 62 92 66 93 69 94
REMARK SMILES IDX 63 95 64 96 67 97 65 98
REMARK H PARENT 89 51 57 62
REMARK Flexibility Score: inf
ROOT
ATOM      1  C   UNL A   1      41.538  19.800  26.461  1.00  0.00     0.188 C 
ENDROOT
BRANCH   1   2
ATOM      2  C   UNL A   1      40.655  20.999  26.831  1.00  0.00     0.188 C 
BRANCH   2   3
ATOM      3  O   UNL A   1      39.315  21.086  26.384  1.00  0.00    -0.376 OA
BRANCH   3   4
ATOM      4  C   UNL A   1      38.694  22.301  25.999  1.00  0.00     0.202 C 
BRANCH   4   5
ATOM      5  C   UNL A   1      37.178  22.526  25.838  1.00  0.00     0.261 C 
BRANCH   5   6
ATOM      6  O   UNL A   1      36.335  21.372  25.757  1.00  0.00    -0.462 OA
BRANCH   6   7
ATOM      7  C   UNL A   1      35.011  21.654  25.702  1.00  0.00     0.329 C 
ATOM      8  O   UNL A   1      34.392  22.151  26.640  1.00  0.00    -0.250 OA
BRANCH   7   9
ATOM      9  C   UNL A   1      34.324  21.215  24.396  1.00  0.00     0.197 C 
ATOM     10  N   UNL A   1      33.621  22.337  23.822  1.00  0.00    -0.311 N 
ATOM     11  C   UNL A   1      32.562  21.898  22.954  1.00  0.00     0.122 C 
ATOM     12  C   UNL A   1      32.006  20.722  23.723  1.00  0.00     0.024 C 
ATOM     13  C   UNL A   1      33.236  20.124  24.418  1.00  0.00     0.039 C 
BRANCH  10  14
ATOM     14  C   UNL A   1      34.168  23.585  23.787  1.00  0.00     0.320 C 
ATOM     15  O   UNL A   1      35.169  23.860  23.141  1.00  0.00    -0.248 OA
BRANCH  14  16
ATOM     16  N   UNL A   1      33.543  24.442  24.663  1.00  0.00    -0.324 N 
ATOM     17  C   UNL A   1      32.975  26.495  25.661  1.00  0.00     0.120 C 
ATOM     18  C   UNL A   1      31.724  25.655  25.356  1.00  0.00     0.039 C 
ATOM     19  C   UNL A   1      34.144  25.686  25.089  1.00  0.00     0.136 C 
ATOM     20  C   UNL A   1      32.266  24.246  25.319  1.00  0.00     0.122 C 
BRANCH  17  21
ATOM     21  C   UNL A   1      33.015  27.875  25.063  1.00  0.00     0.310 C 
ATOM     22  O   UNL A   1      32.277  28.780  25.432  1.00  0.00    -0.252 OA
BRANCH  21  23
ATOM     23  O   UNL A   1      33.967  27.998  24.103  1.00  0.00    -0.469 OA
ATOM     24  C   UNL A   1      33.694  29.000  23.125  1.00  0.00     0.282 C 
ENDBRANCH  21  23
ENDBRANCH  17  21
ENDBRANCH  14  16
ENDBRANCH  10  14
ENDBRANCH   7   9
ENDBRANCH   6   7
ENDBRANCH   5   6
ENDBRANCH   4   5
ENDBRANCH   3   4
ENDBRANCH   2   3
ENDBRANCH   1   2
BRANCH   1  25
ATOM     25  O   UNL A   1      42.406  20.014  25.367  1.00  0.00    -0.377 OA
BRANCH  25  26
ATOM     26  C   UNL A   1      43.661  19.351  25.365  1.00  0.00     0.188 C 
BRANCH  26  27
ATOM     27  C   UNL A   1      44.729  19.755  24.328  1.00  0.00     0.188 C 
BRANCH  27  28
ATOM     28  O   UNL A   1      46.026  19.944  24.870  1.00  0.00    -0.376 OA
BRANCH  28  29
ATOM     29  C   UNL A   1      46.413  21.243  25.292  1.00  0.00     0.202 C 
BRANCH  29  30
ATOM     30  C   UNL A   1      45.690  22.452  24.677  1.00  0.00     0.261 C 
BRANCH  30  31
ATOM     31  O   UNL A   1      44.836  23.214  25.548  1.00  0.00    -0.460 OA
BRANCH  31  32
ATOM     32  C   UNL A   1      43.584  23.505  25.129  1.00  0.00     0.338 C 
ATOM     33  O   UNL A   1      42.958  22.960  24.247  1.00  0.00    -0.246 OA
BRANCH  32  34
ATOM     34  C   UNL A   1      43.016  24.491  26.080  1.00  0.00     0.060 A 
ATOM     35  C   UNL A   1      43.508  25.802  26.071  1.00  0.00     0.016 A 
ATOM     36  C   UNL A   1      42.000  24.126  26.965  1.00  0.00     0.016 A 
ATOM     37  C   UNL A   1      43.000  26.748  26.964  1.00  0.00     0.010 A 
ATOM     38  C   UNL A   1      41.510  25.068  27.876  1.00  0.00     0.010 A 
ATOM     39  C   UNL A   1      42.024  26.377  27.898  1.00  0.00    -0.014 A 
BRANCH  39  40
ATOM     40  C   UNL A   1      41.650  27.305  28.994  1.00  0.00     0.031 A 
ATOM     41  C   UNL A   1      42.448  27.278  30.268  1.00  0.00     0.074 A 
ATOM     42  C   UNL A   1      40.623  28.164  28.862  1.00  0.00     0.049 A 
ATOM     43  N   UNL A   1      42.262  27.937  31.383  1.00  0.00    -0.248 NA
ATOM     44  C   UNL A   1      43.615  26.382  30.285  1.00  0.00     0.031 C 
ATOM     45  C   UNL A   1      39.805  28.321  27.663  1.00  0.00     0.029 A 
ATOM     46  N   UNL A   1      40.088  29.057  29.757  1.00  0.00    -0.354 N 
ATOM     47  C   UNL A   1      43.280  27.530  32.236  1.00  0.00     0.074 A 
ATOM     48  C   UNL A   1      44.064  26.546  31.521  1.00  0.00     0.031 C 
ATOM     49  C   UNL A   1      38.856  29.243  27.903  1.00  0.00     0.029 A 
ATOM     50  C   UNL A   1      38.976  29.711  29.284  1.00  0.00     0.049 A 
ATOM     51  H   UNL A   1      40.465  29.214  30.654  1.00  0.00     0.167 HD
ATOM     52  C   UNL A   1      43.539  27.944  33.498  1.00  0.00     0.037 A 
ATOM     53  C   UNL A   1      38.135  30.560  29.907  1.00  0.00     0.037 A 
ATOM     54  C   UNL A   1      42.754  28.920  34.209  1.00  0.00     0.049 A 
ATOM     55  C   UNL A   1      38.391  30.933  31.346  1.00  0.00     0.074 A 
ATOM     56  C   UNL A   1      42.954  29.427  35.481  1.00  0.00     0.029 A 
ATOM     57  N   UNL A   1      41.610  29.526  33.713  1.00  0.00    -0.354 N 
ATOM     58  N   UNL A   1      39.374  30.573  32.136  1.00  0.00    -0.248 NA
ATOM     59  C   UNL A   1      37.415  31.832  31.982  1.00  0.00     0.031 C 
ATOM     60  C   UNL A   1      41.892  30.286  35.781  1.00  0.00     0.029 A 
ATOM     61  C   UNL A   1      41.067  30.368  34.671  1.00  0.00     0.049 A 
ATOM     62  H   UNL A   1      41.238  29.380  32.813  1.00  0.00     0.167 HD
ATOM     63  C   UNL A   1      39.148  31.213  33.348  1.00  0.00     0.074 A 
ATOM     64  C   UNL A   1      37.948  32.005  33.183  1.00  0.00     0.031 C 
ATOM     65  C   UNL A   1      39.868  31.150  34.496  1.00  0.00     0.037 A 
BRANCH  52  66
ATOM     66  C   UNL A   1      44.702  27.315  34.212  1.00  0.00     0.064 A 
ATOM     67  C   UNL A   1      45.984  27.886  34.186  1.00  0.00     0.173 A 
ATOM     68  C   UNL A   1      44.521  26.144  34.965  1.00  0.00     0.173 A 
ATOM     69  F   UNL A   1      46.215  28.998  33.472  1.00  0.00    -0.203 F 
ATOM     70  C   UNL A   1      47.046  27.291  34.864  1.00  0.00     0.198 A 
ATOM     71  C   UNL A   1      45.578  25.573  35.668  1.00  0.00     0.198 A 
ATOM     72  F   UNL A   1      43.315  25.560  35.027  1.00  0.00    -0.203 F 
ATOM     73  F   UNL A   1      48.273  27.825  34.784  1.00  0.00    -0.200 F 
ATOM     74  C   UNL A   1      46.840  26.141  35.611  1.00  0.00     0.200 A 
ATOM     75  F   UNL A   1      45.372  24.469  36.401  1.00  0.00    -0.200 F 
ATOM     76  F   UNL A   1      47.861  25.576  36.270  1.00  0.00    -0.200 F 
ENDBRANCH  52  66
BRANCH  53  77
ATOM     77  C   UNL A   1      36.950  31.097  29.186  1.00  0.00     0.064 A 
ATOM     78  C   UNL A   1      35.845  30.283  28.897  1.00  0.00     0.173 A 
ATOM     79  C   UNL A   1      36.907  32.430  28.747  1.00  0.00     0.173 A 
ATOM     80  F   UNL A   1      35.848  28.995  29.270  1.00  0.00    -0.203 F 
ATOM     81  C   UNL A   1      34.755  30.775  28.180  1.00  0.00     0.198 A 
ATOM     82  C   UNL A   1      35.802  32.929  28.060  1.00  0.00     0.198 A 
ATOM     83  F   UNL A   1      37.939  33.252  28.991  1.00  0.00    -0.203 F 
ATOM     84  F   UNL A   1      33.737  29.960  27.873  1.00  0.00    -0.200 F 
ATOM     85  C   UNL A   1      34.731  32.099  27.770  1.00  0.00     0.200 A 
ATOM     86  F   UNL A   1      35.777  34.213  27.680  1.00  0.00    -0.200 F 
ATOM     87  F   UNL A   1      33.680  32.574  27.087  1.00  0.00    -0.200 F 
ENDBRANCH  53  77
BRANCH  65  88
ATOM     88  C   UNL A   1      39.390  31.969  35.662  1.00  0.00     0.064 A 
ATOM     89  C   UNL A   1      38.444  31.474  36.572  1.00  0.00     0.173 A 
ATOM     90  C   UNL A   1      39.918  33.248  35.900  1.00  0.00     0.173 A 
ATOM     91  F   UNL A   1      37.896  30.264  36.384  1.00  0.00    -0.203 F 
ATOM     92  C   UNL A   1      38.026  32.239  37.660  1.00  0.00     0.198 A 
ATOM     93  C   UNL A   1      39.524  33.995  37.007  1.00  0.00     0.198 A 
ATOM     94  F   UNL A   1      40.833  33.768  35.067  1.00  0.00    -0.203 F 
ATOM     95  F   UNL A   1      37.083  31.764  38.485  1.00  0.00    -0.200 F 
ATOM     96  C   UNL A   1      38.573  33.494  37.881  1.00  0.00     0.200 A 
ATOM     97  F   UNL A   1      40.069  35.199  37.230  1.00  0.00    -0.200 F 
ATOM     98  F   UNL A   1      38.177  34.222  38.934  1.00  0.00    -0.200 F 
ENDBRANCH  65  88
ENDBRANCH  39  40
ENDBRANCH  32  34
ENDBRANCH  31  32
ENDBRANCH  30  31
ENDBRANCH  29  30
ENDBRANCH  28  29
ENDBRANCH  27  28
ENDBRANCH  26  27
ENDBRANCH  25  26
ENDBRANCH   1  25
TORSDOF 24
ENDMDL
