MODEL 1
REMARK VINA RESULT:      -8.8      0.000      0.000
REMARK SMILES C[C@H](C(=O)Nc1ccc(C(F)(F)F)cc1)n1nc(C(=O)OCCOCCOCCOCCOC(=O)c2ccc(-c3c4nc(c(-c5c(F)c(F)c(F)c(F)c5F)c5ccc([nH]5)c(-c5c(F)c(F)c(F)c(F)c5F)c5nc(c(-c6c(F)c(F)c(F)c(F)c6F)c6ccc3[nH]6)C=C5)C=C4)cc2)c2ccccc2c1=O
REMARK SMILES IDX 26 1 25 2 24 3 23 4 22 5 21 6 19 7 20 8 18 9 16 10 17 11
REMARK SMILES IDX 105 12 104 13 106 14 99 15 103 16 100 17 102 18 101 19 2 20
REMARK SMILES IDX 1 21 3 22 4 23 5 24 6 26 7 27 15 28 8 29 14 30 9 31 10 32
REMARK SMILES IDX 11 33 12 34 13 35 27 36 28 37 29 38 30 39 31 40 32 41 33 42
REMARK SMILES IDX 34 43 35 44 36 45 37 46 98 47 38 48 97 49 39 50 40 51 41 52
REMARK SMILES IDX 91 53 42 54 96 55 90 56 92 57 43 58 95 59 89 60 88 61 44 63
REMARK SMILES IDX 76 64 56 65 75 66 57 67 60 68 74 69 93 70 58 71 59 72 73 74
REMARK SMILES IDX 94 75 61 76 45 77 46 78 54 79 47 80 48 81 52 82 55 83 49 84
REMARK SMILES IDX 50 85 53 86 51 87 77 88 78 89 86 90 79 91 80 92 84 93 87 94
REMARK SMILES IDX 81 95 82 96 85 97 83 98 62 99 63 100 71 101 64 102 65 103
REMARK SMILES IDX 69 104 72 105 66 106 67 107 70 108 68 109
REMARK H PARENT 5 25 92 62 60 73
REMARK Flexibility Score: inf
ROOT
ATOM      1  C   UNL A   1      37.823  30.059  27.917  1.00  0.00     0.188 C 
ENDROOT
BRANCH   1   2
ATOM      2  C   UNL A   1      38.360  28.643  28.213  1.00  0.00     0.188 C 
BRANCH   2   3
ATOM      3  O   UNL A   1      39.064  28.346  29.413  1.00  0.00    -0.376 OA
BRANCH   3   4
ATOM      4  C   UNL A   1      39.455  27.018  29.740  1.00  0.00     0.202 C 
BRANCH   4   5
ATOM      5  C   UNL A   1      39.573  25.943  28.654  1.00  0.00     0.261 C 
BRANCH   5   6
ATOM      6  O   UNL A   1      40.916  25.553  28.352  1.00  0.00    -0.458 OA
BRANCH   6   7
ATOM      7  C   UNL A   1      41.383  25.956  27.159  1.00  0.00     0.359 C 
ATOM      8  O   UNL A   1      40.770  26.019  26.107  1.00  0.00    -0.244 OA
BRANCH   7   9
ATOM      9  C   UNL A   1      42.853  26.357  27.237  1.00  0.00     0.176 A 
ATOM     10  N   UNL A   1      45.019  25.855  26.624  1.00  0.00    -0.216 N 
ATOM     11  N   UNL A   1      43.740  25.459  26.946  1.00  0.00    -0.161 NA
ATOM     12  C   UNL A   1      45.357  27.197  26.423  1.00  0.00     0.275 A 
ATOM     13  C   UNL A   1      44.381  28.193  26.922  1.00  0.00     0.051 A 
ATOM     14  O   UNL A   1      46.407  27.594  25.936  1.00  0.00    -0.267 OA
ATOM     15  C   UNL A   1      43.202  27.750  27.497  1.00  0.00     0.022 A 
ATOM     16  C   UNL A   1      44.674  29.559  26.927  1.00  0.00     0.014 A 
ATOM     17  C   UNL A   1      42.411  28.616  28.259  1.00  0.00     0.011 A 
ATOM     18  C   UNL A   1      43.846  30.445  27.623  1.00  0.00     0.001 A 
ATOM     19  C   UNL A   1      42.749  29.965  28.337  1.00  0.00     0.001 A 
BRANCH  10  20
ATOM     20  C   UNL A   1      45.994  24.757  26.442  1.00  0.00     0.197 C 
ATOM     21  C   UNL A   1      47.336  25.092  27.103  1.00  0.00     0.044 C 
BRANCH  20  22
ATOM     22  C   UNL A   1      46.184  24.325  24.976  1.00  0.00     0.249 C 
ATOM     23  O   UNL A   1      46.996  24.901  24.239  1.00  0.00    -0.272 OA
ATOM     24  N   UNL A   1      45.542  23.254  24.410  1.00  0.00    -0.324 N 
ATOM     25  H   UNL A   1      45.805  23.110  23.472  1.00  0.00     0.170 HD
BRANCH  24  26
ATOM     26  C   UNL A   1      44.598  22.314  24.854  1.00  0.00     0.041 A 
ATOM     27  C   UNL A   1      44.968  20.966  24.822  1.00  0.00     0.027 A 
ATOM     28  C   UNL A   1      43.324  22.614  25.308  1.00  0.00     0.027 A 
ATOM     29  C   UNL A   1      44.112  19.970  25.317  1.00  0.00     0.015 A 
ATOM     30  C   UNL A   1      42.456  21.635  25.795  1.00  0.00     0.015 A 
ATOM     31  C   UNL A   1      42.851  20.300  25.830  1.00  0.00     0.056 A 
BRANCH  31  32
ATOM     32  C   UNL A   1      41.945  19.246  26.412  1.00  0.00     0.416 C 
ATOM     33  F   UNL A   1      42.463  17.993  26.314  1.00  0.00    -0.166 F 
ATOM     34  F   UNL A   1      41.699  19.453  27.737  1.00  0.00    -0.166 F 
ATOM     35  F   UNL A   1      40.720  19.193  25.816  1.00  0.00    -0.166 F 
ENDBRANCH  31  32
ENDBRANCH  24  26
ENDBRANCH  20  22
ENDBRANCH  10  20
ENDBRANCH   7   9
ENDBRANCH   6   7
ENDBRANCH   5   6
ENDBRANCH   4   5
ENDBRANCH   3   4
ENDBRANCH   2   3
ENDBRANCH   1   2
BRANCH   1  36
ATOM     36  O   UNL A   1      36.420  30.176  28.052  1.00  0.00    -0.377 OA
BRANCH  36  37
ATOM     37  C   UNL A   1      35.918  31.506  28.118  1.00  0.00     0.188 C 
BRANCH  37  38
ATOM     38  C   UNL A   1      34.400  31.699  27.934  1.00  0.00     0.188 C 
BRANCH  38  39
ATOM     39  O   UNL A   1      33.897  32.865  28.585  1.00  0.00    -0.376 OA
BRANCH  39  40
ATOM     40  C   UNL A   1      34.816  33.598  29.387  1.00  0.00     0.202 C 
BRANCH  40  41
ATOM     41  C   UNL A   1      34.426  33.698  30.868  1.00  0.00     0.261 C 
BRANCH  41  42
ATOM     42  O   UNL A   1      34.655  32.510  31.644  1.00  0.00    -0.460 OA
BRANCH  42  43
ATOM     43  C   UNL A   1      35.287  32.647  32.825  1.00  0.00     0.338 C 
ATOM     44  O   UNL A   1      34.799  32.977  33.898  1.00  0.00    -0.246 OA
BRANCH  43  45
ATOM     45  C   UNL A   1      36.659  32.136  32.666  1.00  0.00     0.060 A 
ATOM     46  C   UNL A   1      37.609  32.428  33.655  1.00  0.00     0.016 A 
ATOM     47  C   UNL A   1      37.008  31.389  31.539  1.00  0.00     0.016 A 
ATOM     48  C   UNL A   1      38.930  32.014  33.493  1.00  0.00     0.010 A 
ATOM     49  C   UNL A   1      38.335  31.000  31.364  1.00  0.00     0.010 A 
ATOM     50  C   UNL A   1      39.307  31.350  32.319  1.00  0.00    -0.014 A 
BRANCH  50  51
ATOM     51  C   UNL A   1      40.738  31.262  31.954  1.00  0.00     0.031 A 
ATOM     52  C   UNL A   1      41.360  32.462  31.293  1.00  0.00     0.074 A 
ATOM     53  C   UNL A   1      41.461  30.153  32.186  1.00  0.00     0.049 A 
ATOM     54  N   UNL A   1      42.556  32.608  30.786  1.00  0.00    -0.248 NA
ATOM     55  C   UNL A   1      40.511  33.662  31.185  1.00  0.00     0.031 C 
ATOM     56  C   UNL A   1      40.978  28.951  32.860  1.00  0.00     0.029 A 
ATOM     57  N   UNL A   1      42.761  29.860  31.858  1.00  0.00    -0.354 N 
ATOM     58  C   UNL A   1      42.595  33.904  30.290  1.00  0.00     0.074 A 
ATOM     59  C   UNL A   1      41.305  34.502  30.542  1.00  0.00     0.031 C 
ATOM     60  C   UNL A   1      41.965  28.036  32.875  1.00  0.00     0.029 A 
ATOM     61  C   UNL A   1      43.132  28.578  32.180  1.00  0.00     0.049 A 
ATOM     62  H   UNL A   1      43.368  30.506  31.432  1.00  0.00     0.167 HD
ATOM     63  C   UNL A   1      43.620  34.540  29.679  1.00  0.00     0.037 A 
ATOM     64  C   UNL A   1      44.276  27.917  31.911  1.00  0.00     0.037 A 
ATOM     65  C   UNL A   1      44.902  33.942  29.431  1.00  0.00     0.049 A 
ATOM     66  C   UNL A   1      45.379  28.629  31.165  1.00  0.00     0.074 A 
ATOM     67  C   UNL A   1      46.015  34.506  28.832  1.00  0.00     0.029 A 
ATOM     68  N   UNL A   1      45.239  32.639  29.765  1.00  0.00    -0.354 N 
ATOM     69  N   UNL A   1      45.422  29.864  30.726  1.00  0.00    -0.248 NA
ATOM     70  C   UNL A   1      46.594  27.852  30.875  1.00  0.00     0.031 C 
ATOM     71  C   UNL A   1      47.011  33.527  28.763  1.00  0.00     0.029 A 
ATOM     72  C   UNL A   1      46.535  32.373  29.365  1.00  0.00     0.049 A 
ATOM     73  H   UNL A   1      44.643  32.000  30.219  1.00  0.00     0.167 HD
ATOM     74  C   UNL A   1      46.677  30.023  30.150  1.00  0.00     0.074 A 
ATOM     75  C   UNL A   1      47.367  28.759  30.296  1.00  0.00     0.031 C 
ATOM     76  C   UNL A   1      47.212  31.117  29.554  1.00  0.00     0.037 A 
BRANCH  63  77
ATOM     77  C   UNL A   1      43.389  35.943  29.210  1.00  0.00     0.064 A 
ATOM     78  C   UNL A   1      42.830  36.216  27.954  1.00  0.00     0.173 A 
ATOM     79  C   UNL A   1      43.687  37.026  30.050  1.00  0.00     0.173 A 
ATOM     80  F   UNL A   1      42.548  35.214  27.108  1.00  0.00    -0.203 F 
ATOM     81  C   UNL A   1      42.587  37.527  27.550  1.00  0.00     0.198 A 
ATOM     82  C   UNL A   1      43.420  38.333  29.654  1.00  0.00     0.198 A 
ATOM     83  F   UNL A   1      44.227  36.815  31.260  1.00  0.00    -0.203 F 
ATOM     84  F   UNL A   1      42.081  37.769  26.333  1.00  0.00    -0.200 F 
ATOM     85  C   UNL A   1      42.872  38.582  28.404  1.00  0.00     0.200 A 
ATOM     86  F   UNL A   1      43.689  39.351  30.483  1.00  0.00    -0.200 F 
ATOM     87  F   UNL A   1      42.625  39.843  28.020  1.00  0.00    -0.200 F 
ENDBRANCH  63  77
BRANCH  64  88
ATOM     88  C   UNL A   1      44.438  26.496  32.318  1.00  0.00     0.064 A 
ATOM     89  C   UNL A   1      44.188  25.451  31.416  1.00  0.00     0.173 A 
ATOM     90  C   UNL A   1      44.793  26.150  33.630  1.00  0.00     0.173 A 
ATOM     91  F   UNL A   1      43.817  25.729  30.157  1.00  0.00    -0.203 F 
ATOM     92  C   UNL A   1      44.257  24.119  31.819  1.00  0.00     0.198 A 
ATOM     93  C   UNL A   1      44.891  24.817  34.024  1.00  0.00     0.198 A 
ATOM     94  F   UNL A   1      45.037  27.109  34.535  1.00  0.00    -0.203 F 
ATOM     95  F   UNL A   1      43.949  23.143  30.954  1.00  0.00    -0.200 F 
ATOM     96  C   UNL A   1      44.612  23.802  33.121  1.00  0.00     0.200 A 
ATOM     97  F   UNL A   1      45.242  24.516  35.281  1.00  0.00    -0.200 F 
ATOM     98  F   UNL A   1      44.668  22.522  33.512  1.00  0.00    -0.200 F 
ENDBRANCH  64  88
BRANCH  76  99
ATOM     99  C   UNL A   1      48.631  31.025  29.073  1.00  0.00     0.064 A 
ATOM    100  C   UNL A   1      49.714  31.345  29.904  1.00  0.00     0.173 A 
ATOM    101  C   UNL A   1      48.907  30.538  27.787  1.00  0.00     0.173 A 
ATOM    102  F   UNL A   1      49.501  31.824  31.138  1.00  0.00    -0.203 F 
ATOM    103  C   UNL A   1      51.024  31.196  29.456  1.00  0.00     0.198 A 
ATOM    104  C   UNL A   1      50.217  30.364  27.352  1.00  0.00     0.198 A 
ATOM    105  F   UNL A   1      47.904  30.208  26.958  1.00  0.00    -0.203 F 
ATOM    106  F   UNL A   1      52.045  31.541  30.253  1.00  0.00    -0.200 F 
ATOM    107  C   UNL A   1      51.274  30.697  28.185  1.00  0.00     0.200 A 
ATOM    108  F   UNL A   1      50.457  29.866  26.131  1.00  0.00    -0.200 F 
ATOM    109  F   UNL A   1      52.536  30.541  27.762  1.00  0.00    -0.200 F 
ENDBRANCH  76  99
ENDBRANCH  50  51
ENDBRANCH  43  45
ENDBRANCH  42  43
ENDBRANCH  41  42
ENDBRANCH  40  41
ENDBRANCH  39  40
ENDBRANCH  38  39
ENDBRANCH  37  38
ENDBRANCH  36  37
ENDBRANCH   1  36
TORSDOF 24
ENDMDL
MODEL 2
REMARK VINA RESULT:      -8.2      2.305      7.250
REMARK SMILES C[C@H](C(=O)Nc1ccc(C(F)(F)F)cc1)n1nc(C(=O)OCCOCCOCCOCCOC(=O)c2ccc(-c3c4nc(c(-c5c(F)c(F)c(F)c(F)c5F)c5ccc([nH]5)c(-c5c(F)c(F)c(F)c(F)c5F)c5nc(c(-c6c(F)c(F)c(F)c(F)c6F)c6ccc3[nH]6)C=C5)C=C4)cc2)c2ccccc2c1=O
REMARK SMILES IDX 26 1 25 2 24 3 23 4 22 5 21 6 19 7 20 8 18 9 16 10 17 11
REMARK SMILES IDX 105 12 104 13 106 14 99 15 103 16 100 17 102 18 101 19 2 20
REMARK SMILES IDX 1 21 3 22 4 23 5 24 6 26 7 27 15 28 8 29 14 30 9 31 10 32
REMARK SMILES IDX 11 33 12 34 13 35 27 36 28 37 29 38 30 39 31 40 32 41 33 42
REMARK SMILES IDX 34 43 35 44 36 45 37 46 98 47 38 48 97 49 39 50 40 51 41 52
REMARK SMILES IDX 91 53 42 54 96 55 90 56 92 57 43 58 95 59 89 60 88 61 44 63
REMARK SMILES IDX 76 64 56 65 75 66 57 67 60 68 74 69 93 70 58 71 59 72 73 74
REMARK SMILES IDX 94 75 61 76 45 77 46 78 54 79 47 80 48 81 52 82 55 83 49 84
REMARK SMILES IDX 50 85 53 86 51 87 77 88 78 89 86 90 79 91 80 92 84 93 87 94
REMARK SMILES IDX 81 95 82 96 85 97 83 98 62 99 63 100 71 101 64 102 65 103
REMARK SMILES IDX 69 104 72 105 66 106 67 107 70 108 68 109
REMARK H PARENT 5 25 92 62 60 73
REMARK Flexibility Score: inf
ROOT
ATOM      1  C   UNL A   1      37.773  31.361  29.281  1.00  0.00     0.188 C 
ENDROOT
BRANCH   1   2
ATOM      2  C   UNL A   1      38.347  30.000  28.834  1.00  0.00     0.188 C 
BRANCH   2   3
ATOM      3  O   UNL A   1      37.792  28.770  29.282  1.00  0.00    -0.376 OA
BRANCH   3   4
ATOM      4  C   UNL A   1      38.581  27.794  29.951  1.00  0.00     0.202 C 
BRANCH   4   5
ATOM      5  C   UNL A   1      39.292  26.686  29.167  1.00  0.00     0.261 C 
BRANCH   5   6
ATOM      6  O   UNL A   1      40.620  27.016  28.749  1.00  0.00    -0.458 OA
BRANCH   6   7
ATOM      7  C   UNL A   1      40.873  26.855  27.440  1.00  0.00     0.359 C 
ATOM      8  O   UNL A   1      40.377  27.468  26.510  1.00  0.00    -0.244 OA
BRANCH   7   9
ATOM      9  C   UNL A   1      41.909  25.762  27.198  1.00  0.00     0.176 A 
ATOM     10  N   UNL A   1      44.135  25.168  27.295  1.00  0.00    -0.216 N 
ATOM     11  N   UNL A   1      43.153  26.116  27.120  1.00  0.00    -0.161 NA
ATOM     12  C   UNL A   1      43.852  23.871  27.731  1.00  0.00     0.275 A 
ATOM     13  C   UNL A   1      42.433  23.454  27.648  1.00  0.00     0.051 A 
ATOM     14  O   UNL A   1      44.685  23.054  28.104  1.00  0.00    -0.267 OA
ATOM     15  C   UNL A   1      41.490  24.365  27.202  1.00  0.00     0.022 A 
ATOM     16  C   UNL A   1      42.046  22.136  27.900  1.00  0.00     0.014 A 
ATOM     17  C   UNL A   1      40.219  23.937  26.806  1.00  0.00     0.011 A 
ATOM     18  C   UNL A   1      40.751  21.717  27.577  1.00  0.00     0.001 A 
ATOM     19  C   UNL A   1      39.858  22.604  26.977  1.00  0.00     0.001 A 
BRANCH  10  20
ATOM     20  C   UNL A   1      45.518  25.638  27.052  1.00  0.00     0.197 C 
ATOM     21  C   UNL A   1      45.813  26.920  27.840  1.00  0.00     0.044 C 
BRANCH  20  22
ATOM     22  C   UNL A   1      45.871  25.803  25.562  1.00  0.00     0.249 C 
ATOM     23  O   UNL A   1      46.305  26.876  25.122  1.00  0.00    -0.272 OA
ATOM     24  N   UNL A   1      45.802  24.783  24.647  1.00  0.00    -0.324 N 
ATOM     25  H   UNL A   1      46.090  25.064  23.749  1.00  0.00     0.170 HD
BRANCH  24  26
ATOM     26  C   UNL A   1      45.419  23.433  24.693  1.00  0.00     0.041 A 
ATOM     27  C   UNL A   1      46.390  22.501  25.069  1.00  0.00     0.027 A 
ATOM     28  C   UNL A   1      44.159  22.949  24.380  1.00  0.00     0.027 A 
ATOM     29  C   UNL A   1      46.071  21.142  25.211  1.00  0.00     0.015 A 
ATOM     30  C   UNL A   1      43.826  21.599  24.506  1.00  0.00     0.015 A 
ATOM     31  C   UNL A   1      44.773  20.680  24.950  1.00  0.00     0.056 A 
BRANCH  31  32
ATOM     32  C   UNL A   1      44.405  19.233  25.149  1.00  0.00     0.416 C 
ATOM     33  F   UNL A   1      45.432  18.490  25.641  1.00  0.00    -0.166 F 
ATOM     34  F   UNL A   1      43.372  19.081  26.026  1.00  0.00    -0.166 F 
ATOM     35  F   UNL A   1      44.008  18.611  24.003  1.00  0.00    -0.166 F 
ENDBRANCH  31  32
ENDBRANCH  24  26
ENDBRANCH  20  22
ENDBRANCH  10  20
ENDBRANCH   7   9
ENDBRANCH   6   7
ENDBRANCH   5   6
ENDBRANCH   4   5
ENDBRANCH   3   4
ENDBRANCH   2   3
ENDBRANCH   1   2
BRANCH   1  36
ATOM     36  O   UNL A   1      36.779  31.872  28.415  1.00  0.00    -0.377 OA
BRANCH  36  37
ATOM     37  C   UNL A   1      36.416  33.232  28.632  1.00  0.00     0.188 C 
BRANCH  37  38
ATOM     38  C   UNL A   1      34.918  33.540  28.824  1.00  0.00     0.188 C 
BRANCH  38  39
ATOM     39  O   UNL A   1      34.514  33.542  30.193  1.00  0.00    -0.376 OA
BRANCH  39  40
ATOM     40  C   UNL A   1      35.551  33.529  31.167  1.00  0.00     0.202 C 
BRANCH  40  41
ATOM     41  C   UNL A   1      35.263  32.644  32.388  1.00  0.00     0.261 C 
BRANCH  41  42
ATOM     42  O   UNL A   1      36.280  31.676  32.697  1.00  0.00    -0.460 OA
BRANCH  42  43
ATOM     43  C   UNL A   1      37.082  31.926  33.749  1.00  0.00     0.338 C 
ATOM     44  O   UNL A   1      36.778  32.460  34.808  1.00  0.00    -0.246 OA
BRANCH  43  45
ATOM     45  C   UNL A   1      38.374  31.265  33.501  1.00  0.00     0.060 A 
ATOM     46  C   UNL A   1      39.543  31.852  34.006  1.00  0.00     0.016 A 
ATOM     47  C   UNL A   1      38.431  30.082  32.761  1.00  0.00     0.016 A 
ATOM     48  C   UNL A   1      40.783  31.282  33.727  1.00  0.00     0.010 A 
ATOM     49  C   UNL A   1      39.674  29.528  32.458  1.00  0.00     0.010 A 
ATOM     50  C   UNL A   1      40.854  30.151  32.903  1.00  0.00    -0.014 A 
BRANCH  50  51
ATOM     51  C   UNL A   1      42.143  29.778  32.279  1.00  0.00     0.031 A 
ATOM     52  C   UNL A   1      42.866  28.585  32.844  1.00  0.00     0.074 A 
ATOM     53  C   UNL A   1      42.666  30.478  31.258  1.00  0.00     0.049 A 
ATOM     54  N   UNL A   1      44.049  28.112  32.552  1.00  0.00    -0.248 NA
ATOM     55  C   UNL A   1      42.155  27.825  33.887  1.00  0.00     0.031 C 
ATOM     56  C   UNL A   1      42.034  31.619  30.601  1.00  0.00     0.029 A 
ATOM     57  N   UNL A   1      43.865  30.332  30.608  1.00  0.00    -0.354 N 
ATOM     58  C   UNL A   1      44.226  27.012  33.381  1.00  0.00     0.074 A 
ATOM     59  C   UNL A   1      43.041  26.892  34.198  1.00  0.00     0.031 C 
ATOM     60  C   UNL A   1      42.866  32.088  29.653  1.00  0.00     0.029 A 
ATOM     61  C   UNL A   1      44.098  31.300  29.663  1.00  0.00     0.049 A 
ATOM     62  H   UNL A   1      44.498  29.603  30.800  1.00  0.00     0.167 HD
ATOM     63  C   UNL A   1      45.286  26.176  33.454  1.00  0.00     0.037 A 
ATOM     64  C   UNL A   1      45.198  31.535  28.921  1.00  0.00     0.037 A 
ATOM     65  C   UNL A   1      46.462  26.298  32.639  1.00  0.00     0.049 A 
ATOM     66  C   UNL A   1      46.395  30.627  29.071  1.00  0.00     0.074 A 
ATOM     67  C   UNL A   1      47.587  25.493  32.622  1.00  0.00     0.029 A 
ATOM     68  N   UNL A   1      46.666  27.297  31.698  1.00  0.00    -0.354 N 
ATOM     69  N   UNL A   1      46.546  29.571  29.835  1.00  0.00    -0.248 NA
ATOM     70  C   UNL A   1      47.578  30.945  28.256  1.00  0.00     0.031 C 
ATOM     71  C   UNL A   1      48.491  26.033  31.703  1.00  0.00     0.029 A 
ATOM     72  C   UNL A   1      47.908  27.142  31.111  1.00  0.00     0.049 A 
ATOM     73  H   UNL A   1      46.022  28.010  31.482  1.00  0.00     0.167 HD
ATOM     74  C   UNL A   1      47.816  29.077  29.561  1.00  0.00     0.074 A 
ATOM     75  C   UNL A   1      48.396  29.947  28.560  1.00  0.00     0.031 C 
ATOM     76  C   UNL A   1      48.448  28.000  30.090  1.00  0.00     0.037 A 
BRANCH  63  77
ATOM     77  C   UNL A   1      45.236  25.074  34.466  1.00  0.00     0.064 A 
ATOM     78  C   UNL A   1      44.757  23.797  34.140  1.00  0.00     0.173 A 
ATOM     79  C   UNL A   1      45.720  25.286  35.765  1.00  0.00     0.173 A 
ATOM     80  F   UNL A   1      44.264  23.553  32.916  1.00  0.00    -0.203 F 
ATOM     81  C   UNL A   1      44.753  22.774  35.084  1.00  0.00     0.198 A 
ATOM     82  C   UNL A   1      45.738  24.254  36.699  1.00  0.00     0.198 A 
ATOM     83  F   UNL A   1      46.185  26.492  36.125  1.00  0.00    -0.203 F 
ATOM     84  F   UNL A   1      44.262  21.569  34.763  1.00  0.00    -0.200 F 
ATOM     85  C   UNL A   1      45.254  23.000  36.358  1.00  0.00     0.200 A 
ATOM     86  F   UNL A   1      46.229  24.473  37.927  1.00  0.00    -0.200 F 
ATOM     87  F   UNL A   1      45.263  22.010  37.262  1.00  0.00    -0.200 F 
ENDBRANCH  63  77
BRANCH  64  88
ATOM     88  C   UNL A   1      45.244  32.691  27.986  1.00  0.00     0.064 A 
ATOM     89  C   UNL A   1      44.640  32.624  26.721  1.00  0.00     0.173 A 
ATOM     90  C   UNL A   1      45.939  33.865  28.312  1.00  0.00     0.173 A 
ATOM     91  F   UNL A   1      43.989  31.512  26.350  1.00  0.00    -0.203 F 
ATOM     92  C   UNL A   1      44.754  33.673  25.811  1.00  0.00     0.198 A 
ATOM     93  C   UNL A   1      46.028  34.925  27.413  1.00  0.00     0.198 A 
ATOM     94  F   UNL A   1      46.541  33.979  29.505  1.00  0.00    -0.203 F 
ATOM     95  F   UNL A   1      44.223  33.556  24.587  1.00  0.00    -0.200 F 
ATOM     96  C   UNL A   1      45.445  34.824  26.159  1.00  0.00     0.200 A 
ATOM     97  F   UNL A   1      46.689  36.039  27.756  1.00  0.00    -0.200 F 
ATOM     98  F   UNL A   1      45.565  35.828  25.280  1.00  0.00    -0.200 F 
ENDBRANCH  64  88
BRANCH  76  99
ATOM     99  C   UNL A   1      49.807  27.657  29.555  1.00  0.00     0.064 A 
ATOM    100  C   UNL A   1      49.973  26.813  28.449  1.00  0.00     0.173 A 
ATOM    101  C   UNL A   1      50.952  28.243  30.116  1.00  0.00     0.173 A 
ATOM    102  F   UNL A   1      48.910  26.221  27.885  1.00  0.00    -0.203 F 
ATOM    103  C   UNL A   1      51.241  26.555  27.933  1.00  0.00     0.198 A 
ATOM    104  C   UNL A   1      52.214  28.006  29.580  1.00  0.00     0.198 A 
ATOM    105  F   UNL A   1      50.843  29.067  31.170  1.00  0.00    -0.203 F 
ATOM    106  F   UNL A   1      51.381  25.717  26.896  1.00  0.00    -0.200 F 
ATOM    107  C   UNL A   1      52.358  27.158  28.493  1.00  0.00     0.200 A 
ATOM    108  F   UNL A   1      53.290  28.603  30.111  1.00  0.00    -0.200 F 
ATOM    109  F   UNL A   1      53.574  26.920  27.985  1.00  0.00    -0.200 F 
ENDBRANCH  76  99
ENDBRANCH  50  51
ENDBRANCH  43  45
ENDBRANCH  42  43
ENDBRANCH  41  42
ENDBRANCH  40  41
ENDBRANCH  39  40
ENDBRANCH  38  39
ENDBRANCH  37  38
ENDBRANCH  36  37
ENDBRANCH   1  36
TORSDOF 24
ENDMDL
MODEL 3
REMARK VINA RESULT:      -8.1      3.336      9.068
REMARK SMILES C[C@H](C(=O)Nc1ccc(C(F)(F)F)cc1)n1nc(C(=O)OCCOCCOCCOCCOC(=O)c2ccc(-c3c4nc(c(-c5c(F)c(F)c(F)c(F)c5F)c5ccc([nH]5)c(-c5c(F)c(F)c(F)c(F)c5F)c5nc(c(-c6c(F)c(F)c(F)c(F)c6F)c6ccc3[nH]6)C=C5)C=C4)cc2)c2ccccc2c1=O
REMARK SMILES IDX 26 1 25 2 24 3 23 4 22 5 21 6 19 7 20 8 18 9 16 10 17 11
REMARK SMILES IDX 105 12 104 13 106 14 99 15 103 16 100 17 102 18 101 19 2 20
REMARK SMILES IDX 1 21 3 22 4 23 5 24 6 26 7 27 15 28 8 29 14 30 9 31 10 32
REMARK SMILES IDX 11 33 12 34 13 35 27 36 28 37 29 38 30 39 31 40 32 41 33 42
REMARK SMILES IDX 34 43 35 44 36 45 37 46 98 47 38 48 97 49 39 50 40 51 41 52
REMARK SMILES IDX 91 53 42 54 96 55 90 56 92 57 43 58 95 59 89 60 88 61 44 63
REMARK SMILES IDX 76 64 56 65 75 66 57 67 60 68 74 69 93 70 58 71 59 72 73 74
REMARK SMILES IDX 94 75 61 76 45 77 46 78 54 79 47 80 48 81 52 82 55 83 49 84
REMARK SMILES IDX 50 85 53 86 51 87 77 88 78 89 86 90 79 91 80 92 84 93 87 94
REMARK SMILES IDX 81 95 82 96 85 97 83 98 62 99 63 100 71 101 64 102 65 103
REMARK SMILES IDX 69 104 72 105 66 106 67 107 70 108 68 109
REMARK H PARENT 5 25 92 62 60 73
REMARK Flexibility Score: inf
ROOT
ATOM      1  C   UNL A   1      51.271  25.072  32.420  1.00  0.00     0.188 C 
ENDROOT
BRANCH   1   2
ATOM      2  C   UNL A   1      51.242  25.680  31.002  1.00  0.00     0.188 C 
BRANCH   2   3
ATOM      3  O   UNL A   1      50.501  25.080  29.946  1.00  0.00    -0.376 OA
BRANCH   3   4
ATOM      4  C   UNL A   1      49.671  25.850  29.086  1.00  0.00     0.202 C 
BRANCH   4   5
ATOM      5  C   UNL A   1      48.182  26.041  29.394  1.00  0.00     0.261 C 
BRANCH   5   6
ATOM      6  O   UNL A   1      47.336  25.003  28.891  1.00  0.00    -0.458 OA
BRANCH   6   7
ATOM      7  C   UNL A   1      47.168  24.986  27.558  1.00  0.00     0.359 C 
ATOM      8  O   UNL A   1      47.889  24.460  26.729  1.00  0.00    -0.244 OA
BRANCH   7   9
ATOM      9  C   UNL A   1      45.907  25.735  27.142  1.00  0.00     0.176 A 
ATOM     10  N   UNL A   1      45.008  27.728  26.406  1.00  0.00    -0.216 N 
ATOM     11  N   UNL A   1      45.951  27.030  27.127  1.00  0.00    -0.161 NA
ATOM     12  C   UNL A   1      44.110  27.096  25.542  1.00  0.00     0.275 A 
ATOM     13  C   UNL A   1      43.973  25.631  25.708  1.00  0.00     0.051 A 
ATOM     14  O   UNL A   1      43.398  27.665  24.724  1.00  0.00    -0.267 OA
ATOM     15  C   UNL A   1      44.757  24.984  26.649  1.00  0.00     0.022 A 
ATOM     16  C   UNL A   1      42.996  24.908  25.019  1.00  0.00     0.014 A 
ATOM     17  C   UNL A   1      44.446  23.685  27.064  1.00  0.00     0.011 A 
ATOM     18  C   UNL A   1      42.729  23.583  25.376  1.00  0.00     0.001 A 
ATOM     19  C   UNL A   1      43.415  22.992  26.437  1.00  0.00     0.001 A 
BRANCH  10  20
ATOM     20  C   UNL A   1      45.057  29.200  26.560  1.00  0.00     0.197 C 
ATOM     21  C   UNL A   1      46.414  29.758  26.115  1.00  0.00     0.044 C 
BRANCH  20  22
ATOM     22  C   UNL A   1      44.682  29.695  27.970  1.00  0.00     0.249 C 
ATOM     23  O   UNL A   1      45.241  30.679  28.472  1.00  0.00    -0.272 OA
ATOM     24  N   UNL A   1      43.680  29.145  28.727  1.00  0.00    -0.324 N 
ATOM     25  H   UNL A   1      43.564  29.605  29.588  1.00  0.00     0.170 HD
BRANCH  24  26
ATOM     26  C   UNL A   1      42.780  28.080  28.560  1.00  0.00     0.041 A 
ATOM     27  C   UNL A   1      41.640  28.316  27.787  1.00  0.00     0.027 A 
ATOM     28  C   UNL A   1      42.925  26.817  29.112  1.00  0.00     0.027 A 
ATOM     29  C   UNL A   1      40.728  27.286  27.511  1.00  0.00     0.015 A 
ATOM     30  C   UNL A   1      42.023  25.783  28.855  1.00  0.00     0.015 A 
ATOM     31  C   UNL A   1      40.925  25.998  28.027  1.00  0.00     0.056 A 
BRANCH  31  32
ATOM     32  C   UNL A   1      39.982  24.871  27.694  1.00  0.00     0.416 C 
ATOM     33  F   UNL A   1      38.788  24.974  28.337  1.00  0.00    -0.166 F 
ATOM     34  F   UNL A   1      39.692  24.819  26.362  1.00  0.00    -0.166 F 
ATOM     35  F   UNL A   1      40.473  23.639  28.010  1.00  0.00    -0.166 F 
ENDBRANCH  31  32
ENDBRANCH  24  26
ENDBRANCH  20  22
ENDBRANCH  10  20
ENDBRANCH   7   9
ENDBRANCH   6   7
ENDBRANCH   5   6
ENDBRANCH   4   5
ENDBRANCH   3   4
ENDBRANCH   2   3
ENDBRANCH   1   2
BRANCH   1  36
ATOM     36  O   UNL A   1      50.526  23.877  32.543  1.00  0.00    -0.377 OA
BRANCH  36  37
ATOM     37  C   UNL A   1      49.818  23.717  33.768  1.00  0.00     0.188 C 
BRANCH  37  38
ATOM     38  C   UNL A   1      49.594  22.277  34.272  1.00  0.00     0.188 C 
BRANCH  38  39
ATOM     39  O   UNL A   1      48.387  22.124  35.019  1.00  0.00    -0.376 OA
BRANCH  39  40
ATOM     40  C   UNL A   1      47.613  20.960  34.755  1.00  0.00     0.202 C 
BRANCH  40  41
ATOM     41  C   UNL A   1      46.160  21.242  34.350  1.00  0.00     0.261 C 
BRANCH  41  42
ATOM     42  O   UNL A   1      45.839  22.627  34.140  1.00  0.00    -0.460 OA
BRANCH  42  43
ATOM     43  C   UNL A   1      44.995  23.212  35.011  1.00  0.00     0.338 C 
ATOM     44  O   UNL A   1      44.805  22.910  36.182  1.00  0.00    -0.246 OA
BRANCH  43  45
ATOM     45  C   UNL A   1      44.462  24.430  34.377  1.00  0.00     0.060 A 
ATOM     46  C   UNL A   1      44.428  24.504  32.977  1.00  0.00     0.016 A 
ATOM     47  C   UNL A   1      44.014  25.495  35.160  1.00  0.00     0.016 A 
ATOM     48  C   UNL A   1      43.992  25.672  32.354  1.00  0.00     0.010 A 
ATOM     49  C   UNL A   1      43.605  26.673  34.537  1.00  0.00     0.010 A 
ATOM     50  C   UNL A   1      43.635  26.779  33.135  1.00  0.00    -0.014 A 
BRANCH  50  51
ATOM     51  C   UNL A   1      43.558  28.120  32.513  1.00  0.00     0.031 A 
ATOM     52  C   UNL A   1      44.856  28.828  32.230  1.00  0.00     0.074 A 
ATOM     53  C   UNL A   1      42.381  28.700  32.222  1.00  0.00     0.049 A 
ATOM     54  N   UNL A   1      45.065  30.040  31.789  1.00  0.00    -0.248 NA
ATOM     55  C   UNL A   1      46.088  28.060  32.486  1.00  0.00     0.031 C 
ATOM     56  C   UNL A   1      41.067  28.091  32.408  1.00  0.00     0.029 A 
ATOM     57  N   UNL A   1      42.110  29.947  31.719  1.00  0.00    -0.354 N 
ATOM     58  C   UNL A   1      46.445  30.182  31.729  1.00  0.00     0.074 A 
ATOM     59  C   UNL A   1      47.027  28.943  32.189  1.00  0.00     0.031 C 
ATOM     60  C   UNL A   1      40.123  28.979  32.047  1.00  0.00     0.029 A 
ATOM     61  C   UNL A   1      40.769  30.226  31.638  1.00  0.00     0.049 A 
ATOM     62  H   UNL A   1      42.810  30.582  31.444  1.00  0.00     0.167 HD
ATOM     63  C   UNL A   1      47.162  31.254  31.324  1.00  0.00     0.037 A 
ATOM     64  C   UNL A   1      40.144  31.373  31.303  1.00  0.00     0.037 A 
ATOM     65  C   UNL A   1      46.580  32.484  30.866  1.00  0.00     0.049 A 
ATOM     66  C   UNL A   1      40.971  32.577  30.921  1.00  0.00     0.074 A 
ATOM     67  C   UNL A   1      47.218  33.627  30.418  1.00  0.00     0.029 A 
ATOM     68  N   UNL A   1      45.217  32.733  30.805  1.00  0.00    -0.354 N 
ATOM     69  N   UNL A   1      42.275  32.697  30.837  1.00  0.00    -0.248 NA
ATOM     70  C   UNL A   1      40.239  33.809  30.590  1.00  0.00     0.031 C 
ATOM     71  C   UNL A   1      46.241  34.583  30.129  1.00  0.00     0.029 A 
ATOM     72  C   UNL A   1      44.995  34.018  30.348  1.00  0.00     0.049 A 
ATOM     73  H   UNL A   1      44.513  32.089  31.051  1.00  0.00     0.167 HD
ATOM     74  C   UNL A   1      42.514  33.995  30.403  1.00  0.00     0.074 A 
ATOM     75  C   UNL A   1      41.222  34.626  30.241  1.00  0.00     0.031 C 
ATOM     76  C   UNL A   1      43.697  34.612  30.161  1.00  0.00     0.037 A 
BRANCH  63  77
ATOM     77  C   UNL A   1      48.655  31.156  31.384  1.00  0.00     0.064 A 
ATOM     78  C   UNL A   1      49.407  30.702  30.292  1.00  0.00     0.173 A 
ATOM     79  C   UNL A   1      49.344  31.569  32.534  1.00  0.00     0.173 A 
ATOM     80  F   UNL A   1      48.792  30.277  29.178  1.00  0.00    -0.203 F 
ATOM     81  C   UNL A   1      50.798  30.653  30.352  1.00  0.00     0.198 A 
ATOM     82  C   UNL A   1      50.735  31.542  32.583  1.00  0.00     0.198 A 
ATOM     83  F   UNL A   1      48.668  32.006  33.607  1.00  0.00    -0.203 F 
ATOM     84  F   UNL A   1      51.497  30.186  29.309  1.00  0.00    -0.200 F 
ATOM     85  C   UNL A   1      51.459  31.083  31.493  1.00  0.00     0.200 A 
ATOM     86  F   UNL A   1      51.373  31.965  33.683  1.00  0.00    -0.200 F 
ATOM     87  F   UNL A   1      52.799  31.049  31.545  1.00  0.00    -0.200 F 
ENDBRANCH  63  77
BRANCH  64  88
ATOM     88  C   UNL A   1      38.659  31.460  31.336  1.00  0.00     0.064 A 
ATOM     89  C   UNL A   1      37.892  31.173  30.197  1.00  0.00     0.173 A 
ATOM     90  C   UNL A   1      37.980  31.885  32.487  1.00  0.00     0.173 A 
ATOM     91  F   UNL A   1      38.497  30.791  29.062  1.00  0.00    -0.203 F 
ATOM     92  C   UNL A   1      36.508  31.336  30.201  1.00  0.00     0.198 A 
ATOM     93  C   UNL A   1      36.594  32.018  32.499  1.00  0.00     0.198 A 
ATOM     94  F   UNL A   1      38.666  32.179  33.602  1.00  0.00    -0.203 F 
ATOM     95  F   UNL A   1      35.807  31.117  29.080  1.00  0.00    -0.200 F 
ATOM     96  C   UNL A   1      35.859  31.755  31.352  1.00  0.00     0.200 A 
ATOM     97  F   UNL A   1      35.970  32.416  33.615  1.00  0.00    -0.200 F 
ATOM     98  F   UNL A   1      34.530  31.922  31.353  1.00  0.00    -0.200 F 
ENDBRANCH  64  88
BRANCH  76  99
ATOM     99  C   UNL A   1      43.656  36.015  29.631  1.00  0.00     0.064 A 
ATOM    100  C   UNL A   1      43.774  37.127  30.477  1.00  0.00     0.173 A 
ATOM    101  C   UNL A   1      43.572  36.243  28.249  1.00  0.00     0.173 A 
ATOM    102  F   UNL A   1      43.847  36.961  31.806  1.00  0.00    -0.203 F 
ATOM    103  C   UNL A   1      43.792  38.419  29.958  1.00  0.00     0.198 A 
ATOM    104  C   UNL A   1      43.619  37.534  27.732  1.00  0.00     0.198 A 
ATOM    105  F   UNL A   1      43.468  35.211  27.398  1.00  0.00    -0.203 F 
ATOM    106  F   UNL A   1      43.869  39.470  30.786  1.00  0.00    -0.200 F 
ATOM    107  C   UNL A   1      43.724  38.621  28.586  1.00  0.00     0.200 A 
ATOM    108  F   UNL A   1      43.570  37.726  26.406  1.00  0.00    -0.200 F 
ATOM    109  F   UNL A   1      43.756  39.864  28.089  1.00  0.00    -0.200 F 
ENDBRANCH  76  99
ENDBRANCH  50  51
ENDBRANCH  43  45
ENDBRANCH  42  43
ENDBRANCH  41  42
ENDBRANCH  40  41
ENDBRANCH  39  40
ENDBRANCH  38  39
ENDBRANCH  37  38
ENDBRANCH  36  37
ENDBRANCH   1  36
TORSDOF 24
ENDMDL
