MODEL 1
REMARK VINA RESULT:     -10.2      0.000      0.000
REMARK SMILES CC(C)N(c1cc2c(cc1Cl)C=C(C(=O)OCCOCCOCCOCCOC(=O)c1ccc(-c3c4nc(c(-c5c(F)c(F)c(F)c(F)c5F)c5ccc([nH]5)c(-c5c(F)c(F)c(F)c(F)c5F)c5nc(c(-c6c(F)c(F)c(F)c(F)c6F)c6ccc3[nH]6)C=C5)C=C4)cc1)[C@@H](C(F)(F)F)O2)C(C)C
REMARK SMILES IDX 22 1 21 2 20 3 19 4 18 5 17 6 16 7 14 8 15 9 13 10 5 11 6 12
REMARK SMILES IDX 10 13 7 14 9 15 11 16 8 17 99 18 12 19 94 20 4 21 2 22 1 23
REMARK SMILES IDX 3 24 100 25 101 26 102 27 95 28 96 29 97 30 98 31 23 32
REMARK SMILES IDX 24 33 25 34 26 35 27 36 28 37 29 38 30 39 31 40 32 41 93 42
REMARK SMILES IDX 33 43 92 44 34 45 35 46 36 47 86 48 37 49 91 50 85 51 87 52
REMARK SMILES IDX 38 53 90 54 84 55 83 56 39 58 71 59 51 60 70 61 52 62 55 63
REMARK SMILES IDX 69 64 88 65 53 66 54 67 68 69 89 70 56 71 40 72 41 73 49 74
REMARK SMILES IDX 42 75 43 76 47 77 50 78 44 79 45 80 48 81 46 82 72 83 73 84
REMARK SMILES IDX 81 85 74 86 75 87 79 88 82 89 76 90 77 91 80 92 78 93 57 94
REMARK SMILES IDX 58 95 66 96 59 97 60 98 64 99 67 100 61 101 62 102 65 103
REMARK SMILES IDX 63 104
REMARK H PARENT 87 57 55 68
REMARK Flexibility Score: inf
ROOT
ATOM      1  O   UNL A   1      40.882  22.536  26.175  1.00  0.00    -0.377 OA
ENDROOT
BRANCH   1   2
ATOM      2  C   UNL A   1      40.002  21.554  26.698  1.00  0.00     0.188 C 
BRANCH   2   3
ATOM      3  C   UNL A   1      38.896  21.149  25.706  1.00  0.00     0.188 C 
BRANCH   3   4
ATOM      4  O   UNL A   1      38.026  22.229  25.374  1.00  0.00    -0.376 OA
BRANCH   4   5
ATOM      5  C   UNL A   1      36.822  21.908  24.689  1.00  0.00     0.202 C 
BRANCH   5   6
ATOM      6  C   UNL A   1      35.943  20.802  25.295  1.00  0.00     0.261 C 
BRANCH   6   7
ATOM      7  O   UNL A   1      34.783  20.451  24.522  1.00  0.00    -0.460 OA
BRANCH   7   8
ATOM      8  C   UNL A   1      33.613  20.339  25.181  1.00  0.00     0.338 C 
ATOM      9  O   UNL A   1      33.210  19.362  25.787  1.00  0.00    -0.246 OA
BRANCH   8  10
ATOM     10  C   UNL A   1      32.962  21.666  25.189  1.00  0.00     0.087 C 
ATOM     11  C   UNL A   1      31.318  26.287  23.965  1.00  0.00     0.060 A 
ATOM     12  C   UNL A   1      31.370  25.517  25.152  1.00  0.00     0.074 A 
ATOM     13  C   UNL A   1      31.614  25.599  22.764  1.00  0.00     0.065 A 
ATOM     14  C   UNL A   1      31.810  24.188  25.168  1.00  0.00     0.130 A 
ATOM     15  C   UNL A   1      32.015  24.253  22.778  1.00  0.00     0.034 A 
ATOM     16  Cl  UNL A   1      31.654  26.339  21.199  1.00  0.00    -0.082 Cl
ATOM     17  C   UNL A   1      32.167  23.565  23.980  1.00  0.00     0.019 A 
ATOM     18  O   UNL A   1      31.898  23.587  26.392  1.00  0.00    -0.475 OA
ATOM     19  C   UNL A   1      32.774  22.247  23.998  1.00  0.00     0.027 C 
ATOM     20  C   UNL A   1      32.496  22.263  26.494  1.00  0.00     0.316 C 
BRANCH  11  21
ATOM     21  N   UNL A   1      31.054  27.670  24.068  1.00  0.00    -0.365 N 
BRANCH  21  22
ATOM     22  C   UNL A   1      29.728  28.182  23.653  1.00  0.00     0.076 C 
ATOM     23  C   UNL A   1      29.771  28.934  22.322  1.00  0.00     0.030 C 
ATOM     24  C   UNL A   1      28.638  27.111  23.615  1.00  0.00     0.030 C 
ENDBRANCH  21  22
BRANCH  21  25
ATOM     25  C   UNL A   1      32.189  28.507  24.539  1.00  0.00     0.076 C 
ATOM     26  C   UNL A   1      33.102  28.973  23.408  1.00  0.00     0.030 C 
ATOM     27  C   UNL A   1      31.759  29.667  25.429  1.00  0.00     0.030 C 
ENDBRANCH  21  25
ENDBRANCH  11  21
BRANCH  20  28
ATOM     28  C   UNL A   1      33.621  22.318  27.540  1.00  0.00     0.430 C 
ATOM     29  F   UNL A   1      34.598  23.179  27.168  1.00  0.00    -0.167 F 
ATOM     30  F   UNL A   1      33.173  22.742  28.745  1.00  0.00    -0.167 F 
ATOM     31  F   UNL A   1      34.194  21.108  27.728  1.00  0.00    -0.167 F 
ENDBRANCH  20  28
ENDBRANCH   8  10
ENDBRANCH   7   8
ENDBRANCH   6   7
ENDBRANCH   5   6
ENDBRANCH   4   5
ENDBRANCH   3   4
ENDBRANCH   2   3
ENDBRANCH   1   2
BRANCH   1  32
ATOM     32  C   UNL A   1      42.281  22.360  26.403  1.00  0.00     0.188 C 
BRANCH  32  33
ATOM     33  C   UNL A   1      43.272  22.079  25.249  1.00  0.00     0.188 C 
BRANCH  33  34
ATOM     34  O   UNL A   1      44.399  21.296  25.631  1.00  0.00    -0.376 OA
BRANCH  34  35
ATOM     35  C   UNL A   1      45.681  21.882  25.451  1.00  0.00     0.202 C 
BRANCH  35  36
ATOM     36  C   UNL A   1      45.630  23.335  24.966  1.00  0.00     0.261 C 
BRANCH  36  37
ATOM     37  O   UNL A   1      45.537  24.319  26.007  1.00  0.00    -0.460 OA
BRANCH  37  38
ATOM     38  C   UNL A   1      45.620  25.621  25.653  1.00  0.00     0.338 C 
ATOM     39  O   UNL A   1      46.114  26.083  24.641  1.00  0.00    -0.246 OA
BRANCH  38  40
ATOM     40  C   UNL A   1      44.820  26.391  26.627  1.00  0.00     0.060 A 
ATOM     41  C   UNL A   1      43.953  25.733  27.503  1.00  0.00     0.016 A 
ATOM     42  C   UNL A   1      44.911  27.789  26.632  1.00  0.00     0.016 A 
ATOM     43  C   UNL A   1      43.196  26.476  28.408  1.00  0.00     0.010 A 
ATOM     44  C   UNL A   1      44.148  28.533  27.537  1.00  0.00     0.010 A 
ATOM     45  C   UNL A   1      43.305  27.877  28.447  1.00  0.00    -0.014 A 
BRANCH  45  46
ATOM     46  C   UNL A   1      42.678  28.619  29.564  1.00  0.00     0.031 A 
ATOM     47  C   UNL A   1      41.320  29.235  29.454  1.00  0.00     0.074 A 
ATOM     48  C   UNL A   1      43.372  28.712  30.714  1.00  0.00     0.049 A 
ATOM     49  N   UNL A   1      40.597  29.798  30.389  1.00  0.00    -0.248 NA
ATOM     50  C   UNL A   1      40.690  29.222  28.126  1.00  0.00     0.031 C 
ATOM     51  C   UNL A   1      44.716  28.174  30.921  1.00  0.00     0.029 A 
ATOM     52  N   UNL A   1      43.041  29.269  31.922  1.00  0.00    -0.354 N 
ATOM     53  C   UNL A   1      39.414  30.182  29.775  1.00  0.00     0.074 A 
ATOM     54  C   UNL A   1      39.540  29.838  28.372  1.00  0.00     0.031 C 
ATOM     55  C   UNL A   1      45.082  28.391  32.192  1.00  0.00     0.029 A 
ATOM     56  C   UNL A   1      44.008  29.101  32.881  1.00  0.00     0.049 A 
ATOM     57  H   UNL A   1      42.193  29.743  32.085  1.00  0.00     0.167 HD
ATOM     58  C   UNL A   1      38.320  30.748  30.342  1.00  0.00     0.037 A 
ATOM     59  C   UNL A   1      44.022  29.461  34.177  1.00  0.00     0.037 A 
ATOM     60  C   UNL A   1      38.218  31.112  31.734  1.00  0.00     0.049 A 
ATOM     61  C   UNL A   1      42.821  30.141  34.766  1.00  0.00     0.074 A 
ATOM     62  C   UNL A   1      37.137  31.655  32.408  1.00  0.00     0.029 A 
ATOM     63  N   UNL A   1      39.242  30.988  32.665  1.00  0.00    -0.354 N 
ATOM     64  N   UNL A   1      41.674  30.424  34.198  1.00  0.00    -0.248 NA
ATOM     65  C   UNL A   1      42.914  30.547  36.174  1.00  0.00     0.031 C 
ATOM     66  C   UNL A   1      37.523  31.911  33.729  1.00  0.00     0.029 A 
ATOM     67  C   UNL A   1      38.829  31.479  33.895  1.00  0.00     0.049 A 
ATOM     68  H   UNL A   1      40.131  30.607  32.478  1.00  0.00     0.167 HD
ATOM     69  C   UNL A   1      40.902  31.028  35.180  1.00  0.00     0.074 A 
ATOM     70  C   UNL A   1      41.706  31.053  36.385  1.00  0.00     0.031 C 
ATOM     71  C   UNL A   1      39.641  31.517  35.087  1.00  0.00     0.037 A 
BRANCH  58  72
ATOM     72  C   UNL A   1      37.132  31.002  29.459  1.00  0.00     0.064 A 
ATOM     73  C   UNL A   1      36.901  32.267  28.896  1.00  0.00     0.173 A 
ATOM     74  C   UNL A   1      36.257  29.962  29.112  1.00  0.00     0.173 A 
ATOM     75  F   UNL A   1      37.708  33.296  29.195  1.00  0.00    -0.203 F 
ATOM     76  C   UNL A   1      35.825  32.486  28.040  1.00  0.00     0.198 A 
ATOM     77  C   UNL A   1      35.197  30.178  28.234  1.00  0.00     0.198 A 
ATOM     78  F   UNL A   1      36.439  28.730  29.610  1.00  0.00    -0.203 F 
ATOM     79  F   UNL A   1      35.604  33.711  27.544  1.00  0.00    -0.200 F 
ATOM     80  C   UNL A   1      34.978  31.440  27.704  1.00  0.00     0.200 A 
ATOM     81  F   UNL A   1      34.390  29.162  27.897  1.00  0.00    -0.200 F 
ATOM     82  F   UNL A   1      33.950  31.650  26.870  1.00  0.00    -0.200 F 
ENDBRANCH  58  72
BRANCH  59  83
ATOM     83  C   UNL A   1      45.203  29.118  35.006  1.00  0.00     0.064 A 
ATOM     84  C   UNL A   1      45.276  27.885  35.668  1.00  0.00     0.173 A 
ATOM     85  C   UNL A   1      46.306  29.979  35.098  1.00  0.00     0.173 A 
ATOM     86  F   UNL A   1      44.239  27.036  35.617  1.00  0.00    -0.203 F 
ATOM     87  C   UNL A   1      46.412  27.525  36.388  1.00  0.00     0.198 A 
ATOM     88  C   UNL A   1      47.449  29.607  35.800  1.00  0.00     0.198 A 
ATOM     89  F   UNL A   1      46.286  31.166  34.473  1.00  0.00    -0.203 F 
ATOM     90  F   UNL A   1      46.451  26.346  37.025  1.00  0.00    -0.200 F 
ATOM     91  C   UNL A   1      47.500  28.381  36.445  1.00  0.00     0.200 A 
ATOM     92  F   UNL A   1      48.507  30.429  35.837  1.00  0.00    -0.200 F 
ATOM     93  F   UNL A   1      48.602  28.024  37.121  1.00  0.00    -0.200 F 
ENDBRANCH  59  83
BRANCH  71  94
ATOM     94  C   UNL A   1      39.045  32.131  36.320  1.00  0.00     0.064 A 
ATOM     95  C   UNL A   1      39.296  33.468  36.663  1.00  0.00     0.173 A 
ATOM     96  C   UNL A   1      38.164  31.400  37.132  1.00  0.00     0.173 A 
ATOM     97  F   UNL A   1      40.145  34.205  35.929  1.00  0.00    -0.203 F 
ATOM     98  C   UNL A   1      38.697  34.046  37.779  1.00  0.00     0.198 A 
ATOM     99  C   UNL A   1      37.545  31.989  38.231  1.00  0.00     0.198 A 
ATOM    100  F   UNL A   1      37.888  30.118  36.845  1.00  0.00    -0.203 F 
ATOM    101  F   UNL A   1      38.979  35.315  38.107  1.00  0.00    -0.200 F 
ATOM    102  C   UNL A   1      37.816  33.310  38.556  1.00  0.00     0.200 A 
ATOM    103  F   UNL A   1      36.684  31.280  38.973  1.00  0.00    -0.200 F 
ATOM    104  F   UNL A   1      37.227  33.872  39.620  1.00  0.00    -0.200 F 
ENDBRANCH  71  94
ENDBRANCH  45  46
ENDBRANCH  38  40
ENDBRANCH  37  38
ENDBRANCH  36  37
ENDBRANCH  35  36
ENDBRANCH  34  35
ENDBRANCH  33  34
ENDBRANCH  32  33
ENDBRANCH   1  32
TORSDOF 24
ENDMDL
MODEL 2
REMARK VINA RESULT:      -9.9      5.321     10.446
REMARK SMILES CC(C)N(c1cc2c(cc1Cl)C=C(C(=O)OCCOCCOCCOCCOC(=O)c1ccc(-c3c4nc(c(-c5c(F)c(F)c(F)c(F)c5F)c5ccc([nH]5)c(-c5c(F)c(F)c(F)c(F)c5F)c5nc(c(-c6c(F)c(F)c(F)c(F)c6F)c6ccc3[nH]6)C=C5)C=C4)cc1)[C@@H](C(F)(F)F)O2)C(C)C
REMARK SMILES IDX 22 1 21 2 20 3 19 4 18 5 17 6 16 7 14 8 15 9 13 10 5 11 6 12
REMARK SMILES IDX 10 13 7 14 9 15 11 16 8 17 99 18 12 19 94 20 4 21 2 22 1 23
REMARK SMILES IDX 3 24 100 25 101 26 102 27 95 28 96 29 97 30 98 31 23 32
REMARK SMILES IDX 24 33 25 34 26 35 27 36 28 37 29 38 30 39 31 40 32 41 93 42
REMARK SMILES IDX 33 43 92 44 34 45 35 46 36 47 86 48 37 49 91 50 85 51 87 52
REMARK SMILES IDX 38 53 90 54 84 55 83 56 39 58 71 59 51 60 70 61 52 62 55 63
REMARK SMILES IDX 69 64 88 65 53 66 54 67 68 69 89 70 56 71 40 72 41 73 49 74
REMARK SMILES IDX 42 75 43 76 47 77 50 78 44 79 45 80 48 81 46 82 72 83 73 84
REMARK SMILES IDX 81 85 74 86 75 87 79 88 82 89 76 90 77 91 80 92 78 93 57 94
REMARK SMILES IDX 58 95 66 96 59 97 60 98 64 99 67 100 61 101 62 102 65 103
REMARK SMILES IDX 63 104
REMARK H PARENT 87 57 55 68
REMARK Flexibility Score: inf
ROOT
ATOM      1  O   UNL A   1      35.513  30.121  28.428  1.00  0.00    -0.377 OA
ENDROOT
BRANCH   1   2
ATOM      2  C   UNL A   1      35.233  29.354  27.268  1.00  0.00     0.188 C 
BRANCH   2   3
ATOM      3  C   UNL A   1      33.726  29.130  27.046  1.00  0.00     0.188 C 
BRANCH   3   4
ATOM      4  O   UNL A   1      33.442  28.421  25.842  1.00  0.00    -0.376 OA
BRANCH   4   5
ATOM      5  C   UNL A   1      33.040  29.189  24.714  1.00  0.00     0.202 C 
BRANCH   5   6
ATOM      6  C   UNL A   1      31.574  29.070  24.270  1.00  0.00     0.261 C 
BRANCH   6   7
ATOM      7  O   UNL A   1      30.804  28.073  24.962  1.00  0.00    -0.460 OA
BRANCH   7   8
ATOM      8  C   UNL A   1      30.028  27.264  24.216  1.00  0.00     0.338 C 
ATOM      9  O   UNL A   1      29.011  27.575  23.623  1.00  0.00    -0.246 OA
BRANCH   8  10
ATOM     10  C   UNL A   1      30.709  25.957  24.096  1.00  0.00     0.087 C 
ATOM     11  C   UNL A   1      33.411  21.779  24.988  1.00  0.00     0.060 A 
ATOM     12  C   UNL A   1      32.860  22.397  23.840  1.00  0.00     0.074 A 
ATOM     13  C   UNL A   1      32.996  22.303  26.235  1.00  0.00     0.065 A 
ATOM     14  C   UNL A   1      32.053  23.539  23.914  1.00  0.00     0.130 A 
ATOM     15  C   UNL A   1      32.153  23.423  26.309  1.00  0.00     0.034 A 
ATOM     16  Cl  UNL A   1      33.567  21.738  27.770  1.00  0.00    -0.082 Cl
ATOM     17  C   UNL A   1      31.727  24.074  25.153  1.00  0.00     0.019 A 
ATOM     18  O   UNL A   1      31.660  24.088  22.727  1.00  0.00    -0.475 OA
ATOM     19  C   UNL A   1      31.028  25.342  25.242  1.00  0.00     0.027 C 
ATOM     20  C   UNL A   1      30.953  25.362  22.731  1.00  0.00     0.316 C 
BRANCH  11  21
ATOM     21  N   UNL A   1      34.370  20.757  24.810  1.00  0.00    -0.365 N 
BRANCH  21  22
ATOM     22  C   UNL A   1      35.779  21.130  24.548  1.00  0.00     0.076 C 
ATOM     23  C   UNL A   1      35.914  22.471  23.825  1.00  0.00     0.030 C 
ATOM     24  C   UNL A   1      36.663  21.115  25.795  1.00  0.00     0.030 C 
ENDBRANCH  21  22
BRANCH  21  25
ATOM     25  C   UNL A   1      33.840  19.368  24.844  1.00  0.00     0.076 C 
ATOM     26  C   UNL A   1      32.533  19.204  24.074  1.00  0.00     0.030 C 
ATOM     27  C   UNL A   1      34.868  18.318  24.436  1.00  0.00     0.030 C 
ENDBRANCH  21  25
ENDBRANCH  11  21
BRANCH  20  28
ATOM     28  C   UNL A   1      31.697  26.333  21.801  1.00  0.00     0.430 C 
ATOM     29  F   UNL A   1      30.943  27.421  21.518  1.00  0.00    -0.167 F 
ATOM     30  F   UNL A   1      32.842  26.793  22.358  1.00  0.00    -0.167 F 
ATOM     31  F   UNL A   1      32.029  25.750  20.627  1.00  0.00    -0.167 F 
ENDBRANCH  20  28
ENDBRANCH   8  10
ENDBRANCH   7   8
ENDBRANCH   6   7
ENDBRANCH   5   6
ENDBRANCH   4   5
ENDBRANCH   3   4
ENDBRANCH   2   3
ENDBRANCH   1   2
BRANCH   1  32
ATOM     32  C   UNL A   1      34.907  31.410  28.533  1.00  0.00     0.188 C 
BRANCH  32  33
ATOM     33  C   UNL A   1      35.657  32.626  29.124  1.00  0.00     0.188 C 
BRANCH  33  34
ATOM     34  O   UNL A   1      35.175  33.040  30.400  1.00  0.00    -0.376 OA
BRANCH  34  35
ATOM     35  C   UNL A   1      35.194  32.073  31.440  1.00  0.00     0.202 C 
BRANCH  35  36
ATOM     36  C   UNL A   1      35.476  32.664  32.825  1.00  0.00     0.261 C 
BRANCH  36  37
ATOM     37  O   UNL A   1      36.703  32.230  33.431  1.00  0.00    -0.460 OA
BRANCH  37  38
ATOM     38  C   UNL A   1      37.788  33.024  33.296  1.00  0.00     0.338 C 
ATOM     39  O   UNL A   1      38.006  34.082  33.857  1.00  0.00    -0.246 OA
BRANCH  38  40
ATOM     40  C   UNL A   1      38.775  32.282  32.485  1.00  0.00     0.060 A 
ATOM     41  C   UNL A   1      38.781  32.407  31.094  1.00  0.00     0.016 A 
ATOM     42  C   UNL A   1      39.675  31.420  33.126  1.00  0.00     0.016 A 
ATOM     43  C   UNL A   1      39.712  31.691  30.343  1.00  0.00     0.010 A 
ATOM     44  C   UNL A   1      40.605  30.700  32.371  1.00  0.00     0.010 A 
ATOM     45  C   UNL A   1      40.643  30.850  30.977  1.00  0.00    -0.014 A 
BRANCH  45  46
ATOM     46  C   UNL A   1      41.764  30.290  30.188  1.00  0.00     0.031 A 
ATOM     47  C   UNL A   1      41.705  28.931  29.568  1.00  0.00     0.074 A 
ATOM     48  C   UNL A   1      42.854  31.062  30.024  1.00  0.00     0.049 A 
ATOM     49  N   UNL A   1      42.555  28.368  28.747  1.00  0.00    -0.248 NA
ATOM     50  C   UNL A   1      40.550  28.092  29.914  1.00  0.00     0.031 C 
ATOM     51  C   UNL A   1      43.028  32.392  30.609  1.00  0.00     0.029 A 
ATOM     52  N   UNL A   1      44.006  30.854  29.310  1.00  0.00    -0.354 N 
ATOM     53  C   UNL A   1      42.027  27.119  28.451  1.00  0.00     0.074 A 
ATOM     54  C   UNL A   1      40.810  26.986  29.228  1.00  0.00     0.031 C 
ATOM     55  C   UNL A   1      44.200  32.899  30.198  1.00  0.00     0.029 A 
ATOM     56  C   UNL A   1      44.866  31.923  29.340  1.00  0.00     0.049 A 
ATOM     57  H   UNL A   1      44.196  30.020  28.822  1.00  0.00     0.167 HD
ATOM     58  C   UNL A   1      42.509  26.187  27.593  1.00  0.00     0.037 A 
ATOM     59  C   UNL A   1      46.051  32.106  28.731  1.00  0.00     0.037 A 
ATOM     60  C   UNL A   1      43.737  26.320  26.848  1.00  0.00     0.049 A 
ATOM     61  C   UNL A   1      46.590  31.033  27.832  1.00  0.00     0.074 A 
ATOM     62  C   UNL A   1      44.286  25.446  25.925  1.00  0.00     0.029 A 
ATOM     63  N   UNL A   1      44.618  27.389  26.953  1.00  0.00    -0.354 N 
ATOM     64  N   UNL A   1      46.044  29.891  27.492  1.00  0.00    -0.248 NA
ATOM     65  C   UNL A   1      47.908  31.274  27.230  1.00  0.00     0.031 C 
ATOM     66  C   UNL A   1      45.523  25.957  25.515  1.00  0.00     0.029 A 
ATOM     67  C   UNL A   1      45.723  27.177  26.141  1.00  0.00     0.049 A 
ATOM     68  H   UNL A   1      44.478  28.181  27.521  1.00  0.00     0.167 HD
ATOM     69  C   UNL A   1      46.940  29.283  26.627  1.00  0.00     0.074 A 
ATOM     70  C   UNL A   1      48.059  30.191  26.479  1.00  0.00     0.031 C 
ATOM     71  C   UNL A   1      46.841  28.078  26.012  1.00  0.00     0.037 A 
BRANCH  58  72
ATOM     72  C   UNL A   1      41.700  24.937  27.400  1.00  0.00     0.064 A 
ATOM     73  C   UNL A   1      42.052  23.737  28.037  1.00  0.00     0.173 A 
ATOM     74  C   UNL A   1      40.525  24.950  26.632  1.00  0.00     0.173 A 
ATOM     75  F   UNL A   1      43.165  23.670  28.782  1.00  0.00    -0.203 F 
ATOM     76  C   UNL A   1      41.273  22.592  27.893  1.00  0.00     0.198 A 
ATOM     77  C   UNL A   1      39.734  23.810  26.512  1.00  0.00     0.198 A 
ATOM     78  F   UNL A   1      40.135  26.073  26.012  1.00  0.00    -0.203 F 
ATOM     79  F   UNL A   1      41.649  21.448  28.481  1.00  0.00    -0.200 F 
ATOM     80  C   UNL A   1      40.111  22.631  27.136  1.00  0.00     0.200 A 
ATOM     81  F   UNL A   1      38.602  23.854  25.795  1.00  0.00    -0.200 F 
ATOM     82  F   UNL A   1      39.355  21.531  27.009  1.00  0.00    -0.200 F 
ENDBRANCH  58  72
BRANCH  59  83
ATOM     83  C   UNL A   1      46.763  33.395  28.915  1.00  0.00     0.064 A 
ATOM     84  C   UNL A   1      47.782  33.516  29.868  1.00  0.00     0.173 A 
ATOM     85  C   UNL A   1      46.488  34.502  28.100  1.00  0.00     0.173 A 
ATOM     86  F   UNL A   1      48.070  32.486  30.676  1.00  0.00    -0.203 F 
ATOM     87  C   UNL A   1      48.505  34.700  29.996  1.00  0.00     0.198 A 
ATOM     88  C   UNL A   1      47.227  35.677  28.215  1.00  0.00     0.198 A 
ATOM     89  F   UNL A   1      45.527  34.430  27.168  1.00  0.00    -0.203 F 
ATOM     90  F   UNL A   1      49.466  34.797  30.926  1.00  0.00    -0.200 F 
ATOM     91  C   UNL A   1      48.233  35.775  29.164  1.00  0.00     0.200 A 
ATOM     92  F   UNL A   1      46.975  36.708  27.396  1.00  0.00    -0.200 F 
ATOM     93  F   UNL A   1      48.944  36.906  29.274  1.00  0.00    -0.200 F 
ENDBRANCH  59  83
BRANCH  71  94
ATOM     94  C   UNL A   1      47.977  27.661  25.123  1.00  0.00     0.064 A 
ATOM     95  C   UNL A   1      47.903  27.804  23.730  1.00  0.00     0.173 A 
ATOM     96  C   UNL A   1      49.174  27.175  25.670  1.00  0.00     0.173 A 
ATOM     97  F   UNL A   1      46.774  28.248  23.156  1.00  0.00    -0.203 F 
ATOM     98  C   UNL A   1      48.981  27.464  22.916  1.00  0.00     0.198 A 
ATOM     99  C   UNL A   1      50.260  26.862  24.856  1.00  0.00     0.198 A 
ATOM    100  F   UNL A   1      49.298  27.022  26.997  1.00  0.00    -0.203 F 
ATOM    101  F   UNL A   1      48.875  27.576  21.585  1.00  0.00    -0.200 F 
ATOM    102  C   UNL A   1      50.161  27.003  23.480  1.00  0.00     0.200 A 
ATOM    103  F   UNL A   1      51.404  26.429  25.404  1.00  0.00    -0.200 F 
ATOM    104  F   UNL A   1      51.203  26.692  22.697  1.00  0.00    -0.200 F 
ENDBRANCH  71  94
ENDBRANCH  45  46
ENDBRANCH  38  40
ENDBRANCH  37  38
ENDBRANCH  36  37
ENDBRANCH  35  36
ENDBRANCH  34  35
ENDBRANCH  33  34
ENDBRANCH  32  33
ENDBRANCH   1  32
TORSDOF 24
ENDMDL
MODEL 3
REMARK VINA RESULT:      -9.8      4.896     10.207
REMARK SMILES CC(C)N(c1cc2c(cc1Cl)C=C(C(=O)OCCOCCOCCOCCOC(=O)c1ccc(-c3c4nc(c(-c5c(F)c(F)c(F)c(F)c5F)c5ccc([nH]5)c(-c5c(F)c(F)c(F)c(F)c5F)c5nc(c(-c6c(F)c(F)c(F)c(F)c6F)c6ccc3[nH]6)C=C5)C=C4)cc1)[C@@H](C(F)(F)F)O2)C(C)C
REMARK SMILES IDX 22 1 21 2 20 3 19 4 18 5 17 6 16 7 14 8 15 9 13 10 5 11 6 12
REMARK SMILES IDX 10 13 7 14 9 15 11 16 8 17 99 18 12 19 94 20 4 21 2 22 1 23
REMARK SMILES IDX 3 24 100 25 101 26 102 27 95 28 96 29 97 30 98 31 23 32
REMARK SMILES IDX 24 33 25 34 26 35 27 36 28 37 29 38 30 39 31 40 32 41 93 42
REMARK SMILES IDX 33 43 92 44 34 45 35 46 36 47 86 48 37 49 91 50 85 51 87 52
REMARK SMILES IDX 38 53 90 54 84 55 83 56 39 58 71 59 51 60 70 61 52 62 55 63
REMARK SMILES IDX 69 64 88 65 53 66 54 67 68 69 89 70 56 71 40 72 41 73 49 74
REMARK SMILES IDX 42 75 43 76 47 77 50 78 44 79 45 80 48 81 46 82 72 83 73 84
REMARK SMILES IDX 81 85 74 86 75 87 79 88 82 89 76 90 77 91 80 92 78 93 57 94
REMARK SMILES IDX 58 95 66 96 59 97 60 98 64 99 67 100 61 101 62 102 65 103
REMARK SMILES IDX 63 104
REMARK H PARENT 87 57 55 68
REMARK Flexibility Score: inf
ROOT
ATOM      1  O   UNL A   1      36.368  33.554  28.812  1.00  0.00    -0.377 OA
ENDROOT
BRANCH   1   2
ATOM      2  C   UNL A   1      35.432  32.889  27.979  1.00  0.00     0.188 C 
BRANCH   2   3
ATOM      3  C   UNL A   1      35.583  31.357  28.011  1.00  0.00     0.188 C 
BRANCH   3   4
ATOM      4  O   UNL A   1      34.386  30.674  27.645  1.00  0.00    -0.376 OA
BRANCH   4   5
ATOM      5  C   UNL A   1      33.225  31.467  27.425  1.00  0.00     0.202 C 
BRANCH   5   6
ATOM      6  C   UNL A   1      32.083  30.831  26.617  1.00  0.00     0.261 C 
BRANCH   6   7
ATOM      7  O   UNL A   1      32.470  29.743  25.763  1.00  0.00    -0.460 OA
BRANCH   7   8
ATOM      8  C   UNL A   1      31.526  29.227  24.953  1.00  0.00     0.338 C 
ATOM      9  O   UNL A   1      30.592  29.826  24.450  1.00  0.00    -0.246 OA
BRANCH   8  10
ATOM     10  C   UNL A   1      31.905  27.834  24.635  1.00  0.00     0.087 C 
ATOM     11  C   UNL A   1      33.274  22.976  24.926  1.00  0.00     0.060 A 
ATOM     12  C   UNL A   1      33.196  23.941  23.893  1.00  0.00     0.074 A 
ATOM     13  C   UNL A   1      32.673  23.333  26.156  1.00  0.00     0.065 A 
ATOM     14  C   UNL A   1      32.674  25.224  24.100  1.00  0.00     0.130 A 
ATOM     15  C   UNL A   1      32.112  24.606  26.349  1.00  0.00     0.034 A 
ATOM     16  Cl  UNL A   1      32.679  22.334  27.571  1.00  0.00    -0.082 Cl
ATOM     17  C   UNL A   1      32.162  25.568  25.343  1.00  0.00     0.019 A 
ATOM     18  O   UNL A   1      32.741  26.089  23.044  1.00  0.00    -0.475 OA
ATOM     19  C   UNL A   1      31.766  26.937  25.619  1.00  0.00     0.027 C 
ATOM     20  C   UNL A   1      32.360  27.482  23.240  1.00  0.00     0.316 C 
BRANCH  11  21
ATOM     21  N   UNL A   1      33.992  21.784  24.684  1.00  0.00    -0.365 N 
BRANCH  21  22
ATOM     22  C   UNL A   1      35.446  21.751  24.966  1.00  0.00     0.076 C 
ATOM     23  C   UNL A   1      36.286  22.336  23.830  1.00  0.00     0.030 C 
ATOM     24  C   UNL A   1      35.832  22.404  26.293  1.00  0.00     0.030 C 
ENDBRANCH  21  22
BRANCH  21  25
ATOM     25  C   UNL A   1      33.205  20.670  24.093  1.00  0.00     0.076 C 
ATOM     26  C   UNL A   1      32.605  19.736  25.140  1.00  0.00     0.030 C 
ATOM     27  C   UNL A   1      32.157  21.134  23.088  1.00  0.00     0.030 C 
ENDBRANCH  21  25
ENDBRANCH  11  21
BRANCH  20  28
ATOM     28  C   UNL A   1      33.521  28.372  22.767  1.00  0.00     0.430 C 
ATOM     29  F   UNL A   1      34.126  27.853  21.672  1.00  0.00    -0.167 F 
ATOM     30  F   UNL A   1      33.102  29.612  22.424  1.00  0.00    -0.167 F 
ATOM     31  F   UNL A   1      34.465  28.518  23.724  1.00  0.00    -0.167 F 
ENDBRANCH  20  28
ENDBRANCH   8  10
ENDBRANCH   7   8
ENDBRANCH   6   7
ENDBRANCH   5   6
ENDBRANCH   4   5
ENDBRANCH   3   4
ENDBRANCH   2   3
ENDBRANCH   1   2
BRANCH   1  32
ATOM     32  C   UNL A   1      36.001  33.776  30.174  1.00  0.00     0.188 C 
BRANCH  32  33
ATOM     33  C   UNL A   1      34.548  33.596  30.673  1.00  0.00     0.188 C 
BRANCH  33  34
ATOM     34  O   UNL A   1      34.316  34.113  31.980  1.00  0.00    -0.376 OA
BRANCH  34  35
ATOM     35  C   UNL A   1      34.816  33.352  33.071  1.00  0.00     0.202 C 
BRANCH  35  36
ATOM     36  C   UNL A   1      35.940  34.050  33.845  1.00  0.00     0.261 C 
BRANCH  36  37
ATOM     37  O   UNL A   1      37.258  33.538  33.594  1.00  0.00    -0.460 OA
BRANCH  37  38
ATOM     38  C   UNL A   1      37.674  32.484  34.330  1.00  0.00     0.338 C 
ATOM     39  O   UNL A   1      37.220  32.095  35.391  1.00  0.00    -0.246 OA
BRANCH  38  40
ATOM     40  C   UNL A   1      38.665  31.748  33.518  1.00  0.00     0.060 A 
ATOM     41  C   UNL A   1      38.895  32.111  32.189  1.00  0.00     0.016 A 
ATOM     42  C   UNL A   1      39.338  30.658  34.085  1.00  0.00     0.016 A 
ATOM     43  C   UNL A   1      39.826  31.399  31.433  1.00  0.00     0.010 A 
ATOM     44  C   UNL A   1      40.267  29.942  33.325  1.00  0.00     0.010 A 
ATOM     45  C   UNL A   1      40.533  30.325  32.002  1.00  0.00    -0.014 A 
BRANCH  45  46
ATOM     46  C   UNL A   1      41.676  29.741  31.263  1.00  0.00     0.031 A 
ATOM     47  C   UNL A   1      41.545  28.502  30.437  1.00  0.00     0.074 A 
ATOM     48  C   UNL A   1      42.857  30.381  31.341  1.00  0.00     0.049 A 
ATOM     49  N   UNL A   1      42.425  27.954  29.637  1.00  0.00    -0.248 NA
ATOM     50  C   UNL A   1      40.269  27.779  30.521  1.00  0.00     0.031 C 
ATOM     51  C   UNL A   1      43.103  31.582  32.140  1.00  0.00     0.029 A 
ATOM     52  N   UNL A   1      44.060  30.129  30.733  1.00  0.00    -0.354 N 
ATOM     53  C   UNL A   1      41.804  26.839  29.095  1.00  0.00     0.074 A 
ATOM     54  C   UNL A   1      40.490  26.756  29.704  1.00  0.00     0.031 C 
ATOM     55  C   UNL A   1      44.366  31.986  31.944  1.00  0.00     0.029 A 
ATOM     56  C   UNL A   1      45.023  31.063  31.023  1.00  0.00     0.049 A 
ATOM     57  H   UNL A   1      44.217  29.354  30.146  1.00  0.00     0.167 HD
ATOM     58  C   UNL A   1      42.284  25.983  28.160  1.00  0.00     0.037 A 
ATOM     59  C   UNL A   1      46.289  31.175  30.583  1.00  0.00     0.037 A 
ATOM     60  C   UNL A   1      43.604  26.059  27.584  1.00  0.00     0.049 A 
ATOM     61  C   UNL A   1      46.815  30.178  29.593  1.00  0.00     0.074 A 
ATOM     62  C   UNL A   1      44.165  25.259  26.602  1.00  0.00     0.029 A 
ATOM     63  N   UNL A   1      44.578  26.980  27.949  1.00  0.00    -0.354 N 
ATOM     64  N   UNL A   1      46.193  29.176  29.022  1.00  0.00    -0.248 NA
ATOM     65  C   UNL A   1      48.217  30.329  29.183  1.00  0.00     0.031 C 
ATOM     66  C   UNL A   1      45.493  25.659  26.414  1.00  0.00     0.029 A 
ATOM     67  C   UNL A   1      45.746  26.743  27.240  1.00  0.00     0.049 A 
ATOM     68  H   UNL A   1      44.455  27.695  28.614  1.00  0.00     0.167 HD
ATOM     69  C   UNL A   1      47.119  28.584  28.176  1.00  0.00     0.074 A 
ATOM     70  C   UNL A   1      48.341  29.353  28.294  1.00  0.00     0.031 C 
ATOM     71  C   UNL A   1      46.965  27.502  27.375  1.00  0.00     0.037 A 
BRANCH  58  72
ATOM     72  C   UNL A   1      41.371  24.886  27.688  1.00  0.00     0.064 A 
ATOM     73  C   UNL A   1      41.519  23.569  28.148  1.00  0.00     0.173 A 
ATOM     74  C   UNL A   1      40.298  25.163  26.827  1.00  0.00     0.173 A 
ATOM     75  F   UNL A   1      42.529  23.251  28.972  1.00  0.00    -0.203 F 
ATOM     76  C   UNL A   1      40.642  22.565  27.745  1.00  0.00     0.198 A 
ATOM     77  C   UNL A   1      39.407  24.162  26.447  1.00  0.00     0.198 A 
ATOM     78  F   UNL A   1      40.102  26.408  26.369  1.00  0.00    -0.203 F 
ATOM     79  F   UNL A   1      40.826  21.307  28.168  1.00  0.00    -0.200 F 
ATOM     80  C   UNL A   1      39.583  22.863  26.900  1.00  0.00     0.200 A 
ATOM     81  F   UNL A   1      38.374  24.456  25.645  1.00  0.00    -0.200 F 
ATOM     82  F   UNL A   1      38.733  21.898  26.522  1.00  0.00    -0.200 F 
ENDBRANCH  58  72
BRANCH  59  83
ATOM     83  C   UNL A   1      47.110  32.322  31.041  1.00  0.00     0.064 A 
ATOM     84  C   UNL A   1      47.887  32.224  32.203  1.00  0.00     0.173 A 
ATOM     85  C   UNL A   1      47.190  33.506  30.295  1.00  0.00     0.173 A 
ATOM     86  F   UNL A   1      47.832  31.114  32.954  1.00  0.00    -0.203 F 
ATOM     87  C   UNL A   1      48.717  33.269  32.600  1.00  0.00     0.198 A 
ATOM     88  C   UNL A   1      48.038  34.541  30.681  1.00  0.00     0.198 A 
ATOM     89  F   UNL A   1      46.472  33.642  29.170  1.00  0.00    -0.203 F 
ATOM     90  F   UNL A   1      49.438  33.158  33.724  1.00  0.00    -0.200 F 
ATOM     91  C   UNL A   1      48.799  34.422  31.834  1.00  0.00     0.200 A 
ATOM     92  F   UNL A   1      48.130  35.646  29.928  1.00  0.00    -0.200 F 
ATOM     93  F   UNL A   1      49.615  35.418  32.205  1.00  0.00    -0.200 F 
ENDBRANCH  59  83
BRANCH  71  94
ATOM     94  C   UNL A   1      48.151  27.070  26.562  1.00  0.00     0.064 A 
ATOM     95  C   UNL A   1      48.349  27.539  25.255  1.00  0.00     0.173 A 
ATOM     96  C   UNL A   1      49.133  26.233  27.114  1.00  0.00     0.173 A 
ATOM     97  F   UNL A   1      47.431  28.329  24.675  1.00  0.00    -0.203 F 
ATOM     98  C   UNL A   1      49.479  27.176  24.527  1.00  0.00     0.198 A 
ATOM     99  C   UNL A   1      50.275  25.895  26.393  1.00  0.00     0.198 A 
ATOM    100  F   UNL A   1      48.993  25.760  28.362  1.00  0.00    -0.203 F 
ATOM    101  F   UNL A   1      49.629  27.609  23.267  1.00  0.00    -0.200 F 
ATOM    102  C   UNL A   1      50.445  26.363  25.099  1.00  0.00     0.200 A 
ATOM    103  F   UNL A   1      51.214  25.119  26.953  1.00  0.00    -0.200 F 
ATOM    104  F   UNL A   1      51.540  26.028  24.403  1.00  0.00    -0.200 F 
ENDBRANCH  71  94
ENDBRANCH  45  46
ENDBRANCH  38  40
ENDBRANCH  37  38
ENDBRANCH  36  37
ENDBRANCH  35  36
ENDBRANCH  34  35
ENDBRANCH  33  34
ENDBRANCH  32  33
ENDBRANCH   1  32
TORSDOF 24
ENDMDL
