MODEL 1
REMARK VINA RESULT:     -10.5      0.000      0.000
REMARK SMILES Cc1ccc(C)c(N2C(=O)C[C@@H](SCC(=O)OCCOCCOCCOCCOC(=O)c3ccc(-c4c5nc(c(-c6c(F)c(F)c(F)c(F)c6F)c6ccc([nH]6)c(-c6c(F)c(F)c(F)c(F)c6F)c6nc(c(-c7c(F)c(F)c(F)c(F)c7F)c7ccc4[nH]7)C=C6)C=C5)cc3)C2=O)c1
REMARK SMILES IDX 22 1 21 2 20 3 19 4 18 5 17 6 15 7 16 8 14 9 13 10 12 11
REMARK SMILES IDX 8 12 9 13 95 14 10 15 11 16 96 17 7 18 1 19 2 20 3 21 97 22
REMARK SMILES IDX 4 23 5 24 6 25 23 26 24 27 25 28 26 29 27 30 28 31 29 32
REMARK SMILES IDX 30 33 31 34 32 35 33 36 94 37 34 38 93 39 35 40 36 41 37 42
REMARK SMILES IDX 87 43 38 44 92 45 86 46 88 47 39 48 91 49 85 50 84 51 40 53
REMARK SMILES IDX 72 54 52 55 71 56 53 57 56 58 70 59 89 60 54 61 55 62 69 64
REMARK SMILES IDX 90 65 57 66 41 67 42 68 50 69 43 70 44 71 48 72 51 73 45 74
REMARK SMILES IDX 46 75 49 76 47 77 73 78 74 79 82 80 75 81 76 82 80 83 83 84
REMARK SMILES IDX 77 85 78 86 81 87 79 88 58 89 59 90 67 91 60 92 61 93 65 94
REMARK SMILES IDX 68 95 62 96 63 97 66 98 64 99
REMARK H PARENT 88 52 56 63
REMARK Flexibility Score: inf
ROOT
ATOM      1  C   UNL A   1      39.104  21.796  26.149  1.00  0.00     0.188 C 
ENDROOT
BRANCH   1   2
ATOM      2  C   UNL A   1      38.133  22.934  26.018  1.00  0.00     0.188 C 
BRANCH   2   3
ATOM      3  O   UNL A   1      37.488  22.949  24.775  1.00  0.00    -0.376 OA
BRANCH   3   4
ATOM      4  C   UNL A   1      36.335  23.738  24.608  1.00  0.00     0.202 C 
BRANCH   4   5
ATOM      5  C   UNL A   1      35.287  23.417  23.528  1.00  0.00     0.261 C 
BRANCH   5   6
ATOM      6  O   UNL A   1      34.623  24.543  22.886  1.00  0.00    -0.463 OA
BRANCH   6   7
ATOM      7  C   UNL A   1      33.814  25.289  23.706  1.00  0.00     0.315 C 
ATOM      8  O   UNL A   1      34.249  26.212  24.380  1.00  0.00    -0.251 OA
BRANCH   7   9
ATOM      9  C   UNL A   1      32.377  24.842  23.796  1.00  0.00     0.192 C 
BRANCH   9  10
ATOM     10  S   UNL A   1      31.356  24.884  25.362  1.00  0.00    -0.136 SA
BRANCH  10  11
ATOM     11  C   UNL A   1      31.830  23.515  26.478  1.00  0.00     0.146 C 
ATOM     12  N   UNL A   1      32.644  21.423  25.760  1.00  0.00    -0.249 N 
ATOM     13  C   UNL A   1      33.699  21.973  26.414  1.00  0.00     0.235 C 
ATOM     14  C   UNL A   1      31.487  22.150  25.949  1.00  0.00     0.247 C 
ATOM     15  O   UNL A   1      34.794  21.493  26.675  1.00  0.00    -0.274 OA
ATOM     16  C   UNL A   1      33.295  23.350  26.826  1.00  0.00     0.125 C 
ATOM     17  O   UNL A   1      30.338  21.735  25.855  1.00  0.00    -0.273 OA
BRANCH  12  18
ATOM     18  C   UNL A   1      32.648  20.206  25.053  1.00  0.00     0.055 A 
ATOM     19  C   UNL A   1      32.811  16.423  25.614  1.00  0.00     0.044 C 
ATOM     20  C   UNL A   1      32.690  17.774  24.970  1.00  0.00    -0.049 A 
ATOM     21  C   UNL A   1      32.379  17.835  23.607  1.00  0.00     0.004 A 
ATOM     22  C   UNL A   1      32.852  18.969  25.691  1.00  0.00     0.030 A 
ATOM     23  C   UNL A   1      32.258  19.059  22.958  1.00  0.00     0.006 A 
ATOM     24  C   UNL A   1      32.423  20.252  23.661  1.00  0.00    -0.027 A 
ATOM     25  C   UNL A   1      32.371  21.548  22.892  1.00  0.00     0.046 C 
ENDBRANCH  12  18
ENDBRANCH  10  11
ENDBRANCH   9  10
ENDBRANCH   7   9
ENDBRANCH   6   7
ENDBRANCH   5   6
ENDBRANCH   4   5
ENDBRANCH   3   4
ENDBRANCH   2   3
ENDBRANCH   1   2
BRANCH   1  26
ATOM     26  O   UNL A   1      40.016  21.762  27.234  1.00  0.00    -0.377 OA
BRANCH  26  27
ATOM     27  C   UNL A   1      40.954  20.692  27.210  1.00  0.00     0.188 C 
BRANCH  27  28
ATOM     28  C   UNL A   1      41.141  20.065  25.829  1.00  0.00     0.188 C 
BRANCH  28  29
ATOM     29  O   UNL A   1      41.525  18.698  25.949  1.00  0.00    -0.376 OA
BRANCH  29  30
ATOM     30  C   UNL A   1      42.871  18.493  26.352  1.00  0.00     0.202 C 
BRANCH  30  31
ATOM     31  C   UNL A   1      43.808  18.814  25.193  1.00  0.00     0.261 C 
BRANCH  31  32
ATOM     32  O   UNL A   1      44.665  19.966  25.405  1.00  0.00    -0.460 OA
BRANCH  32  33
ATOM     33  C   UNL A   1      44.490  21.055  24.601  1.00  0.00     0.338 C 
ATOM     34  O   UNL A   1      44.649  21.069  23.406  1.00  0.00    -0.246 OA
BRANCH  33  35
ATOM     35  C   UNL A   1      44.100  22.239  25.442  1.00  0.00     0.060 A 
ATOM     36  C   UNL A   1      43.284  23.220  24.894  1.00  0.00     0.016 A 
ATOM     37  C   UNL A   1      44.712  22.482  26.683  1.00  0.00     0.016 A 
ATOM     38  C   UNL A   1      43.262  24.485  25.499  1.00  0.00     0.010 A 
ATOM     39  C   UNL A   1      44.735  23.762  27.254  1.00  0.00     0.010 A 
ATOM     40  C   UNL A   1      44.064  24.809  26.632  1.00  0.00    -0.014 A 
BRANCH  40  41
ATOM     41  C   UNL A   1      43.783  26.095  27.348  1.00  0.00     0.031 A 
ATOM     42  C   UNL A   1      44.987  26.909  27.190  1.00  0.00     0.074 A 
ATOM     43  C   UNL A   1      42.705  26.616  28.005  1.00  0.00     0.049 A 
ATOM     44  N   UNL A   1      45.840  27.145  28.129  1.00  0.00    -0.248 NA
ATOM     45  C   UNL A   1      45.461  27.223  25.827  1.00  0.00     0.031 C 
ATOM     46  C   UNL A   1      41.477  25.899  28.222  1.00  0.00     0.029 A 
ATOM     47  N   UNL A   1      42.422  27.831  28.651  1.00  0.00    -0.354 N 
ATOM     48  C   UNL A   1      46.737  28.003  27.528  1.00  0.00     0.074 A 
ATOM     49  C   UNL A   1      46.631  27.799  26.102  1.00  0.00     0.031 C 
ATOM     50  C   UNL A   1      40.522  26.671  28.765  1.00  0.00     0.029 A 
ATOM     51  C   UNL A   1      41.052  27.989  28.999  1.00  0.00     0.049 A 
ATOM     52  H   UNL A   1      43.108  28.510  28.846  1.00  0.00     0.167 HD
ATOM     53  C   UNL A   1      46.944  29.170  28.185  1.00  0.00     0.037 A 
ATOM     54  C   UNL A   1      40.339  29.019  29.548  1.00  0.00     0.037 A 
ATOM     55  C   UNL A   1      46.765  29.032  29.606  1.00  0.00     0.049 A 
ATOM     56  C   UNL A   1      41.298  29.864  30.290  1.00  0.00     0.074 A 
ATOM     57  C   UNL A   1      47.360  28.293  30.609  1.00  0.00     0.029 A 
ATOM     58  N   UNL A   1      45.530  29.394  30.063  1.00  0.00    -0.354 N 
ATOM     59  N   UNL A   1      41.754  29.554  31.472  1.00  0.00    -0.248 NA
ATOM     60  C   UNL A   1      42.036  30.898  29.576  1.00  0.00     0.031 C 
ATOM     61  C   UNL A   1      46.442  28.256  31.695  1.00  0.00     0.029 A 
ATOM     62  C   UNL A   1      45.324  29.010  31.359  1.00  0.00     0.049 A 
ATOM     63  H   UNL A   1      44.865  29.876  29.521  1.00  0.00     0.167 HD
ATOM     64  C   UNL A   1      43.064  29.977  31.427  1.00  0.00     0.074 A 
ATOM     65  C   UNL A   1      43.138  30.929  30.326  1.00  0.00     0.031 C 
ATOM     66  C   UNL A   1      44.044  29.218  31.989  1.00  0.00     0.037 A 
BRANCH  53  67
ATOM     67  C   UNL A   1      46.638  30.451  27.465  1.00  0.00     0.064 A 
ATOM     68  C   UNL A   1      47.599  31.457  27.392  1.00  0.00     0.173 A 
ATOM     69  C   UNL A   1      45.331  30.801  27.045  1.00  0.00     0.173 A 
ATOM     70  F   UNL A   1      48.821  31.258  27.904  1.00  0.00    -0.203 F 
ATOM     71  C   UNL A   1      47.285  32.709  26.857  1.00  0.00     0.198 A 
ATOM     72  C   UNL A   1      45.044  32.008  26.427  1.00  0.00     0.198 A 
ATOM     73  F   UNL A   1      44.271  30.037  27.335  1.00  0.00    -0.203 F 
ATOM     74  F   UNL A   1      48.201  33.685  26.882  1.00  0.00    -0.200 F 
ATOM     75  C   UNL A   1      46.023  32.970  26.343  1.00  0.00     0.200 A 
ATOM     76  F   UNL A   1      43.799  32.250  25.991  1.00  0.00    -0.200 F 
ATOM     77  F   UNL A   1      45.730  34.170  25.827  1.00  0.00    -0.200 F 
ENDBRANCH  53  67
BRANCH  54  78
ATOM     78  C   UNL A   1      38.860  29.342  29.527  1.00  0.00     0.064 A 
ATOM     79  C   UNL A   1      38.116  29.449  30.728  1.00  0.00     0.173 A 
ATOM     80  C   UNL A   1      38.176  29.792  28.377  1.00  0.00     0.173 A 
ATOM     81  F   UNL A   1      38.638  29.043  31.895  1.00  0.00    -0.203 F 
ATOM     82  C   UNL A   1      36.842  30.042  30.778  1.00  0.00     0.198 A 
ATOM     83  C   UNL A   1      36.901  30.369  28.426  1.00  0.00     0.198 A 
ATOM     84  F   UNL A   1      38.737  29.751  27.164  1.00  0.00    -0.203 F 
ATOM     85  F   UNL A   1      36.218  30.194  31.956  1.00  0.00    -0.200 F 
ATOM     86  C   UNL A   1      36.248  30.526  29.629  1.00  0.00     0.200 A 
ATOM     87  F   UNL A   1      36.337  30.821  27.297  1.00  0.00    -0.200 F 
ATOM     88  F   UNL A   1      35.072  31.169  29.682  1.00  0.00    -0.200 F 
ENDBRANCH  54  78
BRANCH  66  89
ATOM     89  C   UNL A   1      43.751  28.526  33.279  1.00  0.00     0.064 A 
ATOM     90  C   UNL A   1      43.443  27.168  33.429  1.00  0.00     0.173 A 
ATOM     91  C   UNL A   1      43.858  29.305  34.445  1.00  0.00     0.173 A 
ATOM     92  F   UNL A   1      43.399  26.344  32.372  1.00  0.00    -0.203 F 
ATOM     93  C   UNL A   1      43.223  26.627  34.697  1.00  0.00     0.198 A 
ATOM     94  C   UNL A   1      43.677  28.755  35.706  1.00  0.00     0.198 A 
ATOM     95  F   UNL A   1      44.178  30.607  34.358  1.00  0.00    -0.203 F 
ATOM     96  F   UNL A   1      42.920  25.327  34.826  1.00  0.00    -0.200 F 
ATOM     97  C   UNL A   1      43.347  27.417  35.832  1.00  0.00     0.200 A 
ATOM     98  F   UNL A   1      43.844  29.517  36.796  1.00  0.00    -0.200 F 
ATOM     99  F   UNL A   1      43.171  26.885  37.049  1.00  0.00    -0.200 F 
ENDBRANCH  66  89
ENDBRANCH  40  41
ENDBRANCH  33  35
ENDBRANCH  32  33
ENDBRANCH  31  32
ENDBRANCH  30  31
ENDBRANCH  29  30
ENDBRANCH  28  29
ENDBRANCH  27  28
ENDBRANCH  26  27
ENDBRANCH   1  26
TORSDOF 23
ENDMDL
MODEL 2
REMARK VINA RESULT:     -10.5      1.774      3.488
REMARK SMILES Cc1ccc(C)c(N2C(=O)C[C@@H](SCC(=O)OCCOCCOCCOCCOC(=O)c3ccc(-c4c5nc(c(-c6c(F)c(F)c(F)c(F)c6F)c6ccc([nH]6)c(-c6c(F)c(F)c(F)c(F)c6F)c6nc(c(-c7c(F)c(F)c(F)c(F)c7F)c7ccc4[nH]7)C=C6)C=C5)cc3)C2=O)c1
REMARK SMILES IDX 22 1 21 2 20 3 19 4 18 5 17 6 15 7 16 8 14 9 13 10 12 11
REMARK SMILES IDX 8 12 9 13 95 14 10 15 11 16 96 17 7 18 1 19 2 20 3 21 97 22
REMARK SMILES IDX 4 23 5 24 6 25 23 26 24 27 25 28 26 29 27 30 28 31 29 32
REMARK SMILES IDX 30 33 31 34 32 35 33 36 94 37 34 38 93 39 35 40 36 41 37 42
REMARK SMILES IDX 87 43 38 44 92 45 86 46 88 47 39 48 91 49 85 50 84 51 40 53
REMARK SMILES IDX 72 54 52 55 71 56 53 57 56 58 70 59 89 60 54 61 55 62 69 64
REMARK SMILES IDX 90 65 57 66 41 67 42 68 50 69 43 70 44 71 48 72 51 73 45 74
REMARK SMILES IDX 46 75 49 76 47 77 73 78 74 79 82 80 75 81 76 82 80 83 83 84
REMARK SMILES IDX 77 85 78 86 81 87 79 88 58 89 59 90 67 91 60 92 61 93 65 94
REMARK SMILES IDX 68 95 62 96 63 97 66 98 64 99
REMARK H PARENT 88 52 56 63
REMARK Flexibility Score: inf
ROOT
ATOM      1  C   UNL A   1      39.866  21.293  26.164  1.00  0.00     0.188 C 
ENDROOT
BRANCH   1   2
ATOM      2  C   UNL A   1      38.760  22.307  26.135  1.00  0.00     0.188 C 
BRANCH   2   3
ATOM      3  O   UNL A   1      37.795  22.022  25.160  1.00  0.00    -0.376 OA
BRANCH   3   4
ATOM      4  C   UNL A   1      36.435  22.008  25.522  1.00  0.00     0.202 C 
BRANCH   4   5
ATOM      5  C   UNL A   1      35.739  23.257  26.090  1.00  0.00     0.261 C 
BRANCH   5   6
ATOM      6  O   UNL A   1      34.374  23.099  26.573  1.00  0.00    -0.463 OA
BRANCH   6   7
ATOM      7  C   UNL A   1      33.514  22.479  25.701  1.00  0.00     0.315 C 
ATOM      8  O   UNL A   1      33.362  21.266  25.693  1.00  0.00    -0.251 OA
BRANCH   7   9
ATOM      9  C   UNL A   1      32.841  23.375  24.692  1.00  0.00     0.192 C 
BRANCH   9  10
ATOM     10  S   UNL A   1      33.557  23.805  23.020  1.00  0.00    -0.136 SA
BRANCH  10  11
ATOM     11  C   UNL A   1      33.585  25.618  22.777  1.00  0.00     0.146 C 
ATOM     12  N   UNL A   1      31.798  27.064  23.292  1.00  0.00    -0.249 N 
ATOM     13  C   UNL A   1      32.770  27.430  24.166  1.00  0.00     0.235 C 
ATOM     14  C   UNL A   1      32.270  26.193  22.333  1.00  0.00     0.247 C 
ATOM     15  O   UNL A   1      32.792  28.348  24.974  1.00  0.00    -0.274 OA
ATOM     16  C   UNL A   1      33.917  26.494  23.967  1.00  0.00     0.125 C 
ATOM     17  O   UNL A   1      31.796  26.007  21.218  1.00  0.00    -0.273 OA
BRANCH  12  18
ATOM     18  C   UNL A   1      30.482  27.565  23.258  1.00  0.00     0.055 A 
ATOM     19  C   UNL A   1      28.376  30.331  21.655  1.00  0.00     0.044 C 
ATOM     20  C   UNL A   1      28.801  29.123  22.441  1.00  0.00    -0.049 A 
ATOM     21  C   UNL A   1      27.809  28.332  23.031  1.00  0.00     0.004 A 
ATOM     22  C   UNL A   1      30.149  28.751  22.578  1.00  0.00     0.030 A 
ATOM     23  C   UNL A   1      28.145  27.204  23.773  1.00  0.00     0.006 A 
ATOM     24  C   UNL A   1      29.480  26.827  23.922  1.00  0.00    -0.027 A 
ATOM     25  C   UNL A   1      29.795  25.650  24.811  1.00  0.00     0.046 C 
ENDBRANCH  12  18
ENDBRANCH  10  11
ENDBRANCH   9  10
ENDBRANCH   7   9
ENDBRANCH   6   7
ENDBRANCH   5   6
ENDBRANCH   4   5
ENDBRANCH   3   4
ENDBRANCH   2   3
ENDBRANCH   1   2
BRANCH   1  26
ATOM     26  O   UNL A   1      40.419  20.879  27.402  1.00  0.00    -0.377 OA
BRANCH  26  27
ATOM     27  C   UNL A   1      41.449  19.903  27.315  1.00  0.00     0.188 C 
BRANCH  27  28
ATOM     28  C   UNL A   1      41.797  19.496  25.884  1.00  0.00     0.188 C 
BRANCH  28  29
ATOM     29  O   UNL A   1      42.458  18.234  25.869  1.00  0.00    -0.376 OA
BRANCH  29  30
ATOM     30  C   UNL A   1      43.823  18.274  26.259  1.00  0.00     0.202 C 
BRANCH  30  31
ATOM     31  C   UNL A   1      44.682  18.706  25.075  1.00  0.00     0.261 C 
BRANCH  31  32
ATOM     32  O   UNL A   1      45.252  20.035  25.191  1.00  0.00    -0.460 OA
BRANCH  32  33
ATOM     33  C   UNL A   1      44.732  21.029  24.413  1.00  0.00     0.338 C 
ATOM     34  O   UNL A   1      44.624  20.986  23.214  1.00  0.00    -0.246 OA
BRANCH  33  35
ATOM     35  C   UNL A   1      44.346  22.194  25.282  1.00  0.00     0.060 A 
ATOM     36  C   UNL A   1      43.433  23.124  24.803  1.00  0.00     0.016 A 
ATOM     37  C   UNL A   1      45.044  22.478  26.469  1.00  0.00     0.016 A 
ATOM     38  C   UNL A   1      43.389  24.390  25.406  1.00  0.00     0.010 A 
ATOM     39  C   UNL A   1      45.041  23.762  27.034  1.00  0.00     0.010 A 
ATOM     40  C   UNL A   1      44.263  24.765  26.468  1.00  0.00    -0.014 A 
BRANCH  40  41
ATOM     41  C   UNL A   1      43.969  26.037  27.203  1.00  0.00     0.031 A 
ATOM     42  C   UNL A   1      45.162  26.869  27.051  1.00  0.00     0.074 A 
ATOM     43  C   UNL A   1      42.888  26.536  27.872  1.00  0.00     0.049 A 
ATOM     44  N   UNL A   1      46.017  27.102  27.989  1.00  0.00    -0.248 NA
ATOM     45  C   UNL A   1      45.626  27.207  25.690  1.00  0.00     0.031 C 
ATOM     46  C   UNL A   1      41.671  25.800  28.085  1.00  0.00     0.029 A 
ATOM     47  N   UNL A   1      42.594  27.738  28.537  1.00  0.00    -0.354 N 
ATOM     48  C   UNL A   1      46.900  27.980  27.396  1.00  0.00     0.074 A 
ATOM     49  C   UNL A   1      46.790  27.794  25.968  1.00  0.00     0.031 C 
ATOM     50  C   UNL A   1      40.708  26.552  28.643  1.00  0.00     0.029 A 
ATOM     51  C   UNL A   1      41.223  27.874  28.894  1.00  0.00     0.049 A 
ATOM     52  H   UNL A   1      43.272  28.423  28.738  1.00  0.00     0.167 HD
ATOM     53  C   UNL A   1      47.096  29.140  28.068  1.00  0.00     0.037 A 
ATOM     54  C   UNL A   1      40.500  28.887  29.461  1.00  0.00     0.037 A 
ATOM     55  C   UNL A   1      46.926  28.979  29.487  1.00  0.00     0.049 A 
ATOM     56  C   UNL A   1      41.452  29.733  30.209  1.00  0.00     0.074 A 
ATOM     57  C   UNL A   1      47.534  28.234  30.477  1.00  0.00     0.029 A 
ATOM     58  N   UNL A   1      45.689  29.319  29.956  1.00  0.00    -0.354 N 
ATOM     59  N   UNL A   1      41.917  29.412  31.385  1.00  0.00    -0.248 NA
ATOM     60  C   UNL A   1      42.174  30.787  29.507  1.00  0.00     0.031 C 
ATOM     61  C   UNL A   1      46.623  28.170  31.568  1.00  0.00     0.029 A 
ATOM     62  C   UNL A   1      45.494  28.915  31.247  1.00  0.00     0.049 A 
ATOM     63  H   UNL A   1      45.015  29.801  29.424  1.00  0.00     0.167 HD
ATOM     64  C   UNL A   1      43.222  29.853  31.340  1.00  0.00     0.074 A 
ATOM     65  C   UNL A   1      43.279  30.821  30.252  1.00  0.00     0.031 C 
ATOM     66  C   UNL A   1      44.214  29.099  31.887  1.00  0.00     0.037 A 
BRANCH  53  67
ATOM     67  C   UNL A   1      46.770  30.427  27.368  1.00  0.00     0.064 A 
ATOM     68  C   UNL A   1      47.723  31.440  27.291  1.00  0.00     0.173 A 
ATOM     69  C   UNL A   1      45.455  30.772  26.971  1.00  0.00     0.173 A 
ATOM     70  F   UNL A   1      48.954  31.243  27.782  1.00  0.00    -0.203 F 
ATOM     71  C   UNL A   1      47.393  32.696  26.775  1.00  0.00     0.198 A 
ATOM     72  C   UNL A   1      45.150  31.984  26.372  1.00  0.00     0.198 A 
ATOM     73  F   UNL A   1      44.404  29.998  27.269  1.00  0.00    -0.203 F 
ATOM     74  F   UNL A   1      48.303  33.677  26.797  1.00  0.00    -0.200 F 
ATOM     75  C   UNL A   1      46.121  32.954  26.283  1.00  0.00     0.200 A 
ATOM     76  F   UNL A   1      43.897  32.223  25.958  1.00  0.00    -0.200 F 
ATOM     77  F   UNL A   1      45.813  34.158  25.786  1.00  0.00    -0.200 F 
ENDBRANCH  53  67
BRANCH  54  78
ATOM     78  C   UNL A   1      39.017  29.192  29.451  1.00  0.00     0.064 A 
ATOM     79  C   UNL A   1      38.278  29.274  30.657  1.00  0.00     0.173 A 
ATOM     80  C   UNL A   1      38.322  29.648  28.311  1.00  0.00     0.173 A 
ATOM     81  F   UNL A   1      38.811  28.859  31.816  1.00  0.00    -0.203 F 
ATOM     82  C   UNL A   1      36.997  29.850  30.721  1.00  0.00     0.198 A 
ATOM     83  C   UNL A   1      37.039  30.208  28.374  1.00  0.00     0.198 A 
ATOM     84  F   UNL A   1      38.877  29.630  27.095  1.00  0.00    -0.203 F 
ATOM     85  F   UNL A   1      36.377  29.978  31.904  1.00  0.00    -0.200 F 
ATOM     86  C   UNL A   1      36.391  30.342  29.582  1.00  0.00     0.200 A 
ATOM     87  F   UNL A   1      36.464  30.668  27.253  1.00  0.00    -0.200 F 
ATOM     88  F   UNL A   1      35.207  30.968  29.649  1.00  0.00    -0.200 F 
ENDBRANCH  54  78
BRANCH  66  89
ATOM     89  C   UNL A   1      43.937  28.385  33.168  1.00  0.00     0.064 A 
ATOM     90  C   UNL A   1      43.599  27.032  33.296  1.00  0.00     0.173 A 
ATOM     91  C   UNL A   1      44.092  29.135  34.347  1.00  0.00     0.173 A 
ATOM     92  F   UNL A   1      43.508  26.233  32.223  1.00  0.00    -0.203 F 
ATOM     93  C   UNL A   1      43.397  26.468  34.557  1.00  0.00     0.198 A 
ATOM     94  C   UNL A   1      43.928  28.561  35.600  1.00  0.00     0.198 A 
ATOM     95  F   UNL A   1      44.442  30.431  34.281  1.00  0.00    -0.203 F 
ATOM     96  F   UNL A   1      43.065  25.173  34.665  1.00  0.00    -0.200 F 
ATOM     97  C   UNL A   1      43.568  27.229  35.706  1.00  0.00     0.200 A 
ATOM     98  F   UNL A   1      44.141  29.294  36.703  1.00  0.00    -0.200 F 
ATOM     99  F   UNL A   1      43.409  26.674  36.915  1.00  0.00    -0.200 F 
ENDBRANCH  66  89
ENDBRANCH  40  41
ENDBRANCH  33  35
ENDBRANCH  32  33
ENDBRANCH  31  32
ENDBRANCH  30  31
ENDBRANCH  29  30
ENDBRANCH  28  29
ENDBRANCH  27  28
ENDBRANCH  26  27
ENDBRANCH   1  26
TORSDOF 23
ENDMDL
MODEL 3
REMARK VINA RESULT:     -10.1      2.459      6.534
REMARK SMILES Cc1ccc(C)c(N2C(=O)C[C@@H](SCC(=O)OCCOCCOCCOCCOC(=O)c3ccc(-c4c5nc(c(-c6c(F)c(F)c(F)c(F)c6F)c6ccc([nH]6)c(-c6c(F)c(F)c(F)c(F)c6F)c6nc(c(-c7c(F)c(F)c(F)c(F)c7F)c7ccc4[nH]7)C=C6)C=C5)cc3)C2=O)c1
REMARK SMILES IDX 22 1 21 2 20 3 19 4 18 5 17 6 15 7 16 8 14 9 13 10 12 11
REMARK SMILES IDX 8 12 9 13 95 14 10 15 11 16 96 17 7 18 1 19 2 20 3 21 97 22
REMARK SMILES IDX 4 23 5 24 6 25 23 26 24 27 25 28 26 29 27 30 28 31 29 32
REMARK SMILES IDX 30 33 31 34 32 35 33 36 94 37 34 38 93 39 35 40 36 41 37 42
REMARK SMILES IDX 87 43 38 44 92 45 86 46 88 47 39 48 91 49 85 50 84 51 40 53
REMARK SMILES IDX 72 54 52 55 71 56 53 57 56 58 70 59 89 60 54 61 55 62 69 64
REMARK SMILES IDX 90 65 57 66 41 67 42 68 50 69 43 70 44 71 48 72 51 73 45 74
REMARK SMILES IDX 46 75 49 76 47 77 73 78 74 79 82 80 75 81 76 82 80 83 83 84
REMARK SMILES IDX 77 85 78 86 81 87 79 88 58 89 59 90 67 91 60 92 61 93 65 94
REMARK SMILES IDX 68 95 62 96 63 97 66 98 64 99
REMARK H PARENT 88 52 56 63
REMARK Flexibility Score: inf
ROOT
ATOM      1  C   UNL A   1      40.728  19.998  26.260  1.00  0.00     0.188 C 
ENDROOT
BRANCH   1   2
ATOM      2  C   UNL A   1      39.995  21.308  26.312  1.00  0.00     0.188 C 
BRANCH   2   3
ATOM      3  O   UNL A   1      38.740  21.245  25.694  1.00  0.00    -0.376 OA
BRANCH   3   4
ATOM      4  C   UNL A   1      37.980  22.422  25.561  1.00  0.00     0.202 C 
BRANCH   4   5
ATOM      5  C   UNL A   1      36.445  22.408  25.676  1.00  0.00     0.261 C 
BRANCH   5   6
ATOM      6  O   UNL A   1      35.702  21.753  24.609  1.00  0.00    -0.463 OA
BRANCH   6   7
ATOM      7  C   UNL A   1      35.092  22.599  23.716  1.00  0.00     0.315 C 
ATOM      8  O   UNL A   1      35.730  23.381  23.025  1.00  0.00    -0.251 OA
BRANCH   7   9
ATOM      9  C   UNL A   1      33.585  22.572  23.708  1.00  0.00     0.192 C 
BRANCH   9  10
ATOM     10  S   UNL A   1      32.541  21.635  24.944  1.00  0.00    -0.136 SA
BRANCH  10  11
ATOM     11  C   UNL A   1      32.075  22.715  26.345  1.00  0.00     0.146 C 
ATOM     12  N   UNL A   1      31.303  24.930  26.127  1.00  0.00    -0.249 N 
ATOM     13  C   UNL A   1      30.232  24.263  26.627  1.00  0.00     0.235 C 
ATOM     14  C   UNL A   1      32.446  24.158  26.151  1.00  0.00     0.247 C 
ATOM     15  O   UNL A   1      29.142  24.688  26.985  1.00  0.00    -0.274 OA
ATOM     16  C   UNL A   1      30.609  22.820  26.710  1.00  0.00     0.125 C 
ATOM     17  O   UNL A   1      33.603  24.564  26.165  1.00  0.00    -0.273 OA
BRANCH  12  18
ATOM     18  C   UNL A   1      31.326  26.279  25.724  1.00  0.00     0.055 A 
ATOM     19  C   UNL A   1      31.968  29.798  27.087  1.00  0.00     0.044 C 
ATOM     20  C   UNL A   1      31.683  28.645  26.168  1.00  0.00    -0.049 A 
ATOM     21  C   UNL A   1      31.617  28.892  24.792  1.00  0.00     0.004 A 
ATOM     22  C   UNL A   1      31.510  27.332  26.638  1.00  0.00     0.030 A 
ATOM     23  C   UNL A   1      31.353  27.863  23.895  1.00  0.00     0.006 A 
ATOM     24  C   UNL A   1      31.173  26.557  24.349  1.00  0.00    -0.027 A 
ATOM     25  C   UNL A   1      30.799  25.495  23.345  1.00  0.00     0.046 C 
ENDBRANCH  12  18
ENDBRANCH  10  11
ENDBRANCH   9  10
ENDBRANCH   7   9
ENDBRANCH   6   7
ENDBRANCH   5   6
ENDBRANCH   4   5
ENDBRANCH   3   4
ENDBRANCH   2   3
ENDBRANCH   1   2
BRANCH   1  26
ATOM     26  O   UNL A   1      41.552  19.602  27.344  1.00  0.00    -0.377 OA
BRANCH  26  27
ATOM     27  C   UNL A   1      42.559  18.649  27.028  1.00  0.00     0.188 C 
BRANCH  27  28
ATOM     28  C   UNL A   1      43.170  18.832  25.639  1.00  0.00     0.188 C 
BRANCH  28  29
ATOM     29  O   UNL A   1      44.273  17.949  25.458  1.00  0.00    -0.376 OA
BRANCH  29  30
ATOM     30  C   UNL A   1      45.549  18.560  25.578  1.00  0.00     0.202 C 
BRANCH  30  31
ATOM     31  C   UNL A   1      45.771  19.517  24.411  1.00  0.00     0.261 C 
BRANCH  31  32
ATOM     32  O   UNL A   1      45.736  20.924  24.764  1.00  0.00    -0.460 OA
BRANCH  32  33
ATOM     33  C   UNL A   1      44.809  21.718  24.154  1.00  0.00     0.338 C 
ATOM     34  O   UNL A   1      44.464  21.623  23.003  1.00  0.00    -0.246 OA
BRANCH  33  35
ATOM     35  C   UNL A   1      44.311  22.746  25.131  1.00  0.00     0.060 A 
ATOM     36  C   UNL A   1      44.758  24.056  25.024  1.00  0.00     0.016 A 
ATOM     37  C   UNL A   1      43.578  22.371  26.270  1.00  0.00     0.016 A 
ATOM     38  C   UNL A   1      44.638  24.897  26.140  1.00  0.00     0.010 A 
ATOM     39  C   UNL A   1      43.511  23.193  27.404  1.00  0.00     0.010 A 
ATOM     40  C   UNL A   1      44.103  24.451  27.383  1.00  0.00    -0.014 A 
BRANCH  40  41
ATOM     41  C   UNL A   1      43.788  25.482  28.424  1.00  0.00     0.031 A 
ATOM     42  C   UNL A   1      42.787  26.362  27.822  1.00  0.00     0.074 A 
ATOM     43  C   UNL A   1      44.179  25.699  29.714  1.00  0.00     0.049 A 
ATOM     44  N   UNL A   1      43.021  27.562  27.410  1.00  0.00    -0.248 NA
ATOM     45  C   UNL A   1      41.520  25.776  27.341  1.00  0.00     0.031 C 
ATOM     46  C   UNL A   1      45.160  24.899  30.398  1.00  0.00     0.029 A 
ATOM     47  N   UNL A   1      43.867  26.644  30.706  1.00  0.00    -0.354 N 
ATOM     48  C   UNL A   1      41.778  28.001  27.005  1.00  0.00     0.074 A 
ATOM     49  C   UNL A   1      40.984  26.828  26.722  1.00  0.00     0.031 C 
ATOM     50  C   UNL A   1      45.269  25.221  31.697  1.00  0.00     0.029 A 
ATOM     51  C   UNL A   1      44.379  26.315  31.992  1.00  0.00     0.049 A 
ATOM     52  H   UNL A   1      43.342  27.459  30.529  1.00  0.00     0.167 HD
ATOM     53  C   UNL A   1      41.368  29.164  27.566  1.00  0.00     0.037 A 
ATOM     54  C   UNL A   1      44.248  26.889  33.227  1.00  0.00     0.037 A 
ATOM     55  C   UNL A   1      42.471  30.022  27.904  1.00  0.00     0.049 A 
ATOM     56  C   UNL A   1      43.903  28.309  33.010  1.00  0.00     0.074 A 
ATOM     57  C   UNL A   1      43.485  30.648  27.207  1.00  0.00     0.029 A 
ATOM     58  N   UNL A   1      42.881  29.940  29.204  1.00  0.00    -0.354 N 
ATOM     59  N   UNL A   1      44.785  29.215  32.686  1.00  0.00    -0.248 NA
ATOM     60  C   UNL A   1      42.508  28.681  32.808  1.00  0.00     0.031 C 
ATOM     61  C   UNL A   1      44.503  30.964  28.150  1.00  0.00     0.029 A 
ATOM     62  C   UNL A   1      44.075  30.571  29.413  1.00  0.00     0.049 A 
ATOM     63  H   UNL A   1      42.373  29.479  29.911  1.00  0.00     0.167 HD
ATOM     64  C   UNL A   1      44.097  30.028  31.811  1.00  0.00     0.074 A 
ATOM     65  C   UNL A   1      42.684  29.762  32.046  1.00  0.00     0.031 C 
ATOM     66  C   UNL A   1      44.719  30.513  30.703  1.00  0.00     0.037 A 
BRANCH  53  67
ATOM     67  C   UNL A   1      40.094  29.155  28.361  1.00  0.00     0.064 A 
ATOM     68  C   UNL A   1      40.045  28.506  29.593  1.00  0.00     0.173 A 
ATOM     69  C   UNL A   1      38.853  29.574  27.824  1.00  0.00     0.173 A 
ATOM     70  F   UNL A   1      41.151  27.949  30.103  1.00  0.00    -0.203 F 
ATOM     71  C   UNL A   1      38.836  28.359  30.277  1.00  0.00     0.198 A 
ATOM     72  C   UNL A   1      37.670  29.515  28.543  1.00  0.00     0.198 A 
ATOM     73  F   UNL A   1      38.727  29.936  26.541  1.00  0.00    -0.203 F 
ATOM     74  F   UNL A   1      38.803  27.654  31.414  1.00  0.00    -0.200 F 
ATOM     75  C   UNL A   1      37.660  28.895  29.771  1.00  0.00     0.200 A 
ATOM     76  F   UNL A   1      36.539  29.991  28.002  1.00  0.00    -0.200 F 
ATOM     77  F   UNL A   1      36.505  28.755  30.433  1.00  0.00    -0.200 F 
ENDBRANCH  53  67
BRANCH  54  78
ATOM     78  C   UNL A   1      44.429  26.329  34.621  1.00  0.00     0.064 A 
ATOM     79  C   UNL A   1      43.318  25.905  35.390  1.00  0.00     0.173 A 
ATOM     80  C   UNL A   1      45.682  25.962  35.158  1.00  0.00     0.173 A 
ATOM     81  F   UNL A   1      42.066  26.200  35.007  1.00  0.00    -0.203 F 
ATOM     82  C   UNL A   1      43.454  25.105  36.539  1.00  0.00     0.198 A 
ATOM     83  C   UNL A   1      45.817  25.178  36.311  1.00  0.00     0.198 A 
ATOM     84  F   UNL A   1      46.829  26.293  34.555  1.00  0.00    -0.203 F 
ATOM     85  F   UNL A   1      42.363  24.663  37.181  1.00  0.00    -0.200 F 
ATOM     86  C   UNL A   1      44.704  24.720  36.982  1.00  0.00     0.200 A 
ATOM     87  F   UNL A   1      47.041  24.826  36.730  1.00  0.00    -0.200 F 
ATOM     88  F   UNL A   1      44.838  23.889  38.025  1.00  0.00    -0.200 F 
ENDBRANCH  54  78
BRANCH  66  89
ATOM     89  C   UNL A   1      46.144  30.941  30.820  1.00  0.00     0.064 A 
ATOM     90  C   UNL A   1      47.264  30.146  30.546  1.00  0.00     0.173 A 
ATOM     91  C   UNL A   1      46.366  32.283  31.179  1.00  0.00     0.173 A 
ATOM     92  F   UNL A   1      47.132  28.880  30.123  1.00  0.00    -0.203 F 
ATOM     93  C   UNL A   1      48.552  30.673  30.659  1.00  0.00     0.198 A 
ATOM     94  C   UNL A   1      47.646  32.813  31.253  1.00  0.00     0.198 A 
ATOM     95  F   UNL A   1      45.325  33.095  31.426  1.00  0.00    -0.203 F 
ATOM     96  F   UNL A   1      49.616  29.898  30.402  1.00  0.00    -0.200 F 
ATOM     97  C   UNL A   1      48.741  32.004  31.004  1.00  0.00     0.200 A 
ATOM     98  F   UNL A   1      47.815  34.111  31.542  1.00  0.00    -0.200 F 
ATOM     99  F   UNL A   1      49.979  32.515  31.076  1.00  0.00    -0.200 F 
ENDBRANCH  66  89
ENDBRANCH  40  41
ENDBRANCH  33  35
ENDBRANCH  32  33
ENDBRANCH  31  32
ENDBRANCH  30  31
ENDBRANCH  29  30
ENDBRANCH  28  29
ENDBRANCH  27  28
ENDBRANCH  26  27
ENDBRANCH   1  26
TORSDOF 23
ENDMDL
