MODEL 1
REMARK VINA RESULT:     -11.7      0.000      0.000
REMARK SMILES O=C(CCn1c(N2CC[NH2+]CC2)nc2ccccc2c1=O)OCCOCCOCCOCCOC(=O)c1ccc(-c2c3nc(c(-c4c(F)c(F)c(F)c(F)c4F)c4ccc([nH]4)c(-c4c(F)c(F)c(F)c(F)c4F)c4nc(c(-c5c(F)c(F)c(F)c(F)c5F)c5ccc2[nH]5)C=C4)C=C3)cc1
REMARK SMILES IDX 27 1 26 2 25 3 24 4 23 5 22 6 2 7 1 8 3 9 4 10 5 11 6 12
REMARK SMILES IDX 20 13 13 14 19 15 21 16 14 17 18 18 15 19 17 20 16 21 7 22
REMARK SMILES IDX 8 23 12 24 9 25 11 26 10 27 28 30 29 31 30 32 31 33 32 34
REMARK SMILES IDX 33 35 34 36 35 37 36 38 37 39 38 40 99 41 39 42 98 43 40 44
REMARK SMILES IDX 41 45 42 46 92 47 43 48 97 49 91 50 93 51 44 52 96 53 90 54
REMARK SMILES IDX 89 55 45 57 77 58 57 59 76 60 58 61 61 62 75 63 94 64 59 65
REMARK SMILES IDX 60 66 74 68 95 69 62 70 46 71 47 72 55 73 48 74 49 75 53 76
REMARK SMILES IDX 56 77 50 78 51 79 54 80 52 81 78 82 79 83 87 84 80 85 81 86
REMARK SMILES IDX 85 87 88 88 82 89 83 90 86 91 84 92 63 93 64 94 72 95 65 96
REMARK SMILES IDX 66 97 70 98 73 99 67 100 68 101 71 102 69 103
REMARK H PARENT 10 28 10 29 93 56 61 67
REMARK Flexibility Score: inf
ROOT
ATOM      1  C   UNL A   1      42.661  18.212  26.311  1.00  0.00     0.188 C 
ENDROOT
BRANCH   1   2
ATOM      2  C   UNL A   1      41.990  19.450  25.738  1.00  0.00     0.188 C 
BRANCH   2   3
ATOM      3  O   UNL A   1      41.790  20.585  26.565  1.00  0.00    -0.376 OA
BRANCH   3   4
ATOM      4  C   UNL A   1      40.548  20.952  27.139  1.00  0.00     0.202 C 
BRANCH   4   5
ATOM      5  C   UNL A   1      39.722  21.973  26.323  1.00  0.00     0.261 C 
BRANCH   5   6
ATOM      6  O   UNL A   1      38.706  21.379  25.476  1.00  0.00    -0.463 OA
BRANCH   6   7
ATOM      7  C   UNL A   1      37.634  22.171  25.211  1.00  0.00     0.307 C 
ATOM      8  O   UNL A   1      37.680  23.395  25.317  1.00  0.00    -0.252 OA
BRANCH   7   9
ATOM      9  C   UNL A   1      36.327  21.477  24.802  1.00  0.00     0.145 C 
BRANCH   9  10
ATOM     10  C   UNL A   1      35.363  20.794  25.787  1.00  0.00     0.141 C 
BRANCH  10  11
ATOM     11  N   UNL A   1      34.051  21.380  25.767  1.00  0.00    -0.278 N 
ATOM     12  C   UNL A   1      32.954  20.725  25.200  1.00  0.00     0.209 A 
ATOM     13  C   UNL A   1      33.978  22.664  26.297  1.00  0.00     0.262 A 
ATOM     14  N   UNL A   1      31.842  21.388  25.007  1.00  0.00    -0.214 NA
ATOM     15  C   UNL A   1      32.854  23.466  25.833  1.00  0.00     0.066 A 
ATOM     16  O   UNL A   1      34.833  23.169  27.021  1.00  0.00    -0.269 OA
ATOM     17  C   UNL A   1      31.852  22.798  25.143  1.00  0.00     0.080 A 
ATOM     18  C   UNL A   1      32.919  24.865  25.919  1.00  0.00     0.016 A 
ATOM     19  C   UNL A   1      30.906  23.591  24.480  1.00  0.00     0.029 A 
ATOM     20  C   UNL A   1      31.978  25.635  25.249  1.00  0.00     0.001 A 
ATOM     21  C   UNL A   1      30.979  24.996  24.514  1.00  0.00     0.002 A 
BRANCH  12  22
ATOM     22  N   UNL A   1      33.077  19.360  24.867  1.00  0.00    -0.331 N 
ATOM     23  C   UNL A   1      32.966  18.912  23.452  1.00  0.00     0.181 C 
ATOM     24  C   UNL A   1      32.648  18.371  25.871  1.00  0.00     0.181 C 
ATOM     25  C   UNL A   1      33.176  17.411  23.180  1.00  0.00     0.282 C 
ATOM     26  C   UNL A   1      33.130  16.949  25.511  1.00  0.00     0.282 C 
ATOM     27  N   UNL A   1      32.677  16.479  24.192  1.00  0.00    -0.343 N 
ATOM     28  H   UNL A   1      33.046  15.545  24.013  1.00  0.00     0.346 HD
ATOM     29  H   UNL A   1      31.658  16.438  24.163  1.00  0.00     0.346 HD
ENDBRANCH  12  22
ENDBRANCH  10  11
ENDBRANCH   9  10
ENDBRANCH   7   9
ENDBRANCH   6   7
ENDBRANCH   5   6
ENDBRANCH   4   5
ENDBRANCH   3   4
ENDBRANCH   2   3
ENDBRANCH   1   2
BRANCH   1  30
ATOM     30  O   UNL A   1      44.080  18.176  26.212  1.00  0.00    -0.377 OA
BRANCH  30  31
ATOM     31  C   UNL A   1      44.632  18.715  25.023  1.00  0.00     0.188 C 
BRANCH  31  32
ATOM     32  C   UNL A   1      46.099  19.201  25.083  1.00  0.00     0.188 C 
BRANCH  32  33
ATOM     33  O   UNL A   1      46.403  20.549  25.413  1.00  0.00    -0.376 OA
BRANCH  33  34
ATOM     34  C   UNL A   1      45.365  21.518  25.527  1.00  0.00     0.202 C 
BRANCH  34  35
ATOM     35  C   UNL A   1      45.678  22.935  26.028  1.00  0.00     0.261 C 
BRANCH  35  36
ATOM     36  O   UNL A   1      44.527  23.569  26.599  1.00  0.00    -0.460 OA
BRANCH  36  37
ATOM     37  C   UNL A   1      43.793  24.347  25.760  1.00  0.00     0.338 C 
ATOM     38  O   UNL A   1      43.587  24.176  24.582  1.00  0.00    -0.246 OA
BRANCH  37  39
ATOM     39  C   UNL A   1      43.035  25.299  26.605  1.00  0.00     0.060 A 
ATOM     40  C   UNL A   1      41.828  24.936  27.215  1.00  0.00     0.016 A 
ATOM     41  C   UNL A   1      43.484  26.629  26.646  1.00  0.00     0.016 A 
ATOM     42  C   UNL A   1      41.092  25.896  27.912  1.00  0.00     0.010 A 
ATOM     43  C   UNL A   1      42.720  27.600  27.291  1.00  0.00     0.010 A 
ATOM     44  C   UNL A   1      41.554  27.223  27.982  1.00  0.00    -0.014 A 
BRANCH  44  45
ATOM     45  C   UNL A   1      41.095  28.080  29.099  1.00  0.00     0.031 A 
ATOM     46  C   UNL A   1      39.941  29.024  29.021  1.00  0.00     0.074 A 
ATOM     47  C   UNL A   1      41.812  27.950  30.230  1.00  0.00     0.049 A 
ATOM     48  N   UNL A   1      39.422  29.745  29.982  1.00  0.00    -0.248 NA
ATOM     49  C   UNL A   1      39.285  29.194  27.717  1.00  0.00     0.031 C 
ATOM     50  C   UNL A   1      42.963  27.052  30.386  1.00  0.00     0.029 A 
ATOM     51  N   UNL A   1      41.702  28.559  31.448  1.00  0.00    -0.354 N 
ATOM     52  C   UNL A   1      38.359  30.435  29.418  1.00  0.00     0.074 A 
ATOM     53  C   UNL A   1      38.332  30.076  28.011  1.00  0.00     0.031 C 
ATOM     54  C   UNL A   1      43.462  27.181  31.619  1.00  0.00     0.029 A 
ATOM     55  C   UNL A   1      42.663  28.159  32.341  1.00  0.00     0.049 A 
ATOM     56  H   UNL A   1      41.003  29.219  31.663  1.00  0.00     0.167 HD
ATOM     57  C   UNL A   1      37.491  31.272  30.036  1.00  0.00     0.037 A 
ATOM     58  C   UNL A   1      42.879  28.525  33.613  1.00  0.00     0.037 A 
ATOM     59  C   UNL A   1      37.558  31.622  31.437  1.00  0.00     0.049 A 
ATOM     60  C   UNL A   1      41.917  29.470  34.254  1.00  0.00     0.074 A 
ATOM     61  C   UNL A   1      36.686  32.408  32.173  1.00  0.00     0.029 A 
ATOM     62  N   UNL A   1      38.562  31.222  32.310  1.00  0.00    -0.354 N 
ATOM     63  N   UNL A   1      40.859  30.041  33.734  1.00  0.00    -0.248 NA
ATOM     64  C   UNL A   1      42.163  29.805  35.660  1.00  0.00     0.031 C 
ATOM     65  C   UNL A   1      37.191  32.529  33.472  1.00  0.00     0.029 A 
ATOM     66  C   UNL A   1      38.350  31.777  33.565  1.00  0.00     0.049 A 
ATOM     67  H   UNL A   1      39.313  30.631  32.074  1.00  0.00     0.167 HD
ATOM     68  C   UNL A   1      40.299  30.794  34.752  1.00  0.00     0.074 A 
ATOM     69  C   UNL A   1      41.127  30.589  35.926  1.00  0.00     0.031 C 
ATOM     70  C   UNL A   1      39.199  31.582  34.715  1.00  0.00     0.037 A 
BRANCH  57  71
ATOM     71  C   UNL A   1      36.372  31.872  29.231  1.00  0.00     0.064 A 
ATOM     72  C   UNL A   1      35.285  31.095  28.807  1.00  0.00     0.173 A 
ATOM     73  C   UNL A   1      36.315  33.256  29.005  1.00  0.00     0.173 A 
ATOM     74  F   UNL A   1      35.287  29.768  29.000  1.00  0.00    -0.203 F 
ATOM     75  C   UNL A   1      34.181  31.681  28.188  1.00  0.00     0.198 A 
ATOM     76  C   UNL A   1      35.201  33.841  28.404  1.00  0.00     0.198 A 
ATOM     77  F   UNL A   1      37.321  34.048  29.403  1.00  0.00    -0.203 F 
ATOM     78  F   UNL A   1      33.156  30.917  27.786  1.00  0.00    -0.200 F 
ATOM     79  C   UNL A   1      34.135  33.054  27.997  1.00  0.00     0.200 A 
ATOM     80  F   UNL A   1      35.152  35.170  28.237  1.00  0.00    -0.200 F 
ATOM     81  F   UNL A   1      33.062  33.619  27.427  1.00  0.00    -0.200 F 
ENDBRANCH  57  71
BRANCH  58  82
ATOM     82  C   UNL A   1      44.013  27.919  34.345  1.00  0.00     0.064 A 
ATOM     83  C   UNL A   1      43.870  26.685  34.987  1.00  0.00     0.173 A 
ATOM     84  C   UNL A   1      45.287  28.508  34.320  1.00  0.00     0.173 A 
ATOM     85  F   UNL A   1      42.671  26.086  35.026  1.00  0.00    -0.203 F 
ATOM     86  C   UNL A   1      44.961  26.061  35.587  1.00  0.00     0.198 A 
ATOM     87  C   UNL A   1      46.381  27.871  34.899  1.00  0.00     0.198 A 
ATOM     88  F   UNL A   1      45.475  29.676  33.689  1.00  0.00    -0.203 F 
ATOM     89  F   UNL A   1      44.797  24.884  36.207  1.00  0.00    -0.200 F 
ATOM     90  C   UNL A   1      46.216  26.649  35.535  1.00  0.00     0.200 A 
ATOM     91  F   UNL A   1      47.596  28.428  34.822  1.00  0.00    -0.200 F 
ATOM     92  F   UNL A   1      47.268  26.035  36.091  1.00  0.00    -0.200 F 
ENDBRANCH  58  82
BRANCH  70  93
ATOM     93  C   UNL A   1      38.840  32.297  35.982  1.00  0.00     0.064 A 
ATOM     94  C   UNL A   1      38.133  31.649  37.007  1.00  0.00     0.173 A 
ATOM     95  C   UNL A   1      39.227  33.629  36.188  1.00  0.00     0.173 A 
ATOM     96  F   UNL A   1      37.724  30.381  36.846  1.00  0.00    -0.203 F 
ATOM     97  C   UNL A   1      37.812  32.315  38.184  1.00  0.00     0.198 A 
ATOM     98  C   UNL A   1      38.927  34.284  37.378  1.00  0.00     0.198 A 
ATOM     99  F   UNL A   1      39.904  34.291  35.238  1.00  0.00    -0.203 F 
ATOM    100  F   UNL A   1      37.098  31.691  39.131  1.00  0.00    -0.200 F 
ATOM    101  C   UNL A   1      38.215  33.629  38.373  1.00  0.00     0.200 A 
ATOM    102  F   UNL A   1      39.326  35.550  37.563  1.00  0.00    -0.200 F 
ATOM    103  F   UNL A   1      37.911  34.267  39.511  1.00  0.00    -0.200 F 
ENDBRANCH  70  93
ENDBRANCH  44  45
ENDBRANCH  37  39
ENDBRANCH  36  37
ENDBRANCH  35  36
ENDBRANCH  34  35
ENDBRANCH  33  34
ENDBRANCH  32  33
ENDBRANCH  31  32
ENDBRANCH  30  31
ENDBRANCH   1  30
TORSDOF 23
ENDMDL
MODEL 2
REMARK VINA RESULT:     -10.8      3.458      8.667
REMARK SMILES O=C(CCn1c(N2CC[NH2+]CC2)nc2ccccc2c1=O)OCCOCCOCCOCCOC(=O)c1ccc(-c2c3nc(c(-c4c(F)c(F)c(F)c(F)c4F)c4ccc([nH]4)c(-c4c(F)c(F)c(F)c(F)c4F)c4nc(c(-c5c(F)c(F)c(F)c(F)c5F)c5ccc2[nH]5)C=C4)C=C3)cc1
REMARK SMILES IDX 27 1 26 2 25 3 24 4 23 5 22 6 2 7 1 8 3 9 4 10 5 11 6 12
REMARK SMILES IDX 20 13 13 14 19 15 21 16 14 17 18 18 15 19 17 20 16 21 7 22
REMARK SMILES IDX 8 23 12 24 9 25 11 26 10 27 28 30 29 31 30 32 31 33 32 34
REMARK SMILES IDX 33 35 34 36 35 37 36 38 37 39 38 40 99 41 39 42 98 43 40 44
REMARK SMILES IDX 41 45 42 46 92 47 43 48 97 49 91 50 93 51 44 52 96 53 90 54
REMARK SMILES IDX 89 55 45 57 77 58 57 59 76 60 58 61 61 62 75 63 94 64 59 65
REMARK SMILES IDX 60 66 74 68 95 69 62 70 46 71 47 72 55 73 48 74 49 75 53 76
REMARK SMILES IDX 56 77 50 78 51 79 54 80 52 81 78 82 79 83 87 84 80 85 81 86
REMARK SMILES IDX 85 87 88 88 82 89 83 90 86 91 84 92 63 93 64 94 72 95 65 96
REMARK SMILES IDX 66 97 70 98 73 99 67 100 68 101 71 102 69 103
REMARK H PARENT 10 28 10 29 93 56 61 67
REMARK Flexibility Score: inf
ROOT
ATOM      1  C   UNL A   1      32.336  25.575  23.066  1.00  0.00     0.188 C 
ENDROOT
BRANCH   1   2
ATOM      2  C   UNL A   1      30.994  26.287  23.112  1.00  0.00     0.188 C 
BRANCH   2   3
ATOM      3  O   UNL A   1      30.251  26.302  24.320  1.00  0.00    -0.376 OA
BRANCH   3   4
ATOM      4  C   UNL A   1      30.770  25.943  25.588  1.00  0.00     0.202 C 
BRANCH   4   5
ATOM      5  C   UNL A   1      30.536  24.472  26.003  1.00  0.00     0.261 C 
BRANCH   5   6
ATOM      6  O   UNL A   1      31.149  24.101  27.263  1.00  0.00    -0.463 OA
BRANCH   6   7
ATOM      7  C   UNL A   1      32.216  23.264  27.168  1.00  0.00     0.307 C 
ATOM      8  O   UNL A   1      32.580  22.557  28.105  1.00  0.00    -0.252 OA
BRANCH   7   9
ATOM      9  C   UNL A   1      32.990  23.255  25.842  1.00  0.00     0.145 C 
BRANCH   9  10
ATOM     10  C   UNL A   1      33.359  21.981  25.062  1.00  0.00     0.141 C 
BRANCH  10  11
ATOM     11  N   UNL A   1      34.780  21.804  24.940  1.00  0.00    -0.278 N 
ATOM     12  C   UNL A   1      35.370  20.536  24.906  1.00  0.00     0.209 A 
ATOM     13  C   UNL A   1      35.515  22.984  24.921  1.00  0.00     0.262 A 
ATOM     14  N   UNL A   1      36.669  20.432  25.022  1.00  0.00    -0.214 NA
ATOM     15  C   UNL A   1      36.909  22.856  25.325  1.00  0.00     0.066 A 
ATOM     16  O   UNL A   1      35.044  24.095  24.694  1.00  0.00    -0.269 OA
ATOM     17  C   UNL A   1      37.416  21.567  25.421  1.00  0.00     0.080 A 
ATOM     18  C   UNL A   1      37.606  23.986  25.779  1.00  0.00     0.016 A 
ATOM     19  C   UNL A   1      38.662  21.425  26.047  1.00  0.00     0.029 A 
ATOM     20  C   UNL A   1      38.835  23.825  26.404  1.00  0.00     0.001 A 
ATOM     21  C   UNL A   1      39.356  22.540  26.552  1.00  0.00     0.002 A 
BRANCH  12  22
ATOM     22  N   UNL A   1      34.542  19.408  24.735  1.00  0.00    -0.331 N 
ATOM     23  C   UNL A   1      33.274  19.274  25.503  1.00  0.00     0.181 C 
ATOM     24  C   UNL A   1      35.188  18.135  24.372  1.00  0.00     0.181 C 
ATOM     25  C   UNL A   1      32.406  18.038  25.203  1.00  0.00     0.282 C 
ATOM     26  C   UNL A   1      34.157  17.084  23.907  1.00  0.00     0.282 C 
ATOM     27  N   UNL A   1      33.112  16.791  24.902  1.00  0.00    -0.343 N 
ATOM     28  H   UNL A   1      32.458  16.107  24.524  1.00  0.00     0.346 HD
ATOM     29  H   UNL A   1      33.530  16.409  25.751  1.00  0.00     0.346 HD
ENDBRANCH  12  22
ENDBRANCH  10  11
ENDBRANCH   9  10
ENDBRANCH   7   9
ENDBRANCH   6   7
ENDBRANCH   5   6
ENDBRANCH   4   5
ENDBRANCH   3   4
ENDBRANCH   2   3
ENDBRANCH   1   2
BRANCH   1  30
ATOM     30  O   UNL A   1      33.478  26.416  22.938  1.00  0.00    -0.377 OA
BRANCH  30  31
ATOM     31  C   UNL A   1      33.224  27.746  22.521  1.00  0.00     0.188 C 
BRANCH  31  32
ATOM     32  C   UNL A   1      33.598  28.878  23.505  1.00  0.00     0.188 C 
BRANCH  32  33
ATOM     33  O   UNL A   1      33.105  28.874  24.837  1.00  0.00    -0.376 OA
BRANCH  33  34
ATOM     34  C   UNL A   1      31.973  29.663  25.193  1.00  0.00     0.202 C 
BRANCH  34  35
ATOM     35  C   UNL A   1      31.962  30.454  26.508  1.00  0.00     0.261 C 
BRANCH  35  36
ATOM     36  O   UNL A   1      33.199  30.329  27.220  1.00  0.00    -0.460 OA
BRANCH  36  37
ATOM     37  C   UNL A   1      33.811  31.491  27.567  1.00  0.00     0.338 C 
ATOM     38  O   UNL A   1      33.317  32.590  27.660  1.00  0.00    -0.246 OA
BRANCH  37  39
ATOM     39  C   UNL A   1      35.145  31.135  28.105  1.00  0.00     0.060 A 
ATOM     40  C   UNL A   1      36.153  32.094  28.257  1.00  0.00     0.016 A 
ATOM     41  C   UNL A   1      35.418  29.772  28.309  1.00  0.00     0.016 A 
ATOM     42  C   UNL A   1      37.428  31.694  28.664  1.00  0.00     0.010 A 
ATOM     43  C   UNL A   1      36.706  29.367  28.658  1.00  0.00     0.010 A 
ATOM     44  C   UNL A   1      37.698  30.334  28.900  1.00  0.00    -0.014 A 
BRANCH  44  45
ATOM     45  C   UNL A   1      38.820  29.975  29.796  1.00  0.00     0.031 A 
ATOM     46  C   UNL A   1      39.015  30.527  31.169  1.00  0.00     0.074 A 
ATOM     47  C   UNL A   1      39.686  29.085  29.275  1.00  0.00     0.049 A 
ATOM     48  N   UNL A   1      39.925  30.196  32.051  1.00  0.00    -0.248 NA
ATOM     49  C   UNL A   1      38.094  31.579  31.619  1.00  0.00     0.031 C 
ATOM     50  C   UNL A   1      39.570  28.501  27.933  1.00  0.00     0.029 A 
ATOM     51  N   UNL A   1      40.823  28.523  29.782  1.00  0.00    -0.354 N 
ATOM     52  C   UNL A   1      39.675  30.971  33.173  1.00  0.00     0.074 A 
ATOM     53  C   UNL A   1      38.547  31.825  32.846  1.00  0.00     0.031 C 
ATOM     54  C   UNL A   1      40.600  27.678  27.717  1.00  0.00     0.029 A 
ATOM     55  C   UNL A   1      41.441  27.669  28.904  1.00  0.00     0.049 A 
ATOM     56  H   UNL A   1      41.164  28.712  30.686  1.00  0.00     0.167 HD
ATOM     57  C   UNL A   1      40.328  30.947  34.361  1.00  0.00     0.037 A 
ATOM     58  C   UNL A   1      42.559  26.940  29.037  1.00  0.00     0.037 A 
ATOM     59  C   UNL A   1      41.460  30.095  34.647  1.00  0.00     0.049 A 
ATOM     60  C   UNL A   1      43.268  26.958  30.351  1.00  0.00     0.074 A 
ATOM     61  C   UNL A   1      42.149  29.946  35.841  1.00  0.00     0.029 A 
ATOM     62  N   UNL A   1      42.082  29.260  33.727  1.00  0.00    -0.354 N 
ATOM     63  N   UNL A   1      42.964  27.624  31.437  1.00  0.00    -0.248 NA
ATOM     64  C   UNL A   1      44.457  26.109  30.468  1.00  0.00     0.031 C 
ATOM     65  C   UNL A   1      43.217  29.069  35.628  1.00  0.00     0.029 A 
ATOM     66  C   UNL A   1      43.167  28.626  34.316  1.00  0.00     0.049 A 
ATOM     67  H   UNL A   1      41.794  29.135  32.794  1.00  0.00     0.167 HD
ATOM     68  C   UNL A   1      43.916  27.266  32.376  1.00  0.00     0.074 A 
ATOM     69  C   UNL A   1      44.795  26.307  31.734  1.00  0.00     0.031 C 
ATOM     70  C   UNL A   1      44.046  27.694  33.654  1.00  0.00     0.037 A 
BRANCH  57  71
ATOM     71  C   UNL A   1      39.847  31.845  35.466  1.00  0.00     0.064 A 
ATOM     72  C   UNL A   1      40.342  33.149  35.611  1.00  0.00     0.173 A 
ATOM     73  C   UNL A   1      38.784  31.453  36.295  1.00  0.00     0.173 A 
ATOM     74  F   UNL A   1      41.355  33.575  34.842  1.00  0.00    -0.203 F 
ATOM     75  C   UNL A   1      39.792  34.027  36.543  1.00  0.00     0.198 A 
ATOM     76  C   UNL A   1      38.223  32.340  37.212  1.00  0.00     0.198 A 
ATOM     77  F   UNL A   1      38.262  30.222  36.189  1.00  0.00    -0.203 F 
ATOM     78  F   UNL A   1      40.286  35.266  36.668  1.00  0.00    -0.200 F 
ATOM     79  C   UNL A   1      38.726  33.626  37.335  1.00  0.00     0.200 A 
ATOM     80  F   UNL A   1      37.181  31.956  37.964  1.00  0.00    -0.200 F 
ATOM     81  F   UNL A   1      38.180  34.481  38.211  1.00  0.00    -0.200 F 
ENDBRANCH  57  71
BRANCH  58  82
ATOM     82  C   UNL A   1      42.997  26.096  27.903  1.00  0.00     0.064 A 
ATOM     83  C   UNL A   1      42.557  24.773  27.788  1.00  0.00     0.173 A 
ATOM     84  C   UNL A   1      43.768  26.629  26.859  1.00  0.00     0.173 A 
ATOM     85  F   UNL A   1      41.811  24.229  28.760  1.00  0.00    -0.203 F 
ATOM     86  C   UNL A   1      42.879  24.008  26.671  1.00  0.00     0.198 A 
ATOM     87  C   UNL A   1      44.069  25.870  25.732  1.00  0.00     0.198 A 
ATOM     88  F   UNL A   1      44.185  27.903  26.915  1.00  0.00    -0.203 F 
ATOM     89  F   UNL A   1      42.457  22.738  26.588  1.00  0.00    -0.200 F 
ATOM     90  C   UNL A   1      43.627  24.559  25.640  1.00  0.00     0.200 A 
ATOM     91  F   UNL A   1      44.766  26.415  24.727  1.00  0.00    -0.200 F 
ATOM     92  F   UNL A   1      43.915  23.829  24.555  1.00  0.00    -0.200 F 
ENDBRANCH  58  82
BRANCH  70  93
ATOM     93  C   UNL A   1      45.198  27.137  34.436  1.00  0.00     0.064 A 
ATOM     94  C   UNL A   1      46.439  27.790  34.467  1.00  0.00     0.173 A 
ATOM     95  C   UNL A   1      45.053  25.958  35.182  1.00  0.00     0.173 A 
ATOM     96  F   UNL A   1      46.630  28.909  33.752  1.00  0.00    -0.203 F 
ATOM     97  C   UNL A   1      47.500  27.272  35.202  1.00  0.00     0.198 A 
ATOM     98  C   UNL A   1      46.108  25.457  35.938  1.00  0.00     0.198 A 
ATOM     99  F   UNL A   1      43.885  25.297  35.184  1.00  0.00    -0.203 F 
ATOM    100  F   UNL A   1      48.690  27.887  35.182  1.00  0.00    -0.200 F 
ATOM    101  C   UNL A   1      47.332  26.111  35.943  1.00  0.00     0.200 A 
ATOM    102  F   UNL A   1      45.942  24.342  36.662  1.00  0.00    -0.200 F 
ATOM    103  F   UNL A   1      48.353  25.618  36.657  1.00  0.00    -0.200 F 
ENDBRANCH  70  93
ENDBRANCH  44  45
ENDBRANCH  37  39
ENDBRANCH  36  37
ENDBRANCH  35  36
ENDBRANCH  34  35
ENDBRANCH  33  34
ENDBRANCH  32  33
ENDBRANCH  31  32
ENDBRANCH  30  31
ENDBRANCH   1  30
TORSDOF 23
ENDMDL
MODEL 3
REMARK VINA RESULT:     -10.0      2.408      2.944
REMARK SMILES O=C(CCn1c(N2CC[NH2+]CC2)nc2ccccc2c1=O)OCCOCCOCCOCCOC(=O)c1ccc(-c2c3nc(c(-c4c(F)c(F)c(F)c(F)c4F)c4ccc([nH]4)c(-c4c(F)c(F)c(F)c(F)c4F)c4nc(c(-c5c(F)c(F)c(F)c(F)c5F)c5ccc2[nH]5)C=C4)C=C3)cc1
REMARK SMILES IDX 27 1 26 2 25 3 24 4 23 5 22 6 2 7 1 8 3 9 4 10 5 11 6 12
REMARK SMILES IDX 20 13 13 14 19 15 21 16 14 17 18 18 15 19 17 20 16 21 7 22
REMARK SMILES IDX 8 23 12 24 9 25 11 26 10 27 28 30 29 31 30 32 31 33 32 34
REMARK SMILES IDX 33 35 34 36 35 37 36 38 37 39 38 40 99 41 39 42 98 43 40 44
REMARK SMILES IDX 41 45 42 46 92 47 43 48 97 49 91 50 93 51 44 52 96 53 90 54
REMARK SMILES IDX 89 55 45 57 77 58 57 59 76 60 58 61 61 62 75 63 94 64 59 65
REMARK SMILES IDX 60 66 74 68 95 69 62 70 46 71 47 72 55 73 48 74 49 75 53 76
REMARK SMILES IDX 56 77 50 78 51 79 54 80 52 81 78 82 79 83 87 84 80 85 81 86
REMARK SMILES IDX 85 87 88 88 82 89 83 90 86 91 84 92 63 93 64 94 72 95 65 96
REMARK SMILES IDX 66 97 70 98 73 99 67 100 68 101 71 102 69 103
REMARK H PARENT 10 28 10 29 93 56 61 67
REMARK Flexibility Score: inf
ROOT
ATOM      1  C   UNL A   1      42.730  18.073  26.361  1.00  0.00     0.188 C 
ENDROOT
BRANCH   1   2
ATOM      2  C   UNL A   1      41.918  19.280  25.922  1.00  0.00     0.188 C 
BRANCH   2   3
ATOM      3  O   UNL A   1      41.904  20.446  26.728  1.00  0.00    -0.376 OA
BRANCH   3   4
ATOM      4  C   UNL A   1      40.751  20.972  27.362  1.00  0.00     0.202 C 
BRANCH   4   5
ATOM      5  C   UNL A   1      39.876  21.890  26.478  1.00  0.00     0.261 C 
BRANCH   5   6
ATOM      6  O   UNL A   1      38.825  21.200  25.756  1.00  0.00    -0.463 OA
BRANCH   6   7
ATOM      7  C   UNL A   1      37.781  21.977  25.365  1.00  0.00     0.307 C 
ATOM      8  O   UNL A   1      37.798  23.202  25.471  1.00  0.00    -0.252 OA
BRANCH   7   9
ATOM      9  C   UNL A   1      36.540  21.264  24.810  1.00  0.00     0.145 C 
BRANCH   9  10
ATOM     10  C   UNL A   1      35.398  20.707  25.680  1.00  0.00     0.141 C 
BRANCH  10  11
ATOM     11  N   UNL A   1      34.127  21.296  25.359  1.00  0.00    -0.278 N 
ATOM     12  C   UNL A   1      33.112  20.571  24.728  1.00  0.00     0.209 A 
ATOM     13  C   UNL A   1      34.015  22.647  25.669  1.00  0.00     0.262 A 
ATOM     14  N   UNL A   1      32.068  21.206  24.259  1.00  0.00    -0.214 NA
ATOM     15  C   UNL A   1      33.008  23.378  24.913  1.00  0.00     0.066 A 
ATOM     16  O   UNL A   1      34.761  23.250  26.437  1.00  0.00    -0.269 OA
ATOM     17  C   UNL A   1      32.105  22.620  24.180  1.00  0.00     0.080 A 
ATOM     18  C   UNL A   1      33.105  24.773  24.796  1.00  0.00     0.016 A 
ATOM     19  C   UNL A   1      31.304  23.310  23.260  1.00  0.00     0.029 A 
ATOM     20  C   UNL A   1      32.309  25.438  23.873  1.00  0.00     0.001 A 
ATOM     21  C   UNL A   1      31.418  24.703  23.092  1.00  0.00     0.002 A 
BRANCH  12  22
ATOM     22  N   UNL A   1      33.240  19.170  24.631  1.00  0.00    -0.331 N 
ATOM     23  C   UNL A   1      33.216  18.497  23.303  1.00  0.00     0.181 C 
ATOM     24  C   UNL A   1      32.733  18.358  25.751  1.00  0.00     0.181 C 
ATOM     25  C   UNL A   1      33.424  16.972  23.293  1.00  0.00     0.282 C 
ATOM     26  C   UNL A   1      33.220  16.896  25.660  1.00  0.00     0.282 C 
ATOM     27  N   UNL A   1      32.848  16.218  24.408  1.00  0.00    -0.343 N 
ATOM     28  H   UNL A   1      33.217  15.267  24.408  1.00  0.00     0.346 HD
ATOM     29  H   UNL A   1      31.833  16.175  24.318  1.00  0.00     0.346 HD
ENDBRANCH  12  22
ENDBRANCH  10  11
ENDBRANCH   9  10
ENDBRANCH   7   9
ENDBRANCH   6   7
ENDBRANCH   5   6
ENDBRANCH   4   5
ENDBRANCH   3   4
ENDBRANCH   2   3
ENDBRANCH   1   2
BRANCH   1  30
ATOM     30  O   UNL A   1      44.138  18.175  26.178  1.00  0.00    -0.377 OA
BRANCH  30  31
ATOM     31  C   UNL A   1      44.563  18.810  24.985  1.00  0.00     0.188 C 
BRANCH  31  32
ATOM     32  C   UNL A   1      45.986  19.416  24.976  1.00  0.00     0.188 C 
BRANCH  32  33
ATOM     33  O   UNL A   1      46.202  20.765  25.367  1.00  0.00    -0.376 OA
BRANCH  33  34
ATOM     34  C   UNL A   1      45.103  21.603  25.711  1.00  0.00     0.202 C 
BRANCH  34  35
ATOM     35  C   UNL A   1      45.333  23.081  26.054  1.00  0.00     0.261 C 
BRANCH  35  36
ATOM     36  O   UNL A   1      44.293  23.608  26.887  1.00  0.00    -0.460 OA
BRANCH  36  37
ATOM     37  C   UNL A   1      43.246  24.188  26.245  1.00  0.00     0.338 C 
ATOM     38  O   UNL A   1      42.591  23.735  25.336  1.00  0.00    -0.246 OA
BRANCH  37  39
ATOM     39  C   UNL A   1      42.846  25.368  27.046  1.00  0.00     0.060 A 
ATOM     40  C   UNL A   1      42.063  25.239  28.199  1.00  0.00     0.016 A 
ATOM     41  C   UNL A   1      43.144  26.639  26.525  1.00  0.00     0.016 A 
ATOM     42  C   UNL A   1      41.618  26.385  28.862  1.00  0.00     0.010 A 
ATOM     43  C   UNL A   1      42.651  27.781  27.153  1.00  0.00     0.010 A 
ATOM     44  C   UNL A   1      41.941  27.659  28.361  1.00  0.00    -0.014 A 
BRANCH  44  45
ATOM     45  C   UNL A   1      41.937  28.813  29.288  1.00  0.00     0.031 A 
ATOM     46  C   UNL A   1      40.773  29.724  29.498  1.00  0.00     0.074 A 
ATOM     47  C   UNL A   1      43.092  28.996  29.954  1.00  0.00     0.049 A 
ATOM     48  N   UNL A   1      40.660  30.705  30.358  1.00  0.00    -0.248 NA
ATOM     49  C   UNL A   1      39.590  29.528  28.648  1.00  0.00     0.031 C 
ATOM     50  C   UNL A   1      44.283  28.151  29.799  1.00  0.00     0.029 A 
ATOM     51  N   UNL A   1      43.470  29.933  30.873  1.00  0.00    -0.354 N 
ATOM     52  C   UNL A   1      39.389  31.230  30.181  1.00  0.00     0.074 A 
ATOM     53  C   UNL A   1      38.778  30.482  29.098  1.00  0.00     0.031 C 
ATOM     54  C   UNL A   1      45.261  28.617  30.581  1.00  0.00     0.029 A 
ATOM     55  C   UNL A   1      44.766  29.782  31.297  1.00  0.00     0.049 A 
ATOM     56  H   UNL A   1      42.872  30.644  31.199  1.00  0.00     0.167 HD
ATOM     57  C   UNL A   1      38.801  32.232  30.879  1.00  0.00     0.037 A 
ATOM     58  C   UNL A   1      45.484  30.493  32.179  1.00  0.00     0.037 A 
ATOM     59  C   UNL A   1      39.446  32.969  31.942  1.00  0.00     0.049 A 
ATOM     60  C   UNL A   1      44.811  31.608  32.910  1.00  0.00     0.074 A 
ATOM     61  C   UNL A   1      38.913  33.956  32.756  1.00  0.00     0.029 A 
ATOM     62  N   UNL A   1      40.771  32.811  32.330  1.00  0.00    -0.354 N 
ATOM     63  N   UNL A   1      43.576  32.032  32.801  1.00  0.00    -0.248 NA
ATOM     64  C   UNL A   1      45.618  32.327  33.900  1.00  0.00     0.031 C 
ATOM     65  C   UNL A   1      39.927  34.433  33.593  1.00  0.00     0.029 A 
ATOM     66  C   UNL A   1      41.081  33.710  33.342  1.00  0.00     0.049 A 
ATOM     67  H   UNL A   1      41.398  32.158  31.945  1.00  0.00     0.167 HD
ATOM     68  C   UNL A   1      43.449  33.061  33.719  1.00  0.00     0.074 A 
ATOM     69  C   UNL A   1      44.730  33.181  34.390  1.00  0.00     0.031 C 
ATOM     70  C   UNL A   1      42.368  33.833  33.980  1.00  0.00     0.037 A 
BRANCH  57  71
ATOM     71  C   UNL A   1      37.382  32.604  30.549  1.00  0.00     0.064 A 
ATOM     72  C   UNL A   1      36.320  32.232  31.386  1.00  0.00     0.173 A 
ATOM     73  C   UNL A   1      37.098  33.455  29.469  1.00  0.00     0.173 A 
ATOM     74  F   UNL A   1      36.537  31.423  32.433  1.00  0.00    -0.203 F 
ATOM     75  C   UNL A   1      35.027  32.700  31.156  1.00  0.00     0.198 A 
ATOM     76  C   UNL A   1      35.807  33.936  29.254  1.00  0.00     0.198 A 
ATOM     77  F   UNL A   1      38.078  33.852  28.646  1.00  0.00    -0.203 F 
ATOM     78  F   UNL A   1      34.027  32.326  31.966  1.00  0.00    -0.200 F 
ATOM     79  C   UNL A   1      34.774  33.560  30.097  1.00  0.00     0.200 A 
ATOM     80  F   UNL A   1      35.569  34.781  28.241  1.00  0.00    -0.200 F 
ATOM     81  F   UNL A   1      33.535  34.030  29.894  1.00  0.00    -0.200 F 
ENDBRANCH  57  71
BRANCH  58  82
ATOM     82  C   UNL A   1      46.884  30.095  32.442  1.00  0.00     0.064 A 
ATOM     83  C   UNL A   1      47.179  29.107  33.388  1.00  0.00     0.173 A 
ATOM     84  C   UNL A   1      47.940  30.612  31.675  1.00  0.00     0.173 A 
ATOM     85  F   UNL A   1      46.198  28.582  34.135  1.00  0.00    -0.203 F 
ATOM     86  C   UNL A   1      48.484  28.654  33.564  1.00  0.00     0.198 A 
ATOM     87  C   UNL A   1      49.239  30.140  31.836  1.00  0.00     0.198 A 
ATOM     88  F   UNL A   1      47.697  31.538  30.736  1.00  0.00    -0.203 F 
ATOM     89  F   UNL A   1      48.744  27.716  34.485  1.00  0.00    -0.200 F 
ATOM     90  C   UNL A   1      49.510  29.163  32.783  1.00  0.00     0.200 A 
ATOM     91  F   UNL A   1      50.223  30.614  31.060  1.00  0.00    -0.200 F 
ATOM     92  F   UNL A   1      50.760  28.708  32.937  1.00  0.00    -0.200 F 
ENDBRANCH  58  82
BRANCH  70  93
ATOM     93  C   UNL A   1      42.535  34.891  35.028  1.00  0.00     0.064 A 
ATOM     94  C   UNL A   1      42.149  34.665  36.358  1.00  0.00     0.173 A 
ATOM     95  C   UNL A   1      43.110  36.130  34.709  1.00  0.00     0.173 A 
ATOM     96  F   UNL A   1      41.574  33.503  36.704  1.00  0.00    -0.203 F 
ATOM     97  C   UNL A   1      42.315  35.649  37.327  1.00  0.00     0.198 A 
ATOM     98  C   UNL A   1      43.300  37.102  35.687  1.00  0.00     0.198 A 
ATOM     99  F   UNL A   1      43.496  36.394  33.451  1.00  0.00    -0.203 F 
ATOM    100  F   UNL A   1      41.898  35.428  38.581  1.00  0.00    -0.200 F 
ATOM    101  C   UNL A   1      42.897  36.863  36.993  1.00  0.00     0.200 A 
ATOM    102  F   UNL A   1      43.872  38.270  35.366  1.00  0.00    -0.200 F 
ATOM    103  F   UNL A   1      43.064  37.806  37.930  1.00  0.00    -0.200 F 
ENDBRANCH  70  93
ENDBRANCH  44  45
ENDBRANCH  37  39
ENDBRANCH  36  37
ENDBRANCH  35  36
ENDBRANCH  34  35
ENDBRANCH  33  34
ENDBRANCH  32  33
ENDBRANCH  31  32
ENDBRANCH  30  31
ENDBRANCH   1  30
TORSDOF 23
ENDMDL
