MODEL 1
REMARK VINA RESULT:     -10.1      0.000      0.000
REMARK SMILES C[C@H]1CN([C@@H](C(=O)OCCOCCOCCOCCOC(=O)c2ccc(-c3c4nc(c(-c5c(F)c(F)c(F)c(F)c5F)c5ccc([nH]5)c(-c5c(F)c(F)c(F)c(F)c5F)c5nc(c(-c6c(F)c(F)c(F)c(F)c6F)c6ccc3[nH]6)C=C5)C=C4)cc2)C(C)(C)C)S(=O)(=O)C1
REMARK SMILES IDX 15 1 14 2 13 3 12 4 11 5 10 6 9 7 8 8 6 9 7 10 5 11 4 12
REMARK SMILES IDX 1 13 2 14 3 15 93 16 90 17 91 18 92 19 86 20 87 21 88 22
REMARK SMILES IDX 89 23 16 24 17 25 18 26 19 27 20 28 21 29 22 30 23 31 24 32
REMARK SMILES IDX 85 33 25 34 84 35 26 36 27 37 28 38 78 39 29 40 83 41 77 42
REMARK SMILES IDX 79 43 30 44 82 45 76 46 75 47 31 49 63 50 43 51 62 52 44 53
REMARK SMILES IDX 47 54 61 55 80 56 45 57 46 58 60 60 81 61 48 62 32 63 33 64
REMARK SMILES IDX 41 65 34 66 35 67 39 68 42 69 36 70 37 71 40 72 38 73 64 74
REMARK SMILES IDX 65 75 73 76 66 77 67 78 71 79 74 80 68 81 69 82 72 83 70 84
REMARK SMILES IDX 49 85 50 86 58 87 51 88 52 89 56 90 59 91 53 92 54 93 57 94
REMARK SMILES IDX 55 95
REMARK H PARENT 79 48 47 59
REMARK Flexibility Score: inf
ROOT
ATOM      1  C   UNL A   1      35.603  33.870  29.121  1.00  0.00     0.188 C 
ENDROOT
BRANCH   1   2
ATOM      2  O   UNL A   1      35.676  33.288  27.837  1.00  0.00    -0.377 OA
BRANCH   2   3
ATOM      3  C   UNL A   1      35.495  31.891  27.686  1.00  0.00     0.188 C 
BRANCH   3   4
ATOM      4  C   UNL A   1      34.107  31.259  27.864  1.00  0.00     0.188 C 
BRANCH   4   5
ATOM      5  O   UNL A   1      33.502  30.427  26.875  1.00  0.00    -0.376 OA
BRANCH   5   6
ATOM      6  C   UNL A   1      33.982  29.114  26.680  1.00  0.00     0.202 C 
BRANCH   6   7
ATOM      7  C   UNL A   1      32.896  28.082  26.361  1.00  0.00     0.261 C 
BRANCH   7   8
ATOM      8  O   UNL A   1      33.342  26.720  26.502  1.00  0.00    -0.462 OA
BRANCH   8   9
ATOM      9  C   UNL A   1      33.217  25.906  25.416  1.00  0.00     0.325 C 
ATOM     10  O   UNL A   1      33.352  26.334  24.274  1.00  0.00    -0.250 OA
BRANCH   9  11
ATOM     11  C   UNL A   1      32.754  24.436  25.756  1.00  0.00     0.188 C 
BRANCH  11  12
ATOM     12  N   UNL A   1      33.782  23.393  25.308  1.00  0.00    -0.187 NA
ATOM     13  C   UNL A   1      36.239  22.953  23.131  1.00  0.00     0.010 C 
ATOM     14  C   UNL A   1      36.046  22.778  24.641  1.00  0.00     0.017 C 
ATOM     15  C   UNL A   1      35.189  23.882  25.296  1.00  0.00     0.107 C 
ATOM     16  C   UNL A   1      35.419  21.423  24.976  1.00  0.00     0.159 C 
ATOM     17  S   UNL A   1      33.827  21.752  25.702  1.00  0.00     0.215 S 
ATOM     18  O   UNL A   1      33.989  21.621  27.135  1.00  0.00    -0.212 OA
ATOM     19  O   UNL A   1      32.833  21.024  24.958  1.00  0.00    -0.212 OA
ENDBRANCH  11  12
BRANCH  11  20
ATOM     20  C   UNL A   1      31.196  24.170  25.497  1.00  0.00    -0.011 C 
ATOM     21  C   UNL A   1      31.006  23.667  24.046  1.00  0.00     0.013 C 
ATOM     22  C   UNL A   1      30.634  23.020  26.379  1.00  0.00     0.013 C 
ATOM     23  C   UNL A   1      30.227  25.341  25.728  1.00  0.00     0.013 C 
ENDBRANCH  11  20
ENDBRANCH   9  11
ENDBRANCH   8   9
ENDBRANCH   7   8
ENDBRANCH   6   7
ENDBRANCH   5   6
ENDBRANCH   4   5
ENDBRANCH   3   4
ENDBRANCH   2   3
ENDBRANCH   1   2
BRANCH   1  24
ATOM     24  C   UNL A   1      34.383  34.694  29.551  1.00  0.00     0.188 C 
BRANCH  24  25
ATOM     25  O   UNL A   1      33.641  34.123  30.609  1.00  0.00    -0.376 OA
BRANCH  25  26
ATOM     26  C   UNL A   1      34.040  34.486  31.924  1.00  0.00     0.202 C 
BRANCH  26  27
ATOM     27  C   UNL A   1      34.405  33.361  32.912  1.00  0.00     0.261 C 
BRANCH  27  28
ATOM     28  O   UNL A   1      35.280  32.328  32.425  1.00  0.00    -0.460 OA
BRANCH  28  29
ATOM     29  C   UNL A   1      36.385  32.081  33.160  1.00  0.00     0.338 C 
ATOM     30  O   UNL A   1      36.562  32.328  34.338  1.00  0.00    -0.246 OA
BRANCH  29  31
ATOM     31  C   UNL A   1      37.357  31.358  32.316  1.00  0.00     0.060 A 
ATOM     32  C   UNL A   1      38.382  30.631  32.930  1.00  0.00     0.016 A 
ATOM     33  C   UNL A   1      37.296  31.458  30.925  1.00  0.00     0.016 A 
ATOM     34  C   UNL A   1      39.345  29.985  32.154  1.00  0.00     0.010 A 
ATOM     35  C   UNL A   1      38.282  30.841  30.147  1.00  0.00     0.010 A 
ATOM     36  C   UNL A   1      39.322  30.118  30.760  1.00  0.00    -0.014 A 
BRANCH  36  37
ATOM     37  C   UNL A   1      40.495  29.677  29.968  1.00  0.00     0.031 A 
ATOM     38  C   UNL A   1      41.598  30.665  29.711  1.00  0.00     0.074 A 
ATOM     39  C   UNL A   1      40.598  28.418  29.506  1.00  0.00     0.049 A 
ATOM     40  N   UNL A   1      42.707  30.524  29.031  1.00  0.00    -0.248 NA
ATOM     41  C   UNL A   1      41.420  31.998  30.305  1.00  0.00     0.031 C 
ATOM     42  C   UNL A   1      39.627  27.353  29.736  1.00  0.00     0.029 A 
ATOM     43  N   UNL A   1      41.575  27.829  28.741  1.00  0.00    -0.354 N 
ATOM     44  C   UNL A   1      43.354  31.750  29.108  1.00  0.00     0.074 A 
ATOM     45  C   UNL A   1      42.499  32.632  29.873  1.00  0.00     0.031 C 
ATOM     46  C   UNL A   1      40.054  26.236  29.120  1.00  0.00     0.029 A 
ATOM     47  C   UNL A   1      41.310  26.520  28.426  1.00  0.00     0.049 A 
ATOM     48  H   UNL A   1      42.388  28.301  28.448  1.00  0.00     0.167 HD
ATOM     49  C   UNL A   1      44.553  32.108  28.590  1.00  0.00     0.037 A 
ATOM     50  C   UNL A   1      41.998  25.659  27.649  1.00  0.00     0.037 A 
ATOM     51  C   UNL A   1      45.392  31.230  27.817  1.00  0.00     0.049 A 
ATOM     52  C   UNL A   1      43.284  26.108  27.001  1.00  0.00     0.074 A 
ATOM     53  C   UNL A   1      46.635  31.489  27.266  1.00  0.00     0.029 A 
ATOM     54  N   UNL A   1      45.063  29.929  27.466  1.00  0.00    -0.354 N 
ATOM     55  N   UNL A   1      43.907  27.257  27.103  1.00  0.00    -0.248 NA
ATOM     56  C   UNL A   1      43.962  25.137  26.131  1.00  0.00     0.031 C 
ATOM     57  C   UNL A   1      47.022  30.370  26.519  1.00  0.00     0.029 A 
ATOM     58  C   UNL A   1      46.059  29.385  26.670  1.00  0.00     0.049 A 
ATOM     59  H   UNL A   1      44.242  29.460  27.742  1.00  0.00     0.167 HD
ATOM     60  C   UNL A   1      45.066  27.135  26.343  1.00  0.00     0.074 A 
ATOM     61  C   UNL A   1      45.060  25.796  25.792  1.00  0.00     0.031 C 
ATOM     62  C   UNL A   1      46.046  28.047  26.128  1.00  0.00     0.037 A 
BRANCH  49  63
ATOM     63  C   UNL A   1      44.996  33.529  28.802  1.00  0.00     0.064 A 
ATOM     64  C   UNL A   1      44.741  34.537  27.859  1.00  0.00     0.173 A 
ATOM     65  C   UNL A   1      45.696  33.884  29.964  1.00  0.00     0.173 A 
ATOM     66  F   UNL A   1      44.087  34.251  26.723  1.00  0.00    -0.203 F 
ATOM     67  C   UNL A   1      45.213  35.834  28.050  1.00  0.00     0.198 A 
ATOM     68  C   UNL A   1      46.134  35.189  30.170  1.00  0.00     0.198 A 
ATOM     69  F   UNL A   1      45.964  32.961  30.901  1.00  0.00    -0.203 F 
ATOM     70  F   UNL A   1      45.021  36.762  27.103  1.00  0.00    -0.200 F 
ATOM     71  C   UNL A   1      45.904  36.160  29.207  1.00  0.00     0.200 A 
ATOM     72  F   UNL A   1      46.788  35.505  31.296  1.00  0.00    -0.200 F 
ATOM     73  F   UNL A   1      46.361  37.407  29.389  1.00  0.00    -0.200 F 
ENDBRANCH  49  63
BRANCH  50  74
ATOM     74  C   UNL A   1      41.489  24.276  27.447  1.00  0.00     0.064 A 
ATOM     75  C   UNL A   1      40.355  24.035  26.658  1.00  0.00     0.173 A 
ATOM     76  C   UNL A   1      42.118  23.171  28.038  1.00  0.00     0.173 A 
ATOM     77  F   UNL A   1      39.702  25.061  26.094  1.00  0.00    -0.203 F 
ATOM     78  C   UNL A   1      39.866  22.743  26.474  1.00  0.00     0.198 A 
ATOM     79  C   UNL A   1      41.646  21.876  27.831  1.00  0.00     0.198 A 
ATOM     80  F   UNL A   1      43.203  23.347  28.807  1.00  0.00    -0.203 F 
ATOM     81  F   UNL A   1      38.759  22.546  25.747  1.00  0.00    -0.200 F 
ATOM     82  C   UNL A   1      40.517  21.664  27.054  1.00  0.00     0.200 A 
ATOM     83  F   UNL A   1      42.284  20.836  28.382  1.00  0.00    -0.200 F 
ATOM     84  F   UNL A   1      40.053  20.420  26.869  1.00  0.00    -0.200 F 
ENDBRANCH  50  74
BRANCH  62  85
ATOM     85  C   UNL A   1      47.226  27.621  25.298  1.00  0.00     0.064 A 
ATOM     86  C   UNL A   1      48.335  26.968  25.860  1.00  0.00     0.173 A 
ATOM     87  C   UNL A   1      47.226  27.827  23.909  1.00  0.00     0.173 A 
ATOM     88  F   UNL A   1      48.393  26.756  27.184  1.00  0.00    -0.203 F 
ATOM     89  C   UNL A   1      49.408  26.566  25.068  1.00  0.00     0.198 A 
ATOM     90  C   UNL A   1      48.283  27.390  23.115  1.00  0.00     0.198 A 
ATOM     91  F   UNL A   1      46.189  28.438  23.316  1.00  0.00    -0.203 F 
ATOM     92  F   UNL A   1      50.478  25.992  25.635  1.00  0.00    -0.200 F 
ATOM     93  C   UNL A   1      49.377  26.768  23.696  1.00  0.00     0.200 A 
ATOM     94  F   UNL A   1      48.242  27.570  21.788  1.00  0.00    -0.200 F 
ATOM     95  F   UNL A   1      50.405  26.369  22.935  1.00  0.00    -0.200 F 
ENDBRANCH  62  85
ENDBRANCH  36  37
ENDBRANCH  29  31
ENDBRANCH  28  29
ENDBRANCH  27  28
ENDBRANCH  26  27
ENDBRANCH  25  26
ENDBRANCH  24  25
ENDBRANCH   1  24
TORSDOF 22
ENDMDL
MODEL 2
REMARK VINA RESULT:      -9.9      3.447      8.823
REMARK SMILES C[C@H]1CN([C@@H](C(=O)OCCOCCOCCOCCOC(=O)c2ccc(-c3c4nc(c(-c5c(F)c(F)c(F)c(F)c5F)c5ccc([nH]5)c(-c5c(F)c(F)c(F)c(F)c5F)c5nc(c(-c6c(F)c(F)c(F)c(F)c6F)c6ccc3[nH]6)C=C5)C=C4)cc2)C(C)(C)C)S(=O)(=O)C1
REMARK SMILES IDX 15 1 14 2 13 3 12 4 11 5 10 6 9 7 8 8 6 9 7 10 5 11 4 12
REMARK SMILES IDX 1 13 2 14 3 15 93 16 90 17 91 18 92 19 86 20 87 21 88 22
REMARK SMILES IDX 89 23 16 24 17 25 18 26 19 27 20 28 21 29 22 30 23 31 24 32
REMARK SMILES IDX 85 33 25 34 84 35 26 36 27 37 28 38 78 39 29 40 83 41 77 42
REMARK SMILES IDX 79 43 30 44 82 45 76 46 75 47 31 49 63 50 43 51 62 52 44 53
REMARK SMILES IDX 47 54 61 55 80 56 45 57 46 58 60 60 81 61 48 62 32 63 33 64
REMARK SMILES IDX 41 65 34 66 35 67 39 68 42 69 36 70 37 71 40 72 38 73 64 74
REMARK SMILES IDX 65 75 73 76 66 77 67 78 71 79 74 80 68 81 69 82 72 83 70 84
REMARK SMILES IDX 49 85 50 86 58 87 51 88 52 89 56 90 59 91 53 92 54 93 57 94
REMARK SMILES IDX 55 95
REMARK H PARENT 79 48 47 59
REMARK Flexibility Score: inf
ROOT
ATOM      1  C   UNL A   1      35.988  22.375  24.324  1.00  0.00     0.188 C 
ENDROOT
BRANCH   1   2
ATOM      2  O   UNL A   1      35.066  22.248  25.386  1.00  0.00    -0.377 OA
BRANCH   2   3
ATOM      3  C   UNL A   1      34.307  21.060  25.521  1.00  0.00     0.188 C 
BRANCH   3   4
ATOM      4  C   UNL A   1      32.814  21.121  25.873  1.00  0.00     0.188 C 
BRANCH   4   5
ATOM      5  O   UNL A   1      31.866  21.863  25.107  1.00  0.00    -0.376 OA
BRANCH   5   6
ATOM      6  C   UNL A   1      30.844  22.580  25.767  1.00  0.00     0.202 C 
BRANCH   6   7
ATOM      7  C   UNL A   1      31.333  23.478  26.907  1.00  0.00     0.261 C 
BRANCH   7   8
ATOM      8  O   UNL A   1      31.737  24.789  26.471  1.00  0.00    -0.462 OA
BRANCH   8   9
ATOM      9  C   UNL A   1      30.750  25.685  26.186  1.00  0.00     0.325 C 
ATOM     10  O   UNL A   1      29.588  25.489  26.525  1.00  0.00    -0.250 OA
BRANCH   9  11
ATOM     11  C   UNL A   1      31.211  26.893  25.280  1.00  0.00     0.188 C 
BRANCH  11  12
ATOM     12  N   UNL A   1      31.703  26.425  23.908  1.00  0.00    -0.187 NA
ATOM     13  C   UNL A   1      33.213  23.872  22.434  1.00  0.00     0.010 C 
ATOM     14  C   UNL A   1      31.944  24.698  22.201  1.00  0.00     0.017 C 
ATOM     15  C   UNL A   1      31.200  25.084  23.499  1.00  0.00     0.107 C 
ATOM     16  C   UNL A   1      32.240  25.981  21.421  1.00  0.00     0.159 C 
ATOM     17  S   UNL A   1      31.871  27.346  22.502  1.00  0.00     0.215 S 
ATOM     18  O   UNL A   1      30.568  27.844  22.112  1.00  0.00    -0.212 OA
ATOM     19  O   UNL A   1      33.037  28.186  22.582  1.00  0.00    -0.212 OA
ENDBRANCH  11  12
BRANCH  11  20
ATOM     20  C   UNL A   1      32.030  28.020  26.070  1.00  0.00    -0.011 C 
ATOM     21  C   UNL A   1      31.648  29.408  25.504  1.00  0.00     0.013 C 
ATOM     22  C   UNL A   1      31.639  28.097  27.573  1.00  0.00     0.013 C 
ATOM     23  C   UNL A   1      33.564  27.912  26.075  1.00  0.00     0.013 C 
ENDBRANCH  11  20
ENDBRANCH   9  11
ENDBRANCH   8   9
ENDBRANCH   7   8
ENDBRANCH   6   7
ENDBRANCH   5   6
ENDBRANCH   4   5
ENDBRANCH   3   4
ENDBRANCH   2   3
ENDBRANCH   1   2
BRANCH   1  24
ATOM     24  C   UNL A   1      37.402  21.787  24.426  1.00  0.00     0.188 C 
BRANCH  24  25
ATOM     25  O   UNL A   1      37.858  21.602  25.750  1.00  0.00    -0.376 OA
BRANCH  25  26
ATOM     26  C   UNL A   1      39.232  21.270  25.901  1.00  0.00     0.202 C 
BRANCH  26  27
ATOM     27  C   UNL A   1      39.665  19.816  25.629  1.00  0.00     0.261 C 
BRANCH  27  28
ATOM     28  O   UNL A   1      40.572  19.220  26.571  1.00  0.00    -0.460 OA
BRANCH  28  29
ATOM     29  C   UNL A   1      41.875  19.194  26.219  1.00  0.00     0.338 C 
ATOM     30  O   UNL A   1      42.483  18.277  25.697  1.00  0.00    -0.246 OA
BRANCH  29  31
ATOM     31  C   UNL A   1      42.461  20.522  26.487  1.00  0.00     0.060 A 
ATOM     32  C   UNL A   1      42.462  21.012  27.797  1.00  0.00     0.016 A 
ATOM     33  C   UNL A   1      42.941  21.307  25.438  1.00  0.00     0.016 A 
ATOM     34  C   UNL A   1      42.960  22.287  28.068  1.00  0.00     0.010 A 
ATOM     35  C   UNL A   1      43.407  22.600  25.704  1.00  0.00     0.010 A 
ATOM     36  C   UNL A   1      43.399  23.102  27.017  1.00  0.00    -0.014 A 
BRANCH  36  37
ATOM     37  C   UNL A   1      43.654  24.541  27.271  1.00  0.00     0.031 A 
ATOM     38  C   UNL A   1      45.032  25.080  27.009  1.00  0.00     0.074 A 
ATOM     39  C   UNL A   1      42.679  25.362  27.699  1.00  0.00     0.049 A 
ATOM     40  N   UNL A   1      45.502  26.290  27.174  1.00  0.00    -0.248 NA
ATOM     41  C   UNL A   1      46.013  24.117  26.488  1.00  0.00     0.031 C 
ATOM     42  C   UNL A   1      41.291  24.975  27.935  1.00  0.00     0.029 A 
ATOM     43  N   UNL A   1      42.718  26.698  28.015  1.00  0.00    -0.354 N 
ATOM     44  C   UNL A   1      46.834  26.231  26.787  1.00  0.00     0.074 A 
ATOM     45  C   UNL A   1      47.105  24.861  26.409  1.00  0.00     0.031 C 
ATOM     46  C   UNL A   1      40.608  26.050  28.363  1.00  0.00     0.029 A 
ATOM     47  C   UNL A   1      41.518  27.191  28.464  1.00  0.00     0.049 A 
ATOM     48  H   UNL A   1      43.528  27.250  27.926  1.00  0.00     0.167 HD
ATOM     49  C   UNL A   1      47.749  27.230  26.748  1.00  0.00     0.037 A 
ATOM     50  C   UNL A   1      41.202  28.419  28.921  1.00  0.00     0.037 A 
ATOM     51  C   UNL A   1      47.478  28.588  27.140  1.00  0.00     0.049 A 
ATOM     52  C   UNL A   1      42.261  29.492  28.961  1.00  0.00     0.074 A 
ATOM     53  C   UNL A   1      48.329  29.679  27.117  1.00  0.00     0.029 A 
ATOM     54  N   UNL A   1      46.267  29.037  27.648  1.00  0.00    -0.354 N 
ATOM     55  N   UNL A   1      43.510  29.441  28.564  1.00  0.00    -0.248 NA
ATOM     56  C   UNL A   1      41.863  30.796  29.511  1.00  0.00     0.031 C 
ATOM     57  C   UNL A   1      47.656  30.769  27.681  1.00  0.00     0.029 A 
ATOM     58  C   UNL A   1      46.360  30.379  27.983  1.00  0.00     0.049 A 
ATOM     59  H   UNL A   1      45.459  28.483  27.755  1.00  0.00     0.167 HD
ATOM     60  C   UNL A   1      44.035  30.710  28.782  1.00  0.00     0.074 A 
ATOM     61  C   UNL A   1      42.965  31.511  29.339  1.00  0.00     0.031 C 
ATOM     62  C   UNL A   1      45.287  31.170  28.534  1.00  0.00     0.037 A 
BRANCH  49  63
ATOM     63  C   UNL A   1      49.142  26.868  26.315  1.00  0.00     0.064 A 
ATOM     64  C   UNL A   1      50.108  26.403  27.222  1.00  0.00     0.173 A 
ATOM     65  C   UNL A   1      49.520  27.000  24.971  1.00  0.00     0.173 A 
ATOM     66  F   UNL A   1      49.805  26.271  28.523  1.00  0.00    -0.203 F 
ATOM     67  C   UNL A   1      51.409  26.131  26.807  1.00  0.00     0.198 A 
ATOM     68  C   UNL A   1      50.811  26.690  24.552  1.00  0.00     0.198 A 
ATOM     69  F   UNL A   1      48.637  27.436  24.059  1.00  0.00    -0.203 F 
ATOM     70  F   UNL A   1      52.333  25.759  27.704  1.00  0.00    -0.200 F 
ATOM     71  C   UNL A   1      51.758  26.270  25.473  1.00  0.00     0.200 A 
ATOM     72  F   UNL A   1      51.141  26.810  23.259  1.00  0.00    -0.200 F 
ATOM     73  F   UNL A   1      53.012  26.011  25.075  1.00  0.00    -0.200 F 
ENDBRANCH  49  63
BRANCH  50  74
ATOM     74  C   UNL A   1      39.813  28.706  29.372  1.00  0.00     0.064 A 
ATOM     75  C   UNL A   1      38.856  29.209  28.480  1.00  0.00     0.173 A 
ATOM     76  C   UNL A   1      39.416  28.488  30.699  1.00  0.00     0.173 A 
ATOM     77  F   UNL A   1      39.195  29.460  27.206  1.00  0.00    -0.203 F 
ATOM     78  C   UNL A   1      37.557  29.491  28.899  1.00  0.00     0.198 A 
ATOM     79  C   UNL A   1      38.109  28.742  31.111  1.00  0.00     0.198 A 
ATOM     80  F   UNL A   1      40.294  28.013  31.595  1.00  0.00    -0.203 F 
ATOM     81  F   UNL A   1      36.674  30.007  28.034  1.00  0.00    -0.200 F 
ATOM     82  C   UNL A   1      37.183  29.249  30.212  1.00  0.00     0.200 A 
ATOM     83  F   UNL A   1      37.748  28.496  32.377  1.00  0.00    -0.200 F 
ATOM     84  F   UNL A   1      35.931  29.511  30.613  1.00  0.00    -0.200 F 
ENDBRANCH  50  74
BRANCH  62  85
ATOM     85  C   UNL A   1      45.566  32.621  28.819  1.00  0.00     0.064 A 
ATOM     86  C   UNL A   1      45.285  33.630  27.885  1.00  0.00     0.173 A 
ATOM     87  C   UNL A   1      46.079  33.012  30.067  1.00  0.00     0.173 A 
ATOM     88  F   UNL A   1      44.804  33.313  26.672  1.00  0.00    -0.203 F 
ATOM     89  C   UNL A   1      45.534  34.969  28.178  1.00  0.00     0.198 A 
ATOM     90  C   UNL A   1      46.292  34.353  30.370  1.00  0.00     0.198 A 
ATOM     91  F   UNL A   1      46.358  32.091  31.001  1.00  0.00    -0.203 F 
ATOM     92  F   UNL A   1      45.308  35.909  27.250  1.00  0.00    -0.200 F 
ATOM     93  C   UNL A   1      46.028  35.331  29.422  1.00  0.00     0.200 A 
ATOM     94  F   UNL A   1      46.752  34.701  31.580  1.00  0.00    -0.200 F 
ATOM     95  F   UNL A   1      46.257  36.620  29.707  1.00  0.00    -0.200 F 
ENDBRANCH  62  85
ENDBRANCH  36  37
ENDBRANCH  29  31
ENDBRANCH  28  29
ENDBRANCH  27  28
ENDBRANCH  26  27
ENDBRANCH  25  26
ENDBRANCH  24  25
ENDBRANCH   1  24
TORSDOF 22
ENDMDL
MODEL 3
REMARK VINA RESULT:      -9.6      5.418     10.806
REMARK SMILES C[C@H]1CN([C@@H](C(=O)OCCOCCOCCOCCOC(=O)c2ccc(-c3c4nc(c(-c5c(F)c(F)c(F)c(F)c5F)c5ccc([nH]5)c(-c5c(F)c(F)c(F)c(F)c5F)c5nc(c(-c6c(F)c(F)c(F)c(F)c6F)c6ccc3[nH]6)C=C5)C=C4)cc2)C(C)(C)C)S(=O)(=O)C1
REMARK SMILES IDX 15 1 14 2 13 3 12 4 11 5 10 6 9 7 8 8 6 9 7 10 5 11 4 12
REMARK SMILES IDX 1 13 2 14 3 15 93 16 90 17 91 18 92 19 86 20 87 21 88 22
REMARK SMILES IDX 89 23 16 24 17 25 18 26 19 27 20 28 21 29 22 30 23 31 24 32
REMARK SMILES IDX 85 33 25 34 84 35 26 36 27 37 28 38 78 39 29 40 83 41 77 42
REMARK SMILES IDX 79 43 30 44 82 45 76 46 75 47 31 49 63 50 43 51 62 52 44 53
REMARK SMILES IDX 47 54 61 55 80 56 45 57 46 58 60 60 81 61 48 62 32 63 33 64
REMARK SMILES IDX 41 65 34 66 35 67 39 68 42 69 36 70 37 71 40 72 38 73 64 74
REMARK SMILES IDX 65 75 73 76 66 77 67 78 71 79 74 80 68 81 69 82 72 83 70 84
REMARK SMILES IDX 49 85 50 86 58 87 51 88 52 89 56 90 59 91 53 92 54 93 57 94
REMARK SMILES IDX 55 95
REMARK H PARENT 79 48 47 59
REMARK Flexibility Score: inf
ROOT
ATOM      1  C   UNL A   1      42.845  18.955  25.836  1.00  0.00     0.188 C 
ENDROOT
BRANCH   1   2
ATOM      2  O   UNL A   1      41.916  19.915  25.378  1.00  0.00    -0.377 OA
BRANCH   2   3
ATOM      3  C   UNL A   1      40.699  20.105  26.076  1.00  0.00     0.188 C 
BRANCH   3   4
ATOM      4  C   UNL A   1      40.060  21.498  26.170  1.00  0.00     0.188 C 
BRANCH   4   5
ATOM      5  O   UNL A   1      38.649  21.702  26.218  1.00  0.00    -0.376 OA
BRANCH   5   6
ATOM      6  C   UNL A   1      37.869  21.450  25.068  1.00  0.00     0.202 C 
BRANCH   6   7
ATOM      7  C   UNL A   1      36.494  22.124  25.072  1.00  0.00     0.261 C 
BRANCH   7   8
ATOM      8  O   UNL A   1      35.762  21.924  26.295  1.00  0.00    -0.462 OA
BRANCH   8   9
ATOM      9  C   UNL A   1      34.541  22.521  26.398  1.00  0.00     0.325 C 
ATOM     10  O   UNL A   1      34.053  22.803  27.488  1.00  0.00    -0.250 OA
BRANCH   9  11
ATOM     11  C   UNL A   1      33.777  22.678  25.025  1.00  0.00     0.188 C 
BRANCH  11  12
ATOM     12  N   UNL A   1      33.414  24.137  24.734  1.00  0.00    -0.187 NA
ATOM     13  C   UNL A   1      32.694  26.979  26.276  1.00  0.00     0.010 C 
ATOM     14  C   UNL A   1      33.656  26.525  25.173  1.00  0.00     0.017 C 
ATOM     15  C   UNL A   1      34.282  25.134  25.421  1.00  0.00     0.107 C 
ATOM     16  C   UNL A   1      32.976  26.505  23.803  1.00  0.00     0.159 C 
ATOM     17  S   UNL A   1      32.949  24.811  23.258  1.00  0.00     0.215 S 
ATOM     18  O   UNL A   1      34.037  24.661  22.314  1.00  0.00    -0.212 OA
ATOM     19  O   UNL A   1      31.589  24.459  22.945  1.00  0.00    -0.212 OA
ENDBRANCH  11  12
BRANCH  11  20
ATOM     20  C   UNL A   1      32.699  21.527  24.747  1.00  0.00    -0.011 C 
ATOM     21  C   UNL A   1      31.348  21.940  25.378  1.00  0.00     0.013 C 
ATOM     22  C   UNL A   1      32.382  21.361  23.234  1.00  0.00     0.013 C 
ATOM     23  C   UNL A   1      33.036  20.105  25.228  1.00  0.00     0.013 C 
ENDBRANCH  11  20
ENDBRANCH   9  11
ENDBRANCH   8   9
ENDBRANCH   7   8
ENDBRANCH   6   7
ENDBRANCH   5   6
ENDBRANCH   4   5
ENDBRANCH   3   4
ENDBRANCH   2   3
ENDBRANCH   1   2
BRANCH   1  24
ATOM     24  C   UNL A   1      44.253  18.864  25.235  1.00  0.00     0.188 C 
BRANCH  24  25
ATOM     25  O   UNL A   1      45.150  19.848  25.708  1.00  0.00    -0.376 OA
BRANCH  25  26
ATOM     26  C   UNL A   1      45.867  20.575  24.718  1.00  0.00     0.202 C 
BRANCH  26  27
ATOM     27  C   UNL A   1      45.446  22.029  24.434  1.00  0.00     0.261 C 
BRANCH  27  28
ATOM     28  O   UNL A   1      45.003  22.809  25.558  1.00  0.00    -0.460 OA
BRANCH  28  29
ATOM     29  C   UNL A   1      43.754  23.316  25.484  1.00  0.00     0.338 C 
ATOM     30  O   UNL A   1      42.899  23.063  24.654  1.00  0.00    -0.246 OA
BRANCH  29  31
ATOM     31  C   UNL A   1      43.533  24.193  26.650  1.00  0.00     0.060 A 
ATOM     32  C   UNL A   1      42.660  23.775  27.660  1.00  0.00     0.016 A 
ATOM     33  C   UNL A   1      44.131  25.454  26.710  1.00  0.00     0.016 A 
ATOM     34  C   UNL A   1      42.392  24.609  28.746  1.00  0.00     0.010 A 
ATOM     35  C   UNL A   1      43.835  26.305  27.780  1.00  0.00     0.010 A 
ATOM     36  C   UNL A   1      42.949  25.894  28.792  1.00  0.00    -0.014 A 
BRANCH  36  37
ATOM     37  C   UNL A   1      42.441  26.870  29.785  1.00  0.00     0.031 A 
ATOM     38  C   UNL A   1      43.177  27.013  31.088  1.00  0.00     0.074 A 
ATOM     39  C   UNL A   1      41.365  27.636  29.532  1.00  0.00     0.049 A 
ATOM     40  N   UNL A   1      42.916  27.779  32.117  1.00  0.00    -0.248 NA
ATOM     41  C   UNL A   1      44.374  26.174  31.248  1.00  0.00     0.031 C 
ATOM     42  C   UNL A   1      40.601  27.633  28.288  1.00  0.00     0.029 A 
ATOM     43  N   UNL A   1      40.731  28.565  30.320  1.00  0.00    -0.354 N 
ATOM     44  C   UNL A   1      43.909  27.506  33.049  1.00  0.00     0.074 A 
ATOM     45  C   UNL A   1      44.758  26.484  32.476  1.00  0.00     0.031 C 
ATOM     46  C   UNL A   1      39.594  28.517  28.396  1.00  0.00     0.029 A 
ATOM     47  C   UNL A   1      39.624  29.121  29.728  1.00  0.00     0.049 A 
ATOM     48  H   UNL A   1      41.040  28.810  31.222  1.00  0.00     0.167 HD
ATOM     49  C   UNL A   1      44.097  28.061  34.270  1.00  0.00     0.037 A 
ATOM     50  C   UNL A   1      38.730  30.004  30.219  1.00  0.00     0.037 A 
ATOM     51  C   UNL A   1      43.240  29.067  34.841  1.00  0.00     0.049 A 
ATOM     52  C   UNL A   1      38.903  30.535  31.619  1.00  0.00     0.074 A 
ATOM     53  C   UNL A   1      43.356  29.708  36.062  1.00  0.00     0.029 A 
ATOM     54  N   UNL A   1      42.093  29.561  34.238  1.00  0.00    -0.354 N 
ATOM     55  N   UNL A   1      39.860  30.300  32.484  1.00  0.00    -0.248 NA
ATOM     56  C   UNL A   1      37.870  31.459  32.109  1.00  0.00     0.031 C 
ATOM     57  C   UNL A   1      42.239  30.535  36.228  1.00  0.00     0.029 A 
ATOM     58  C   UNL A   1      41.468  30.470  35.078  1.00  0.00     0.049 A 
ATOM     59  H   UNL A   1      41.770  29.306  33.343  1.00  0.00     0.167 HD
ATOM     60  C   UNL A   1      39.567  31.072  33.603  1.00  0.00     0.074 A 
ATOM     61  C   UNL A   1      38.345  31.788  33.303  1.00  0.00     0.031 C 
ATOM     62  C   UNL A   1      40.251  31.182  34.769  1.00  0.00     0.037 A 
BRANCH  49  63
ATOM     63  C   UNL A   1      45.247  27.544  35.089  1.00  0.00     0.064 A 
ATOM     64  C   UNL A   1      46.492  28.192  35.119  1.00  0.00     0.173 A 
ATOM     65  C   UNL A   1      45.103  26.373  35.848  1.00  0.00     0.173 A 
ATOM     66  F   UNL A   1      46.690  29.308  34.400  1.00  0.00    -0.203 F 
ATOM     67  C   UNL A   1      47.561  27.661  35.838  1.00  0.00     0.198 A 
ATOM     68  C   UNL A   1      46.161  25.865  36.596  1.00  0.00     0.198 A 
ATOM     69  F   UNL A   1      43.934  25.714  35.860  1.00  0.00    -0.203 F 
ATOM     70  F   UNL A   1      48.760  28.257  35.791  1.00  0.00    -0.200 F 
ATOM     71  C   UNL A   1      47.393  26.502  36.579  1.00  0.00     0.200 A 
ATOM     72  F   UNL A   1      45.992  24.754  37.324  1.00  0.00    -0.200 F 
ATOM     73  F   UNL A   1      48.423  25.989  37.268  1.00  0.00    -0.200 F 
ENDBRANCH  49  63
BRANCH  50  74
ATOM     74  C   UNL A   1      37.590  30.449  29.373  1.00  0.00     0.064 A 
ATOM     75  C   UNL A   1      37.548  31.747  28.845  1.00  0.00     0.173 A 
ATOM     76  C   UNL A   1      36.519  29.592  29.079  1.00  0.00     0.173 A 
ATOM     77  F   UNL A   1      38.535  32.613  29.121  1.00  0.00    -0.203 F 
ATOM     78  C   UNL A   1      36.477  32.173  28.063  1.00  0.00     0.198 A 
ATOM     79  C   UNL A   1      35.462  30.009  28.272  1.00  0.00     0.198 A 
ATOM     80  F   UNL A   1      36.506  28.341  29.563  1.00  0.00    -0.203 F 
ATOM     81  F   UNL A   1      36.445  33.431  27.604  1.00  0.00    -0.200 F 
ATOM     82  C   UNL A   1      35.439  31.301  27.770  1.00  0.00     0.200 A 
ATOM     83  F   UNL A   1      34.468  29.160  27.982  1.00  0.00    -0.200 F 
ATOM     84  F   UNL A   1      34.414  31.708  27.009  1.00  0.00    -0.200 F 
ENDBRANCH  50  74
BRANCH  62  85
ATOM     85  C   UNL A   1      39.727  32.146  35.798  1.00  0.00     0.064 A 
ATOM     86  C   UNL A   1      40.201  33.463  35.894  1.00  0.00     0.173 A 
ATOM     87  C   UNL A   1      38.698  31.757  36.672  1.00  0.00     0.173 A 
ATOM     88  F   UNL A   1      41.192  33.884  35.092  1.00  0.00    -0.203 F 
ATOM     89  C   UNL A   1      39.687  34.344  36.844  1.00  0.00     0.198 A 
ATOM     90  C   UNL A   1      38.160  32.651  37.594  1.00  0.00     0.198 A 
ATOM     91  F   UNL A   1      38.200  30.513  36.619  1.00  0.00    -0.203 F 
ATOM     92  F   UNL A   1      40.193  35.579  36.951  1.00  0.00    -0.200 F 
ATOM     93  C   UNL A   1      38.661  33.940  37.686  1.00  0.00     0.200 A 
ATOM     94  F   UNL A   1      37.157  32.264  38.393  1.00  0.00    -0.200 F 
ATOM     95  F   UNL A   1      38.160  34.792  38.590  1.00  0.00    -0.200 F 
ENDBRANCH  62  85
ENDBRANCH  36  37
ENDBRANCH  29  31
ENDBRANCH  28  29
ENDBRANCH  27  28
ENDBRANCH  26  27
ENDBRANCH  25  26
ENDBRANCH  24  25
ENDBRANCH   1  24
TORSDOF 22
ENDMDL
