MODEL 1
REMARK VINA RESULT:     -11.0      0.000      0.000
REMARK SMILES Cc1ccnc(C(=O)c2[nH]c3ccc(C(C)(C)C)cc3c2CC(=O)OCCOCCOCCOCCOC(=O)c2ccc(-c3c4nc(c(-c5c(F)c(F)c(F)c(F)c5F)c5ccc([nH]5)c(-c5c(F)c(F)c(F)c(F)c5F)c5nc(c(-c6c(F)c(F)c(F)c(F)c6F)c6ccc3[nH]6)C=C5)C=C4)cc2)c1
REMARK SMILES IDX 30 1 29 2 28 3 27 4 26 5 25 6 23 7 24 8 22 9 21 10 9 11
REMARK SMILES IDX 10 12 11 13 20 15 12 16 19 17 13 18 14 19 7 20 8 21 6 22
REMARK SMILES IDX 1 23 2 24 3 25 103 26 4 27 5 28 15 29 16 30 17 31 18 32
REMARK SMILES IDX 31 33 32 34 33 35 34 36 35 37 36 38 37 39 38 40 39 41 40 42
REMARK SMILES IDX 41 43 102 44 42 45 101 46 43 47 44 48 45 49 95 50 46 51
REMARK SMILES IDX 100 52 94 53 96 54 47 55 99 56 93 57 92 58 48 60 80 61 60 62
REMARK SMILES IDX 79 63 61 64 64 65 78 66 97 67 62 68 63 69 77 71 98 72 65 73
REMARK SMILES IDX 49 74 50 75 58 76 51 77 52 78 56 79 59 80 53 81 54 82 57 83
REMARK SMILES IDX 55 84 81 85 82 86 90 87 83 88 84 89 88 90 91 91 85 92 86 93
REMARK SMILES IDX 89 94 87 95 66 96 67 97 75 98 68 99 69 100 73 101 76 102
REMARK SMILES IDX 70 103 71 104 74 105 72 106
REMARK H PARENT 10 14 96 59 64 70
REMARK Flexibility Score: inf
ROOT
ATOM      1  C   UNL A   1      40.147  23.319  27.804  1.00  0.00     0.188 C 
ENDROOT
BRANCH   1   2
ATOM      2  C   UNL A   1      39.496  24.178  26.721  1.00  0.00     0.188 C 
BRANCH   2   3
ATOM      3  O   UNL A   1      38.086  24.281  26.733  1.00  0.00    -0.376 OA
BRANCH   3   4
ATOM      4  C   UNL A   1      37.382  23.732  25.622  1.00  0.00     0.202 C 
BRANCH   4   5
ATOM      5  C   UNL A   1      35.845  23.600  25.661  1.00  0.00     0.261 C 
BRANCH   5   6
ATOM      6  O   UNL A   1      35.344  22.500  26.468  1.00  0.00    -0.463 OA
BRANCH   6   7
ATOM      7  C   UNL A   1      34.078  22.635  26.933  1.00  0.00     0.310 C 
ATOM      8  O   UNL A   1      33.673  22.037  27.931  1.00  0.00    -0.252 OA
BRANCH   7   9
ATOM      9  C   UNL A   1      33.160  23.619  26.227  1.00  0.00     0.161 C 
BRANCH   9  10
ATOM     10  C   UNL A   1      32.598  23.355  24.847  1.00  0.00     0.000 A 
ATOM     11  C   UNL A   1      31.596  24.067  24.163  1.00  0.00     0.093 A 
ATOM     12  N   UNL A   1      31.479  23.467  22.922  1.00  0.00    -0.352 N 
ATOM     13  C   UNL A   1      31.977  22.186  22.978  1.00  0.00     0.046 A 
ATOM     14  H   UNL A   1      31.097  23.892  22.121  1.00  0.00     0.167 HD
ATOM     15  C   UNL A   1      32.699  22.098  24.161  1.00  0.00     0.004 A 
ATOM     16  C   UNL A   1      31.819  21.100  22.110  1.00  0.00     0.027 A 
ATOM     17  C   UNL A   1      33.243  20.850  24.519  1.00  0.00     0.015 A 
ATOM     18  C   UNL A   1      32.305  19.853  22.536  1.00  0.00     0.006 A 
ATOM     19  C   UNL A   1      32.982  19.692  23.754  1.00  0.00    -0.042 A 
BRANCH  11  20
ATOM     20  C   UNL A   1      30.808  25.200  24.651  1.00  0.00     0.227 C 
ATOM     21  O   UNL A   1      29.887  25.065  25.459  1.00  0.00    -0.285 OA
BRANCH  20  22
ATOM     22  C   UNL A   1      31.017  26.586  24.147  1.00  0.00     0.113 A 
ATOM     23  C   UNL A   1      33.765  28.740  22.696  1.00  0.00     0.044 C 
ATOM     24  C   UNL A   1      32.421  28.240  23.132  1.00  0.00    -0.047 A 
ATOM     25  C   UNL A   1      31.262  28.893  22.702  1.00  0.00     0.023 A 
ATOM     26  C   UNL A   1      32.295  27.056  23.868  1.00  0.00     0.036 A 
ATOM     27  C   UNL A   1      30.031  28.366  23.052  1.00  0.00     0.112 A 
ATOM     28  N   UNL A   1      29.884  27.239  23.775  1.00  0.00    -0.253 NA
ENDBRANCH  20  22
ENDBRANCH  11  20
BRANCH  19  29
ATOM     29  C   UNL A   1      33.362  18.320  24.340  1.00  0.00    -0.013 C 
ATOM     30  C   UNL A   1      33.046  17.206  23.322  1.00  0.00     0.016 C 
ATOM     31  C   UNL A   1      34.879  18.314  24.649  1.00  0.00     0.016 C 
ATOM     32  C   UNL A   1      32.635  17.970  25.655  1.00  0.00     0.016 C 
ENDBRANCH  19  29
ENDBRANCH   9  10
ENDBRANCH   7   9
ENDBRANCH   6   7
ENDBRANCH   5   6
ENDBRANCH   4   5
ENDBRANCH   3   4
ENDBRANCH   2   3
ENDBRANCH   1   2
BRANCH   1  33
ATOM     33  O   UNL A   1      40.604  22.021  27.463  1.00  0.00    -0.377 OA
BRANCH  33  34
ATOM     34  C   UNL A   1      40.012  21.329  26.374  1.00  0.00     0.188 C 
BRANCH  34  35
ATOM     35  C   UNL A   1      40.445  19.887  26.113  1.00  0.00     0.188 C 
BRANCH  35  36
ATOM     36  O   UNL A   1      41.732  19.663  25.537  1.00  0.00    -0.376 OA
BRANCH  36  37
ATOM     37  C   UNL A   1      42.667  18.832  26.218  1.00  0.00     0.202 C 
BRANCH  37  38
ATOM     38  C   UNL A   1      43.823  18.344  25.352  1.00  0.00     0.261 C 
BRANCH  38  39
ATOM     39  O   UNL A   1      44.071  19.248  24.266  1.00  0.00    -0.460 OA
BRANCH  39  40
ATOM     40  C   UNL A   1      45.308  19.795  24.238  1.00  0.00     0.338 C 
ATOM     41  O   UNL A   1      46.324  19.324  23.758  1.00  0.00    -0.246 OA
BRANCH  40  42
ATOM     42  C   UNL A   1      45.218  21.174  24.747  1.00  0.00     0.060 A 
ATOM     43  C   UNL A   1      44.810  22.181  23.864  1.00  0.00     0.016 A 
ATOM     44  C   UNL A   1      45.547  21.474  26.070  1.00  0.00     0.016 A 
ATOM     45  C   UNL A   1      44.741  23.500  24.297  1.00  0.00     0.010 A 
ATOM     46  C   UNL A   1      45.501  22.799  26.499  1.00  0.00     0.010 A 
ATOM     47  C   UNL A   1      45.120  23.816  25.607  1.00  0.00    -0.014 A 
BRANCH  47  48
ATOM     48  C   UNL A   1      45.270  25.228  26.013  1.00  0.00     0.031 A 
ATOM     49  C   UNL A   1      46.632  25.851  25.932  1.00  0.00     0.074 A 
ATOM     50  C   UNL A   1      44.212  25.925  26.458  1.00  0.00     0.049 A 
ATOM     51  N   UNL A   1      47.034  27.025  26.342  1.00  0.00    -0.248 NA
ATOM     52  C   UNL A   1      47.688  25.035  25.307  1.00  0.00     0.031 C 
ATOM     53  C   UNL A   1      42.840  25.426  26.523  1.00  0.00     0.029 A 
ATOM     54  N   UNL A   1      44.135  27.198  26.961  1.00  0.00    -0.354 N 
ATOM     55  C   UNL A   1      48.388  27.083  26.040  1.00  0.00     0.074 A 
ATOM     56  C   UNL A   1      48.746  25.823  25.428  1.00  0.00     0.031 C 
ATOM     57  C   UNL A   1      42.057  26.379  27.059  1.00  0.00     0.029 A 
ATOM     58  C   UNL A   1      42.883  27.531  27.413  1.00  0.00     0.049 A 
ATOM     59  H   UNL A   1      44.903  27.814  26.993  1.00  0.00     0.167 HD
ATOM     60  C   UNL A   1      49.249  28.102  26.260  1.00  0.00     0.037 A 
ATOM     61  C   UNL A   1      42.470  28.628  28.076  1.00  0.00     0.037 A 
ATOM     62  C   UNL A   1      48.875  29.349  26.872  1.00  0.00     0.049 A 
ATOM     63  C   UNL A   1      43.475  29.708  28.392  1.00  0.00     0.074 A 
ATOM     64  C   UNL A   1      49.660  30.462  27.113  1.00  0.00     0.029 A 
ATOM     65  N   UNL A   1      47.607  29.639  27.353  1.00  0.00    -0.354 N 
ATOM     66  N   UNL A   1      44.747  29.777  28.077  1.00  0.00    -0.248 NA
ATOM     67  C   UNL A   1      42.987  30.861  29.162  1.00  0.00     0.031 C 
ATOM     68  C   UNL A   1      48.884  31.399  27.801  1.00  0.00     0.029 A 
ATOM     69  C   UNL A   1      47.598  30.899  27.930  1.00  0.00     0.049 A 
ATOM     70  H   UNL A   1      46.828  29.040  27.293  1.00  0.00     0.167 HD
ATOM     71  C   UNL A   1      45.204  30.985  28.585  1.00  0.00     0.074 A 
ATOM     72  C   UNL A   1      44.067  31.628  29.212  1.00  0.00     0.031 C 
ATOM     73  C   UNL A   1      46.450  31.518  28.545  1.00  0.00     0.037 A 
BRANCH  60  74
ATOM     74  C   UNL A   1      50.686  27.901  25.876  1.00  0.00     0.064 A 
ATOM     75  C   UNL A   1      51.662  27.540  26.816  1.00  0.00     0.173 A 
ATOM     76  C   UNL A   1      51.081  28.026  24.535  1.00  0.00     0.173 A 
ATOM     77  F   UNL A   1      51.341  27.424  28.113  1.00  0.00    -0.203 F 
ATOM     78  C   UNL A   1      52.984  27.327  26.429  1.00  0.00     0.198 A 
ATOM     79  C   UNL A   1      52.396  27.783  24.147  1.00  0.00     0.198 A 
ATOM     80  F   UNL A   1      50.186  28.371  23.596  1.00  0.00    -0.203 F 
ATOM     81  F   UNL A   1      53.908  27.021  27.350  1.00  0.00    -0.200 F 
ATOM     82  C   UNL A   1      53.347  27.439  25.095  1.00  0.00     0.200 A 
ATOM     83  F   UNL A   1      52.741  27.881  22.857  1.00  0.00    -0.200 F 
ATOM     84  F   UNL A   1      54.616  27.219  24.723  1.00  0.00    -0.200 F 
ENDBRANCH  60  74
BRANCH  61  85
ATOM     85  C   UNL A   1      41.055  28.754  28.517  1.00  0.00     0.064 A 
ATOM     86  C   UNL A   1      40.679  28.445  29.832  1.00  0.00     0.173 A 
ATOM     87  C   UNL A   1      40.044  29.147  27.626  1.00  0.00     0.173 A 
ATOM     88  F   UNL A   1      41.604  28.038  30.714  1.00  0.00    -0.203 F 
ATOM     89  C   UNL A   1      39.345  28.498  30.232  1.00  0.00     0.198 A 
ATOM     90  C   UNL A   1      38.715  29.233  28.036  1.00  0.00     0.198 A 
ATOM     91  F   UNL A   1      40.346  29.448  26.355  1.00  0.00    -0.203 F 
ATOM     92  F   UNL A   1      39.007  28.139  31.478  1.00  0.00    -0.200 F 
ATOM     93  C   UNL A   1      38.365  28.897  29.335  1.00  0.00     0.200 A 
ATOM     94  F   UNL A   1      37.773  29.629  27.169  1.00  0.00    -0.200 F 
ATOM     95  F   UNL A   1      37.082  28.944  29.719  1.00  0.00    -0.200 F 
ENDBRANCH  61  85
BRANCH  73  96
ATOM     96  C   UNL A   1      46.644  32.869  29.170  1.00  0.00     0.064 A 
ATOM     97  C   UNL A   1      47.057  33.009  30.503  1.00  0.00     0.173 A 
ATOM     98  C   UNL A   1      46.463  34.037  28.412  1.00  0.00     0.173 A 
ATOM     99  F   UNL A   1      47.229  31.925  31.274  1.00  0.00    -0.203 F 
ATOM    100  C   UNL A   1      47.255  34.269  31.061  1.00  0.00     0.198 A 
ATOM    101  C   UNL A   1      46.697  35.293  28.963  1.00  0.00     0.198 A 
ATOM    102  F   UNL A   1      46.079  33.956  27.129  1.00  0.00    -0.203 F 
ATOM    103  F   UNL A   1      47.599  34.381  32.352  1.00  0.00    -0.200 F 
ATOM    104  C   UNL A   1      47.084  35.408  30.289  1.00  0.00     0.200 A 
ATOM    105  F   UNL A   1      46.550  36.391  28.209  1.00  0.00    -0.200 F 
ATOM    106  F   UNL A   1      47.288  36.620  30.825  1.00  0.00    -0.200 F 
ENDBRANCH  73  96
ENDBRANCH  47  48
ENDBRANCH  40  42
ENDBRANCH  39  40
ENDBRANCH  38  39
ENDBRANCH  37  38
ENDBRANCH  36  37
ENDBRANCH  35  36
ENDBRANCH  34  35
ENDBRANCH  33  34
ENDBRANCH   1  33
TORSDOF 24
ENDMDL
MODEL 2
REMARK VINA RESULT:     -11.0      5.055      9.281
REMARK SMILES Cc1ccnc(C(=O)c2[nH]c3ccc(C(C)(C)C)cc3c2CC(=O)OCCOCCOCCOCCOC(=O)c2ccc(-c3c4nc(c(-c5c(F)c(F)c(F)c(F)c5F)c5ccc([nH]5)c(-c5c(F)c(F)c(F)c(F)c5F)c5nc(c(-c6c(F)c(F)c(F)c(F)c6F)c6ccc3[nH]6)C=C5)C=C4)cc2)c1
REMARK SMILES IDX 30 1 29 2 28 3 27 4 26 5 25 6 23 7 24 8 22 9 21 10 9 11
REMARK SMILES IDX 10 12 11 13 20 15 12 16 19 17 13 18 14 19 7 20 8 21 6 22
REMARK SMILES IDX 1 23 2 24 3 25 103 26 4 27 5 28 15 29 16 30 17 31 18 32
REMARK SMILES IDX 31 33 32 34 33 35 34 36 35 37 36 38 37 39 38 40 39 41 40 42
REMARK SMILES IDX 41 43 102 44 42 45 101 46 43 47 44 48 45 49 95 50 46 51
REMARK SMILES IDX 100 52 94 53 96 54 47 55 99 56 93 57 92 58 48 60 80 61 60 62
REMARK SMILES IDX 79 63 61 64 64 65 78 66 97 67 62 68 63 69 77 71 98 72 65 73
REMARK SMILES IDX 49 74 50 75 58 76 51 77 52 78 56 79 59 80 53 81 54 82 57 83
REMARK SMILES IDX 55 84 81 85 82 86 90 87 83 88 84 89 88 90 91 91 85 92 86 93
REMARK SMILES IDX 89 94 87 95 66 96 67 97 75 98 68 99 69 100 73 101 76 102
REMARK SMILES IDX 70 103 71 104 74 105 72 106
REMARK H PARENT 10 14 96 59 64 70
REMARK Flexibility Score: inf
ROOT
ATOM      1  C   UNL A   1      40.547  21.364  27.294  1.00  0.00     0.188 C 
ENDROOT
BRANCH   1   2
ATOM      2  C   UNL A   1      39.614  21.430  26.085  1.00  0.00     0.188 C 
BRANCH   2   3
ATOM      3  O   UNL A   1      38.542  22.350  26.141  1.00  0.00    -0.376 OA
BRANCH   3   4
ATOM      4  C   UNL A   1      37.322  21.971  25.508  1.00  0.00     0.202 C 
BRANCH   4   5
ATOM      5  C   UNL A   1      36.207  23.012  25.279  1.00  0.00     0.261 C 
BRANCH   5   6
ATOM      6  O   UNL A   1      35.613  23.552  26.490  1.00  0.00    -0.463 OA
BRANCH   6   7
ATOM      7  C   UNL A   1      34.535  22.883  26.971  1.00  0.00     0.310 C 
ATOM      8  O   UNL A   1      34.641  21.893  27.696  1.00  0.00    -0.252 OA
BRANCH   7   9
ATOM      9  C   UNL A   1      33.155  23.433  26.652  1.00  0.00     0.161 C 
BRANCH   9  10
ATOM     10  C   UNL A   1      32.524  23.292  25.284  1.00  0.00     0.000 A 
ATOM     11  C   UNL A   1      31.468  24.038  24.731  1.00  0.00     0.093 A 
ATOM     12  N   UNL A   1      31.297  23.563  23.443  1.00  0.00    -0.352 N 
ATOM     13  C   UNL A   1      31.830  22.300  23.340  1.00  0.00     0.046 A 
ATOM     14  H   UNL A   1      30.861  24.055  22.710  1.00  0.00     0.167 HD
ATOM     15  C   UNL A   1      32.618  22.115  24.469  1.00  0.00     0.004 A 
ATOM     16  C   UNL A   1      31.651  21.303  22.376  1.00  0.00     0.027 A 
ATOM     17  C   UNL A   1      33.213  20.854  24.668  1.00  0.00     0.015 A 
ATOM     18  C   UNL A   1      32.192  20.035  22.645  1.00  0.00     0.006 A 
ATOM     19  C   UNL A   1      32.939  19.772  23.803  1.00  0.00    -0.042 A 
BRANCH  11  20
ATOM     20  C   UNL A   1      30.680  25.092  25.373  1.00  0.00     0.227 C 
ATOM     21  O   UNL A   1      29.940  24.870  26.334  1.00  0.00    -0.285 OA
BRANCH  20  22
ATOM     22  C   UNL A   1      30.661  26.491  24.862  1.00  0.00     0.113 A 
ATOM     23  C   UNL A   1      32.293  29.831  25.553  1.00  0.00     0.044 C 
ATOM     24  C   UNL A   1      31.506  28.732  24.906  1.00  0.00    -0.047 A 
ATOM     25  C   UNL A   1      31.068  28.873  23.586  1.00  0.00     0.023 A 
ATOM     26  C   UNL A   1      31.302  27.510  25.558  1.00  0.00     0.036 A 
ATOM     27  C   UNL A   1      30.414  27.812  22.983  1.00  0.00     0.112 A 
ATOM     28  N   UNL A   1      30.188  26.634  23.596  1.00  0.00    -0.253 NA
ENDBRANCH  20  22
ENDBRANCH  11  20
BRANCH  19  29
ATOM     29  C   UNL A   1      33.385  18.360  24.224  1.00  0.00    -0.013 C 
ATOM     30  C   UNL A   1      32.735  17.980  25.570  1.00  0.00     0.016 C 
ATOM     31  C   UNL A   1      32.936  17.352  23.138  1.00  0.00     0.016 C 
ATOM     32  C   UNL A   1      34.912  18.199  24.381  1.00  0.00     0.016 C 
ENDBRANCH  19  29
ENDBRANCH   9  10
ENDBRANCH   7   9
ENDBRANCH   6   7
ENDBRANCH   5   6
ENDBRANCH   4   5
ENDBRANCH   3   4
ENDBRANCH   2   3
ENDBRANCH   1   2
BRANCH   1  33
ATOM     33  O   UNL A   1      41.523  20.337  27.347  1.00  0.00    -0.377 OA
BRANCH  33  34
ATOM     34  C   UNL A   1      41.901  19.660  26.157  1.00  0.00     0.188 C 
BRANCH  34  35
ATOM     35  C   UNL A   1      43.255  19.996  25.534  1.00  0.00     0.188 C 
BRANCH  35  36
ATOM     36  O   UNL A   1      43.441  21.303  24.990  1.00  0.00    -0.376 OA
BRANCH  36  37
ATOM     37  C   UNL A   1      44.256  22.240  25.689  1.00  0.00     0.202 C 
BRANCH  37  38
ATOM     38  C   UNL A   1      44.058  23.689  25.260  1.00  0.00     0.261 C 
BRANCH  38  39
ATOM     39  O   UNL A   1      42.914  24.266  25.906  1.00  0.00    -0.460 OA
BRANCH  39  40
ATOM     40  C   UNL A   1      42.720  25.584  25.672  1.00  0.00     0.338 C 
ATOM     41  O   UNL A   1      42.596  26.144  24.596  1.00  0.00    -0.246 OA
BRANCH  40  42
ATOM     42  C   UNL A   1      42.503  26.258  26.963  1.00  0.00     0.060 A 
ATOM     43  C   UNL A   1      41.615  25.676  27.875  1.00  0.00     0.016 A 
ATOM     44  C   UNL A   1      43.153  27.457  27.265  1.00  0.00     0.016 A 
ATOM     45  C   UNL A   1      41.361  26.297  29.093  1.00  0.00     0.010 A 
ATOM     46  C   UNL A   1      42.882  28.092  28.475  1.00  0.00     0.010 A 
ATOM     47  C   UNL A   1      41.969  27.525  29.380  1.00  0.00    -0.014 A 
BRANCH  47  48
ATOM     48  C   UNL A   1      41.538  28.304  30.559  1.00  0.00     0.031 A 
ATOM     49  C   UNL A   1      40.351  29.209  30.419  1.00  0.00     0.074 A 
ATOM     50  C   UNL A   1      42.211  28.212  31.718  1.00  0.00     0.049 A 
ATOM     51  N   UNL A   1      39.862  30.075  31.267  1.00  0.00    -0.248 NA
ATOM     52  C   UNL A   1      39.615  29.130  29.145  1.00  0.00     0.031 C 
ATOM     53  C   UNL A   1      43.343  27.323  31.969  1.00  0.00     0.029 A 
ATOM     54  N   UNL A   1      42.048  28.895  32.896  1.00  0.00    -0.354 N 
ATOM     55  C   UNL A   1      38.775  30.653  30.626  1.00  0.00     0.074 A 
ATOM     56  C   UNL A   1      38.682  30.055  29.313  1.00  0.00     0.031 C 
ATOM     57  C   UNL A   1      43.789  27.531  33.220  1.00  0.00     0.029 A 
ATOM     58  C   UNL A   1      43.002  28.597  33.836  1.00  0.00     0.049 A 
ATOM     59  H   UNL A   1      41.316  29.536  33.051  1.00  0.00     0.167 HD
ATOM     60  C   UNL A   1      37.934  31.601  31.100  1.00  0.00     0.037 A 
ATOM     61  C   UNL A   1      43.231  29.158  35.038  1.00  0.00     0.037 A 
ATOM     62  C   UNL A   1      38.043  32.186  32.409  1.00  0.00     0.049 A 
ATOM     63  C   UNL A   1      42.334  30.280  35.500  1.00  0.00     0.074 A 
ATOM     64  C   UNL A   1      37.226  33.131  33.003  1.00  0.00     0.029 A 
ATOM     65  N   UNL A   1      39.044  31.889  33.323  1.00  0.00    -0.354 N 
ATOM     66  N   UNL A   1      41.287  30.803  34.908  1.00  0.00    -0.248 NA
ATOM     67  C   UNL A   1      42.656  30.893  36.796  1.00  0.00     0.031 C 
ATOM     68  C   UNL A   1      37.771  33.455  34.249  1.00  0.00     0.029 A 
ATOM     69  C   UNL A   1      38.890  32.665  34.460  1.00  0.00     0.049 A 
ATOM     70  H   UNL A   1      39.757  31.224  33.184  1.00  0.00     0.167 HD
ATOM     71  C   UNL A   1      40.811  31.786  35.766  1.00  0.00     0.074 A 
ATOM     72  C   UNL A   1      41.672  31.771  36.930  1.00  0.00     0.031 C 
ATOM     73  C   UNL A   1      39.761  32.629  35.608  1.00  0.00     0.037 A 
BRANCH  60  74
ATOM     74  C   UNL A   1      36.850  32.096  30.187  1.00  0.00     0.064 A 
ATOM     75  C   UNL A   1      36.845  33.403  29.681  1.00  0.00     0.173 A 
ATOM     76  C   UNL A   1      35.826  31.229  29.776  1.00  0.00     0.173 A 
ATOM     77  F   UNL A   1      37.791  34.277  30.056  1.00  0.00    -0.203 F 
ATOM     78  C   UNL A   1      35.845  33.829  28.809  1.00  0.00     0.198 A 
ATOM     79  C   UNL A   1      34.845  31.648  28.882  1.00  0.00     0.198 A 
ATOM     80  F   UNL A   1      35.783  29.967  30.233  1.00  0.00    -0.203 F 
ATOM     81  F   UNL A   1      35.836  35.095  28.369  1.00  0.00    -0.200 F 
ATOM     82  C   UNL A   1      34.852  32.949  28.403  1.00  0.00     0.200 A 
ATOM     83  F   UNL A   1      33.894  30.793  28.482  1.00  0.00    -0.200 F 
ATOM     84  F   UNL A   1      33.899  33.356  27.553  1.00  0.00    -0.200 F 
ENDBRANCH  60  74
BRANCH  61  85
ATOM     85  C   UNL A   1      44.369  28.699  35.879  1.00  0.00     0.064 A 
ATOM     86  C   UNL A   1      45.634  29.292  35.766  1.00  0.00     0.173 A 
ATOM     87  C   UNL A   1      44.228  27.635  36.783  1.00  0.00     0.173 A 
ATOM     88  F   UNL A   1      45.828  30.295  34.895  1.00  0.00    -0.203 F 
ATOM     89  C   UNL A   1      46.719  28.823  36.503  1.00  0.00     0.198 A 
ATOM     90  C   UNL A   1      45.305  27.189  37.546  1.00  0.00     0.198 A 
ATOM     91  F   UNL A   1      43.042  27.028  36.928  1.00  0.00    -0.203 F 
ATOM     92  F   UNL A   1      47.931  29.369  36.329  1.00  0.00    -0.200 F 
ATOM     93  C   UNL A   1      46.553  27.775  37.396  1.00  0.00     0.200 A 
ATOM     94  F   UNL A   1      45.138  26.183  38.415  1.00  0.00    -0.200 F 
ATOM     95  F   UNL A   1      47.598  27.322  38.102  1.00  0.00    -0.200 F 
ENDBRANCH  61  85
BRANCH  73  96
ATOM     96  C   UNL A   1      39.469  33.585  36.729  1.00  0.00     0.064 A 
ATOM     97  C   UNL A   1      38.696  33.205  37.836  1.00  0.00     0.173 A 
ATOM     98  C   UNL A   1      40.012  34.880  36.719  1.00  0.00     0.173 A 
ATOM     99  F   UNL A   1      38.143  31.984  37.886  1.00  0.00    -0.203 F 
ATOM    100  C   UNL A   1      38.454  34.096  38.878  1.00  0.00     0.198 A 
ATOM    101  C   UNL A   1      39.798  35.754  37.780  1.00  0.00     0.198 A 
ATOM    102  F   UNL A   1      40.766  35.288  35.688  1.00  0.00    -0.203 F 
ATOM    103  F   UNL A   1      37.670  33.729  39.902  1.00  0.00    -0.200 F 
ATOM    104  C   UNL A   1      39.012  35.365  38.854  1.00  0.00     0.200 A 
ATOM    105  F   UNL A   1      40.355  36.973  37.763  1.00  0.00    -0.200 F 
ATOM    106  F   UNL A   1      38.789  36.216  39.865  1.00  0.00    -0.200 F 
ENDBRANCH  73  96
ENDBRANCH  47  48
ENDBRANCH  40  42
ENDBRANCH  39  40
ENDBRANCH  38  39
ENDBRANCH  37  38
ENDBRANCH  36  37
ENDBRANCH  35  36
ENDBRANCH  34  35
ENDBRANCH  33  34
ENDBRANCH   1  33
TORSDOF 24
ENDMDL
MODEL 3
REMARK VINA RESULT:     -10.8      1.529      4.175
REMARK SMILES Cc1ccnc(C(=O)c2[nH]c3ccc(C(C)(C)C)cc3c2CC(=O)OCCOCCOCCOCCOC(=O)c2ccc(-c3c4nc(c(-c5c(F)c(F)c(F)c(F)c5F)c5ccc([nH]5)c(-c5c(F)c(F)c(F)c(F)c5F)c5nc(c(-c6c(F)c(F)c(F)c(F)c6F)c6ccc3[nH]6)C=C5)C=C4)cc2)c1
REMARK SMILES IDX 30 1 29 2 28 3 27 4 26 5 25 6 23 7 24 8 22 9 21 10 9 11
REMARK SMILES IDX 10 12 11 13 20 15 12 16 19 17 13 18 14 19 7 20 8 21 6 22
REMARK SMILES IDX 1 23 2 24 3 25 103 26 4 27 5 28 15 29 16 30 17 31 18 32
REMARK SMILES IDX 31 33 32 34 33 35 34 36 35 37 36 38 37 39 38 40 39 41 40 42
REMARK SMILES IDX 41 43 102 44 42 45 101 46 43 47 44 48 45 49 95 50 46 51
REMARK SMILES IDX 100 52 94 53 96 54 47 55 99 56 93 57 92 58 48 60 80 61 60 62
REMARK SMILES IDX 79 63 61 64 64 65 78 66 97 67 62 68 63 69 77 71 98 72 65 73
REMARK SMILES IDX 49 74 50 75 58 76 51 77 52 78 56 79 59 80 53 81 54 82 57 83
REMARK SMILES IDX 55 84 81 85 82 86 90 87 83 88 84 89 88 90 91 91 85 92 86 93
REMARK SMILES IDX 89 94 87 95 66 96 67 97 75 98 68 99 69 100 73 101 76 102
REMARK SMILES IDX 70 103 71 104 74 105 72 106
REMARK H PARENT 10 14 96 59 64 70
REMARK Flexibility Score: inf
ROOT
ATOM      1  C   UNL A   1      41.427  22.375  27.740  1.00  0.00     0.188 C 
ENDROOT
BRANCH   1   2
ATOM      2  C   UNL A   1      40.770  22.839  26.440  1.00  0.00     0.188 C 
BRANCH   2   3
ATOM      3  O   UNL A   1      39.492  23.435  26.535  1.00  0.00    -0.376 OA
BRANCH   3   4
ATOM      4  C   UNL A   1      38.391  22.710  25.991  1.00  0.00     0.202 C 
BRANCH   4   5
ATOM      5  C   UNL A   1      37.071  23.433  25.655  1.00  0.00     0.261 C 
BRANCH   5   6
ATOM      6  O   UNL A   1      36.805  23.597  24.236  1.00  0.00    -0.463 OA
BRANCH   6   7
ATOM      7  C   UNL A   1      35.690  22.983  23.767  1.00  0.00     0.310 C 
ATOM      8  O   UNL A   1      35.202  23.247  22.667  1.00  0.00    -0.252 OA
BRANCH   7   9
ATOM      9  C   UNL A   1      35.076  21.879  24.612  1.00  0.00     0.161 C 
BRANCH   9  10
ATOM     10  C   UNL A   1      33.652  21.945  25.120  1.00  0.00     0.000 A 
ATOM     11  C   UNL A   1      32.619  21.007  24.941  1.00  0.00     0.093 A 
ATOM     12  N   UNL A   1      31.531  21.500  25.639  1.00  0.00    -0.352 N 
ATOM     13  C   UNL A   1      31.671  22.856  25.820  1.00  0.00     0.046 A 
ATOM     14  H   UNL A   1      30.770  20.962  25.958  1.00  0.00     0.167 HD
ATOM     15  C   UNL A   1      32.994  23.155  25.523  1.00  0.00     0.004 A 
ATOM     16  C   UNL A   1      30.740  23.836  26.179  1.00  0.00     0.027 A 
ATOM     17  C   UNL A   1      33.391  24.506  25.535  1.00  0.00     0.015 A 
ATOM     18  C   UNL A   1      31.148  25.178  26.103  1.00  0.00     0.006 A 
ATOM     19  C   UNL A   1      32.454  25.542  25.741  1.00  0.00    -0.042 A 
BRANCH  11  20
ATOM     20  C   UNL A   1      32.656  19.768  24.164  1.00  0.00     0.227 C 
ATOM     21  O   UNL A   1      32.136  19.671  23.051  1.00  0.00    -0.285 OA
BRANCH  20  22
ATOM     22  C   UNL A   1      33.260  18.515  24.697  1.00  0.00     0.113 A 
ATOM     23  C   UNL A   1      32.204  15.071  25.847  1.00  0.00     0.044 C 
ATOM     24  C   UNL A   1      33.036  16.242  25.418  1.00  0.00    -0.047 A 
ATOM     25  C   UNL A   1      34.387  16.060  25.111  1.00  0.00     0.023 A 
ATOM     26  C   UNL A   1      32.457  17.498  25.201  1.00  0.00     0.036 A 
ATOM     27  C   UNL A   1      35.116  17.139  24.640  1.00  0.00     0.112 A 
ATOM     28  N   UNL A   1      34.586  18.362  24.442  1.00  0.00    -0.253 NA
ENDBRANCH  20  22
ENDBRANCH  11  20
BRANCH  19  29
ATOM     29  C   UNL A   1      32.886  26.993  25.465  1.00  0.00    -0.013 C 
ATOM     30  C   UNL A   1      33.502  27.101  24.056  1.00  0.00     0.016 C 
ATOM     31  C   UNL A   1      31.638  27.908  25.548  1.00  0.00     0.016 C 
ATOM     32  C   UNL A   1      33.917  27.549  26.469  1.00  0.00     0.016 C 
ENDBRANCH  19  29
ENDBRANCH   9  10
ENDBRANCH   7   9
ENDBRANCH   6   7
ENDBRANCH   5   6
ENDBRANCH   4   5
ENDBRANCH   3   4
ENDBRANCH   2   3
ENDBRANCH   1   2
BRANCH   1  33
ATOM     33  O   UNL A   1      42.020  21.088  27.783  1.00  0.00    -0.377 OA
BRANCH  33  34
ATOM     34  C   UNL A   1      41.353  19.984  27.191  1.00  0.00     0.188 C 
BRANCH  34  35
ATOM     35  C   UNL A   1      42.192  18.951  26.440  1.00  0.00     0.188 C 
BRANCH  35  36
ATOM     36  O   UNL A   1      42.738  19.318  25.173  1.00  0.00    -0.376 OA
BRANCH  36  37
ATOM     37  C   UNL A   1      43.943  18.703  24.729  1.00  0.00     0.202 C 
BRANCH  37  38
ATOM     38  C   UNL A   1      44.507  19.284  23.436  1.00  0.00     0.261 C 
BRANCH  38  39
ATOM     39  O   UNL A   1      45.911  19.555  23.563  1.00  0.00    -0.460 OA
BRANCH  39  40
ATOM     40  C   UNL A   1      46.344  19.788  24.823  1.00  0.00     0.338 C 
ATOM     41  O   UNL A   1      46.938  19.024  25.564  1.00  0.00    -0.246 OA
BRANCH  40  42
ATOM     42  C   UNL A   1      46.135  21.213  25.130  1.00  0.00     0.060 A 
ATOM     43  C   UNL A   1      46.507  22.161  24.169  1.00  0.00     0.016 A 
ATOM     44  C   UNL A   1      45.594  21.611  26.355  1.00  0.00     0.016 A 
ATOM     45  C   UNL A   1      46.352  23.517  24.434  1.00  0.00     0.010 A 
ATOM     46  C   UNL A   1      45.461  22.970  26.630  1.00  0.00     0.010 A 
ATOM     47  C   UNL A   1      45.861  23.925  25.679  1.00  0.00    -0.014 A 
BRANCH  47  48
ATOM     48  C   UNL A   1      45.905  25.351  26.059  1.00  0.00     0.031 A 
ATOM     49  C   UNL A   1      47.224  26.062  26.006  1.00  0.00     0.074 A 
ATOM     50  C   UNL A   1      44.789  25.984  26.459  1.00  0.00     0.049 A 
ATOM     51  N   UNL A   1      47.534  27.268  26.404  1.00  0.00    -0.248 NA
ATOM     52  C   UNL A   1      48.350  25.307  25.430  1.00  0.00     0.031 C 
ATOM     53  C   UNL A   1      43.452  25.395  26.494  1.00  0.00     0.029 A 
ATOM     54  N   UNL A   1      44.612  27.258  26.932  1.00  0.00    -0.354 N 
ATOM     55  C   UNL A   1      48.890  27.411  26.141  1.00  0.00     0.074 A 
ATOM     56  C   UNL A   1      49.350  26.166  25.566  1.00  0.00     0.031 C 
ATOM     57  C   UNL A   1      42.591  26.303  26.986  1.00  0.00     0.029 A 
ATOM     58  C   UNL A   1      43.327  27.515  27.341  1.00  0.00     0.049 A 
ATOM     59  H   UNL A   1      45.336  27.924  26.974  1.00  0.00     0.167 HD
ATOM     60  C   UNL A   1      49.675  28.489  26.364  1.00  0.00     0.037 A 
ATOM     61  C   UNL A   1      42.822  28.594  27.967  1.00  0.00     0.037 A 
ATOM     62  C   UNL A   1      49.199  29.720  26.939  1.00  0.00     0.049 A 
ATOM     63  C   UNL A   1      43.743  29.745  28.290  1.00  0.00     0.074 A 
ATOM     64  C   UNL A   1      49.901  30.887  27.180  1.00  0.00     0.029 A 
ATOM     65  N   UNL A   1      47.900  29.933  27.376  1.00  0.00    -0.354 N 
ATOM     66  N   UNL A   1      45.016  29.892  28.012  1.00  0.00    -0.248 NA
ATOM     67  C   UNL A   1      43.156  30.876  29.021  1.00  0.00     0.031 C 
ATOM     68  C   UNL A   1      49.043  31.783  27.825  1.00  0.00     0.029 A 
ATOM     69  C   UNL A   1      47.790  31.200  27.926  1.00  0.00     0.049 A 
ATOM     70  H   UNL A   1      47.165  29.282  27.305  1.00  0.00     0.167 HD
ATOM     71  C   UNL A   1      45.376  31.138  28.508  1.00  0.00     0.074 A 
ATOM     72  C   UNL A   1      44.180  31.715  29.087  1.00  0.00     0.031 C 
ATOM     73  C   UNL A   1      46.585  31.752  28.494  1.00  0.00     0.037 A 
BRANCH  60  74
ATOM     74  C   UNL A   1      51.133  28.378  26.027  1.00  0.00     0.064 A 
ATOM     75  C   UNL A   1      51.608  28.551  24.719  1.00  0.00     0.173 A 
ATOM     76  C   UNL A   1      52.073  28.140  27.041  1.00  0.00     0.173 A 
ATOM     77  F   UNL A   1      50.749  28.763  23.711  1.00  0.00    -0.203 F 
ATOM     78  C   UNL A   1      52.970  28.475  24.437  1.00  0.00     0.198 A 
ATOM     79  C   UNL A   1      53.436  28.094  26.760  1.00  0.00     0.198 A 
ATOM     80  F   UNL A   1      51.671  27.965  28.310  1.00  0.00    -0.203 F 
ATOM     81  F   UNL A   1      53.399  28.604  23.174  1.00  0.00    -0.200 F 
ATOM     82  C   UNL A   1      53.883  28.256  25.458  1.00  0.00     0.200 A 
ATOM     83  F   UNL A   1      54.317  27.894  27.750  1.00  0.00    -0.200 F 
ATOM     84  F   UNL A   1      55.194  28.198  25.187  1.00  0.00    -0.200 F 
ENDBRANCH  60  74
BRANCH  61  85
ATOM     85  C   UNL A   1      41.389  28.633  28.364  1.00  0.00     0.064 A 
ATOM     86  C   UNL A   1      40.981  28.218  29.639  1.00  0.00     0.173 A 
ATOM     87  C   UNL A   1      40.393  29.048  27.466  1.00  0.00     0.173 A 
ATOM     88  F   UNL A   1      41.892  27.786  30.525  1.00  0.00    -0.203 F 
ATOM     89  C   UNL A   1      39.634  28.190  29.992  1.00  0.00     0.198 A 
ATOM     90  C   UNL A   1      39.049  29.053  27.831  1.00  0.00     0.198 A 
ATOM     91  F   UNL A   1      40.726  29.450  26.231  1.00  0.00    -0.203 F 
ATOM     92  F   UNL A   1      39.269  27.731  31.197  1.00  0.00    -0.200 F 
ATOM     93  C   UNL A   1      38.669  28.613  29.090  1.00  0.00     0.200 A 
ATOM     94  F   UNL A   1      38.121  29.472  26.960  1.00  0.00    -0.200 F 
ATOM     95  F   UNL A   1      37.373  28.583  29.429  1.00  0.00    -0.200 F 
ENDBRANCH  61  85
BRANCH  73  96
ATOM     96  C   UNL A   1      46.669  33.125  29.096  1.00  0.00     0.064 A 
ATOM     97  C   UNL A   1      47.067  33.320  30.426  1.00  0.00     0.173 A 
ATOM     98  C   UNL A   1      46.398  34.262  28.318  1.00  0.00     0.173 A 
ATOM     99  F   UNL A   1      47.323  32.267  31.216  1.00  0.00    -0.203 F 
ATOM    100  C   UNL A   1      47.162  34.601  30.964  1.00  0.00     0.198 A 
ATOM    101  C   UNL A   1      46.530  35.541  28.848  1.00  0.00     0.198 A 
ATOM    102  F   UNL A   1      46.024  34.129  27.037  1.00  0.00    -0.203 F 
ATOM    103  F   UNL A   1      47.494  34.762  32.253  1.00  0.00    -0.200 F 
ATOM    104  C   UNL A   1      46.903  35.710  30.172  1.00  0.00     0.200 A 
ATOM    105  F   UNL A   1      46.297  36.611  28.075  1.00  0.00    -0.200 F 
ATOM    106  F   UNL A   1      47.009  36.942  30.688  1.00  0.00    -0.200 F 
ENDBRANCH  73  96
ENDBRANCH  47  48
ENDBRANCH  40  42
ENDBRANCH  39  40
ENDBRANCH  38  39
ENDBRANCH  37  38
ENDBRANCH  36  37
ENDBRANCH  35  36
ENDBRANCH  34  35
ENDBRANCH  33  34
ENDBRANCH   1  33
TORSDOF 24
ENDMDL
