MODEL 1
REMARK VINA RESULT:     -11.1      0.000      0.000
REMARK SMILES O=C(OCCOCCOCCOCCOC(=O)c1nnn(Cc2ccccc2Cl)c1-c1ccc(Cl)cc1)c1ccc(-c2c3nc(c(-c4c(F)c(F)c(F)c(F)c4F)c4ccc([nH]4)c(-c4c(F)c(F)c(F)c(F)c4F)c4nc(c(-c5c(F)c(F)c(F)c(F)c5F)c5ccc2[nH]5)C=C4)C=C3)cc1
REMARK SMILES IDX 9 1 8 2 7 3 6 4 5 5 4 6 3 7 2 8 1 9 38 10 39 11 100 12 40 13
REMARK SMILES IDX 99 14 41 15 42 16 43 17 93 18 44 19 98 20 92 21 94 22 45 23
REMARK SMILES IDX 97 24 91 25 90 26 46 28 78 29 58 30 77 31 59 32 62 33 76 34
REMARK SMILES IDX 95 35 60 36 61 37 75 39 96 40 63 41 47 42 48 43 56 44 49 45
REMARK SMILES IDX 50 46 54 47 57 48 51 49 52 50 55 51 53 52 79 53 80 54 88 55
REMARK SMILES IDX 81 56 82 57 86 58 89 59 83 60 84 61 87 62 85 63 64 64 65 65
REMARK SMILES IDX 73 66 66 67 67 68 71 69 74 70 68 71 69 72 72 73 70 74 10 75
REMARK SMILES IDX 11 76 12 77 13 78 14 79 15 80 16 81 17 82 18 83 19 84 30 85
REMARK SMILES IDX 20 86 21 87 31 88 32 89 37 90 33 91 36 92 34 93 35 94 22 95
REMARK SMILES IDX 23 96 24 97 28 98 25 99 27 100 29 101 26 102
REMARK H PARENT 94 27 62 38
REMARK Flexibility Score: inf
ROOT
ATOM      1  O   UNL A   1      40.062  22.050  27.256  1.00  0.00    -0.377 OA
ENDROOT
BRANCH   1   2
ATOM      2  C   UNL A   1      40.738  20.810  27.363  1.00  0.00     0.188 C 
BRANCH   2   3
ATOM      3  C   UNL A   1      40.631  19.867  26.152  1.00  0.00     0.188 C 
BRANCH   3   4
ATOM      4  O   UNL A   1      41.705  19.303  25.406  1.00  0.00    -0.376 OA
BRANCH   4   5
ATOM      5  C   UNL A   1      43.070  19.238  25.749  1.00  0.00     0.202 C 
BRANCH   5   6
ATOM      6  C   UNL A   1      44.042  20.370  25.416  1.00  0.00     0.261 C 
BRANCH   6   7
ATOM      7  O   UNL A   1      43.753  21.635  26.003  1.00  0.00    -0.460 OA
BRANCH   7   8
ATOM      8  C   UNL A   1      43.189  22.727  25.453  1.00  0.00     0.338 C 
ATOM      9  O   UNL A   1      43.163  22.803  24.224  1.00  0.00    -0.246 OA
BRANCH   8  10
ATOM     10  C   UNL A   1      42.640  23.875  26.224  1.00  0.00     0.060 A 
ATOM     11  C   UNL A   1      41.794  24.872  25.736  1.00  0.00     0.016 A 
ATOM     12  C   UNL A   1      43.078  23.955  27.561  1.00  0.00     0.016 A 
ATOM     13  C   UNL A   1      41.552  26.008  26.481  1.00  0.00     0.010 A 
ATOM     14  C   UNL A   1      42.817  25.076  28.326  1.00  0.00     0.010 A 
ATOM     15  C   UNL A   1      42.135  26.129  27.736  1.00  0.00    -0.014 A 
BRANCH  15  16
ATOM     16  C   UNL A   1      42.042  27.429  28.368  1.00  0.00     0.031 A 
ATOM     17  C   UNL A   1      43.172  28.351  28.108  1.00  0.00     0.074 A 
ATOM     18  C   UNL A   1      40.973  27.737  29.124  1.00  0.00     0.049 A 
ATOM     19  N   UNL A   1      43.964  28.902  28.968  1.00  0.00    -0.248 NA
ATOM     20  C   UNL A   1      43.521  28.617  26.705  1.00  0.00     0.031 C 
ATOM     21  C   UNL A   1      39.715  26.995  29.246  1.00  0.00     0.029 A 
ATOM     22  N   UNL A   1      40.747  28.853  29.865  1.00  0.00    -0.354 N 
ATOM     23  C   UNL A   1      44.807  29.728  28.229  1.00  0.00     0.074 A 
ATOM     24  C   UNL A   1      44.580  29.415  26.842  1.00  0.00     0.031 C 
ATOM     25  C   UNL A   1      38.785  27.794  29.811  1.00  0.00     0.029 A 
ATOM     26  C   UNL A   1      39.417  29.043  30.199  1.00  0.00     0.049 A 
ATOM     27  H   UNL A   1      41.464  29.469  30.141  1.00  0.00     0.167 HD
ATOM     28  C   UNL A   1      45.456  30.773  28.811  1.00  0.00     0.037 A 
ATOM     29  C   UNL A   1      38.865  30.186  30.669  1.00  0.00     0.037 A 
ATOM     30  C   UNL A   1      45.596  30.583  30.230  1.00  0.00     0.049 A 
ATOM     31  C   UNL A   1      39.963  31.026  31.212  1.00  0.00     0.074 A 
ATOM     32  C   UNL A   1      46.205  29.628  31.023  1.00  0.00     0.029 A 
ATOM     33  N   UNL A   1      44.779  31.292  31.073  1.00  0.00    -0.354 N 
ATOM     34  N   UNL A   1      40.634  30.742  32.294  1.00  0.00    -0.248 NA
ATOM     35  C   UNL A   1      40.610  31.968  30.309  1.00  0.00     0.031 C 
ATOM     36  C   UNL A   1      45.364  29.504  32.168  1.00  0.00     0.029 A 
ATOM     37  C   UNL A   1      44.320  30.418  32.024  1.00  0.00     0.049 A 
ATOM     38  H   UNL A   1      44.562  32.250  31.008  1.00  0.00     0.167 HD
ATOM     39  C   UNL A   1      41.938  31.117  32.009  1.00  0.00     0.074 A 
ATOM     40  C   UNL A   1      41.843  31.957  30.819  1.00  0.00     0.031 C 
ATOM     41  C   UNL A   1      42.995  30.479  32.590  1.00  0.00     0.037 A 
BRANCH  28  42
ATOM     42  C   UNL A   1      45.604  32.125  28.155  1.00  0.00     0.064 A 
ATOM     43  C   UNL A   1      44.446  32.841  27.792  1.00  0.00     0.173 A 
ATOM     44  C   UNL A   1      46.810  32.590  27.583  1.00  0.00     0.173 A 
ATOM     45  F   UNL A   1      43.243  32.482  28.266  1.00  0.00    -0.203 F 
ATOM     46  C   UNL A   1      44.482  33.873  26.851  1.00  0.00     0.198 A 
ATOM     47  C   UNL A   1      46.848  33.654  26.685  1.00  0.00     0.198 A 
ATOM     48  F   UNL A   1      47.978  31.968  27.772  1.00  0.00    -0.203 F 
ATOM     49  F   UNL A   1      43.338  34.428  26.430  1.00  0.00    -0.200 F 
ATOM     50  C   UNL A   1      45.681  34.271  26.290  1.00  0.00     0.200 A 
ATOM     51  F   UNL A   1      48.019  34.013  26.141  1.00  0.00    -0.200 F 
ATOM     52  F   UNL A   1      45.709  35.208  25.334  1.00  0.00    -0.200 F 
ENDBRANCH  28  42
BRANCH  29  53
ATOM     53  C   UNL A   1      37.513  30.717  30.383  1.00  0.00     0.064 A 
ATOM     54  C   UNL A   1      36.664  31.125  31.422  1.00  0.00     0.173 A 
ATOM     55  C   UNL A   1      37.120  31.074  29.076  1.00  0.00     0.173 A 
ATOM     56  F   UNL A   1      36.988  30.867  32.697  1.00  0.00    -0.203 F 
ATOM     57  C   UNL A   1      35.504  31.865  31.171  1.00  0.00     0.198 A 
ATOM     58  C   UNL A   1      35.956  31.798  28.826  1.00  0.00     0.198 A 
ATOM     59  F   UNL A   1      37.905  30.812  28.021  1.00  0.00    -0.203 F 
ATOM     60  F   UNL A   1      34.751  32.293  32.194  1.00  0.00    -0.200 F 
ATOM     61  C   UNL A   1      35.155  32.207  29.875  1.00  0.00     0.200 A 
ATOM     62  F   UNL A   1      35.650  32.151  27.569  1.00  0.00    -0.200 F 
ATOM     63  F   UNL A   1      34.074  32.962  29.639  1.00  0.00    -0.200 F 
ENDBRANCH  29  53
BRANCH  41  64
ATOM     64  C   UNL A   1      42.711  29.569  33.750  1.00  0.00     0.064 A 
ATOM     65  C   UNL A   1      42.241  28.251  33.613  1.00  0.00     0.173 A 
ATOM     66  C   UNL A   1      43.057  30.001  35.037  1.00  0.00     0.173 A 
ATOM     67  F   UNL A   1      41.994  27.728  32.404  1.00  0.00    -0.203 F 
ATOM     68  C   UNL A   1      42.073  27.426  34.722  1.00  0.00     0.198 A 
ATOM     69  C   UNL A   1      42.925  29.161  36.139  1.00  0.00     0.198 A 
ATOM     70  F   UNL A   1      43.570  31.228  35.219  1.00  0.00    -0.203 F 
ATOM     71  F   UNL A   1      41.608  26.177  34.569  1.00  0.00    -0.200 F 
ATOM     72  C   UNL A   1      42.422  27.880  35.984  1.00  0.00     0.200 A 
ATOM     73  F   UNL A   1      43.314  29.586  37.350  1.00  0.00    -0.200 F 
ATOM     74  F   UNL A   1      42.300  27.073  37.047  1.00  0.00    -0.200 F 
ENDBRANCH  41  64
ENDBRANCH  15  16
ENDBRANCH   8  10
ENDBRANCH   7   8
ENDBRANCH   6   7
ENDBRANCH   5   6
ENDBRANCH   4   5
ENDBRANCH   3   4
ENDBRANCH   2   3
ENDBRANCH   1   2
BRANCH   1  75
ATOM     75  C   UNL A   1      38.926  22.022  26.422  1.00  0.00     0.188 C 
BRANCH  75  76
ATOM     76  C   UNL A   1      38.410  23.417  26.012  1.00  0.00     0.188 C 
BRANCH  76  77
ATOM     77  O   UNL A   1      37.102  23.875  26.340  1.00  0.00    -0.376 OA
BRANCH  77  78
ATOM     78  C   UNL A   1      35.941  23.121  26.038  1.00  0.00     0.202 C 
BRANCH  78  79
ATOM     79  C   UNL A   1      34.872  22.936  27.119  1.00  0.00     0.261 C 
BRANCH  79  80
ATOM     80  O   UNL A   1      33.749  22.151  26.722  1.00  0.00    -0.458 OA
BRANCH  80  81
ATOM     81  C   UNL A   1      32.575  22.835  26.556  1.00  0.00     0.361 C 
ATOM     82  O   UNL A   1      31.756  23.051  27.426  1.00  0.00    -0.244 OA
BRANCH  81  83
ATOM     83  C   UNL A   1      32.448  23.305  25.187  1.00  0.00     0.198 A 
ATOM     84  N   UNL A   1      32.210  22.475  24.126  1.00  0.00    -0.122 NA
ATOM     85  C   UNL A   1      32.455  24.627  24.766  1.00  0.00     0.104 A 
ATOM     86  N   UNL A   1      32.030  23.230  23.055  1.00  0.00    -0.066 NA
ATOM     87  N   UNL A   1      32.249  24.517  23.411  1.00  0.00    -0.239 N 
BRANCH  85  88
ATOM     88  C   UNL A   1      32.681  25.814  25.579  1.00  0.00     0.002 A 
ATOM     89  C   UNL A   1      31.585  26.379  26.254  1.00  0.00     0.012 A 
ATOM     90  C   UNL A   1      33.894  26.508  25.547  1.00  0.00     0.012 A 
ATOM     91  C   UNL A   1      31.682  27.637  26.845  1.00  0.00     0.021 A 
ATOM     92  C   UNL A   1      33.997  27.762  26.160  1.00  0.00     0.021 A 
ATOM     93  C   UNL A   1      32.888  28.328  26.790  1.00  0.00     0.041 A 
ATOM     94  Cl  UNL A   1      32.997  29.900  27.476  1.00  0.00    -0.084 Cl
ENDBRANCH  85  88
BRANCH  87  95
ATOM     95  C   UNL A   1      32.346  25.525  22.369  1.00  0.00     0.183 C 
BRANCH  95  96
ATOM     96  C   UNL A   1      31.470  26.710  22.706  1.00  0.00    -0.008 A 
ATOM     97  C   UNL A   1      30.111  26.485  22.994  1.00  0.00     0.007 A 
ATOM     98  C   UNL A   1      31.972  28.017  22.832  1.00  0.00     0.046 A 
ATOM     99  C   UNL A   1      29.283  27.531  23.404  1.00  0.00     0.000 A 
ATOM    100  C   UNL A   1      31.139  29.060  23.250  1.00  0.00     0.021 A 
ATOM    101  Cl  UNL A   1      33.617  28.412  22.480  1.00  0.00    -0.084 Cl
ATOM    102  C   UNL A   1      29.798  28.817  23.538  1.00  0.00     0.002 A 
ENDBRANCH  95  96
ENDBRANCH  87  95
ENDBRANCH  81  83
ENDBRANCH  80  81
ENDBRANCH  79  80
ENDBRANCH  78  79
ENDBRANCH  77  78
ENDBRANCH  76  77
ENDBRANCH  75  76
ENDBRANCH   1  75
TORSDOF 23
ENDMDL
MODEL 2
REMARK VINA RESULT:     -10.3      2.327      3.579
REMARK SMILES O=C(OCCOCCOCCOCCOC(=O)c1nnn(Cc2ccccc2Cl)c1-c1ccc(Cl)cc1)c1ccc(-c2c3nc(c(-c4c(F)c(F)c(F)c(F)c4F)c4ccc([nH]4)c(-c4c(F)c(F)c(F)c(F)c4F)c4nc(c(-c5c(F)c(F)c(F)c(F)c5F)c5ccc2[nH]5)C=C4)C=C3)cc1
REMARK SMILES IDX 9 1 8 2 7 3 6 4 5 5 4 6 3 7 2 8 1 9 38 10 39 11 100 12 40 13
REMARK SMILES IDX 99 14 41 15 42 16 43 17 93 18 44 19 98 20 92 21 94 22 45 23
REMARK SMILES IDX 97 24 91 25 90 26 46 28 78 29 58 30 77 31 59 32 62 33 76 34
REMARK SMILES IDX 95 35 60 36 61 37 75 39 96 40 63 41 47 42 48 43 56 44 49 45
REMARK SMILES IDX 50 46 54 47 57 48 51 49 52 50 55 51 53 52 79 53 80 54 88 55
REMARK SMILES IDX 81 56 82 57 86 58 89 59 83 60 84 61 87 62 85 63 64 64 65 65
REMARK SMILES IDX 73 66 66 67 67 68 71 69 74 70 68 71 69 72 72 73 70 74 10 75
REMARK SMILES IDX 11 76 12 77 13 78 14 79 15 80 16 81 17 82 18 83 19 84 30 85
REMARK SMILES IDX 20 86 21 87 31 88 32 89 37 90 33 91 36 92 34 93 35 94 22 95
REMARK SMILES IDX 23 96 24 97 28 98 25 99 27 100 29 101 26 102
REMARK H PARENT 94 27 62 38
REMARK Flexibility Score: inf
ROOT
ATOM      1  O   UNL A   1      36.408  21.092  25.311  1.00  0.00    -0.377 OA
ENDROOT
BRANCH   1   2
ATOM      2  C   UNL A   1      37.435  20.398  24.628  1.00  0.00     0.188 C 
BRANCH   2   3
ATOM      3  C   UNL A   1      38.603  19.884  25.489  1.00  0.00     0.188 C 
BRANCH   3   4
ATOM      4  O   UNL A   1      39.799  20.582  25.817  1.00  0.00    -0.376 OA
BRANCH   4   5
ATOM      5  C   UNL A   1      40.783  20.237  26.764  1.00  0.00     0.202 C 
BRANCH   5   6
ATOM      6  C   UNL A   1      42.006  19.398  26.392  1.00  0.00     0.261 C 
BRANCH   6   7
ATOM      7  O   UNL A   1      42.767  19.862  25.282  1.00  0.00    -0.460 OA
BRANCH   7   8
ATOM      8  C   UNL A   1      43.928  20.546  25.263  1.00  0.00     0.338 C 
ATOM      9  O   UNL A   1      44.955  19.926  24.988  1.00  0.00    -0.246 OA
BRANCH   8  10
ATOM     10  C   UNL A   1      44.066  21.987  25.604  1.00  0.00     0.060 A 
ATOM     11  C   UNL A   1      45.058  22.559  26.401  1.00  0.00     0.016 A 
ATOM     12  C   UNL A   1      43.049  22.819  25.091  1.00  0.00     0.016 A 
ATOM     13  C   UNL A   1      44.938  23.863  26.838  1.00  0.00     0.010 A 
ATOM     14  C   UNL A   1      42.936  24.133  25.499  1.00  0.00     0.010 A 
ATOM     15  C   UNL A   1      43.833  24.608  26.444  1.00  0.00    -0.014 A 
BRANCH  15  16
ATOM     16  C   UNL A   1      43.639  25.876  27.115  1.00  0.00     0.031 A 
ATOM     17  C   UNL A   1      44.655  26.915  26.831  1.00  0.00     0.074 A 
ATOM     18  C   UNL A   1      42.581  26.054  27.927  1.00  0.00     0.049 A 
ATOM     19  N   UNL A   1      45.427  27.526  27.669  1.00  0.00    -0.248 NA
ATOM     20  C   UNL A   1      44.907  27.249  25.422  1.00  0.00     0.031 C 
ATOM     21  C   UNL A   1      41.413  25.184  28.085  1.00  0.00     0.029 A 
ATOM     22  N   UNL A   1      42.279  27.123  28.709  1.00  0.00    -0.354 N 
ATOM     23  C   UNL A   1      46.146  28.451  26.916  1.00  0.00     0.074 A 
ATOM     24  C   UNL A   1      45.885  28.148  25.533  1.00  0.00     0.031 C 
ATOM     25  C   UNL A   1      40.434  25.869  28.714  1.00  0.00     0.029 A 
ATOM     26  C   UNL A   1      40.953  27.168  29.108  1.00  0.00     0.049 A 
ATOM     27  H   UNL A   1      42.941  27.804  28.970  1.00  0.00     0.167 HD
ATOM     28  C   UNL A   1      46.711  29.544  27.497  1.00  0.00     0.037 A 
ATOM     29  C   UNL A   1      40.311  28.237  29.634  1.00  0.00     0.037 A 
ATOM     30  C   UNL A   1      46.938  29.336  28.903  1.00  0.00     0.049 A 
ATOM     31  C   UNL A   1      41.342  29.173  30.150  1.00  0.00     0.074 A 
ATOM     32  C   UNL A   1      47.677  28.431  29.641  1.00  0.00     0.029 A 
ATOM     33  N   UNL A   1      46.093  29.937  29.802  1.00  0.00    -0.354 N 
ATOM     34  N   UNL A   1      42.089  28.935  31.192  1.00  0.00    -0.248 NA
ATOM     35  C   UNL A   1      41.845  30.196  29.245  1.00  0.00     0.031 C 
ATOM     36  C   UNL A   1      46.910  28.194  30.819  1.00  0.00     0.029 A 
ATOM     37  C   UNL A   1      45.773  28.999  30.747  1.00  0.00     0.049 A 
ATOM     38  H   UNL A   1      45.777  30.869  29.773  1.00  0.00     0.167 HD
ATOM     39  C   UNL A   1      43.333  29.448  30.859  1.00  0.00     0.074 A 
ATOM     40  C   UNL A   1      43.097  30.302  29.699  1.00  0.00     0.031 C 
ATOM     41  C   UNL A   1      44.477  28.909  31.374  1.00  0.00     0.037 A 
BRANCH  28  42
ATOM     42  C   UNL A   1      46.689  30.918  26.874  1.00  0.00     0.064 A 
ATOM     43  C   UNL A   1      47.868  31.691  26.879  1.00  0.00     0.173 A 
ATOM     44  C   UNL A   1      45.502  31.623  26.572  1.00  0.00     0.173 A 
ATOM     45  F   UNL A   1      49.053  31.129  27.163  1.00  0.00    -0.203 F 
ATOM     46  C   UNL A   1      47.842  33.077  26.699  1.00  0.00     0.198 A 
ATOM     47  C   UNL A   1      45.489  32.997  26.340  1.00  0.00     0.198 A 
ATOM     48  F   UNL A   1      44.298  31.044  26.604  1.00  0.00    -0.203 F 
ATOM     49  F   UNL A   1      48.967  33.787  26.854  1.00  0.00    -0.200 F 
ATOM     50  C   UNL A   1      46.652  33.729  26.441  1.00  0.00     0.200 A 
ATOM     51  F   UNL A   1      44.321  33.612  26.107  1.00  0.00    -0.200 F 
ATOM     52  F   UNL A   1      46.613  35.064  26.341  1.00  0.00    -0.200 F 
ENDBRANCH  28  42
BRANCH  29  53
ATOM     53  C   UNL A   1      38.900  28.631  29.424  1.00  0.00     0.064 A 
ATOM     54  C   UNL A   1      38.035  28.825  30.511  1.00  0.00     0.173 A 
ATOM     55  C   UNL A   1      38.435  29.075  28.168  1.00  0.00     0.173 A 
ATOM     56  F   UNL A   1      38.419  28.474  31.747  1.00  0.00    -0.203 F 
ATOM     57  C   UNL A   1      36.792  29.445  30.357  1.00  0.00     0.198 A 
ATOM     58  C   UNL A   1      37.189  29.680  28.013  1.00  0.00     0.198 A 
ATOM     59  F   UNL A   1      39.218  29.020  27.081  1.00  0.00    -0.203 F 
ATOM     60  F   UNL A   1      36.021  29.671  31.430  1.00  0.00    -0.200 F 
ATOM     61  C   UNL A   1      36.372  29.878  29.110  1.00  0.00     0.200 A 
ATOM     62  F   UNL A   1      36.812  30.124  26.805  1.00  0.00    -0.200 F 
ATOM     63  F   UNL A   1      35.206  30.521  28.971  1.00  0.00    -0.200 F 
ENDBRANCH  29  53
BRANCH  41  64
ATOM     64  C   UNL A   1      44.342  27.948  32.520  1.00  0.00     0.064 A 
ATOM     65  C   UNL A   1      44.128  26.568  32.361  1.00  0.00     0.173 A 
ATOM     66  C   UNL A   1      44.576  28.421  33.817  1.00  0.00     0.173 A 
ATOM     67  F   UNL A   1      44.008  26.023  31.143  1.00  0.00    -0.203 F 
ATOM     68  C   UNL A   1      44.094  25.712  33.460  1.00  0.00     0.198 A 
ATOM     69  C   UNL A   1      44.579  27.558  34.909  1.00  0.00     0.198 A 
ATOM     70  F   UNL A   1      44.847  29.720  34.022  1.00  0.00    -0.203 F 
ATOM     71  F   UNL A   1      43.872  24.401  33.286  1.00  0.00    -0.200 F 
ATOM     72  C   UNL A   1      44.326  26.208  34.733  1.00  0.00     0.200 A 
ATOM     73  F   UNL A   1      44.857  28.033  36.132  1.00  0.00    -0.200 F 
ATOM     74  F   UNL A   1      44.334  25.379  35.786  1.00  0.00    -0.200 F 
ENDBRANCH  41  64
ENDBRANCH  15  16
ENDBRANCH   8  10
ENDBRANCH   7   8
ENDBRANCH   6   7
ENDBRANCH   5   6
ENDBRANCH   4   5
ENDBRANCH   3   4
ENDBRANCH   2   3
ENDBRANCH   1   2
BRANCH   1  75
ATOM     75  C   UNL A   1      36.353  22.471  25.031  1.00  0.00     0.188 C 
BRANCH  75  76
ATOM     76  C   UNL A   1      36.529  22.820  23.539  1.00  0.00     0.188 C 
BRANCH  76  77
ATOM     77  O   UNL A   1      35.522  23.486  22.784  1.00  0.00    -0.376 OA
BRANCH  77  78
ATOM     78  C   UNL A   1      34.144  23.355  23.084  1.00  0.00     0.202 C 
BRANCH  78  79
ATOM     79  C   UNL A   1      33.120  23.487  21.952  1.00  0.00     0.261 C 
BRANCH  79  80
ATOM     80  O   UNL A   1      32.119  24.481  22.164  1.00  0.00    -0.458 OA
BRANCH  80  81
ATOM     81  C   UNL A   1      32.114  25.519  21.272  1.00  0.00     0.361 C 
ATOM     82  O   UNL A   1      31.595  25.503  20.175  1.00  0.00    -0.244 OA
BRANCH  81  83
ATOM     83  C   UNL A   1      32.790  26.676  21.833  1.00  0.00     0.198 A 
ATOM     84  N   UNL A   1      34.112  26.954  21.611  1.00  0.00    -0.122 NA
ATOM     85  C   UNL A   1      32.208  27.692  22.576  1.00  0.00     0.104 A 
ATOM     86  N   UNL A   1      34.373  28.130  22.157  1.00  0.00    -0.066 NA
ATOM     87  N   UNL A   1      33.261  28.546  22.804  1.00  0.00    -0.239 N 
BRANCH  85  88
ATOM     88  C   UNL A   1      30.827  27.775  23.032  1.00  0.00     0.002 A 
ATOM     89  C   UNL A   1      30.346  26.772  23.892  1.00  0.00     0.012 A 
ATOM     90  C   UNL A   1      29.927  28.698  22.490  1.00  0.00     0.012 A 
ATOM     91  C   UNL A   1      28.985  26.661  24.167  1.00  0.00     0.021 A 
ATOM     92  C   UNL A   1      28.563  28.599  22.786  1.00  0.00     0.021 A 
ATOM     93  C   UNL A   1      28.097  27.571  23.607  1.00  0.00     0.041 A 
ATOM     94  Cl  UNL A   1      26.412  27.407  23.907  1.00  0.00    -0.084 Cl
ENDBRANCH  85  88
BRANCH  87  95
ATOM     95  C   UNL A   1      33.352  29.699  23.685  1.00  0.00     0.183 C 
BRANCH  95  96
ATOM     96  C   UNL A   1      33.056  29.292  25.110  1.00  0.00    -0.008 A 
ATOM     97  C   UNL A   1      33.927  28.391  25.750  1.00  0.00     0.007 A 
ATOM     98  C   UNL A   1      31.999  29.843  25.855  1.00  0.00     0.046 A 
ATOM     99  C   UNL A   1      33.753  28.058  27.094  1.00  0.00     0.000 A 
ATOM    100  C   UNL A   1      31.833  29.512  27.204  1.00  0.00     0.021 A 
ATOM    101  Cl  UNL A   1      30.855  30.939  25.165  1.00  0.00    -0.084 Cl
ATOM    102  C   UNL A   1      32.711  28.623  27.822  1.00  0.00     0.002 A 
ENDBRANCH  95  96
ENDBRANCH  87  95
ENDBRANCH  81  83
ENDBRANCH  80  81
ENDBRANCH  79  80
ENDBRANCH  78  79
ENDBRANCH  77  78
ENDBRANCH  76  77
ENDBRANCH  75  76
ENDBRANCH   1  75
TORSDOF 23
ENDMDL
MODEL 3
REMARK VINA RESULT:     -10.0      1.565      6.256
REMARK SMILES O=C(OCCOCCOCCOCCOC(=O)c1nnn(Cc2ccccc2Cl)c1-c1ccc(Cl)cc1)c1ccc(-c2c3nc(c(-c4c(F)c(F)c(F)c(F)c4F)c4ccc([nH]4)c(-c4c(F)c(F)c(F)c(F)c4F)c4nc(c(-c5c(F)c(F)c(F)c(F)c5F)c5ccc2[nH]5)C=C4)C=C3)cc1
REMARK SMILES IDX 9 1 8 2 7 3 6 4 5 5 4 6 3 7 2 8 1 9 38 10 39 11 100 12 40 13
REMARK SMILES IDX 99 14 41 15 42 16 43 17 93 18 44 19 98 20 92 21 94 22 45 23
REMARK SMILES IDX 97 24 91 25 90 26 46 28 78 29 58 30 77 31 59 32 62 33 76 34
REMARK SMILES IDX 95 35 60 36 61 37 75 39 96 40 63 41 47 42 48 43 56 44 49 45
REMARK SMILES IDX 50 46 54 47 57 48 51 49 52 50 55 51 53 52 79 53 80 54 88 55
REMARK SMILES IDX 81 56 82 57 86 58 89 59 83 60 84 61 87 62 85 63 64 64 65 65
REMARK SMILES IDX 73 66 66 67 67 68 71 69 74 70 68 71 69 72 72 73 70 74 10 75
REMARK SMILES IDX 11 76 12 77 13 78 14 79 15 80 16 81 17 82 18 83 19 84 30 85
REMARK SMILES IDX 20 86 21 87 31 88 32 89 37 90 33 91 36 92 34 93 35 94 22 95
REMARK SMILES IDX 23 96 24 97 28 98 25 99 27 100 29 101 26 102
REMARK H PARENT 94 27 62 38
REMARK Flexibility Score: inf
ROOT
ATOM      1  O   UNL A   1      39.587  21.902  26.126  1.00  0.00    -0.377 OA
ENDROOT
BRANCH   1   2
ATOM      2  C   UNL A   1      40.622  21.143  26.725  1.00  0.00     0.188 C 
BRANCH   2   3
ATOM      3  C   UNL A   1      40.895  19.758  26.114  1.00  0.00     0.188 C 
BRANCH   3   4
ATOM      4  O   UNL A   1      42.049  19.353  25.386  1.00  0.00    -0.376 OA
BRANCH   4   5
ATOM      5  C   UNL A   1      43.404  19.595  25.688  1.00  0.00     0.202 C 
BRANCH   5   6
ATOM      6  C   UNL A   1      44.130  20.849  25.200  1.00  0.00     0.261 C 
BRANCH   6   7
ATOM      7  O   UNL A   1      43.957  22.019  25.994  1.00  0.00    -0.460 OA
BRANCH   7   8
ATOM      8  C   UNL A   1      44.868  22.928  26.392  1.00  0.00     0.338 C 
ATOM      9  O   UNL A   1      46.047  22.577  26.436  1.00  0.00    -0.246 OA
BRANCH   8  10
ATOM     10  C   UNL A   1      44.545  24.311  26.835  1.00  0.00     0.060 A 
ATOM     11  C   UNL A   1      45.413  25.404  26.837  1.00  0.00     0.016 A 
ATOM     12  C   UNL A   1      43.240  24.484  27.340  1.00  0.00     0.016 A 
ATOM     13  C   UNL A   1      45.069  26.568  27.494  1.00  0.00     0.010 A 
ATOM     14  C   UNL A   1      42.876  25.655  27.975  1.00  0.00     0.010 A 
ATOM     15  C   UNL A   1      43.833  26.647  28.124  1.00  0.00    -0.014 A 
BRANCH  15  16
ATOM     16  C   UNL A   1      43.623  27.788  28.990  1.00  0.00     0.031 A 
ATOM     17  C   UNL A   1      43.568  27.493  30.440  1.00  0.00     0.074 A 
ATOM     18  C   UNL A   1      43.502  29.021  28.464  1.00  0.00     0.049 A 
ATOM     19  N   UNL A   1      42.601  27.728  31.266  1.00  0.00    -0.248 NA
ATOM     20  C   UNL A   1      44.698  26.756  31.025  1.00  0.00     0.031 C 
ATOM     21  C   UNL A   1      43.774  29.441  27.086  1.00  0.00     0.029 A 
ATOM     22  N   UNL A   1      43.212  30.190  29.092  1.00  0.00    -0.354 N 
ATOM     23  C   UNL A   1      43.067  27.328  32.515  1.00  0.00     0.074 A 
ATOM     24  C   UNL A   1      44.301  26.621  32.290  1.00  0.00     0.031 C 
ATOM     25  C   UNL A   1      43.870  30.787  27.047  1.00  0.00     0.029 A 
ATOM     26  C   UNL A   1      43.545  31.317  28.360  1.00  0.00     0.049 A 
ATOM     27  H   UNL A   1      42.801  30.233  29.986  1.00  0.00     0.167 HD
ATOM     28  C   UNL A   1      42.518  27.818  33.660  1.00  0.00     0.037 A 
ATOM     29  C   UNL A   1      43.639  32.581  28.834  1.00  0.00     0.037 A 
ATOM     30  C   UNL A   1      41.178  28.295  33.441  1.00  0.00     0.049 A 
ATOM     31  C   UNL A   1      42.881  32.641  30.110  1.00  0.00     0.074 A 
ATOM     32  C   UNL A   1      40.003  27.713  33.003  1.00  0.00     0.029 A 
ATOM     33  N   UNL A   1      40.964  29.648  33.372  1.00  0.00    -0.354 N 
ATOM     34  N   UNL A   1      41.582  32.560  30.192  1.00  0.00    -0.248 NA
ATOM     35  C   UNL A   1      43.601  32.358  31.343  1.00  0.00     0.031 C 
ATOM     36  C   UNL A   1      39.345  28.726  32.246  1.00  0.00     0.029 A 
ATOM     37  C   UNL A   1      40.135  29.873  32.304  1.00  0.00     0.049 A 
ATOM     38  H   UNL A   1      41.335  30.330  33.977  1.00  0.00     0.167 HD
ATOM     39  C   UNL A   1      41.348  31.812  31.336  1.00  0.00     0.074 A 
ATOM     40  C   UNL A   1      42.617  31.806  32.056  1.00  0.00     0.031 C 
ATOM     41  C   UNL A   1      40.234  31.031  31.449  1.00  0.00     0.037 A 
BRANCH  28  42
ATOM     42  C   UNL A   1      43.334  28.219  34.865  1.00  0.00     0.064 A 
ATOM     43  C   UNL A   1      44.399  29.127  34.699  1.00  0.00     0.173 A 
ATOM     44  C   UNL A   1      43.323  27.513  36.089  1.00  0.00     0.173 A 
ATOM     45  F   UNL A   1      44.517  29.844  33.572  1.00  0.00    -0.203 F 
ATOM     46  C   UNL A   1      45.426  29.239  35.641  1.00  0.00     0.198 A 
ATOM     47  C   UNL A   1      44.321  27.667  37.049  1.00  0.00     0.198 A 
ATOM     48  F   UNL A   1      42.421  26.563  36.360  1.00  0.00    -0.203 F 
ATOM     49  F   UNL A   1      46.490  30.008  35.375  1.00  0.00    -0.200 F 
ATOM     50  C   UNL A   1      45.392  28.501  36.809  1.00  0.00     0.200 A 
ATOM     51  F   UNL A   1      44.276  26.931  38.168  1.00  0.00    -0.200 F 
ATOM     52  F   UNL A   1      46.409  28.551  37.678  1.00  0.00    -0.200 F 
ENDBRANCH  28  42
BRANCH  29  53
ATOM     53  C   UNL A   1      44.599  33.628  28.419  1.00  0.00     0.064 A 
ATOM     54  C   UNL A   1      45.981  33.385  28.426  1.00  0.00     0.173 A 
ATOM     55  C   UNL A   1      44.174  34.802  27.763  1.00  0.00     0.173 A 
ATOM     56  F   UNL A   1      46.464  32.267  28.988  1.00  0.00    -0.203 F 
ATOM     57  C   UNL A   1      46.880  34.251  27.798  1.00  0.00     0.198 A 
ATOM     58  C   UNL A   1      45.073  35.673  27.149  1.00  0.00     0.198 A 
ATOM     59  F   UNL A   1      42.871  35.082  27.618  1.00  0.00    -0.203 F 
ATOM     60  F   UNL A   1      48.187  33.952  27.771  1.00  0.00    -0.200 F 
ATOM     61  C   UNL A   1      46.426  35.390  27.154  1.00  0.00     0.200 A 
ATOM     62  F   UNL A   1      44.614  36.753  26.501  1.00  0.00    -0.200 F 
ATOM     63  F   UNL A   1      47.281  36.191  26.504  1.00  0.00    -0.200 F 
ENDBRANCH  29  53
BRANCH  41  64
ATOM     64  C   UNL A   1      39.140  31.224  30.439  1.00  0.00     0.064 A 
ATOM     65  C   UNL A   1      39.015  30.459  29.266  1.00  0.00     0.173 A 
ATOM     66  C   UNL A   1      38.106  32.119  30.740  1.00  0.00     0.173 A 
ATOM     67  F   UNL A   1      39.905  29.503  28.967  1.00  0.00    -0.203 F 
ATOM     68  C   UNL A   1      37.931  30.628  28.407  1.00  0.00     0.198 A 
ATOM     69  C   UNL A   1      37.005  32.258  29.899  1.00  0.00     0.198 A 
ATOM     70  F   UNL A   1      38.142  32.831  31.878  1.00  0.00    -0.203 F 
ATOM     71  F   UNL A   1      37.842  29.899  27.285  1.00  0.00    -0.200 F 
ATOM     72  C   UNL A   1      36.924  31.524  28.728  1.00  0.00     0.200 A 
ATOM     73  F   UNL A   1      36.008  33.087  30.241  1.00  0.00    -0.200 F 
ATOM     74  F   UNL A   1      35.861  31.657  27.923  1.00  0.00    -0.200 F 
ENDBRANCH  41  64
ENDBRANCH  15  16
ENDBRANCH   8  10
ENDBRANCH   7   8
ENDBRANCH   6   7
ENDBRANCH   5   6
ENDBRANCH   4   5
ENDBRANCH   3   4
ENDBRANCH   2   3
ENDBRANCH   1   2
BRANCH   1  75
ATOM     75  C   UNL A   1      38.601  21.131  25.481  1.00  0.00     0.188 C 
BRANCH  75  76
ATOM     76  C   UNL A   1      37.344  21.927  25.075  1.00  0.00     0.188 C 
BRANCH  76  77
ATOM     77  O   UNL A   1      36.434  22.462  26.032  1.00  0.00    -0.376 OA
BRANCH  77  78
ATOM     78  C   UNL A   1      35.031  22.429  25.840  1.00  0.00     0.202 C 
BRANCH  78  79
ATOM     79  C   UNL A   1      34.113  22.870  26.984  1.00  0.00     0.261 C 
BRANCH  79  80
ATOM     80  O   UNL A   1      32.829  22.248  26.994  1.00  0.00    -0.458 OA
BRANCH  80  81
ATOM     81  C   UNL A   1      31.766  23.075  26.749  1.00  0.00     0.361 C 
ATOM     82  O   UNL A   1      30.945  23.429  27.569  1.00  0.00    -0.244 OA
BRANCH  81  83
ATOM     83  C   UNL A   1      31.767  23.508  25.362  1.00  0.00     0.198 A 
ATOM     84  N   UNL A   1      31.451  22.684  24.316  1.00  0.00    -0.122 NA
ATOM     85  C   UNL A   1      31.988  24.798  24.901  1.00  0.00     0.104 A 
ATOM     86  N   UNL A   1      31.429  23.418  23.216  1.00  0.00    -0.066 NA
ATOM     87  N   UNL A   1      31.824  24.670  23.542  1.00  0.00    -0.239 N 
BRANCH  85  88
ATOM     88  C   UNL A   1      32.355  25.967  25.687  1.00  0.00     0.002 A 
ATOM     89  C   UNL A   1      31.330  26.712  26.295  1.00  0.00     0.012 A 
ATOM     90  C   UNL A   1      33.658  26.474  25.689  1.00  0.00     0.012 A 
ATOM     91  C   UNL A   1      31.589  27.963  26.851  1.00  0.00     0.021 A 
ATOM     92  C   UNL A   1      33.922  27.721  26.268  1.00  0.00     0.021 A 
ATOM     93  C   UNL A   1      32.884  28.466  26.830  1.00  0.00     0.041 A 
ATOM     94  Cl  UNL A   1      33.198  30.029  27.472  1.00  0.00    -0.084 Cl
ENDBRANCH  85  88
BRANCH  87  95
ATOM     95  C   UNL A   1      32.112  25.613  22.476  1.00  0.00     0.183 C 
BRANCH  95  96
ATOM     96  C   UNL A   1      31.390  26.918  22.723  1.00  0.00    -0.008 A 
ATOM     97  C   UNL A   1      29.999  26.890  22.939  1.00  0.00     0.007 A 
ATOM     98  C   UNL A   1      32.059  28.149  22.837  1.00  0.00     0.046 A 
ATOM     99  C   UNL A   1      29.301  28.053  23.266  1.00  0.00     0.000 A 
ATOM    100  C   UNL A   1      31.355  29.311  23.172  1.00  0.00     0.021 A 
ATOM    101  Cl  UNL A   1      33.759  28.305  22.568  1.00  0.00    -0.084 Cl
ATOM    102  C   UNL A   1      29.980  29.262  23.389  1.00  0.00     0.002 A 
ENDBRANCH  95  96
ENDBRANCH  87  95
ENDBRANCH  81  83
ENDBRANCH  80  81
ENDBRANCH  79  80
ENDBRANCH  78  79
ENDBRANCH  77  78
ENDBRANCH  76  77
ENDBRANCH  75  76
ENDBRANCH   1  75
TORSDOF 23
ENDMDL
