MODEL 1
REMARK VINA RESULT:      -9.4      0.000      0.000
REMARK SMILES CC1(C)CSC[C@](O)([C@H](F)C(=O)OCCOCCOCCOCCOC(=O)c2ccc(-c3c4nc(c(-c5c(F)c(F)c(F)c(F)c5F)c5ccc([nH]5)c(-c5c(F)c(F)c(F)c(F)c5F)c5nc(c(-c6c(F)c(F)c(F)c(F)c6F)c6ccc3[nH]6)C=C5)C=C4)cc2)C1
REMARK SMILES IDX 19 1 18 2 17 3 16 4 15 5 14 6 13 7 11 8 12 9 9 10 10 11 7 12
REMARK SMILES IDX 1 13 2 14 3 15 4 16 91 17 5 18 6 19 8 20 20 22 21 23 22 24
REMARK SMILES IDX 23 25 24 26 25 27 26 28 27 29 28 30 29 31 90 32 30 33 89 34
REMARK SMILES IDX 31 35 32 36 33 37 83 38 34 39 88 40 82 41 84 42 35 43 87 44
REMARK SMILES IDX 81 45 80 46 36 48 68 49 48 50 67 51 49 52 52 53 66 54 85 55
REMARK SMILES IDX 50 56 51 57 65 59 86 60 53 61 37 62 38 63 46 64 39 65 40 66
REMARK SMILES IDX 44 67 47 68 41 69 42 70 45 71 43 72 69 73 70 74 78 75 71 76
REMARK SMILES IDX 72 77 76 78 79 79 73 80 74 81 77 82 75 83 54 84 55 85 63 86
REMARK SMILES IDX 56 87 57 88 61 89 64 90 58 91 59 92 62 93 60 94
REMARK H PARENT 8 21 84 47 52 58
REMARK Flexibility Score: inf
ROOT
ATOM      1  O   UNL A   1      35.752  30.804  28.188  1.00  0.00    -0.377 OA
ENDROOT
BRANCH   1   2
ATOM      2  C   UNL A   1      34.692  29.969  27.770  1.00  0.00     0.188 C 
BRANCH   2   3
ATOM      3  C   UNL A   1      33.533  30.737  27.111  1.00  0.00     0.188 C 
BRANCH   3   4
ATOM      4  O   UNL A   1      32.227  30.210  27.251  1.00  0.00    -0.376 OA
BRANCH   4   5
ATOM      5  C   UNL A   1      31.858  28.856  27.044  1.00  0.00     0.202 C 
BRANCH   5   6
ATOM      6  C   UNL A   1      31.754  28.095  25.714  1.00  0.00     0.261 C 
BRANCH   6   7
ATOM      7  O   UNL A   1      31.662  26.684  25.762  1.00  0.00    -0.461 OA
BRANCH   7   8
ATOM      8  C   UNL A   1      31.438  26.076  24.583  1.00  0.00     0.343 C 
ATOM      9  O   UNL A   1      30.330  25.859  24.101  1.00  0.00    -0.249 OA
BRANCH   8  10
ATOM     10  C   UNL A   1      32.726  25.695  23.901  1.00  0.00     0.308 C 
ATOM     11  F   UNL A   1      33.618  26.729  23.787  1.00  0.00    -0.232 F 
BRANCH  10  12
ATOM     12  C   UNL A   1      33.411  24.558  24.664  1.00  0.00     0.116 C 
ATOM     13  C   UNL A   1      36.327  23.651  25.751  1.00  0.00     0.012 C 
ATOM     14  C   UNL A   1      35.588  23.104  24.507  1.00  0.00    -0.023 C 
ATOM     15  C   UNL A   1      36.653  22.715  23.457  1.00  0.00     0.012 C 
ATOM     16  C   UNL A   1      34.780  21.824  24.816  1.00  0.00     0.076 C 
ATOM     17  C   UNL A   1      34.695  24.201  23.883  1.00  0.00     0.047 C 
ATOM     18  S   UNL A   1      33.286  22.056  25.817  1.00  0.00    -0.158 SA
ATOM     19  C   UNL A   1      32.487  23.339  24.807  1.00  0.00     0.108 C 
BRANCH  12  20
ATOM     20  O   UNL A   1      33.751  25.045  25.975  1.00  0.00    -0.385 OA
ATOM     21  H   UNL A   1      33.911  24.294  26.567  1.00  0.00     0.211 HD
ENDBRANCH  12  20
ENDBRANCH  10  12
ENDBRANCH   8  10
ENDBRANCH   7   8
ENDBRANCH   6   7
ENDBRANCH   5   6
ENDBRANCH   4   5
ENDBRANCH   3   4
ENDBRANCH   2   3
ENDBRANCH   1   2
BRANCH   1  22
ATOM     22  C   UNL A   1      35.675  32.186  27.863  1.00  0.00     0.188 C 
BRANCH  22  23
ATOM     23  C   UNL A   1      35.152  33.216  28.891  1.00  0.00     0.188 C 
BRANCH  23  24
ATOM     24  O   UNL A   1      33.997  33.933  28.484  1.00  0.00    -0.376 OA
BRANCH  24  25
ATOM     25  C   UNL A   1      34.014  35.349  28.515  1.00  0.00     0.202 C 
BRANCH  25  26
ATOM     26  C   UNL A   1      33.034  36.031  29.478  1.00  0.00     0.261 C 
BRANCH  26  27
ATOM     27  O   UNL A   1      32.527  35.210  30.539  1.00  0.00    -0.460 OA
BRANCH  27  28
ATOM     28  C   UNL A   1      32.601  35.704  31.791  1.00  0.00     0.338 C 
ATOM     29  O   UNL A   1      31.809  36.448  32.344  1.00  0.00    -0.246 OA
BRANCH  28  30
ATOM     30  C   UNL A   1      33.731  35.035  32.466  1.00  0.00     0.060 A 
ATOM     31  C   UNL A   1      34.976  35.678  32.511  1.00  0.00     0.016 A 
ATOM     32  C   UNL A   1      33.554  33.782  33.053  1.00  0.00     0.016 A 
ATOM     33  C   UNL A   1      36.066  35.043  33.106  1.00  0.00     0.010 A 
ATOM     34  C   UNL A   1      34.650  33.136  33.625  1.00  0.00     0.010 A 
ATOM     35  C   UNL A   1      35.917  33.746  33.614  1.00  0.00    -0.014 A 
BRANCH  35  36
ATOM     36  C   UNL A   1      37.117  32.923  33.895  1.00  0.00     0.031 A 
ATOM     37  C   UNL A   1      37.865  33.197  35.170  1.00  0.00     0.074 A 
ATOM     38  C   UNL A   1      37.536  31.968  33.049  1.00  0.00     0.049 A 
ATOM     39  N   UNL A   1      38.997  32.704  35.598  1.00  0.00    -0.248 NA
ATOM     40  C   UNL A   1      37.249  34.172  36.087  1.00  0.00     0.031 C 
ATOM     41  C   UNL A   1      36.866  31.578  31.812  1.00  0.00     0.029 A 
ATOM     42  N   UNL A   1      38.648  31.164  33.104  1.00  0.00    -0.354 N 
ATOM     43  C   UNL A   1      39.236  33.319  36.820  1.00  0.00     0.074 A 
ATOM     44  C   UNL A   1      38.148  34.241  37.055  1.00  0.00     0.031 C 
ATOM     45  C   UNL A   1      37.593  30.619  31.210  1.00  0.00     0.029 A 
ATOM     46  C   UNL A   1      38.797  30.362  32.001  1.00  0.00     0.049 A 
ATOM     47  H   UNL A   1      39.276  31.162  33.862  1.00  0.00     0.167 HD
ATOM     48  C   UNL A   1      40.269  33.127  37.672  1.00  0.00     0.037 A 
ATOM     49  C   UNL A   1      39.811  29.542  31.658  1.00  0.00     0.037 A 
ATOM     50  C   UNL A   1      41.350  32.210  37.430  1.00  0.00     0.049 A 
ATOM     51  C   UNL A   1      40.994  29.407  32.585  1.00  0.00     0.074 A 
ATOM     52  C   UNL A   1      42.441  31.929  38.232  1.00  0.00     0.029 A 
ATOM     53  N   UNL A   1      41.479  31.430  36.289  1.00  0.00    -0.354 N 
ATOM     54  N   UNL A   1      41.211  29.976  33.747  1.00  0.00    -0.248 NA
ATOM     55  C   UNL A   1      42.076  28.510  32.152  1.00  0.00     0.031 C 
ATOM     56  C   UNL A   1      43.262  31.027  37.550  1.00  0.00     0.029 A 
ATOM     57  C   UNL A   1      42.647  30.689  36.355  1.00  0.00     0.049 A 
ATOM     58  H   UNL A   1      40.836  31.407  35.544  1.00  0.00     0.167 HD
ATOM     59  C   UNL A   1      42.427  29.479  34.200  1.00  0.00     0.074 A 
ATOM     60  C   UNL A   1      42.900  28.555  33.190  1.00  0.00     0.031 C 
ATOM     61  C   UNL A   1      43.093  29.759  35.348  1.00  0.00     0.037 A 
BRANCH  48  62
ATOM     62  C   UNL A   1      40.297  33.952  38.925  1.00  0.00     0.064 A 
ATOM     63  C   UNL A   1      40.954  35.191  38.984  1.00  0.00     0.173 A 
ATOM     64  C   UNL A   1      39.637  33.505  40.081  1.00  0.00     0.173 A 
ATOM     65  F   UNL A   1      41.616  35.656  37.913  1.00  0.00    -0.203 F 
ATOM     66  C   UNL A   1      40.974  35.936  40.161  1.00  0.00     0.198 A 
ATOM     67  C   UNL A   1      39.630  34.269  41.244  1.00  0.00     0.198 A 
ATOM     68  F   UNL A   1      38.993  32.329  40.080  1.00  0.00    -0.203 F 
ATOM     69  F   UNL A   1      41.655  37.090  40.208  1.00  0.00    -0.200 F 
ATOM     70  C   UNL A   1      40.305  35.480  41.286  1.00  0.00     0.200 A 
ATOM     71  F   UNL A   1      38.972  33.833  42.327  1.00  0.00    -0.200 F 
ATOM     72  F   UNL A   1      40.319  36.203  42.414  1.00  0.00    -0.200 F 
ENDBRANCH  48  62
BRANCH  49  73
ATOM     73  C   UNL A   1      39.768  28.798  30.371  1.00  0.00     0.064 A 
ATOM     74  C   UNL A   1      39.270  27.489  30.308  1.00  0.00     0.173 A 
ATOM     75  C   UNL A   1      40.251  29.366  29.183  1.00  0.00     0.173 A 
ATOM     76  F   UNL A   1      38.822  26.889  31.422  1.00  0.00    -0.203 F 
ATOM     77  C   UNL A   1      39.278  26.770  29.115  1.00  0.00     0.198 A 
ATOM     78  C   UNL A   1      40.230  28.658  27.983  1.00  0.00     0.198 A 
ATOM     79  F   UNL A   1      40.745  30.614  29.187  1.00  0.00    -0.203 F 
ATOM     80  F   UNL A   1      38.849  25.500  29.097  1.00  0.00    -0.200 F 
ATOM     81  C   UNL A   1      39.753  27.357  27.952  1.00  0.00     0.200 A 
ATOM     82  F   UNL A   1      40.680  29.234  26.859  1.00  0.00    -0.200 F 
ATOM     83  F   UNL A   1      39.761  26.665  26.804  1.00  0.00    -0.200 F 
ENDBRANCH  49  73
BRANCH  61  84
ATOM     84  C   UNL A   1      44.373  29.016  35.610  1.00  0.00     0.064 A 
ATOM     85  C   UNL A   1      44.396  27.786  36.283  1.00  0.00     0.173 A 
ATOM     86  C   UNL A   1      45.592  29.522  35.126  1.00  0.00     0.173 A 
ATOM     87  F   UNL A   1      43.263  27.264  36.774  1.00  0.00    -0.203 F 
ATOM     88  C   UNL A   1      45.593  27.105  36.487  1.00  0.00     0.198 A 
ATOM     89  C   UNL A   1      46.781  28.820  35.301  1.00  0.00     0.198 A 
ATOM     90  F   UNL A   1      45.625  30.689  34.466  1.00  0.00    -0.203 F 
ATOM     91  F   UNL A   1      45.598  25.956  37.178  1.00  0.00    -0.200 F 
ATOM     92  C   UNL A   1      46.782  27.616  35.989  1.00  0.00     0.200 A 
ATOM     93  F   UNL A   1      47.924  29.308  34.800  1.00  0.00    -0.200 F 
ATOM     94  F   UNL A   1      47.930  26.952  36.175  1.00  0.00    -0.200 F 
ENDBRANCH  61  84
ENDBRANCH  35  36
ENDBRANCH  28  30
ENDBRANCH  27  28
ENDBRANCH  26  27
ENDBRANCH  25  26
ENDBRANCH  24  25
ENDBRANCH  23  24
ENDBRANCH  22  23
ENDBRANCH   1  22
TORSDOF 22
ENDMDL
MODEL 2
REMARK VINA RESULT:      -9.1      5.426      9.990
REMARK SMILES CC1(C)CSC[C@](O)([C@H](F)C(=O)OCCOCCOCCOCCOC(=O)c2ccc(-c3c4nc(c(-c5c(F)c(F)c(F)c(F)c5F)c5ccc([nH]5)c(-c5c(F)c(F)c(F)c(F)c5F)c5nc(c(-c6c(F)c(F)c(F)c(F)c6F)c6ccc3[nH]6)C=C5)C=C4)cc2)C1
REMARK SMILES IDX 19 1 18 2 17 3 16 4 15 5 14 6 13 7 11 8 12 9 9 10 10 11 7 12
REMARK SMILES IDX 1 13 2 14 3 15 4 16 91 17 5 18 6 19 8 20 20 22 21 23 22 24
REMARK SMILES IDX 23 25 24 26 25 27 26 28 27 29 28 30 29 31 90 32 30 33 89 34
REMARK SMILES IDX 31 35 32 36 33 37 83 38 34 39 88 40 82 41 84 42 35 43 87 44
REMARK SMILES IDX 81 45 80 46 36 48 68 49 48 50 67 51 49 52 52 53 66 54 85 55
REMARK SMILES IDX 50 56 51 57 65 59 86 60 53 61 37 62 38 63 46 64 39 65 40 66
REMARK SMILES IDX 44 67 47 68 41 69 42 70 45 71 43 72 69 73 70 74 78 75 71 76
REMARK SMILES IDX 72 77 76 78 79 79 73 80 74 81 77 82 75 83 54 84 55 85 63 86
REMARK SMILES IDX 56 87 57 88 61 89 64 90 58 91 59 92 62 93 60 94
REMARK H PARENT 8 21 84 47 52 58
REMARK Flexibility Score: inf
ROOT
ATOM      1  O   UNL A   1      33.454  30.491  27.634  1.00  0.00    -0.377 OA
ENDROOT
BRANCH   1   2
ATOM      2  C   UNL A   1      32.351  30.525  26.751  1.00  0.00     0.188 C 
BRANCH   2   3
ATOM      3  C   UNL A   1      32.349  29.374  25.731  1.00  0.00     0.188 C 
BRANCH   3   4
ATOM      4  O   UNL A   1      31.520  29.501  24.591  1.00  0.00    -0.376 OA
BRANCH   4   5
ATOM      5  C   UNL A   1      31.826  29.022  23.292  1.00  0.00     0.202 C 
BRANCH   5   6
ATOM      6  C   UNL A   1      31.456  27.667  22.670  1.00  0.00     0.261 C 
BRANCH   6   7
ATOM      7  O   UNL A   1      32.019  26.500  23.239  1.00  0.00    -0.461 OA
BRANCH   7   8
ATOM      8  C   UNL A   1      33.297  26.248  22.901  1.00  0.00     0.343 C 
ATOM      9  O   UNL A   1      33.777  26.414  21.784  1.00  0.00    -0.249 OA
BRANCH   8  10
ATOM     10  C   UNL A   1      34.092  25.740  24.076  1.00  0.00     0.308 C 
ATOM     11  F   UNL A   1      33.542  26.053  25.292  1.00  0.00    -0.232 F 
BRANCH  10  12
ATOM     12  C   UNL A   1      34.237  24.218  23.999  1.00  0.00     0.116 C 
ATOM     13  C   UNL A   1      32.578  21.568  23.143  1.00  0.00     0.012 C 
ATOM     14  C   UNL A   1      32.852  22.069  24.581  1.00  0.00    -0.023 C 
ATOM     15  C   UNL A   1      31.646  21.665  25.460  1.00  0.00     0.012 C 
ATOM     16  C   UNL A   1      34.100  21.409  25.207  1.00  0.00     0.076 C 
ATOM     17  C   UNL A   1      32.953  23.611  24.606  1.00  0.00     0.047 C 
ATOM     18  S   UNL A   1      35.697  21.940  24.531  1.00  0.00    -0.158 SA
ATOM     19  C   UNL A   1      35.490  23.733  24.744  1.00  0.00     0.108 C 
BRANCH  12  20
ATOM     20  O   UNL A   1      34.346  23.853  22.611  1.00  0.00    -0.385 OA
ATOM     21  H   UNL A   1      34.940  24.472  22.159  1.00  0.00     0.211 HD
ENDBRANCH  12  20
ENDBRANCH  10  12
ENDBRANCH   8  10
ENDBRANCH   7   8
ENDBRANCH   6   7
ENDBRANCH   5   6
ENDBRANCH   4   5
ENDBRANCH   3   4
ENDBRANCH   2   3
ENDBRANCH   1   2
BRANCH   1  22
ATOM     22  C   UNL A   1      34.187  31.694  27.824  1.00  0.00     0.188 C 
BRANCH  22  23
ATOM     23  C   UNL A   1      34.814  32.034  29.196  1.00  0.00     0.188 C 
BRANCH  23  24
ATOM     24  O   UNL A   1      33.971  32.765  30.074  1.00  0.00    -0.376 OA
BRANCH  24  25
ATOM     25  C   UNL A   1      34.554  33.615  31.044  1.00  0.00     0.202 C 
BRANCH  25  26
ATOM     26  C   UNL A   1      35.131  32.942  32.296  1.00  0.00     0.261 C 
BRANCH  26  27
ATOM     27  O   UNL A   1      36.539  33.123  32.509  1.00  0.00    -0.460 OA
BRANCH  27  28
ATOM     28  C   UNL A   1      37.176  32.192  33.247  1.00  0.00     0.338 C 
ATOM     29  O   UNL A   1      36.927  31.852  34.391  1.00  0.00    -0.246 OA
BRANCH  28  30
ATOM     30  C   UNL A   1      38.135  31.504  32.361  1.00  0.00     0.060 A 
ATOM     31  C   UNL A   1      39.289  30.931  32.915  1.00  0.00     0.016 A 
ATOM     32  C   UNL A   1      37.888  31.422  30.990  1.00  0.00     0.016 A 
ATOM     33  C   UNL A   1      40.227  30.315  32.087  1.00  0.00     0.010 A 
ATOM     34  C   UNL A   1      38.838  30.828  30.159  1.00  0.00     0.010 A 
ATOM     35  C   UNL A   1      40.029  30.313  30.701  1.00  0.00    -0.014 A 
BRANCH  35  36
ATOM     36  C   UNL A   1      41.164  30.014  29.796  1.00  0.00     0.031 A 
ATOM     37  C   UNL A   1      41.226  28.640  29.189  1.00  0.00     0.074 A 
ATOM     38  C   UNL A   1      42.112  30.925  29.523  1.00  0.00     0.049 A 
ATOM     39  N   UNL A   1      42.163  28.089  28.461  1.00  0.00    -0.248 NA
ATOM     40  C   UNL A   1      40.072  27.763  29.449  1.00  0.00     0.031 C 
ATOM     41  C   UNL A   1      42.131  32.301  30.009  1.00  0.00     0.029 A 
ATOM     42  N   UNL A   1      43.259  30.811  28.776  1.00  0.00    -0.354 N 
ATOM     43  C   UNL A   1      41.718  26.801  28.192  1.00  0.00     0.074 A 
ATOM     44  C   UNL A   1      40.443  26.640  28.855  1.00  0.00     0.031 C 
ATOM     45  C   UNL A   1      43.248  32.903  29.564  1.00  0.00     0.029 A 
ATOM     46  C   UNL A   1      44.040  31.940  28.799  1.00  0.00     0.049 A 
ATOM     47  H   UNL A   1      43.497  30.000  28.273  1.00  0.00     0.167 HD
ATOM     48  C   UNL A   1      42.318  25.841  27.452  1.00  0.00     0.037 A 
ATOM     49  C   UNL A   1      45.269  32.151  28.287  1.00  0.00     0.037 A 
ATOM     50  C   UNL A   1      43.588  26.007  26.798  1.00  0.00     0.049 A 
ATOM     51  C   UNL A   1      45.956  31.037  27.537  1.00  0.00     0.074 A 
ATOM     52  C   UNL A   1      44.280  25.102  26.015  1.00  0.00     0.029 A 
ATOM     53  N   UNL A   1      44.361  27.157  26.863  1.00  0.00    -0.354 N 
ATOM     54  N   UNL A   1      45.528  29.826  27.269  1.00  0.00    -0.248 NA
ATOM     55  C   UNL A   1      47.301  31.320  27.015  1.00  0.00     0.031 C 
ATOM     56  C   UNL A   1      45.501  25.681  25.657  1.00  0.00     0.029 A 
ATOM     57  C   UNL A   1      45.538  26.974  26.155  1.00  0.00     0.049 A 
ATOM     58  H   UNL A   1      44.111  27.981  27.340  1.00  0.00     0.167 HD
ATOM     59  C   UNL A   1      46.528  29.220  26.518  1.00  0.00     0.074 A 
ATOM     60  C   UNL A   1      47.584  30.200  26.365  1.00  0.00     0.031 C 
ATOM     61  C   UNL A   1      46.570  27.968  25.998  1.00  0.00     0.037 A 
BRANCH  48  62
ATOM     62  C   UNL A   1      41.624  24.514  27.345  1.00  0.00     0.064 A 
ATOM     63  C   UNL A   1      42.110  23.368  27.994  1.00  0.00     0.173 A 
ATOM     64  C   UNL A   1      40.443  24.392  26.596  1.00  0.00     0.173 A 
ATOM     65  F   UNL A   1      43.245  23.425  28.707  1.00  0.00    -0.203 F 
ATOM     66  C   UNL A   1      41.454  22.145  27.873  1.00  0.00     0.198 A 
ATOM     67  C   UNL A   1      39.773  23.176  26.507  1.00  0.00     0.198 A 
ATOM     68  F   UNL A   1      39.936  25.455  25.955  1.00  0.00    -0.203 F 
ATOM     69  F   UNL A   1      41.968  21.052  28.457  1.00  0.00    -0.200 F 
ATOM     70  C   UNL A   1      40.283  22.051  27.138  1.00  0.00     0.200 A 
ATOM     71  F   UNL A   1      38.634  23.090  25.807  1.00  0.00    -0.200 F 
ATOM     72  F   UNL A   1      39.649  20.875  27.031  1.00  0.00    -0.200 F 
ENDBRANCH  48  62
BRANCH  49  73
ATOM     73  C   UNL A   1      45.943  33.463  28.480  1.00  0.00     0.064 A 
ATOM     74  C   UNL A   1      46.635  33.754  29.665  1.00  0.00     0.173 A 
ATOM     75  C   UNL A   1      45.885  34.464  27.500  1.00  0.00     0.173 A 
ATOM     76  F   UNL A   1      46.696  32.840  30.645  1.00  0.00    -0.203 F 
ATOM     77  C   UNL A   1      47.221  35.001  29.870  1.00  0.00     0.198 A 
ATOM     78  C   UNL A   1      46.498  35.700  27.693  1.00  0.00     0.198 A 
ATOM     79  F   UNL A   1      45.231  34.241  26.350  1.00  0.00    -0.203 F 
ATOM     80  F   UNL A   1      47.826  35.271  31.035  1.00  0.00    -0.200 F 
ATOM     81  C   UNL A   1      47.157  35.972  28.881  1.00  0.00     0.200 A 
ATOM     82  F   UNL A   1      46.443  36.631  26.730  1.00  0.00    -0.200 F 
ATOM     83  F   UNL A   1      47.721  37.171  29.080  1.00  0.00    -0.200 F 
ENDBRANCH  49  73
BRANCH  61  84
ATOM     84  C   UNL A   1      47.764  27.599  25.162  1.00  0.00     0.064 A 
ATOM     85  C   UNL A   1      47.794  27.804  23.775  1.00  0.00     0.173 A 
ATOM     86  C   UNL A   1      48.919  27.084  25.774  1.00  0.00     0.173 A 
ATOM     87  F   UNL A   1      46.715  28.283  23.140  1.00  0.00    -0.203 F 
ATOM     88  C   UNL A   1      48.924  27.480  23.029  1.00  0.00     0.198 A 
ATOM     89  C   UNL A   1      50.059  26.796  25.030  1.00  0.00     0.198 A 
ATOM     90  F   UNL A   1      48.948  26.879  27.100  1.00  0.00    -0.203 F 
ATOM     91  F   UNL A   1      48.913  27.637  21.698  1.00  0.00    -0.200 F 
ATOM     92  C   UNL A   1      50.058  26.986  23.656  1.00  0.00     0.200 A 
ATOM     93  F   UNL A   1      51.159  26.338  25.643  1.00  0.00    -0.200 F 
ATOM     94  F   UNL A   1      51.148  26.687  22.938  1.00  0.00    -0.200 F 
ENDBRANCH  61  84
ENDBRANCH  35  36
ENDBRANCH  28  30
ENDBRANCH  27  28
ENDBRANCH  26  27
ENDBRANCH  25  26
ENDBRANCH  24  25
ENDBRANCH  23  24
ENDBRANCH  22  23
ENDBRANCH   1  22
TORSDOF 22
ENDMDL
MODEL 3
REMARK VINA RESULT:      -9.1      3.774     10.059
REMARK SMILES CC1(C)CSC[C@](O)([C@H](F)C(=O)OCCOCCOCCOCCOC(=O)c2ccc(-c3c4nc(c(-c5c(F)c(F)c(F)c(F)c5F)c5ccc([nH]5)c(-c5c(F)c(F)c(F)c(F)c5F)c5nc(c(-c6c(F)c(F)c(F)c(F)c6F)c6ccc3[nH]6)C=C5)C=C4)cc2)C1
REMARK SMILES IDX 19 1 18 2 17 3 16 4 15 5 14 6 13 7 11 8 12 9 9 10 10 11 7 12
REMARK SMILES IDX 1 13 2 14 3 15 4 16 91 17 5 18 6 19 8 20 20 22 21 23 22 24
REMARK SMILES IDX 23 25 24 26 25 27 26 28 27 29 28 30 29 31 90 32 30 33 89 34
REMARK SMILES IDX 31 35 32 36 33 37 83 38 34 39 88 40 82 41 84 42 35 43 87 44
REMARK SMILES IDX 81 45 80 46 36 48 68 49 48 50 67 51 49 52 52 53 66 54 85 55
REMARK SMILES IDX 50 56 51 57 65 59 86 60 53 61 37 62 38 63 46 64 39 65 40 66
REMARK SMILES IDX 44 67 47 68 41 69 42 70 45 71 43 72 69 73 70 74 78 75 71 76
REMARK SMILES IDX 72 77 76 78 79 79 73 80 74 81 77 82 75 83 54 84 55 85 63 86
REMARK SMILES IDX 56 87 57 88 61 89 64 90 58 91 59 92 62 93 60 94
REMARK H PARENT 8 21 84 47 52 58
REMARK Flexibility Score: inf
ROOT
ATOM      1  O   UNL A   1      42.118  23.490  26.143  1.00  0.00    -0.377 OA
ENDROOT
BRANCH   1   2
ATOM      2  C   UNL A   1      41.142  23.298  27.146  1.00  0.00     0.188 C 
BRANCH   2   3
ATOM      3  C   UNL A   1      40.666  21.840  27.264  1.00  0.00     0.188 C 
BRANCH   3   4
ATOM      4  O   UNL A   1      39.327  21.551  26.911  1.00  0.00    -0.376 OA
BRANCH   4   5
ATOM      5  C   UNL A   1      38.813  21.515  25.589  1.00  0.00     0.202 C 
BRANCH   5   6
ATOM      6  C   UNL A   1      37.773  20.547  25.003  1.00  0.00     0.261 C 
BRANCH   6   7
ATOM      7  O   UNL A   1      36.506  21.068  24.653  1.00  0.00    -0.461 OA
BRANCH   7   8
ATOM      8  C   UNL A   1      36.460  22.398  24.447  1.00  0.00     0.343 C 
ATOM      9  O   UNL A   1      36.716  22.955  23.384  1.00  0.00    -0.249 OA
BRANCH   8  10
ATOM     10  C   UNL A   1      36.041  23.138  25.691  1.00  0.00     0.308 C 
ATOM     11  F   UNL A   1      36.818  24.232  25.971  1.00  0.00    -0.232 F 
BRANCH  10  12
ATOM     12  C   UNL A   1      34.590  23.605  25.564  1.00  0.00     0.116 C 
ATOM     13  C   UNL A   1      32.701  25.495  23.729  1.00  0.00     0.012 C 
ATOM     14  C   UNL A   1      33.258  25.823  25.134  1.00  0.00    -0.023 C 
ATOM     15  C   UNL A   1      33.488  27.350  25.208  1.00  0.00     0.012 C 
ATOM     16  C   UNL A   1      32.262  25.468  26.260  1.00  0.00     0.076 C 
ATOM     17  C   UNL A   1      34.625  25.134  25.348  1.00  0.00     0.047 C 
ATOM     18  S   UNL A   1      32.026  23.698  26.576  1.00  0.00    -0.158 SA
ATOM     19  C   UNL A   1      33.768  23.236  26.809  1.00  0.00     0.108 C 
BRANCH  12  20
ATOM     20  O   UNL A   1      34.014  22.959  24.414  1.00  0.00    -0.385 OA
ATOM     21  H   UNL A   1      33.518  22.176  24.698  1.00  0.00     0.211 HD
ENDBRANCH  12  20
ENDBRANCH  10  12
ENDBRANCH   8  10
ENDBRANCH   7   8
ENDBRANCH   6   7
ENDBRANCH   5   6
ENDBRANCH   4   5
ENDBRANCH   3   4
ENDBRANCH   2   3
ENDBRANCH   1   2
BRANCH   1  22
ATOM     22  C   UNL A   1      42.561  22.348  25.422  1.00  0.00     0.188 C 
BRANCH  22  23
ATOM     23  C   UNL A   1      44.070  22.047  25.259  1.00  0.00     0.188 C 
BRANCH  23  24
ATOM     24  O   UNL A   1      44.859  22.308  26.410  1.00  0.00    -0.376 OA
BRANCH  24  25
ATOM     25  C   UNL A   1      45.699  23.447  26.429  1.00  0.00     0.202 C 
BRANCH  25  26
ATOM     26  C   UNL A   1      45.882  24.194  25.101  1.00  0.00     0.261 C 
BRANCH  26  27
ATOM     27  O   UNL A   1      44.950  25.255  24.849  1.00  0.00    -0.460 OA
BRANCH  27  28
ATOM     28  C   UNL A   1      45.380  26.516  25.050  1.00  0.00     0.338 C 
ATOM     29  O   UNL A   1      46.238  27.117  24.426  1.00  0.00    -0.246 OA
BRANCH  28  30
ATOM     30  C   UNL A   1      44.495  27.131  26.059  1.00  0.00     0.060 A 
ATOM     31  C   UNL A   1      44.688  28.476  26.407  1.00  0.00     0.016 A 
ATOM     32  C   UNL A   1      43.479  26.381  26.650  1.00  0.00     0.016 A 
ATOM     33  C   UNL A   1      43.889  29.061  27.389  1.00  0.00     0.010 A 
ATOM     34  C   UNL A   1      42.697  26.959  27.651  1.00  0.00     0.010 A 
ATOM     35  C   UNL A   1      42.930  28.286  28.052  1.00  0.00    -0.014 A 
BRANCH  35  36
ATOM     36  C   UNL A   1      42.350  28.766  29.329  1.00  0.00     0.031 A 
ATOM     37  C   UNL A   1      40.962  29.344  29.289  1.00  0.00     0.074 A 
ATOM     38  C   UNL A   1      43.027  28.697  30.486  1.00  0.00     0.049 A 
ATOM     39  N   UNL A   1      40.274  29.932  30.232  1.00  0.00    -0.248 NA
ATOM     40  C   UNL A   1      40.258  29.253  27.998  1.00  0.00     0.031 C 
ATOM     41  C   UNL A   1      44.354  28.112  30.658  1.00  0.00     0.029 A 
ATOM     42  N   UNL A   1      42.688  29.148  31.738  1.00  0.00    -0.354 N 
ATOM     43  C   UNL A   1      39.068  30.293  29.645  1.00  0.00     0.074 A 
ATOM     44  C   UNL A   1      39.126  29.885  28.260  1.00  0.00     0.031 C 
ATOM     45  C   UNL A   1      44.728  28.257  31.942  1.00  0.00     0.029 A 
ATOM     46  C   UNL A   1      43.685  28.982  32.667  1.00  0.00     0.049 A 
ATOM     47  H   UNL A   1      41.815  29.550  31.949  1.00  0.00     0.167 HD
ATOM     48  C   UNL A   1      38.004  30.906  30.215  1.00  0.00     0.037 A 
ATOM     49  C   UNL A   1      43.753  29.403  33.946  1.00  0.00     0.037 A 
ATOM     50  C   UNL A   1      37.955  31.312  31.593  1.00  0.00     0.049 A 
ATOM     51  C   UNL A   1      42.588  30.158  34.537  1.00  0.00     0.074 A 
ATOM     52  C   UNL A   1      36.923  31.929  32.275  1.00  0.00     0.029 A 
ATOM     53  N   UNL A   1      38.993  31.147  32.499  1.00  0.00    -0.354 N 
ATOM     54  N   UNL A   1      41.442  30.485  33.986  1.00  0.00    -0.248 NA
ATOM     55  C   UNL A   1      42.725  30.604  35.931  1.00  0.00     0.031 C 
ATOM     56  C   UNL A   1      37.358  32.195  33.576  1.00  0.00     0.029 A 
ATOM     57  C   UNL A   1      38.634  31.678  33.728  1.00  0.00     0.049 A 
ATOM     58  H   UNL A   1      39.856  30.717  32.299  1.00  0.00     0.167 HD
ATOM     59  C   UNL A   1      40.711  31.135  34.973  1.00  0.00     0.074 A 
ATOM     60  C   UNL A   1      41.540  31.152  36.161  1.00  0.00     0.031 C 
ATOM     61  C   UNL A   1      39.466  31.668  34.905  1.00  0.00     0.037 A 
BRANCH  48  62
ATOM     62  C   UNL A   1      36.825  31.207  29.336  1.00  0.00     0.064 A 
ATOM     63  C   UNL A   1      36.590  32.493  28.825  1.00  0.00     0.173 A 
ATOM     64  C   UNL A   1      35.928  30.188  28.983  1.00  0.00     0.173 A 
ATOM     65  F   UNL A   1      37.407  33.508  29.148  1.00  0.00    -0.203 F 
ATOM     66  C   UNL A   1      35.485  32.752  28.018  1.00  0.00     0.198 A 
ATOM     67  C   UNL A   1      34.844  30.443  28.148  1.00  0.00     0.198 A 
ATOM     68  F   UNL A   1      36.106  28.941  29.443  1.00  0.00    -0.203 F 
ATOM     69  F   UNL A   1      35.250  34.000  27.588  1.00  0.00    -0.200 F 
ATOM     70  C   UNL A   1      34.618  31.727  27.673  1.00  0.00     0.200 A 
ATOM     71  F   UNL A   1      34.015  29.448  27.804  1.00  0.00    -0.200 F 
ATOM     72  F   UNL A   1      33.560  31.976  26.889  1.00  0.00    -0.200 F 
ENDBRANCH  48  62
BRANCH  49  73
ATOM     73  C   UNL A   1      44.973  29.138  34.756  1.00  0.00     0.064 A 
ATOM     74  C   UNL A   1      46.057  30.027  34.742  1.00  0.00     0.173 A 
ATOM     75  C   UNL A   1      45.093  27.978  35.535  1.00  0.00     0.173 A 
ATOM     76  F   UNL A   1      46.003  31.137  33.989  1.00  0.00    -0.203 F 
ATOM     77  C   UNL A   1      47.222  29.755  35.456  1.00  0.00     0.198 A 
ATOM     78  C   UNL A   1      46.246  27.722  36.274  1.00  0.00     0.198 A 
ATOM     79  F   UNL A   1      44.088  27.091  35.580  1.00  0.00    -0.203 F 
ATOM     80  F   UNL A   1      48.264  30.594  35.378  1.00  0.00    -0.200 F 
ATOM     81  C   UNL A   1      47.314  28.606  36.227  1.00  0.00     0.200 A 
ATOM     82  F   UNL A   1      46.326  26.616  37.027  1.00  0.00    -0.200 F 
ATOM     83  F   UNL A   1      48.434  28.344  36.913  1.00  0.00    -0.200 F 
ENDBRANCH  49  73
BRANCH  61  84
ATOM     84  C   UNL A   1      38.892  32.261  36.162  1.00  0.00     0.064 A 
ATOM     85  C   UNL A   1      38.133  31.502  37.064  1.00  0.00     0.173 A 
ATOM     86  C   UNL A   1      39.157  33.601  36.493  1.00  0.00     0.173 A 
ATOM     87  F   UNL A   1      37.843  30.222  36.792  1.00  0.00    -0.203 F 
ATOM     88  C   UNL A   1      37.638  32.069  38.236  1.00  0.00     0.198 A 
ATOM     89  C   UNL A   1      38.690  34.153  37.682  1.00  0.00     0.198 A 
ATOM     90  F   UNL A   1      39.887  34.369  35.670  1.00  0.00    -0.203 F 
ATOM     91  F   UNL A   1      36.873  31.338  39.059  1.00  0.00    -0.200 F 
ATOM     92  C   UNL A   1      37.923  33.389  38.549  1.00  0.00     0.200 A 
ATOM     93  F   UNL A   1      38.986  35.424  37.990  1.00  0.00    -0.200 F 
ATOM     94  F   UNL A   1      37.457  33.928  39.683  1.00  0.00    -0.200 F 
ENDBRANCH  61  84
ENDBRANCH  35  36
ENDBRANCH  28  30
ENDBRANCH  27  28
ENDBRANCH  26  27
ENDBRANCH  25  26
ENDBRANCH  24  25
ENDBRANCH  23  24
ENDBRANCH  22  23
ENDBRANCH   1  22
TORSDOF 22
ENDMDL
