MODEL 1
REMARK VINA RESULT:     -11.3      0.000      0.000
REMARK SMILES O=C(OCCOCCOCCOCCOC(=O)c1cc(Cl)c2c(c1)[C@H]1C=CC[C@H]1[C@H](c1ccc(S(=O)(=O)N3CCOCC3)cc1)N2)c1ccc(-c2c3nc(c(-c4c(F)c(F)c(F)c(F)c4F)c4ccc([nH]4)c(-c4c(F)c(F)c(F)c(F)c4F)c4nc(c(-c5c(F)c(F)c(F)c(F)c5F)c5ccc2[nH]5)C=C4)C=C3)cc1
REMARK SMILES IDX 10 1 9 2 8 3 7 4 6 5 5 6 4 7 3 8 2 9 1 10 47 11 48 12 109 13
REMARK SMILES IDX 49 14 108 15 50 16 51 17 52 18 102 19 53 20 107 21 101 22
REMARK SMILES IDX 103 23 54 24 106 25 100 26 99 27 55 29 87 30 67 31 86 32
REMARK SMILES IDX 68 33 71 34 85 35 104 36 69 37 70 38 84 40 105 41 72 42
REMARK SMILES IDX 56 43 57 44 65 45 58 46 59 47 63 48 66 49 60 50 61 51 64 52
REMARK SMILES IDX 62 53 88 54 89 55 97 56 90 57 91 58 95 59 98 60 92 61 93 62
REMARK SMILES IDX 96 63 94 64 73 65 74 66 82 67 75 68 76 69 80 70 83 71 77 72
REMARK SMILES IDX 78 73 81 74 79 75 11 76 12 77 13 78 14 79 15 80 16 81 17 82
REMARK SMILES IDX 18 83 19 84 24 85 20 86 23 87 21 88 22 89 25 90 46 91 26 92
REMARK SMILES IDX 29 93 30 94 27 96 28 97 31 98 32 99 45 100 33 101 44 102
REMARK SMILES IDX 34 103 35 104 36 105 37 106 38 107 39 108 43 109 40 110
REMARK SMILES IDX 42 111 41 112
REMARK H PARENT 103 28 71 39 46 95
REMARK Flexibility Score: inf
ROOT
ATOM      1  C   UNL A   1      30.484  29.295  23.651  1.00  0.00     0.188 C 
ENDROOT
BRANCH   1   2
ATOM      2  O   UNL A   1      31.088  29.126  24.917  1.00  0.00    -0.377 OA
BRANCH   2   3
ATOM      3  C   UNL A   1      31.559  30.293  25.566  1.00  0.00     0.188 C 
BRANCH   3   4
ATOM      4  C   UNL A   1      32.902  30.151  26.273  1.00  0.00     0.188 C 
BRANCH   4   5
ATOM      5  O   UNL A   1      32.955  30.734  27.583  1.00  0.00    -0.376 OA
BRANCH   5   6
ATOM      6  C   UNL A   1      34.154  31.421  27.931  1.00  0.00     0.202 C 
BRANCH   6   7
ATOM      7  C   UNL A   1      34.145  32.888  27.523  1.00  0.00     0.261 C 
BRANCH   7   8
ATOM      8  O   UNL A   1      33.306  33.668  28.391  1.00  0.00    -0.460 OA
BRANCH   8   9
ATOM      9  C   UNL A   1      33.525  34.147  29.633  1.00  0.00     0.338 C 
ATOM     10  O   UNL A   1      32.707  34.951  30.083  1.00  0.00    -0.246 OA
BRANCH   9  11
ATOM     11  C   UNL A   1      34.739  33.864  30.472  1.00  0.00     0.060 A 
ATOM     12  C   UNL A   1      36.019  34.398  30.303  1.00  0.00     0.016 A 
ATOM     13  C   UNL A   1      34.549  32.963  31.542  1.00  0.00     0.016 A 
ATOM     14  C   UNL A   1      37.074  34.048  31.147  1.00  0.00     0.010 A 
ATOM     15  C   UNL A   1      35.610  32.559  32.356  1.00  0.00     0.010 A 
ATOM     16  C   UNL A   1      36.886  33.074  32.125  1.00  0.00    -0.014 A 
BRANCH  16  17
ATOM     17  C   UNL A   1      38.077  32.393  32.664  1.00  0.00     0.031 A 
ATOM     18  C   UNL A   1      38.627  31.247  31.862  1.00  0.00     0.074 A 
ATOM     19  C   UNL A   1      38.683  32.816  33.783  1.00  0.00     0.049 A 
ATOM     20  N   UNL A   1      39.705  30.536  32.057  1.00  0.00    -0.248 NA
ATOM     21  C   UNL A   1      37.878  30.883  30.643  1.00  0.00     0.031 C 
ATOM     22  C   UNL A   1      38.285  33.976  34.573  1.00  0.00     0.029 A 
ATOM     23  N   UNL A   1      39.776  32.314  34.437  1.00  0.00    -0.354 N 
ATOM     24  C   UNL A   1      39.793  29.692  30.959  1.00  0.00     0.074 A 
ATOM     25  C   UNL A   1      38.652  29.950  30.114  1.00  0.00     0.031 C 
ATOM     26  C   UNL A   1      39.120  34.092  35.622  1.00  0.00     0.029 A 
ATOM     27  C   UNL A   1      40.089  32.999  35.583  1.00  0.00     0.049 A 
ATOM     28  H   UNL A   1      40.288  31.536  34.116  1.00  0.00     0.167 HD
ATOM     29  C   UNL A   1      40.746  28.773  30.683  1.00  0.00     0.037 A 
ATOM     30  C   UNL A   1      41.047  32.747  36.496  1.00  0.00     0.037 A 
ATOM     31  C   UNL A   1      41.795  28.427  31.596  1.00  0.00     0.049 A 
ATOM     32  C   UNL A   1      41.966  31.573  36.276  1.00  0.00     0.074 A 
ATOM     33  C   UNL A   1      42.738  27.424  31.491  1.00  0.00     0.029 A 
ATOM     34  N   UNL A   1      42.008  29.060  32.813  1.00  0.00    -0.354 N 
ATOM     35  N   UNL A   1      42.041  30.763  35.246  1.00  0.00    -0.248 NA
ATOM     36  C   UNL A   1      42.925  31.272  37.348  1.00  0.00     0.031 C 
ATOM     37  C   UNL A   1      43.487  27.414  32.673  1.00  0.00     0.029 A 
ATOM     38  C   UNL A   1      43.048  28.449  33.486  1.00  0.00     0.049 A 
ATOM     39  H   UNL A   1      41.494  29.831  33.146  1.00  0.00     0.167 HD
ATOM     40  C   UNL A   1      43.067  29.873  35.531  1.00  0.00     0.074 A 
ATOM     41  C   UNL A   1      43.588  30.245  36.832  1.00  0.00     0.031 C 
ATOM     42  C   UNL A   1      43.541  28.845  34.782  1.00  0.00     0.037 A 
BRANCH  29  43
ATOM     43  C   UNL A   1      40.626  28.052  29.376  1.00  0.00     0.064 A 
ATOM     44  C   UNL A   1      39.766  26.951  29.232  1.00  0.00     0.173 A 
ATOM     45  C   UNL A   1      41.405  28.428  28.275  1.00  0.00     0.173 A 
ATOM     46  F   UNL A   1      39.027  26.530  30.269  1.00  0.00    -0.203 F 
ATOM     47  C   UNL A   1      39.707  26.242  28.035  1.00  0.00     0.198 A 
ATOM     48  C   UNL A   1      41.328  27.729  27.073  1.00  0.00     0.198 A 
ATOM     49  F   UNL A   1      42.255  29.461  28.370  1.00  0.00    -0.203 F 
ATOM     50  F   UNL A   1      38.918  25.163  27.934  1.00  0.00    -0.200 F 
ATOM     51  C   UNL A   1      40.485  26.634  26.956  1.00  0.00     0.200 A 
ATOM     52  F   UNL A   1      42.084  28.105  26.033  1.00  0.00    -0.200 F 
ATOM     53  F   UNL A   1      40.437  25.944  25.808  1.00  0.00    -0.200 F 
ENDBRANCH  29  43
BRANCH  30  54
ATOM     54  C   UNL A   1      41.173  33.620  37.691  1.00  0.00     0.064 A 
ATOM     55  C   UNL A   1      42.130  34.641  37.742  1.00  0.00     0.173 A 
ATOM     56  C   UNL A   1      40.322  33.468  38.797  1.00  0.00     0.173 A 
ATOM     57  F   UNL A   1      42.984  34.809  36.722  1.00  0.00    -0.203 F 
ATOM     58  C   UNL A   1      42.228  35.481  38.850  1.00  0.00     0.198 A 
ATOM     59  C   UNL A   1      40.406  34.322  39.894  1.00  0.00     0.198 A 
ATOM     60  F   UNL A   1      39.394  32.499  38.802  1.00  0.00    -0.203 F 
ATOM     61  F   UNL A   1      43.167  36.437  38.882  1.00  0.00    -0.200 F 
ATOM     62  C   UNL A   1      41.360  35.327  39.920  1.00  0.00     0.200 A 
ATOM     63  F   UNL A   1      39.560  34.173  40.923  1.00  0.00    -0.200 F 
ATOM     64  F   UNL A   1      41.446  36.145  40.980  1.00  0.00    -0.200 F 
ENDBRANCH  30  54
BRANCH  42  65
ATOM     65  C   UNL A   1      44.692  28.060  35.335  1.00  0.00     0.064 A 
ATOM     66  C   UNL A   1      44.489  26.917  36.120  1.00  0.00     0.173 A 
ATOM     67  C   UNL A   1      46.009  28.401  34.990  1.00  0.00     0.173 A 
ATOM     68  F   UNL A   1      43.249  26.557  36.482  1.00  0.00    -0.203 F 
ATOM     69  C   UNL A   1      45.568  26.149  36.550  1.00  0.00     0.198 A 
ATOM     70  C   UNL A   1      47.081  27.616  35.398  1.00  0.00     0.198 A 
ATOM     71  F   UNL A   1      46.249  29.480  34.229  1.00  0.00    -0.203 F 
ATOM     72  F   UNL A   1      45.356  25.074  37.321  1.00  0.00    -0.200 F 
ATOM     73  C   UNL A   1      46.861  26.492  36.180  1.00  0.00     0.200 A 
ATOM     74  F   UNL A   1      48.327  27.939  35.025  1.00  0.00    -0.200 F 
ATOM     75  F   UNL A   1      47.895  25.739  36.577  1.00  0.00    -0.200 F 
ENDBRANCH  42  65
ENDBRANCH  16  17
ENDBRANCH   9  11
ENDBRANCH   8   9
ENDBRANCH   7   8
ENDBRANCH   6   7
ENDBRANCH   5   6
ENDBRANCH   4   5
ENDBRANCH   3   4
ENDBRANCH   2   3
ENDBRANCH   1   2
BRANCH   1  76
ATOM     76  C   UNL A   1      29.997  27.997  22.978  1.00  0.00     0.188 C 
BRANCH  76  77
ATOM     77  O   UNL A   1      28.693  27.504  23.260  1.00  0.00    -0.376 OA
BRANCH  77  78
ATOM     78  C   UNL A   1      28.533  26.419  24.168  1.00  0.00     0.202 C 
BRANCH  78  79
ATOM     79  C   UNL A   1      29.798  25.771  24.748  1.00  0.00     0.261 C 
BRANCH  79  80
ATOM     80  O   UNL A   1      29.818  25.739  26.186  1.00  0.00    -0.460 OA
BRANCH  80  81
ATOM     81  C   UNL A   1      30.076  24.531  26.756  1.00  0.00     0.338 C 
ATOM     82  O   UNL A   1      29.309  23.812  27.350  1.00  0.00    -0.246 OA
BRANCH  81  83
ATOM     83  C   UNL A   1      31.431  24.102  26.343  1.00  0.00     0.062 A 
ATOM     84  C   UNL A   1      32.424  25.017  26.014  1.00  0.00     0.038 A 
ATOM     85  C   UNL A   1      31.665  22.730  26.213  1.00  0.00     0.022 A 
ATOM     86  C   UNL A   1      33.671  24.537  25.601  1.00  0.00     0.065 A 
ATOM     87  C   UNL A   1      32.888  22.257  25.709  1.00  0.00    -0.015 A 
ATOM     88  Cl  UNL A   1      34.910  25.695  25.251  1.00  0.00    -0.082 Cl
ATOM     89  C   UNL A   1      33.926  23.154  25.444  1.00  0.00     0.057 A 
ATOM     90  C   UNL A   1      33.043  20.793  25.430  1.00  0.00     0.049 C 
ATOM     91  N   UNL A   1      35.182  22.686  25.110  1.00  0.00    -0.376 N 
ATOM     92  C   UNL A   1      32.583  20.356  24.060  1.00  0.00    -0.023 C 
ATOM     93  C   UNL A   1      34.490  20.286  25.446  1.00  0.00     0.031 C 
ATOM     94  C   UNL A   1      35.480  21.297  24.805  1.00  0.00     0.114 C 
ATOM     95  H   UNL A   1      35.922  23.335  25.074  1.00  0.00     0.161 HD
ATOM     96  C   UNL A   1      33.321  19.333  23.615  1.00  0.00    -0.030 C 
ATOM     97  C   UNL A   1      34.377  18.981  24.619  1.00  0.00     0.034 C 
BRANCH  94  98
ATOM     98  C   UNL A   1      36.903  20.971  25.255  1.00  0.00    -0.025 A 
ATOM     99  C   UNL A   1      37.523  19.730  25.014  1.00  0.00     0.007 A 
ATOM    100  C   UNL A   1      37.657  21.980  25.859  1.00  0.00     0.007 A 
ATOM    101  C   UNL A   1      38.861  19.511  25.370  1.00  0.00     0.022 A 
ATOM    102  C   UNL A   1      39.000  21.783  26.147  1.00  0.00     0.022 A 
ATOM    103  C   UNL A   1      39.604  20.553  25.927  1.00  0.00     0.082 A 
BRANCH 103 104
ATOM    104  S   UNL A   1      41.306  20.277  26.366  1.00  0.00     0.243 S 
ATOM    105  O   UNL A   1      41.289  19.671  27.681  1.00  0.00    -0.207 OA
ATOM    106  O   UNL A   1      41.918  19.624  25.230  1.00  0.00    -0.207 OA
BRANCH 104 107
ATOM    107  N   UNL A   1      41.977  21.807  26.517  1.00  0.00    -0.193 NA
ATOM    108  C   UNL A   1      42.435  22.586  25.350  1.00  0.00     0.131 C 
ATOM    109  C   UNL A   1      42.183  22.453  27.827  1.00  0.00     0.131 C 
ATOM    110  C   UNL A   1      43.844  23.151  25.581  1.00  0.00     0.177 C 
ATOM    111  C   UNL A   1      43.612  22.993  27.945  1.00  0.00     0.177 C 
ATOM    112  O   UNL A   1      43.962  23.834  26.837  1.00  0.00    -0.379 OA
ENDBRANCH 104 107
ENDBRANCH 103 104
ENDBRANCH  94  98
ENDBRANCH  81  83
ENDBRANCH  80  81
ENDBRANCH  79  80
ENDBRANCH  78  79
ENDBRANCH  77  78
ENDBRANCH  76  77
ENDBRANCH   1  76
TORSDOF 23
ENDMDL
MODEL 2
REMARK VINA RESULT:     -11.2      5.077     11.300
REMARK SMILES O=C(OCCOCCOCCOCCOC(=O)c1cc(Cl)c2c(c1)[C@H]1C=CC[C@H]1[C@H](c1ccc(S(=O)(=O)N3CCOCC3)cc1)N2)c1ccc(-c2c3nc(c(-c4c(F)c(F)c(F)c(F)c4F)c4ccc([nH]4)c(-c4c(F)c(F)c(F)c(F)c4F)c4nc(c(-c5c(F)c(F)c(F)c(F)c5F)c5ccc2[nH]5)C=C4)C=C3)cc1
REMARK SMILES IDX 10 1 9 2 8 3 7 4 6 5 5 6 4 7 3 8 2 9 1 10 47 11 48 12 109 13
REMARK SMILES IDX 49 14 108 15 50 16 51 17 52 18 102 19 53 20 107 21 101 22
REMARK SMILES IDX 103 23 54 24 106 25 100 26 99 27 55 29 87 30 67 31 86 32
REMARK SMILES IDX 68 33 71 34 85 35 104 36 69 37 70 38 84 40 105 41 72 42
REMARK SMILES IDX 56 43 57 44 65 45 58 46 59 47 63 48 66 49 60 50 61 51 64 52
REMARK SMILES IDX 62 53 88 54 89 55 97 56 90 57 91 58 95 59 98 60 92 61 93 62
REMARK SMILES IDX 96 63 94 64 73 65 74 66 82 67 75 68 76 69 80 70 83 71 77 72
REMARK SMILES IDX 78 73 81 74 79 75 11 76 12 77 13 78 14 79 15 80 16 81 17 82
REMARK SMILES IDX 18 83 19 84 24 85 20 86 23 87 21 88 22 89 25 90 46 91 26 92
REMARK SMILES IDX 29 93 30 94 27 96 28 97 31 98 32 99 45 100 33 101 44 102
REMARK SMILES IDX 34 103 35 104 36 105 37 106 38 107 39 108 43 109 40 110
REMARK SMILES IDX 42 111 41 112
REMARK H PARENT 103 28 71 39 46 95
REMARK Flexibility Score: inf
ROOT
ATOM      1  C   UNL A   1      38.506  21.948  25.920  1.00  0.00     0.188 C 
ENDROOT
BRANCH   1   2
ATOM      2  O   UNL A   1      39.873  22.011  26.270  1.00  0.00    -0.377 OA
BRANCH   2   3
ATOM      3  C   UNL A   1      40.442  20.852  26.851  1.00  0.00     0.188 C 
BRANCH   3   4
ATOM      4  C   UNL A   1      40.209  19.555  26.084  1.00  0.00     0.188 C 
BRANCH   4   5
ATOM      5  O   UNL A   1      41.404  18.906  25.626  1.00  0.00    -0.376 OA
BRANCH   5   6
ATOM      6  C   UNL A   1      42.378  18.585  26.615  1.00  0.00     0.202 C 
BRANCH   6   7
ATOM      7  C   UNL A   1      43.449  17.626  26.113  1.00  0.00     0.261 C 
BRANCH   7   8
ATOM      8  O   UNL A   1      44.589  18.336  25.601  1.00  0.00    -0.460 OA
BRANCH   8   9
ATOM      9  C   UNL A   1      44.678  19.306  24.667  1.00  0.00     0.338 C 
ATOM     10  O   UNL A   1      45.045  18.974  23.539  1.00  0.00    -0.246 OA
BRANCH   9  11
ATOM     11  C   UNL A   1      44.469  20.773  24.915  1.00  0.00     0.060 A 
ATOM     12  C   UNL A   1      44.789  21.824  24.051  1.00  0.00     0.016 A 
ATOM     13  C   UNL A   1      43.885  21.109  26.155  1.00  0.00     0.016 A 
ATOM     14  C   UNL A   1      44.553  23.154  24.401  1.00  0.00     0.010 A 
ATOM     15  C   UNL A   1      43.700  22.438  26.541  1.00  0.00     0.010 A 
ATOM     16  C   UNL A   1      44.078  23.464  25.674  1.00  0.00    -0.014 A 
BRANCH  16  17
ATOM     17  C   UNL A   1      44.285  24.833  26.179  1.00  0.00     0.031 A 
ATOM     18  C   UNL A   1      45.681  25.384  26.097  1.00  0.00     0.074 A 
ATOM     19  C   UNL A   1      43.266  25.578  26.628  1.00  0.00     0.049 A 
ATOM     20  N   UNL A   1      46.122  26.579  26.385  1.00  0.00    -0.248 NA
ATOM     21  C   UNL A   1      46.716  24.472  25.573  1.00  0.00     0.031 C 
ATOM     22  C   UNL A   1      41.865  25.168  26.653  1.00  0.00     0.029 A 
ATOM     23  N   UNL A   1      43.261  26.848  27.141  1.00  0.00    -0.354 N 
ATOM     24  C   UNL A   1      47.461  26.577  26.019  1.00  0.00     0.074 A 
ATOM     25  C   UNL A   1      47.775  25.261  25.516  1.00  0.00     0.031 C 
ATOM     26  C   UNL A   1      41.131  26.169  27.171  1.00  0.00     0.029 A 
ATOM     27  C   UNL A   1      42.018  27.274  27.533  1.00  0.00     0.049 A 
ATOM     28  H   UNL A   1      44.071  27.402  27.221  1.00  0.00     0.167 HD
ATOM     29  C   UNL A   1      48.354  27.588  26.101  1.00  0.00     0.037 A 
ATOM     30  C   UNL A   1      41.657  28.425  28.132  1.00  0.00     0.037 A 
ATOM     31  C   UNL A   1      48.068  28.843  26.732  1.00  0.00     0.049 A 
ATOM     32  C   UNL A   1      42.718  29.456  28.417  1.00  0.00     0.074 A 
ATOM     33  C   UNL A   1      48.924  29.894  26.998  1.00  0.00     0.029 A 
ATOM     34  N   UNL A   1      46.822  29.195  27.235  1.00  0.00    -0.354 N 
ATOM     35  N   UNL A   1      43.988  29.449  28.086  1.00  0.00    -0.248 NA
ATOM     36  C   UNL A   1      42.300  30.649  29.166  1.00  0.00     0.031 C 
ATOM     37  C   UNL A   1      48.207  30.859  27.714  1.00  0.00     0.029 A 
ATOM     38  C   UNL A   1      46.892  30.435  27.840  1.00  0.00     0.049 A 
ATOM     39  H   UNL A   1      46.010  28.643  27.170  1.00  0.00     0.167 HD
ATOM     40  C   UNL A   1      44.517  30.641  28.562  1.00  0.00     0.074 A 
ATOM     41  C   UNL A   1      43.426  31.350  29.203  1.00  0.00     0.031 C 
ATOM     42  C   UNL A   1      45.786  31.111  28.471  1.00  0.00     0.037 A 
BRANCH  29  43
ATOM     43  C   UNL A   1      49.723  27.322  25.557  1.00  0.00     0.064 A 
ATOM     44  C   UNL A   1      50.002  27.472  24.189  1.00  0.00     0.173 A 
ATOM     45  C   UNL A   1      50.752  26.869  26.393  1.00  0.00     0.173 A 
ATOM     46  F   UNL A   1      49.039  27.869  23.343  1.00  0.00    -0.203 F 
ATOM     47  C   UNL A   1      51.258  27.160  23.676  1.00  0.00     0.198 A 
ATOM     48  C   UNL A   1      52.012  26.576  25.880  1.00  0.00     0.198 A 
ATOM     49  F   UNL A   1      50.529  26.691  27.703  1.00  0.00    -0.203 F 
ATOM     50  F   UNL A   1      51.487  27.261  22.360  1.00  0.00    -0.200 F 
ATOM     51  C   UNL A   1      52.262  26.716  24.522  1.00  0.00     0.200 A 
ATOM     52  F   UNL A   1      52.982  26.142  26.697  1.00  0.00    -0.200 F 
ATOM     53  F   UNL A   1      53.467  26.402  24.027  1.00  0.00    -0.200 F 
ENDBRANCH  29  43
BRANCH  30  54
ATOM     54  C   UNL A   1      40.236  28.650  28.500  1.00  0.00     0.064 A 
ATOM     55  C   UNL A   1      39.767  28.357  29.788  1.00  0.00     0.173 A 
ATOM     56  C   UNL A   1      39.322  29.186  27.580  1.00  0.00     0.173 A 
ATOM     57  F   UNL A   1      40.596  27.817  30.694  1.00  0.00    -0.203 F 
ATOM     58  C   UNL A   1      38.441  28.598  30.143  1.00  0.00     0.198 A 
ATOM     59  C   UNL A   1      38.002  29.447  27.943  1.00  0.00     0.198 A 
ATOM     60  F   UNL A   1      39.717  29.476  26.332  1.00  0.00    -0.203 F 
ATOM     61  F   UNL A   1      38.014  28.288  31.375  1.00  0.00    -0.200 F 
ATOM     62  C   UNL A   1      37.563  29.151  29.224  1.00  0.00     0.200 A 
ATOM     63  F   UNL A   1      37.159  29.988  27.053  1.00  0.00    -0.200 F 
ATOM     64  F   UNL A   1      36.291  29.395  29.571  1.00  0.00    -0.200 F 
ENDBRANCH  30  54
BRANCH  42  65
ATOM     65  C   UNL A   1      46.068  32.461  29.058  1.00  0.00     0.064 A 
ATOM     66  C   UNL A   1      45.939  33.632  28.298  1.00  0.00     0.173 A 
ATOM     67  C   UNL A   1      46.374  32.588  30.422  1.00  0.00     0.173 A 
ATOM     68  F   UNL A   1      45.656  33.560  26.989  1.00  0.00    -0.203 F 
ATOM     69  C   UNL A   1      46.117  34.883  28.883  1.00  0.00     0.198 A 
ATOM     70  C   UNL A   1      46.524  33.840  31.008  1.00  0.00     0.198 A 
ATOM     71  F   UNL A   1      46.495  31.494  31.191  1.00  0.00    -0.203 F 
ATOM     72  F   UNL A   1      46.014  35.990  28.134  1.00  0.00    -0.200 F 
ATOM     73  C   UNL A   1      46.398  34.986  30.238  1.00  0.00     0.200 A 
ATOM     74  F   UNL A   1      46.778  33.938  32.320  1.00  0.00    -0.200 F 
ATOM     75  F   UNL A   1      46.548  36.192  30.802  1.00  0.00    -0.200 F 
ENDBRANCH  42  65
ENDBRANCH  16  17
ENDBRANCH   9  11
ENDBRANCH   8   9
ENDBRANCH   7   8
ENDBRANCH   6   7
ENDBRANCH   5   6
ENDBRANCH   4   5
ENDBRANCH   3   4
ENDBRANCH   2   3
ENDBRANCH   1   2
BRANCH   1  76
ATOM     76  C   UNL A   1      37.779  23.306  25.867  1.00  0.00     0.188 C 
BRANCH  76  77
ATOM     77  O   UNL A   1      37.085  23.688  24.686  1.00  0.00    -0.376 OA
BRANCH  77  78
ATOM     78  C   UNL A   1      36.515  22.685  23.851  1.00  0.00     0.202 C 
BRANCH  78  79
ATOM     79  C   UNL A   1      35.313  23.070  22.979  1.00  0.00     0.261 C 
BRANCH  79  80
ATOM     80  O   UNL A   1      34.167  22.221  23.174  1.00  0.00    -0.460 OA
BRANCH  80  81
ATOM     81  C   UNL A   1      32.961  22.756  22.845  1.00  0.00     0.338 C 
ATOM     82  O   UNL A   1      32.120  22.295  22.111  1.00  0.00    -0.246 OA
BRANCH  81  83
ATOM     83  C   UNL A   1      32.720  23.929  23.714  1.00  0.00     0.062 A 
ATOM     84  C   UNL A   1      32.714  23.828  25.100  1.00  0.00     0.038 A 
ATOM     85  C   UNL A   1      32.413  25.144  23.095  1.00  0.00     0.022 A 
ATOM     86  C   UNL A   1      32.446  24.974  25.857  1.00  0.00     0.065 A 
ATOM     87  C   UNL A   1      32.053  26.267  23.857  1.00  0.00    -0.015 A 
ATOM     88  Cl  UNL A   1      32.501  24.838  27.583  1.00  0.00    -0.082 Cl
ATOM     89  C   UNL A   1      32.115  26.210  25.252  1.00  0.00     0.057 A 
ATOM     90  C   UNL A   1      31.574  27.501  23.156  1.00  0.00     0.049 C 
ATOM     91  N   UNL A   1      31.927  27.353  26.005  1.00  0.00    -0.376 N 
ATOM     92  C   UNL A   1      30.094  27.527  22.859  1.00  0.00    -0.023 C 
ATOM     93  C   UNL A   1      31.753  28.801  23.949  1.00  0.00     0.031 C 
ATOM     94  C   UNL A   1      31.459  28.617  25.463  1.00  0.00     0.114 C 
ATOM     95  H   UNL A   1      32.122  27.308  26.969  1.00  0.00     0.161 HD
ATOM     96  C   UNL A   1      29.622  28.778  22.907  1.00  0.00    -0.030 C 
ATOM     97  C   UNL A   1      30.720  29.732  23.266  1.00  0.00     0.034 C 
BRANCH  94  98
ATOM     98  C   UNL A   1      32.085  29.769  26.247  1.00  0.00    -0.025 A 
ATOM     99  C   UNL A   1      33.364  29.699  26.832  1.00  0.00     0.007 A 
ATOM    100  C   UNL A   1      31.393  30.981  26.316  1.00  0.00     0.007 A 
ATOM    101  C   UNL A   1      33.929  30.814  27.466  1.00  0.00     0.022 A 
ATOM    102  C   UNL A   1      31.982  32.101  26.884  1.00  0.00     0.022 A 
ATOM    103  C   UNL A   1      33.235  32.024  27.477  1.00  0.00     0.082 A 
BRANCH 103 104
ATOM    104  S   UNL A   1      33.960  33.442  28.272  1.00  0.00     0.243 S 
ATOM    105  O   UNL A   1      34.680  34.158  27.239  1.00  0.00    -0.207 OA
ATOM    106  O   UNL A   1      32.903  34.062  29.039  1.00  0.00    -0.207 OA
BRANCH 104 107
ATOM    107  N   UNL A   1      35.091  32.817  29.342  1.00  0.00    -0.193 NA
ATOM    108  C   UNL A   1      34.723  32.351  30.694  1.00  0.00     0.131 C 
ATOM    109  C   UNL A   1      36.525  32.728  29.013  1.00  0.00     0.131 C 
ATOM    110  C   UNL A   1      35.670  32.931  31.755  1.00  0.00     0.177 C 
ATOM    111  C   UNL A   1      37.377  33.319  30.142  1.00  0.00     0.177 C 
ATOM    112  O   UNL A   1      37.052  32.747  31.416  1.00  0.00    -0.379 OA
ENDBRANCH 104 107
ENDBRANCH 103 104
ENDBRANCH  94  98
ENDBRANCH  81  83
ENDBRANCH  80  81
ENDBRANCH  79  80
ENDBRANCH  78  79
ENDBRANCH  77  78
ENDBRANCH  76  77
ENDBRANCH   1  76
TORSDOF 23
ENDMDL
MODEL 3
REMARK VINA RESULT:     -11.2      4.765      8.125
REMARK SMILES O=C(OCCOCCOCCOCCOC(=O)c1cc(Cl)c2c(c1)[C@H]1C=CC[C@H]1[C@H](c1ccc(S(=O)(=O)N3CCOCC3)cc1)N2)c1ccc(-c2c3nc(c(-c4c(F)c(F)c(F)c(F)c4F)c4ccc([nH]4)c(-c4c(F)c(F)c(F)c(F)c4F)c4nc(c(-c5c(F)c(F)c(F)c(F)c5F)c5ccc2[nH]5)C=C4)C=C3)cc1
REMARK SMILES IDX 10 1 9 2 8 3 7 4 6 5 5 6 4 7 3 8 2 9 1 10 47 11 48 12 109 13
REMARK SMILES IDX 49 14 108 15 50 16 51 17 52 18 102 19 53 20 107 21 101 22
REMARK SMILES IDX 103 23 54 24 106 25 100 26 99 27 55 29 87 30 67 31 86 32
REMARK SMILES IDX 68 33 71 34 85 35 104 36 69 37 70 38 84 40 105 41 72 42
REMARK SMILES IDX 56 43 57 44 65 45 58 46 59 47 63 48 66 49 60 50 61 51 64 52
REMARK SMILES IDX 62 53 88 54 89 55 97 56 90 57 91 58 95 59 98 60 92 61 93 62
REMARK SMILES IDX 96 63 94 64 73 65 74 66 82 67 75 68 76 69 80 70 83 71 77 72
REMARK SMILES IDX 78 73 81 74 79 75 11 76 12 77 13 78 14 79 15 80 16 81 17 82
REMARK SMILES IDX 18 83 19 84 24 85 20 86 23 87 21 88 22 89 25 90 46 91 26 92
REMARK SMILES IDX 29 93 30 94 27 96 28 97 31 98 32 99 45 100 33 101 44 102
REMARK SMILES IDX 34 103 35 104 36 105 37 106 38 107 39 108 43 109 40 110
REMARK SMILES IDX 42 111 41 112
REMARK H PARENT 103 28 71 39 46 95
REMARK Flexibility Score: inf
ROOT
ATOM      1  C   UNL A   1      34.003  35.743  28.369  1.00  0.00     0.188 C 
ENDROOT
BRANCH   1   2
ATOM      2  O   UNL A   1      32.728  35.665  28.974  1.00  0.00    -0.377 OA
BRANCH   2   3
ATOM      3  C   UNL A   1      32.526  36.432  30.146  1.00  0.00     0.188 C 
BRANCH   3   4
ATOM      4  C   UNL A   1      33.219  35.906  31.399  1.00  0.00     0.188 C 
BRANCH   4   5
ATOM      5  O   UNL A   1      34.180  36.802  31.973  1.00  0.00    -0.376 OA
BRANCH   5   6
ATOM      6  C   UNL A   1      34.027  37.106  33.357  1.00  0.00     0.202 C 
BRANCH   6   7
ATOM      7  C   UNL A   1      34.099  35.877  34.253  1.00  0.00     0.261 C 
BRANCH   7   8
ATOM      8  O   UNL A   1      35.324  35.153  34.052  1.00  0.00    -0.460 OA
BRANCH   8   9
ATOM      9  C   UNL A   1      35.552  33.833  33.882  1.00  0.00     0.338 C 
ATOM     10  O   UNL A   1      34.583  33.077  33.960  1.00  0.00    -0.246 OA
BRANCH   9  11
ATOM     11  C   UNL A   1      36.904  33.200  33.713  1.00  0.00     0.060 A 
ATOM     12  C   UNL A   1      38.067  33.502  34.427  1.00  0.00     0.016 A 
ATOM     13  C   UNL A   1      36.991  32.193  32.729  1.00  0.00     0.016 A 
ATOM     14  C   UNL A   1      39.272  32.847  34.170  1.00  0.00     0.010 A 
ATOM     15  C   UNL A   1      38.204  31.572  32.421  1.00  0.00     0.010 A 
ATOM     16  C   UNL A   1      39.357  31.936  33.119  1.00  0.00    -0.014 A 
BRANCH  16  17
ATOM     17  C   UNL A   1      40.691  31.628  32.572  1.00  0.00     0.031 A 
ATOM     18  C   UNL A   1      41.299  32.645  31.648  1.00  0.00     0.074 A 
ATOM     19  C   UNL A   1      41.361  30.524  32.934  1.00  0.00     0.049 A 
ATOM     20  N   UNL A   1      42.485  32.669  31.101  1.00  0.00    -0.248 NA
ATOM     21  C   UNL A   1      40.468  33.824  31.335  1.00  0.00     0.031 C 
ATOM     22  C   UNL A   1      40.898  29.532  33.899  1.00  0.00     0.029 A 
ATOM     23  N   UNL A   1      42.587  30.066  32.532  1.00  0.00    -0.354 N 
ATOM     24  C   UNL A   1      42.560  33.885  30.437  1.00  0.00     0.074 A 
ATOM     25  C   UNL A   1      41.299  34.563  30.619  1.00  0.00     0.031 C 
ATOM     26  C   UNL A   1      41.829  28.566  34.006  1.00  0.00     0.029 A 
ATOM     27  C   UNL A   1      42.935  28.867  33.099  1.00  0.00     0.049 A 
ATOM     28  H   UNL A   1      43.163  30.551  31.897  1.00  0.00     0.167 HD
ATOM     29  C   UNL A   1      43.595  34.390  29.729  1.00  0.00     0.037 A 
ATOM     30  C   UNL A   1      44.023  28.103  32.885  1.00  0.00     0.037 A 
ATOM     31  C   UNL A   1      44.787  33.650  29.438  1.00  0.00     0.049 A 
ATOM     32  C   UNL A   1      45.069  28.589  31.915  1.00  0.00     0.074 A 
ATOM     33  C   UNL A   1      45.846  33.999  28.623  1.00  0.00     0.029 A 
ATOM     34  N   UNL A   1      45.053  32.378  29.929  1.00  0.00    -0.354 N 
ATOM     35  N   UNL A   1      45.135  29.731  31.273  1.00  0.00    -0.248 NA
ATOM     36  C   UNL A   1      46.185  27.676  31.631  1.00  0.00     0.031 C 
ATOM     37  C   UNL A   1      46.727  32.912  28.577  1.00  0.00     0.029 A 
ATOM     38  C   UNL A   1      46.245  31.912  29.409  1.00  0.00     0.049 A 
ATOM     39  H   UNL A   1      44.477  31.883  30.554  1.00  0.00     0.167 HD
ATOM     40  C   UNL A   1      46.307  29.689  30.530  1.00  0.00     0.074 A 
ATOM     41  C   UNL A   1      46.923  28.405  30.804  1.00  0.00     0.031 C 
ATOM     42  C   UNL A   1      46.830  30.627  29.702  1.00  0.00     0.037 A 
BRANCH  29  43
ATOM     43  C   UNL A   1      43.423  35.772  29.180  1.00  0.00     0.064 A 
ATOM     44  C   UNL A   1      42.879  35.982  27.902  1.00  0.00     0.173 A 
ATOM     45  C   UNL A   1      43.843  36.892  29.908  1.00  0.00     0.173 A 
ATOM     46  F   UNL A   1      42.495  34.939  27.151  1.00  0.00    -0.203 F 
ATOM     47  C   UNL A   1      42.781  37.264  27.368  1.00  0.00     0.198 A 
ATOM     48  C   UNL A   1      43.726  38.174  29.379  1.00  0.00     0.198 A 
ATOM     49  F   UNL A   1      44.387  36.741  31.125  1.00  0.00    -0.203 F 
ATOM     50  F   UNL A   1      42.308  37.438  26.126  1.00  0.00    -0.200 F 
ATOM     51  C   UNL A   1      43.201  38.358  28.108  1.00  0.00     0.200 A 
ATOM     52  F   UNL A   1      44.137  39.231  30.093  1.00  0.00    -0.200 F 
ATOM     53  F   UNL A   1      43.120  39.592  27.589  1.00  0.00    -0.200 F 
ENDBRANCH  29  43
BRANCH  30  54
ATOM     54  C   UNL A   1      44.166  26.808  33.599  1.00  0.00     0.064 A 
ATOM     55  C   UNL A   1      44.496  26.766  34.960  1.00  0.00     0.173 A 
ATOM     56  C   UNL A   1      43.950  25.587  32.942  1.00  0.00     0.173 A 
ATOM     57  F   UNL A   1      44.740  27.905  35.624  1.00  0.00    -0.203 F 
ATOM     58  C   UNL A   1      44.599  25.552  35.638  1.00  0.00     0.198 A 
ATOM     59  C   UNL A   1      44.032  24.376  33.626  1.00  0.00     0.198 A 
ATOM     60  F   UNL A   1      43.640  25.571  31.637  1.00  0.00    -0.203 F 
ATOM     61  F   UNL A   1      44.938  25.539  36.934  1.00  0.00    -0.200 F 
ATOM     62  C   UNL A   1      44.358  24.360  34.973  1.00  0.00     0.200 A 
ATOM     63  F   UNL A   1      43.790  23.226  32.981  1.00  0.00    -0.200 F 
ATOM     64  F   UNL A   1      44.444  23.194  35.630  1.00  0.00    -0.200 F 
ENDBRANCH  30  54
BRANCH  42  65
ATOM     65  C   UNL A   1      48.141  30.318  29.046  1.00  0.00     0.064 A 
ATOM     66  C   UNL A   1      49.359  30.532  29.705  1.00  0.00     0.173 A 
ATOM     67  C   UNL A   1      48.171  29.709  27.781  1.00  0.00     0.173 A 
ATOM     68  F   UNL A   1      49.381  31.119  30.911  1.00  0.00    -0.203 F 
ATOM     69  C   UNL A   1      50.563  30.156  29.116  1.00  0.00     0.198 A 
ATOM     70  C   UNL A   1      49.374  29.310  27.208  1.00  0.00     0.198 A 
ATOM     71  F   UNL A   1      47.028  29.473  27.119  1.00  0.00    -0.203 F 
ATOM     72  F   UNL A   1      51.719  30.392  29.751  1.00  0.00    -0.200 F 
ATOM     73  C   UNL A   1      50.569  29.535  27.875  1.00  0.00     0.200 A 
ATOM     74  F   UNL A   1      49.375  28.695  26.017  1.00  0.00    -0.200 F 
ATOM     75  F   UNL A   1      51.727  29.155  27.320  1.00  0.00    -0.200 F 
ENDBRANCH  42  65
ENDBRANCH  16  17
ENDBRANCH   9  11
ENDBRANCH   8   9
ENDBRANCH   7   8
ENDBRANCH   6   7
ENDBRANCH   5   6
ENDBRANCH   4   5
ENDBRANCH   3   4
ENDBRANCH   2   3
ENDBRANCH   1   2
BRANCH   1  76
ATOM     76  C   UNL A   1      34.890  34.496  28.548  1.00  0.00     0.188 C 
BRANCH  76  77
ATOM     77  O   UNL A   1      34.792  33.422  27.620  1.00  0.00    -0.376 OA
BRANCH  77  78
ATOM     78  C   UNL A   1      34.120  32.225  28.000  1.00  0.00     0.202 C 
BRANCH  78  79
ATOM     79  C   UNL A   1      34.933  30.925  28.047  1.00  0.00     0.261 C 
BRANCH  79  80
ATOM     80  O   UNL A   1      35.861  30.868  29.145  1.00  0.00    -0.460 OA
BRANCH  80  81
ATOM     81  C   UNL A   1      37.148  31.203  28.860  1.00  0.00     0.338 C 
ATOM     82  O   UNL A   1      37.622  32.309  28.763  1.00  0.00    -0.246 OA
BRANCH  81  83
ATOM     83  C   UNL A   1      37.969  29.973  28.898  1.00  0.00     0.062 A 
ATOM     84  C   UNL A   1      38.026  29.161  30.024  1.00  0.00     0.038 A 
ATOM     85  C   UNL A   1      38.761  29.686  27.782  1.00  0.00     0.022 A 
ATOM     86  C   UNL A   1      38.850  28.031  29.998  1.00  0.00     0.065 A 
ATOM     87  C   UNL A   1      39.656  28.604  27.797  1.00  0.00    -0.015 A 
ATOM     88  Cl  UNL A   1      38.861  27.002  31.392  1.00  0.00    -0.082 Cl
ATOM     89  C   UNL A   1      39.675  27.731  28.888  1.00  0.00     0.057 A 
ATOM     90  C   UNL A   1      40.603  28.426  26.650  1.00  0.00     0.049 C 
ATOM     91  N   UNL A   1      40.426  26.572  28.840  1.00  0.00    -0.376 N 
ATOM     92  C   UNL A   1      41.900  29.190  26.775  1.00  0.00    -0.023 C 
ATOM     93  C   UNL A   1      41.108  26.992  26.450  1.00  0.00     0.031 C 
ATOM     94  C   UNL A   1      41.389  26.269  27.795  1.00  0.00     0.114 C 
ATOM     95  H   UNL A   1      40.302  25.912  29.560  1.00  0.00     0.161 HD
ATOM     96  C   UNL A   1      42.902  28.521  26.192  1.00  0.00    -0.030 C 
ATOM     97  C   UNL A   1      42.403  27.224  25.633  1.00  0.00     0.034 C 
BRANCH  94  98
ATOM     98  C   UNL A   1      41.430  24.760  27.564  1.00  0.00    -0.025 A 
ATOM     99  C   UNL A   1      40.517  24.082  26.732  1.00  0.00     0.007 A 
ATOM    100  C   UNL A   1      42.472  24.026  28.135  1.00  0.00     0.007 A 
ATOM    101  C   UNL A   1      40.649  22.709  26.484  1.00  0.00     0.022 A 
ATOM    102  C   UNL A   1      42.641  22.683  27.833  1.00  0.00     0.022 A 
ATOM    103  C   UNL A   1      41.729  22.013  27.029  1.00  0.00     0.082 A 
BRANCH 103 104
ATOM    104  S   UNL A   1      41.903  20.272  26.702  1.00  0.00     0.243 S 
ATOM    105  O   UNL A   1      42.281  19.662  27.960  1.00  0.00    -0.207 OA
ATOM    106  O   UNL A   1      40.712  19.873  25.984  1.00  0.00    -0.207 OA
BRANCH 104 107
ATOM    107  N   UNL A   1      43.212  20.147  25.660  1.00  0.00    -0.193 NA
ATOM    108  C   UNL A   1      43.749  18.844  25.223  1.00  0.00     0.131 C 
ATOM    109  C   UNL A   1      43.927  21.329  25.145  1.00  0.00     0.131 C 
ATOM    110  C   UNL A   1      45.277  18.797  25.376  1.00  0.00     0.177 C 
ATOM    111  C   UNL A   1      45.440  21.171  25.334  1.00  0.00     0.177 C 
ATOM    112  O   UNL A   1      45.923  19.935  24.790  1.00  0.00    -0.379 OA
ENDBRANCH 104 107
ENDBRANCH 103 104
ENDBRANCH  94  98
ENDBRANCH  81  83
ENDBRANCH  80  81
ENDBRANCH  79  80
ENDBRANCH  78  79
ENDBRANCH  77  78
ENDBRANCH  76  77
ENDBRANCH   1  76
TORSDOF 23
ENDMDL
