MODEL 1
REMARK VINA RESULT:     -11.6      0.000      0.000
REMARK SMILES O=C(OCCOCCOCCOCCOC(=O)c1ccc(-c2c3nc(c(-c4c(F)c(F)c(F)c(F)c4F)c4ccc([nH]4)c(-c4c(F)c(F)c(F)c(F)c4F)c4nc(c(-c5c(F)c(F)c(F)c(F)c5F)c5ccc2[nH]5)C=C4)C=C3)cc1)c1ccc(C[C@H]2SC(=O)N(c3ccccc3)C2=O)cc1
REMARK SMILES IDX 8 1 7 2 6 3 5 4 4 5 3 6 2 7 1 8 81 9 82 10 100 11 83 12
REMARK SMILES IDX 99 13 84 14 85 15 86 16 87 17 97 18 88 19 90 20 98 21 89 22
REMARK SMILES IDX 91 23 92 24 96 25 93 26 95 27 94 28 9 29 10 30 11 31 12 32
REMARK SMILES IDX 13 33 14 34 15 35 16 36 17 37 18 38 19 39 80 40 20 41 79 42
REMARK SMILES IDX 21 43 22 44 23 45 73 46 24 47 78 48 72 49 74 50 25 51 77 52
REMARK SMILES IDX 71 53 70 54 26 56 58 57 38 58 57 59 39 60 42 61 56 62 75 63
REMARK SMILES IDX 40 64 41 65 55 67 76 68 43 69 27 70 28 71 36 72 29 73 30 74
REMARK SMILES IDX 34 75 37 76 31 77 32 78 35 79 33 80 59 81 60 82 68 83 61 84
REMARK SMILES IDX 62 85 66 86 69 87 63 88 64 89 67 90 65 91 44 92 45 93 53 94
REMARK SMILES IDX 46 95 47 96 51 97 54 98 48 99 49 100 52 101 50 102
REMARK H PARENT 74 55 42 66
REMARK Flexibility Score: inf
ROOT
ATOM      1  C   UNL A   1      35.719  32.016  27.881  1.00  0.00     0.188 C 
ENDROOT
BRANCH   1   2
ATOM      2  C   UNL A   1      34.711  30.870  28.033  1.00  0.00     0.188 C 
BRANCH   2   3
ATOM      3  O   UNL A   1      33.803  30.867  26.941  1.00  0.00    -0.376 OA
BRANCH   3   4
ATOM      4  C   UNL A   1      32.621  30.093  26.953  1.00  0.00     0.202 C 
BRANCH   4   5
ATOM      5  C   UNL A   1      31.687  30.194  25.761  1.00  0.00     0.261 C 
BRANCH   5   6
ATOM      6  O   UNL A   1      31.417  28.978  25.035  1.00  0.00    -0.460 OA
BRANCH   6   7
ATOM      7  C   UNL A   1      32.049  28.400  23.991  1.00  0.00     0.338 C 
ATOM      8  O   UNL A   1      32.012  28.927  22.883  1.00  0.00    -0.246 OA
BRANCH   7   9
ATOM      9  C   UNL A   1      32.880  27.194  24.155  1.00  0.00     0.060 A 
ATOM     10  C   UNL A   1      33.655  26.947  25.285  1.00  0.00     0.016 A 
ATOM     11  C   UNL A   1      32.697  26.166  23.228  1.00  0.00     0.016 A 
ATOM     12  C   UNL A   1      34.401  25.779  25.396  1.00  0.00     0.004 A 
ATOM     13  C   UNL A   1      33.412  24.972  23.354  1.00  0.00     0.004 A 
ATOM     14  C   UNL A   1      34.321  24.803  24.405  1.00  0.00    -0.046 A 
BRANCH  14  15
ATOM     15  C   UNL A   1      35.238  23.609  24.461  1.00  0.00     0.060 C 
BRANCH  15  16
ATOM     16  C   UNL A   1      34.925  22.692  25.657  1.00  0.00     0.151 C 
ATOM     17  S   UNL A   1      33.230  22.849  26.284  1.00  0.00    -0.050 SA
ATOM     18  C   UNL A   1      35.032  21.261  25.191  1.00  0.00     0.248 C 
ATOM     19  C   UNL A   1      32.696  21.402  25.457  1.00  0.00     0.293 C 
ATOM     20  N   UNL A   1      33.785  20.680  25.016  1.00  0.00    -0.240 N 
ATOM     21  O   UNL A   1      36.126  20.775  24.914  1.00  0.00    -0.273 OA
ATOM     22  O   UNL A   1      31.513  21.137  25.381  1.00  0.00    -0.261 OA
BRANCH  20  23
ATOM     23  C   UNL A   1      33.640  19.411  24.389  1.00  0.00     0.053 A 
ATOM     24  C   UNL A   1      34.507  18.357  24.709  1.00  0.00     0.027 A 
ATOM     25  C   UNL A   1      32.655  19.195  23.414  1.00  0.00     0.027 A 
ATOM     26  C   UNL A   1      34.410  17.126  24.059  1.00  0.00     0.002 A 
ATOM     27  C   UNL A   1      32.578  17.972  22.743  1.00  0.00     0.002 A 
ATOM     28  C   UNL A   1      33.455  16.940  23.065  1.00  0.00     0.000 A 
ENDBRANCH  20  23
ENDBRANCH  15  16
ENDBRANCH  14  15
ENDBRANCH   7   9
ENDBRANCH   6   7
ENDBRANCH   5   6
ENDBRANCH   4   5
ENDBRANCH   3   4
ENDBRANCH   2   3
ENDBRANCH   1   2
BRANCH   1  29
ATOM     29  O   UNL A   1      35.154  33.309  27.657  1.00  0.00    -0.377 OA
BRANCH  29  30
ATOM     30  C   UNL A   1      35.204  34.216  28.758  1.00  0.00     0.188 C 
BRANCH  30  31
ATOM     31  C   UNL A   1      34.088  34.137  29.831  1.00  0.00     0.188 C 
BRANCH  31  32
ATOM     32  O   UNL A   1      34.178  35.140  30.831  1.00  0.00    -0.376 OA
BRANCH  32  33
ATOM     33  C   UNL A   1      33.944  34.745  32.175  1.00  0.00     0.202 C 
BRANCH  33  34
ATOM     34  C   UNL A   1      35.110  34.227  33.044  1.00  0.00     0.261 C 
BRANCH  34  35
ATOM     35  O   UNL A   1      35.472  32.846  32.891  1.00  0.00    -0.460 OA
BRANCH  35  36
ATOM     36  C   UNL A   1      36.529  32.387  33.595  1.00  0.00     0.338 C 
ATOM     37  O   UNL A   1      36.633  32.337  34.807  1.00  0.00    -0.246 OA
BRANCH  36  38
ATOM     38  C   UNL A   1      37.448  31.703  32.649  1.00  0.00     0.060 A 
ATOM     39  C   UNL A   1      38.569  31.051  33.186  1.00  0.00     0.016 A 
ATOM     40  C   UNL A   1      37.177  31.612  31.279  1.00  0.00     0.016 A 
ATOM     41  C   UNL A   1      39.432  30.338  32.355  1.00  0.00     0.010 A 
ATOM     42  C   UNL A   1      38.063  30.920  30.440  1.00  0.00     0.010 A 
ATOM     43  C   UNL A   1      39.214  30.311  30.971  1.00  0.00    -0.014 A 
BRANCH  43  44
ATOM     44  C   UNL A   1      40.323  29.855  30.094  1.00  0.00     0.031 A 
ATOM     45  C   UNL A   1      41.440  30.825  29.813  1.00  0.00     0.074 A 
ATOM     46  C   UNL A   1      40.402  28.589  29.642  1.00  0.00     0.049 A 
ATOM     47  N   UNL A   1      42.553  30.651  29.149  1.00  0.00    -0.248 NA
ATOM     48  C   UNL A   1      41.278  32.180  30.368  1.00  0.00     0.031 C 
ATOM     49  C   UNL A   1      39.408  27.545  29.871  1.00  0.00     0.029 A 
ATOM     50  N   UNL A   1      41.378  27.969  28.901  1.00  0.00    -0.354 N 
ATOM     51  C   UNL A   1      43.228  31.863  29.222  1.00  0.00     0.074 A 
ATOM     52  C   UNL A   1      42.379  32.781  29.948  1.00  0.00     0.031 C 
ATOM     53  C   UNL A   1      39.823  26.411  29.277  1.00  0.00     0.029 A 
ATOM     54  C   UNL A   1      41.101  26.656  28.608  1.00  0.00     0.049 A 
ATOM     55  H   UNL A   1      42.201  28.423  28.605  1.00  0.00     0.167 HD
ATOM     56  C   UNL A   1      44.456  32.179  28.746  1.00  0.00     0.037 A 
ATOM     57  C   UNL A   1      41.794  25.762  27.874  1.00  0.00     0.037 A 
ATOM     58  C   UNL A   1      45.295  31.274  28.008  1.00  0.00     0.049 A 
ATOM     59  C   UNL A   1      43.126  26.165  27.286  1.00  0.00     0.074 A 
ATOM     60  C   UNL A   1      46.550  31.502  27.471  1.00  0.00     0.029 A 
ATOM     61  N   UNL A   1      44.958  29.965  27.692  1.00  0.00    -0.354 N 
ATOM     62  N   UNL A   1      43.768  27.304  27.382  1.00  0.00    -0.248 NA
ATOM     63  C   UNL A   1      43.835  25.147  26.496  1.00  0.00     0.031 C 
ATOM     64  C   UNL A   1      46.947  30.352  26.782  1.00  0.00     0.029 A 
ATOM     65  C   UNL A   1      45.972  29.383  26.948  1.00  0.00     0.049 A 
ATOM     66  H   UNL A   1      44.122  29.518  27.957  1.00  0.00     0.167 HD
ATOM     67  C   UNL A   1      44.963  27.133  26.692  1.00  0.00     0.074 A 
ATOM     68  C   UNL A   1      44.970  25.768  26.210  1.00  0.00     0.031 C 
ATOM     69  C   UNL A   1      45.962  28.023  26.470  1.00  0.00     0.037 A 
BRANCH  56  70
ATOM     70  C   UNL A   1      44.956  33.573  28.998  1.00  0.00     0.064 A 
ATOM     71  C   UNL A   1      44.668  34.629  28.117  1.00  0.00     0.173 A 
ATOM     72  C   UNL A   1      45.705  33.865  30.147  1.00  0.00     0.173 A 
ATOM     73  F   UNL A   1      43.972  34.400  26.993  1.00  0.00    -0.203 F 
ATOM     74  C   UNL A   1      45.130  35.917  28.368  1.00  0.00     0.198 A 
ATOM     75  C   UNL A   1      46.136  35.162  30.412  1.00  0.00     0.198 A 
ATOM     76  F   UNL A   1      46.009  32.893  31.020  1.00  0.00    -0.203 F 
ATOM     77  F   UNL A   1      44.883  36.900  27.490  1.00  0.00    -0.200 F 
ATOM     78  C   UNL A   1      45.854  36.185  29.520  1.00  0.00     0.200 A 
ATOM     79  F   UNL A   1      46.824  35.420  31.532  1.00  0.00    -0.200 F 
ATOM     80  F   UNL A   1      46.287  37.429  29.768  1.00  0.00    -0.200 F 
ENDBRANCH  56  70
BRANCH  57  81
ATOM     81  C   UNL A   1      41.240  24.401  27.626  1.00  0.00     0.064 A 
ATOM     82  C   UNL A   1      41.819  23.257  28.194  1.00  0.00     0.173 A 
ATOM     83  C   UNL A   1      40.146  24.215  26.767  1.00  0.00     0.173 A 
ATOM     84  F   UNL A   1      42.885  23.375  29.000  1.00  0.00    -0.203 F 
ATOM     85  C   UNL A   1      41.345  21.981  27.891  1.00  0.00     0.198 A 
ATOM     86  C   UNL A   1      39.649  22.942  26.494  1.00  0.00     0.198 A 
ATOM     87  F   UNL A   1      39.556  25.273  26.191  1.00  0.00    -0.203 F 
ATOM     88  F   UNL A   1      41.959  20.902  28.396  1.00  0.00    -0.200 F 
ATOM     89  C   UNL A   1      40.257  21.825  27.045  1.00  0.00     0.200 A 
ATOM     90  F   UNL A   1      38.589  22.799  25.687  1.00  0.00    -0.200 F 
ATOM     91  F   UNL A   1      39.802  20.599  26.753  1.00  0.00    -0.200 F 
ENDBRANCH  57  81
BRANCH  69  92
ATOM     92  C   UNL A   1      47.159  27.536  25.697  1.00  0.00     0.064 A 
ATOM     93  C   UNL A   1      48.246  26.913  26.331  1.00  0.00     0.173 A 
ATOM     94  C   UNL A   1      47.218  27.692  24.303  1.00  0.00     0.173 A 
ATOM     95  F   UNL A   1      48.245  26.745  27.663  1.00  0.00    -0.203 F 
ATOM     96  C   UNL A   1      49.366  26.514  25.606  1.00  0.00     0.198 A 
ATOM     97  C   UNL A   1      48.322  27.254  23.578  1.00  0.00     0.198 A 
ATOM     98  F   UNL A   1      46.202  28.266  23.642  1.00  0.00    -0.203 F 
ATOM     99  F   UNL A   1      50.423  25.993  26.246  1.00  0.00    -0.200 F 
ATOM    100  C   UNL A   1      49.403  26.681  24.232  1.00  0.00     0.200 A 
ATOM    101  F   UNL A   1      48.347  27.398  22.245  1.00  0.00    -0.200 F 
ATOM    102  F   UNL A   1      50.483  26.300  23.536  1.00  0.00    -0.200 F 
ENDBRANCH  69  92
ENDBRANCH  43  44
ENDBRANCH  36  38
ENDBRANCH  35  36
ENDBRANCH  34  35
ENDBRANCH  33  34
ENDBRANCH  32  33
ENDBRANCH  31  32
ENDBRANCH  30  31
ENDBRANCH  29  30
ENDBRANCH   1  29
TORSDOF 23
ENDMDL
MODEL 2
REMARK VINA RESULT:     -11.0      5.179     11.118
REMARK SMILES O=C(OCCOCCOCCOCCOC(=O)c1ccc(-c2c3nc(c(-c4c(F)c(F)c(F)c(F)c4F)c4ccc([nH]4)c(-c4c(F)c(F)c(F)c(F)c4F)c4nc(c(-c5c(F)c(F)c(F)c(F)c5F)c5ccc2[nH]5)C=C4)C=C3)cc1)c1ccc(C[C@H]2SC(=O)N(c3ccccc3)C2=O)cc1
REMARK SMILES IDX 8 1 7 2 6 3 5 4 4 5 3 6 2 7 1 8 81 9 82 10 100 11 83 12
REMARK SMILES IDX 99 13 84 14 85 15 86 16 87 17 97 18 88 19 90 20 98 21 89 22
REMARK SMILES IDX 91 23 92 24 96 25 93 26 95 27 94 28 9 29 10 30 11 31 12 32
REMARK SMILES IDX 13 33 14 34 15 35 16 36 17 37 18 38 19 39 80 40 20 41 79 42
REMARK SMILES IDX 21 43 22 44 23 45 73 46 24 47 78 48 72 49 74 50 25 51 77 52
REMARK SMILES IDX 71 53 70 54 26 56 58 57 38 58 57 59 39 60 42 61 56 62 75 63
REMARK SMILES IDX 40 64 41 65 55 67 76 68 43 69 27 70 28 71 36 72 29 73 30 74
REMARK SMILES IDX 34 75 37 76 31 77 32 78 35 79 33 80 59 81 60 82 68 83 61 84
REMARK SMILES IDX 62 85 66 86 69 87 63 88 64 89 67 90 65 91 44 92 45 93 53 94
REMARK SMILES IDX 46 95 47 96 51 97 54 98 48 99 49 100 52 101 50 102
REMARK H PARENT 74 55 42 66
REMARK Flexibility Score: inf
ROOT
ATOM      1  C   UNL A   1      42.129  18.459  26.157  1.00  0.00     0.188 C 
ENDROOT
BRANCH   1   2
ATOM      2  C   UNL A   1      42.295  19.325  27.411  1.00  0.00     0.188 C 
BRANCH   2   3
ATOM      3  O   UNL A   1      41.229  20.260  27.508  1.00  0.00    -0.376 OA
BRANCH   3   4
ATOM      4  C   UNL A   1      40.954  21.190  26.481  1.00  0.00     0.202 C 
BRANCH   4   5
ATOM      5  C   UNL A   1      39.502  21.484  26.152  1.00  0.00     0.261 C 
BRANCH   5   6
ATOM      6  O   UNL A   1      38.793  20.497  25.377  1.00  0.00    -0.460 OA
BRANCH   6   7
ATOM      7  C   UNL A   1      37.484  20.372  25.069  1.00  0.00     0.338 C 
ATOM      8  O   UNL A   1      36.994  19.257  24.914  1.00  0.00    -0.246 OA
BRANCH   7   9
ATOM      9  C   UNL A   1      36.582  21.536  25.012  1.00  0.00     0.060 A 
ATOM     10  C   UNL A   1      35.843  21.985  26.105  1.00  0.00     0.016 A 
ATOM     11  C   UNL A   1      36.655  22.341  23.874  1.00  0.00     0.016 A 
ATOM     12  C   UNL A   1      35.027  23.106  26.000  1.00  0.00     0.004 A 
ATOM     13  C   UNL A   1      35.869  23.492  23.777  1.00  0.00     0.004 A 
ATOM     14  C   UNL A   1      34.998  23.841  24.816  1.00  0.00    -0.046 A 
BRANCH  14  15
ATOM     15  C   UNL A   1      34.008  24.964  24.662  1.00  0.00     0.060 C 
BRANCH  15  16
ATOM     16  C   UNL A   1      32.601  24.455  24.300  1.00  0.00     0.151 C 
ATOM     17  S   UNL A   1      31.558  24.083  25.736  1.00  0.00    -0.050 SA
ATOM     18  C   UNL A   1      31.875  25.558  23.573  1.00  0.00     0.248 C 
ATOM     19  C   UNL A   1      30.685  25.594  25.605  1.00  0.00     0.293 C 
ATOM     20  N   UNL A   1      30.934  26.179  24.381  1.00  0.00    -0.240 N 
ATOM     21  O   UNL A   1      32.211  25.884  22.436  1.00  0.00    -0.273 OA
ATOM     22  O   UNL A   1      29.951  25.961  26.500  1.00  0.00    -0.261 OA
BRANCH  20  23
ATOM     23  C   UNL A   1      30.279  27.374  23.974  1.00  0.00     0.053 A 
ATOM     24  C   UNL A   1      30.907  28.618  24.131  1.00  0.00     0.027 A 
ATOM     25  C   UNL A   1      28.982  27.342  23.443  1.00  0.00     0.027 A 
ATOM     26  C   UNL A   1      30.251  29.801  23.788  1.00  0.00     0.002 A 
ATOM     27  C   UNL A   1      28.315  28.528  23.127  1.00  0.00     0.002 A 
ATOM     28  C   UNL A   1      28.948  29.756  23.301  1.00  0.00     0.000 A 
ENDBRANCH  20  23
ENDBRANCH  15  16
ENDBRANCH  14  15
ENDBRANCH   7   9
ENDBRANCH   6   7
ENDBRANCH   5   6
ENDBRANCH   4   5
ENDBRANCH   3   4
ENDBRANCH   2   3
ENDBRANCH   1   2
BRANCH   1  29
ATOM     29  O   UNL A   1      43.066  18.708  25.107  1.00  0.00    -0.377 OA
BRANCH  29  30
ATOM     30  C   UNL A   1      44.125  19.615  25.412  1.00  0.00     0.188 C 
BRANCH  30  31
ATOM     31  C   UNL A   1      45.186  19.907  24.321  1.00  0.00     0.188 C 
BRANCH  31  32
ATOM     32  O   UNL A   1      45.739  21.212  24.387  1.00  0.00    -0.376 OA
BRANCH  32  33
ATOM     33  C   UNL A   1      45.005  22.198  25.099  1.00  0.00     0.202 C 
BRANCH  33  34
ATOM     34  C   UNL A   1      43.782  22.875  24.446  1.00  0.00     0.261 C 
BRANCH  34  35
ATOM     35  O   UNL A   1      43.624  24.286  24.666  1.00  0.00    -0.460 OA
BRANCH  35  36
ATOM     36  C   UNL A   1      44.678  24.970  25.159  1.00  0.00     0.338 C 
ATOM     37  O   UNL A   1      45.748  25.160  24.610  1.00  0.00    -0.246 OA
BRANCH  36  38
ATOM     38  C   UNL A   1      44.227  25.687  26.381  1.00  0.00     0.060 A 
ATOM     39  C   UNL A   1      43.458  24.969  27.310  1.00  0.00     0.016 A 
ATOM     40  C   UNL A   1      44.623  26.998  26.666  1.00  0.00     0.016 A 
ATOM     41  C   UNL A   1      43.060  25.568  28.505  1.00  0.00     0.010 A 
ATOM     42  C   UNL A   1      44.196  27.609  27.854  1.00  0.00     0.010 A 
ATOM     43  C   UNL A   1      43.382  26.908  28.761  1.00  0.00    -0.014 A 
BRANCH  43  44
ATOM     44  C   UNL A   1      42.656  27.608  29.852  1.00  0.00     0.031 A 
ATOM     45  C   UNL A   1      43.293  27.628  31.217  1.00  0.00     0.074 A 
ATOM     46  C   UNL A   1      41.521  28.297  29.629  1.00  0.00     0.049 A 
ATOM     47  N   UNL A   1      42.907  28.233  32.312  1.00  0.00    -0.248 NA
ATOM     48  C   UNL A   1      44.546  26.867  31.361  1.00  0.00     0.031 C 
ATOM     49  C   UNL A   1      40.823  28.385  28.351  1.00  0.00     0.029 A 
ATOM     50  N   UNL A   1      40.764  29.063  30.481  1.00  0.00    -0.354 N 
ATOM     51  C   UNL A   1      43.875  27.939  33.264  1.00  0.00     0.074 A 
ATOM     52  C   UNL A   1      44.838  27.060  32.637  1.00  0.00     0.031 C 
ATOM     53  C   UNL A   1      39.733  29.159  28.502  1.00  0.00     0.029 A 
ATOM     54  C   UNL A   1      39.647  29.604  29.893  1.00  0.00     0.049 A 
ATOM     55  H   UNL A   1      40.999  29.212  31.426  1.00  0.00     0.167 HD
ATOM     56  C   UNL A   1      43.968  28.377  34.541  1.00  0.00     0.037 A 
ATOM     57  C   UNL A   1      38.663  30.359  30.423  1.00  0.00     0.037 A 
ATOM     58  C   UNL A   1      43.002  29.236  35.174  1.00  0.00     0.049 A 
ATOM     59  C   UNL A   1      38.749  30.769  31.875  1.00  0.00     0.074 A 
ATOM     60  C   UNL A   1      42.998  29.725  36.468  1.00  0.00     0.029 A 
ATOM     61  N   UNL A   1      41.858  29.725  34.559  1.00  0.00    -0.354 N 
ATOM     62  N   UNL A   1      39.680  30.509  32.760  1.00  0.00    -0.248 NA
ATOM     63  C   UNL A   1      37.647  31.593  32.395  1.00  0.00     0.031 C 
ATOM     64  C   UNL A   1      41.825  30.463  36.653  1.00  0.00     0.029 A 
ATOM     65  C   UNL A   1      41.131  30.492  35.454  1.00  0.00     0.049 A 
ATOM     66  H   UNL A   1      41.603  29.552  33.624  1.00  0.00     0.167 HD
ATOM     67  C   UNL A   1      39.293  31.155  33.929  1.00  0.00     0.074 A 
ATOM     68  C   UNL A   1      38.058  31.847  33.629  1.00  0.00     0.031 C 
ATOM     69  C   UNL A   1      39.899  31.171  35.143  1.00  0.00     0.037 A 
BRANCH  56  70
ATOM     70  C   UNL A   1      45.150  27.918  35.345  1.00  0.00     0.064 A 
ATOM     71  C   UNL A   1      45.076  26.800  36.191  1.00  0.00     0.173 A 
ATOM     72  C   UNL A   1      46.381  28.583  35.246  1.00  0.00     0.173 A 
ATOM     73  F   UNL A   1      43.918  26.139  36.337  1.00  0.00    -0.203 F 
ATOM     74  C   UNL A   1      46.183  26.380  36.923  1.00  0.00     0.198 A 
ATOM     75  C   UNL A   1      47.496  28.141  35.954  1.00  0.00     0.198 A 
ATOM     76  F   UNL A   1      46.506  29.659  34.454  1.00  0.00    -0.203 F 
ATOM     77  F   UNL A   1      46.077  25.338  37.760  1.00  0.00    -0.200 F 
ATOM     78  C   UNL A   1      47.395  27.043  36.796  1.00  0.00     0.200 A 
ATOM     79  F   UNL A   1      48.667  28.775  35.818  1.00  0.00    -0.200 F 
ATOM     80  F   UNL A   1      48.463  26.630  37.490  1.00  0.00    -0.200 F 
ENDBRANCH  56  70
BRANCH  57  81
ATOM     81  C   UNL A   1      37.494  30.762  29.593  1.00  0.00     0.064 A 
ATOM     82  C   UNL A   1      36.484  29.851  29.251  1.00  0.00     0.173 A 
ATOM     83  C   UNL A   1      37.392  32.064  29.077  1.00  0.00     0.173 A 
ATOM     84  F   UNL A   1      36.546  28.586  29.693  1.00  0.00    -0.203 F 
ATOM     85  C   UNL A   1      35.437  30.216  28.405  1.00  0.00     0.198 A 
ATOM     86  C   UNL A   1      36.326  32.438  28.262  1.00  0.00     0.198 A 
ATOM     87  F   UNL A   1      38.332  32.976  29.367  1.00  0.00    -0.203 F 
ATOM     88  F   UNL A   1      34.523  29.306  28.043  1.00  0.00    -0.200 F 
ATOM     89  C   UNL A   1      35.356  31.511  27.916  1.00  0.00     0.200 A 
ATOM     90  F   UNL A   1      36.246  33.695  27.804  1.00  0.00    -0.200 F 
ATOM     91  F   UNL A   1      34.351  31.861  27.103  1.00  0.00    -0.200 F 
ENDBRANCH  57  81
BRANCH  69  92
ATOM     92  C   UNL A   1      39.248  31.989  36.226  1.00  0.00     0.064 A 
ATOM     93  C   UNL A   1      39.612  33.323  36.466  1.00  0.00     0.173 A 
ATOM     94  C   UNL A   1      38.244  31.431  37.033  1.00  0.00     0.173 A 
ATOM     95  F   UNL A   1      40.571  33.905  35.729  1.00  0.00    -0.203 F 
ATOM     96  C   UNL A   1      39.033  34.049  37.505  1.00  0.00     0.198 A 
ATOM     97  C   UNL A   1      37.639  32.173  38.044  1.00  0.00     0.198 A 
ATOM     98  F   UNL A   1      37.845  30.165  36.840  1.00  0.00    -0.203 F 
ATOM     99  F   UNL A   1      39.454  35.295  37.763  1.00  0.00    -0.200 F 
ATOM    100  C   UNL A   1      38.046  33.475  38.290  1.00  0.00     0.200 A 
ATOM    101  F   UNL A   1      36.670  31.623  38.790  1.00  0.00    -0.200 F 
ATOM    102  F   UNL A   1      37.494  34.173  39.292  1.00  0.00    -0.200 F 
ENDBRANCH  69  92
ENDBRANCH  43  44
ENDBRANCH  36  38
ENDBRANCH  35  36
ENDBRANCH  34  35
ENDBRANCH  33  34
ENDBRANCH  32  33
ENDBRANCH  31  32
ENDBRANCH  30  31
ENDBRANCH  29  30
ENDBRANCH   1  29
TORSDOF 23
ENDMDL
MODEL 3
REMARK VINA RESULT:     -10.7      1.399      2.333
REMARK SMILES O=C(OCCOCCOCCOCCOC(=O)c1ccc(-c2c3nc(c(-c4c(F)c(F)c(F)c(F)c4F)c4ccc([nH]4)c(-c4c(F)c(F)c(F)c(F)c4F)c4nc(c(-c5c(F)c(F)c(F)c(F)c5F)c5ccc2[nH]5)C=C4)C=C3)cc1)c1ccc(C[C@H]2SC(=O)N(c3ccccc3)C2=O)cc1
REMARK SMILES IDX 8 1 7 2 6 3 5 4 4 5 3 6 2 7 1 8 81 9 82 10 100 11 83 12
REMARK SMILES IDX 99 13 84 14 85 15 86 16 87 17 97 18 88 19 90 20 98 21 89 22
REMARK SMILES IDX 91 23 92 24 96 25 93 26 95 27 94 28 9 29 10 30 11 31 12 32
REMARK SMILES IDX 13 33 14 34 15 35 16 36 17 37 18 38 19 39 80 40 20 41 79 42
REMARK SMILES IDX 21 43 22 44 23 45 73 46 24 47 78 48 72 49 74 50 25 51 77 52
REMARK SMILES IDX 71 53 70 54 26 56 58 57 38 58 57 59 39 60 42 61 56 62 75 63
REMARK SMILES IDX 40 64 41 65 55 67 76 68 43 69 27 70 28 71 36 72 29 73 30 74
REMARK SMILES IDX 34 75 37 76 31 77 32 78 35 79 33 80 59 81 60 82 68 83 61 84
REMARK SMILES IDX 62 85 66 86 69 87 63 88 64 89 67 90 65 91 44 92 45 93 53 94
REMARK SMILES IDX 46 95 47 96 51 97 54 98 48 99 49 100 52 101 50 102
REMARK H PARENT 74 55 42 66
REMARK Flexibility Score: inf
ROOT
ATOM      1  C   UNL A   1      33.064  35.739  28.624  1.00  0.00     0.188 C 
ENDROOT
BRANCH   1   2
ATOM      2  C   UNL A   1      34.537  35.314  28.579  1.00  0.00     0.188 C 
BRANCH   2   3
ATOM      3  O   UNL A   1      34.644  33.902  28.686  1.00  0.00    -0.376 OA
BRANCH   3   4
ATOM      4  C   UNL A   1      33.747  33.031  28.028  1.00  0.00     0.202 C 
BRANCH   4   5
ATOM      5  C   UNL A   1      34.230  31.636  27.678  1.00  0.00     0.261 C 
BRANCH   5   6
ATOM      6  O   UNL A   1      33.247  30.582  27.682  1.00  0.00    -0.460 OA
BRANCH   6   7
ATOM      7  C   UNL A   1      32.584  29.973  26.676  1.00  0.00     0.338 C 
ATOM      8  O   UNL A   1      31.950  30.642  25.865  1.00  0.00    -0.246 OA
BRANCH   7   9
ATOM      9  C   UNL A   1      32.677  28.520  26.449  1.00  0.00     0.060 A 
ATOM     10  C   UNL A   1      31.710  27.614  26.878  1.00  0.00     0.016 A 
ATOM     11  C   UNL A   1      33.669  28.077  25.572  1.00  0.00     0.016 A 
ATOM     12  C   UNL A   1      31.838  26.256  26.613  1.00  0.00     0.004 A 
ATOM     13  C   UNL A   1      33.780  26.718  25.267  1.00  0.00     0.004 A 
ATOM     14  C   UNL A   1      32.904  25.792  25.844  1.00  0.00    -0.046 A 
BRANCH  14  15
ATOM     15  C   UNL A   1      33.114  24.310  25.682  1.00  0.00     0.060 C 
BRANCH  15  16
ATOM     16  C   UNL A   1      31.868  23.603  25.118  1.00  0.00     0.151 C 
ATOM     17  S   UNL A   1      31.603  23.880  23.345  1.00  0.00    -0.050 SA
ATOM     18  C   UNL A   1      32.073  22.115  25.249  1.00  0.00     0.248 C 
ATOM     19  C   UNL A   1      32.276  22.323  22.911  1.00  0.00     0.293 C 
ATOM     20  N   UNL A   1      32.384  21.527  24.032  1.00  0.00    -0.240 N 
ATOM     21  O   UNL A   1      32.059  21.578  26.355  1.00  0.00    -0.273 OA
ATOM     22  O   UNL A   1      32.529  22.063  21.753  1.00  0.00    -0.261 OA
BRANCH  20  23
ATOM     23  C   UNL A   1      32.818  20.175  23.952  1.00  0.00     0.053 A 
ATOM     24  C   UNL A   1      33.947  19.746  24.664  1.00  0.00     0.027 A 
ATOM     25  C   UNL A   1      32.153  19.249  23.134  1.00  0.00     0.027 A 
ATOM     26  C   UNL A   1      34.415  18.437  24.547  1.00  0.00     0.002 A 
ATOM     27  C   UNL A   1      32.639  17.947  22.995  1.00  0.00     0.002 A 
ATOM     28  C   UNL A   1      33.769  17.542  23.700  1.00  0.00     0.000 A 
ENDBRANCH  20  23
ENDBRANCH  15  16
ENDBRANCH  14  15
ENDBRANCH   7   9
ENDBRANCH   6   7
ENDBRANCH   5   6
ENDBRANCH   4   5
ENDBRANCH   3   4
ENDBRANCH   2   3
ENDBRANCH   1   2
BRANCH   1  29
ATOM     29  O   UNL A   1      32.517  35.936  29.930  1.00  0.00    -0.377 OA
BRANCH  29  30
ATOM     30  C   UNL A   1      33.210  36.859  30.768  1.00  0.00     0.188 C 
BRANCH  30  31
ATOM     31  C   UNL A   1      33.003  36.766  32.301  1.00  0.00     0.188 C 
BRANCH  31  32
ATOM     32  O   UNL A   1      33.059  35.443  32.812  1.00  0.00    -0.376 OA
BRANCH  32  33
ATOM     33  C   UNL A   1      34.235  34.691  32.553  1.00  0.00     0.202 C 
BRANCH  33  34
ATOM     34  C   UNL A   1      35.380  34.662  33.588  1.00  0.00     0.261 C 
BRANCH  34  35
ATOM     35  O   UNL A   1      36.624  34.082  33.165  1.00  0.00    -0.460 OA
BRANCH  35  36
ATOM     36  C   UNL A   1      36.744  32.738  33.213  1.00  0.00     0.338 C 
ATOM     37  O   UNL A   1      35.913  31.944  33.616  1.00  0.00    -0.246 OA
BRANCH  36  38
ATOM     38  C   UNL A   1      37.959  32.360  32.445  1.00  0.00     0.060 A 
ATOM     39  C   UNL A   1      37.942  32.567  31.057  1.00  0.00     0.016 A 
ATOM     40  C   UNL A   1      39.125  31.904  33.069  1.00  0.00     0.016 A 
ATOM     41  C   UNL A   1      39.074  32.291  30.291  1.00  0.00     0.010 A 
ATOM     42  C   UNL A   1      40.253  31.598  32.294  1.00  0.00     0.010 A 
ATOM     43  C   UNL A   1      40.220  31.755  30.897  1.00  0.00    -0.014 A 
BRANCH  43  44
ATOM     44  C   UNL A   1      41.258  31.151  30.024  1.00  0.00     0.031 A 
ATOM     45  C   UNL A   1      42.443  32.003  29.650  1.00  0.00     0.074 A 
ATOM     46  C   UNL A   1      41.218  29.857  29.655  1.00  0.00     0.049 A 
ATOM     47  N   UNL A   1      43.517  31.692  28.971  1.00  0.00    -0.248 NA
ATOM     48  C   UNL A   1      42.412  33.400  30.119  1.00  0.00     0.031 C 
ATOM     49  C   UNL A   1      40.148  28.918  29.978  1.00  0.00     0.029 A 
ATOM     50  N   UNL A   1      42.115  29.110  28.931  1.00  0.00    -0.354 N 
ATOM     51  C   UNL A   1      44.292  32.845  28.946  1.00  0.00     0.074 A 
ATOM     52  C   UNL A   1      43.546  33.876  29.631  1.00  0.00     0.031 C 
ATOM     53  C   UNL A   1      40.448  27.718  29.450  1.00  0.00     0.029 A 
ATOM     54  C   UNL A   1      41.720  27.810  28.733  1.00  0.00     0.049 A 
ATOM     55  H   UNL A   1      42.963  29.473  28.585  1.00  0.00     0.167 HD
ATOM     56  C   UNL A   1      45.526  33.025  28.419  1.00  0.00     0.037 A 
ATOM     57  C   UNL A   1      42.312  26.815  28.042  1.00  0.00     0.037 A 
ATOM     58  C   UNL A   1      46.263  32.006  27.720  1.00  0.00     0.049 A 
ATOM     59  C   UNL A   1      43.654  27.065  27.394  1.00  0.00     0.074 A 
ATOM     60  C   UNL A   1      47.515  32.092  27.137  1.00  0.00     0.029 A 
ATOM     61  N   UNL A   1      45.809  30.714  27.500  1.00  0.00    -0.354 N 
ATOM     62  N   UNL A   1      44.392  28.149  27.398  1.00  0.00    -0.248 NA
ATOM     63  C   UNL A   1      44.251  25.942  26.655  1.00  0.00     0.031 C 
ATOM     64  C   UNL A   1      47.794  30.870  26.516  1.00  0.00     0.029 A 
ATOM     65  C   UNL A   1      46.746  30.000  26.771  1.00  0.00     0.049 A 
ATOM     66  H   UNL A   1      44.947  30.357  27.816  1.00  0.00     0.167 HD
ATOM     67  C   UNL A   1      45.546  27.833  26.690  1.00  0.00     0.074 A 
ATOM     68  C   UNL A   1      45.424  26.445  26.299  1.00  0.00     0.031 C 
ATOM     69  C   UNL A   1      46.608  28.619  26.383  1.00  0.00     0.037 A 
BRANCH  56  70
ATOM     70  C   UNL A   1      46.148  34.384  28.564  1.00  0.00     0.064 A 
ATOM     71  C   UNL A   1      45.976  35.381  27.591  1.00  0.00     0.173 A 
ATOM     72  C   UNL A   1      46.900  34.706  29.704  1.00  0.00     0.173 A 
ATOM     73  F   UNL A   1      45.282  35.119  26.472  1.00  0.00    -0.203 F 
ATOM     74  C   UNL A   1      46.550  36.639  27.744  1.00  0.00     0.198 A 
ATOM     75  C   UNL A   1      47.445  35.976  29.870  1.00  0.00     0.198 A 
ATOM     76  F   UNL A   1      47.097  33.789  30.664  1.00  0.00    -0.203 F 
ATOM     77  F   UNL A   1      46.411  37.561  26.779  1.00  0.00    -0.200 F 
ATOM     78  C   UNL A   1      47.275  36.940  28.887  1.00  0.00     0.200 A 
ATOM     79  F   UNL A   1      48.133  36.267  30.981  1.00  0.00    -0.200 F 
ATOM     80  F   UNL A   1      47.815  38.156  29.040  1.00  0.00    -0.200 F 
ENDBRANCH  56  70
BRANCH  57  81
ATOM     81  C   UNL A   1      41.640  25.493  27.899  1.00  0.00     0.064 A 
ATOM     82  C   UNL A   1      42.121  24.349  28.552  1.00  0.00     0.173 A 
ATOM     83  C   UNL A   1      40.527  25.339  27.058  1.00  0.00     0.173 A 
ATOM     84  F   UNL A   1      43.199  24.434  29.345  1.00  0.00    -0.203 F 
ATOM     85  C   UNL A   1      41.535  23.100  28.347  1.00  0.00     0.198 A 
ATOM     86  C   UNL A   1      39.919  24.098  26.883  1.00  0.00     0.198 A 
ATOM     87  F   UNL A   1      40.027  26.399  26.404  1.00  0.00    -0.203 F 
ATOM     88  F   UNL A   1      42.056  22.013  28.932  1.00  0.00    -0.200 F 
ATOM     89  C   UNL A   1      40.430  22.977  27.517  1.00  0.00     0.200 A 
ATOM     90  F   UNL A   1      38.843  23.988  26.091  1.00  0.00    -0.200 F 
ATOM     91  F   UNL A   1      39.868  21.778  27.320  1.00  0.00    -0.200 F 
ENDBRANCH  57  81
BRANCH  69  92
ATOM     92  C   UNL A   1      47.735  27.984  25.614  1.00  0.00     0.064 A 
ATOM     93  C   UNL A   1      47.685  27.828  24.220  1.00  0.00     0.173 A 
ATOM     94  C   UNL A   1      48.884  27.528  26.280  1.00  0.00     0.173 A 
ATOM     95  F   UNL A   1      46.607  28.239  23.533  1.00  0.00    -0.203 F 
ATOM     96  C   UNL A   1      48.715  27.193  23.531  1.00  0.00     0.198 A 
ATOM     97  C   UNL A   1      49.930  26.931  25.582  1.00  0.00     0.198 A 
ATOM     98  F   UNL A   1      48.995  27.664  27.610  1.00  0.00    -0.203 F 
ATOM     99  F   UNL A   1      48.607  26.986  22.211  1.00  0.00    -0.200 F 
ATOM    100  C   UNL A   1      49.838  26.748  24.211  1.00  0.00     0.200 A 
ATOM    101  F   UNL A   1      51.024  26.520  26.239  1.00  0.00    -0.200 F 
ATOM    102  F   UNL A   1      50.827  26.133  23.547  1.00  0.00    -0.200 F 
ENDBRANCH  69  92
ENDBRANCH  43  44
ENDBRANCH  36  38
ENDBRANCH  35  36
ENDBRANCH  34  35
ENDBRANCH  33  34
ENDBRANCH  32  33
ENDBRANCH  31  32
ENDBRANCH  30  31
ENDBRANCH  29  30
ENDBRANCH   1  29
TORSDOF 23
ENDMDL
