MODEL 1
REMARK VINA RESULT:     -10.7      0.000      0.000
REMARK SMILES O=C(OCCOCCOCCOCCOC(=O)c1ccc(-c2c3nc(c(-c4c(F)c(F)c(F)c(F)c4F)c4ccc([nH]4)c(-c4c(F)c(F)c(F)c(F)c4F)c4nc(c(-c5c(F)c(F)c(F)c(F)c5F)c5ccc2[nH]5)C=C4)C=C3)cc1)c1ccc(NC(=O)[C@H]2CCS(=O)(=O)C2)cc1
REMARK SMILES IDX 9 1 8 2 7 3 6 4 5 5 4 6 3 7 2 8 1 9 81 10 82 11 96 12 83 13
REMARK SMILES IDX 95 14 84 15 85 16 86 17 87 19 88 20 89 21 94 22 90 23 91 24
REMARK SMILES IDX 92 25 93 26 10 27 11 28 12 29 13 30 14 31 15 32 16 33 17 34
REMARK SMILES IDX 18 35 19 36 80 37 20 38 79 39 21 40 22 41 23 42 73 43 24 44
REMARK SMILES IDX 78 45 72 46 74 47 25 48 77 49 71 50 70 51 26 53 58 54 38 55
REMARK SMILES IDX 57 56 39 57 42 58 56 59 75 60 40 61 41 62 55 64 76 65 43 66
REMARK SMILES IDX 27 67 28 68 36 69 29 70 30 71 34 72 37 73 31 74 32 75 35 76
REMARK SMILES IDX 33 77 59 78 60 79 68 80 61 81 62 82 66 83 69 84 63 85 64 86
REMARK SMILES IDX 67 87 65 88 44 89 45 90 53 91 46 92 47 93 51 94 54 95 48 96
REMARK SMILES IDX 49 97 52 98 50 99
REMARK H PARENT 85 18 74 52 42 63
REMARK Flexibility Score: inf
ROOT
ATOM      1  O   UNL A   1      32.719  27.804  26.808  1.00  0.00    -0.377 OA
ENDROOT
BRANCH   1   2
ATOM      2  C   UNL A   1      33.839  27.417  26.006  1.00  0.00     0.188 C 
BRANCH   2   3
ATOM      3  C   UNL A   1      33.506  26.601  24.752  1.00  0.00     0.188 C 
BRANCH   3   4
ATOM      4  O   UNL A   1      33.441  27.455  23.621  1.00  0.00    -0.376 OA
BRANCH   4   5
ATOM      5  C   UNL A   1      32.506  28.516  23.566  1.00  0.00     0.202 C 
BRANCH   5   6
ATOM      6  C   UNL A   1      31.264  28.332  22.695  1.00  0.00     0.261 C 
BRANCH   6   7
ATOM      7  O   UNL A   1      29.999  28.180  23.383  1.00  0.00    -0.460 OA
BRANCH   7   8
ATOM      8  C   UNL A   1      29.301  27.064  23.716  1.00  0.00     0.338 C 
ATOM      9  O   UNL A   1      28.081  27.037  23.590  1.00  0.00    -0.246 OA
BRANCH   8  10
ATOM     10  C   UNL A   1      29.979  25.877  24.281  1.00  0.00     0.060 A 
ATOM     11  C   UNL A   1      30.017  25.684  25.641  1.00  0.00     0.018 A 
ATOM     12  C   UNL A   1      30.422  24.819  23.490  1.00  0.00     0.018 A 
ATOM     13  C   UNL A   1      30.680  24.626  26.232  1.00  0.00     0.027 A 
ATOM     14  C   UNL A   1      30.995  23.670  24.089  1.00  0.00     0.027 A 
ATOM     15  C   UNL A   1      31.174  23.581  25.481  1.00  0.00     0.041 A 
BRANCH  15  16
ATOM     16  N   UNL A   1      31.753  22.418  26.038  1.00  0.00    -0.326 N 
ATOM     17  C   UNL A   1      33.050  21.970  26.165  1.00  0.00     0.228 C 
ATOM     18  H   UNL A   1      31.089  21.796  26.413  1.00  0.00     0.169 HD
ATOM     19  O   UNL A   1      33.255  20.951  26.828  1.00  0.00    -0.274 OA
BRANCH  17  20
ATOM     20  C   UNL A   1      34.200  22.665  25.463  1.00  0.00     0.095 C 
ATOM     21  C   UNL A   1      35.302  23.308  26.314  1.00  0.00     0.030 C 
ATOM     22  C   UNL A   1      34.946  21.661  24.587  1.00  0.00     0.150 C 
ATOM     23  C   UNL A   1      36.351  23.789  25.299  1.00  0.00     0.138 C 
ATOM     24  S   UNL A   1      36.353  22.566  23.991  1.00  0.00     0.151 S 
ATOM     25  O   UNL A   1      35.968  23.204  22.745  1.00  0.00    -0.229 OA
ATOM     26  O   UNL A   1      37.528  21.734  24.100  1.00  0.00    -0.229 OA
ENDBRANCH  17  20
ENDBRANCH  15  16
ENDBRANCH   8  10
ENDBRANCH   7   8
ENDBRANCH   6   7
ENDBRANCH   5   6
ENDBRANCH   4   5
ENDBRANCH   3   4
ENDBRANCH   2   3
ENDBRANCH   1   2
BRANCH   1  27
ATOM     27  C   UNL A   1      32.841  29.036  27.519  1.00  0.00     0.188 C 
BRANCH  27  28
ATOM     28  C   UNL A   1      32.943  30.356  26.708  1.00  0.00     0.188 C 
BRANCH  28  29
ATOM     29  O   UNL A   1      31.691  30.962  26.431  1.00  0.00    -0.376 OA
BRANCH  29  30
ATOM     30  C   UNL A   1      31.523  32.325  26.794  1.00  0.00     0.202 C 
BRANCH  30  31
ATOM     31  C   UNL A   1      32.470  33.011  27.806  1.00  0.00     0.261 C 
BRANCH  31  32
ATOM     32  O   UNL A   1      32.799  34.386  27.573  1.00  0.00    -0.460 OA
BRANCH  32  33
ATOM     33  C   UNL A   1      33.039  35.169  28.651  1.00  0.00     0.338 C 
ATOM     34  O   UNL A   1      32.324  36.042  29.092  1.00  0.00    -0.246 OA
BRANCH  33  35
ATOM     35  C   UNL A   1      34.214  34.604  29.368  1.00  0.00     0.060 A 
ATOM     36  C   UNL A   1      35.454  34.644  28.715  1.00  0.00     0.016 A 
ATOM     37  C   UNL A   1      34.132  34.136  30.685  1.00  0.00     0.016 A 
ATOM     38  C   UNL A   1      36.603  34.186  29.360  1.00  0.00     0.010 A 
ATOM     39  C   UNL A   1      35.283  33.650  31.323  1.00  0.00     0.010 A 
ATOM     40  C   UNL A   1      36.516  33.637  30.646  1.00  0.00    -0.014 A 
BRANCH  40  41
ATOM     41  C   UNL A   1      37.666  32.839  31.147  1.00  0.00     0.031 A 
ATOM     42  C   UNL A   1      38.186  33.153  32.525  1.00  0.00     0.074 A 
ATOM     43  C   UNL A   1      38.170  31.801  30.457  1.00  0.00     0.049 A 
ATOM     44  N   UNL A   1      39.119  32.556  33.223  1.00  0.00    -0.248 NA
ATOM     45  C   UNL A   1      37.559  34.294  33.212  1.00  0.00     0.031 C 
ATOM     46  C   UNL A   1      37.734  31.373  29.131  1.00  0.00     0.029 A 
ATOM     47  N   UNL A   1      39.162  30.910  30.791  1.00  0.00    -0.354 N 
ATOM     48  C   UNL A   1      39.175  33.236  34.433  1.00  0.00     0.074 A 
ATOM     49  C   UNL A   1      38.225  34.324  34.356  1.00  0.00     0.031 C 
ATOM     50  C   UNL A   1      38.459  30.301  28.759  1.00  0.00     0.029 A 
ATOM     51  C   UNL A   1      39.422  29.981  29.812  1.00  0.00     0.049 A 
ATOM     52  H   UNL A   1      39.641  30.934  31.650  1.00  0.00     0.167 HD
ATOM     53  C   UNL A   1      39.932  32.968  35.522  1.00  0.00     0.037 A 
ATOM     54  C   UNL A   1      40.341  28.994  29.772  1.00  0.00     0.037 A 
ATOM     55  C   UNL A   1      40.892  31.900  35.596  1.00  0.00     0.049 A 
ATOM     56  C   UNL A   1      41.232  28.765  30.970  1.00  0.00     0.074 A 
ATOM     57  C   UNL A   1      41.720  31.554  36.648  1.00  0.00     0.029 A 
ATOM     58  N   UNL A   1      41.158  31.007  34.567  1.00  0.00    -0.354 N 
ATOM     59  N   UNL A   1      41.259  29.395  32.120  1.00  0.00    -0.248 NA
ATOM     60  C   UNL A   1      42.210  27.672  30.867  1.00  0.00     0.031 C 
ATOM     61  C   UNL A   1      42.528  30.488  36.237  1.00  0.00     0.029 A 
ATOM     62  C   UNL A   1      42.155  30.125  34.953  1.00  0.00     0.049 A 
ATOM     63  H   UNL A   1      40.707  31.003  33.693  1.00  0.00     0.167 HD
ATOM     64  C   UNL A   1      42.233  28.762  32.884  1.00  0.00     0.074 A 
ATOM     65  C   UNL A   1      42.752  27.678  32.077  1.00  0.00     0.031 C 
ATOM     66  C   UNL A   1      42.664  29.052  34.137  1.00  0.00     0.037 A 
BRANCH  53  67
ATOM     67  C   UNL A   1      39.761  33.861  36.718  1.00  0.00     0.064 A 
ATOM     68  C   UNL A   1      40.413  35.101  36.811  1.00  0.00     0.173 A 
ATOM     69  C   UNL A   1      38.917  33.485  37.773  1.00  0.00     0.173 A 
ATOM     70  F   UNL A   1      41.247  35.499  35.838  1.00  0.00    -0.203 F 
ATOM     71  C   UNL A   1      40.242  35.919  37.924  1.00  0.00     0.198 A 
ATOM     72  C   UNL A   1      38.723  34.320  38.869  1.00  0.00     0.198 A 
ATOM     73  F   UNL A   1      38.270  32.309  37.737  1.00  0.00    -0.203 F 
ATOM     74  F   UNL A   1      40.915  37.075  38.013  1.00  0.00    -0.200 F 
ATOM     75  C   UNL A   1      39.391  35.532  38.948  1.00  0.00     0.200 A 
ATOM     76  F   UNL A   1      37.890  33.951  39.851  1.00  0.00    -0.200 F 
ATOM     77  F   UNL A   1      39.221  36.326  40.014  1.00  0.00    -0.200 F 
ENDBRANCH  53  67
BRANCH  54  78
ATOM     78  C   UNL A   1      40.488  28.155  28.550  1.00  0.00     0.064 A 
ATOM     79  C   UNL A   1      39.853  26.910  28.431  1.00  0.00     0.173 A 
ATOM     80  C   UNL A   1      41.313  28.564  27.491  1.00  0.00     0.173 A 
ATOM     81  F   UNL A   1      39.076  26.457  29.426  1.00  0.00    -0.203 F 
ATOM     82  C   UNL A   1      40.061  26.097  27.317  1.00  0.00     0.198 A 
ATOM     83  C   UNL A   1      41.492  27.767  26.363  1.00  0.00     0.198 A 
ATOM     84  F   UNL A   1      41.950  29.743  27.553  1.00  0.00    -0.203 F 
ATOM     85  F   UNL A   1      39.493  24.884  27.262  1.00  0.00    -0.200 F 
ATOM     86  C   UNL A   1      40.875  26.528  26.282  1.00  0.00     0.200 A 
ATOM     87  F   UNL A   1      42.269  28.195  25.359  1.00  0.00    -0.200 F 
ATOM     88  F   UNL A   1      41.075  25.746  25.212  1.00  0.00    -0.200 F 
ENDBRANCH  54  78
BRANCH  66  89
ATOM     89  C   UNL A   1      43.725  28.160  34.725  1.00  0.00     0.064 A 
ATOM     90  C   UNL A   1      43.404  26.973  35.402  1.00  0.00     0.173 A 
ATOM     91  C   UNL A   1      45.083  28.494  34.603  1.00  0.00     0.173 A 
ATOM     92  F   UNL A   1      42.120  26.609  35.557  1.00  0.00    -0.203 F 
ATOM     93  C   UNL A   1      44.397  26.183  35.975  1.00  0.00     0.198 A 
ATOM     94  C   UNL A   1      46.075  27.681  35.142  1.00  0.00     0.198 A 
ATOM     95  F   UNL A   1      45.450  29.609  33.953  1.00  0.00    -0.203 F 
ATOM     96  F   UNL A   1      44.059  25.094  36.680  1.00  0.00    -0.200 F 
ATOM     97  C   UNL A   1      45.731  26.534  35.841  1.00  0.00     0.200 A 
ATOM     98  F   UNL A   1      47.365  28.011  34.994  1.00  0.00    -0.200 F 
ATOM     99  F   UNL A   1      46.685  25.773  36.396  1.00  0.00    -0.200 F 
ENDBRANCH  66  89
ENDBRANCH  40  41
ENDBRANCH  33  35
ENDBRANCH  32  33
ENDBRANCH  31  32
ENDBRANCH  30  31
ENDBRANCH  29  30
ENDBRANCH  28  29
ENDBRANCH  27  28
ENDBRANCH   1  27
TORSDOF 22
ENDMDL
MODEL 2
REMARK VINA RESULT:     -10.6      0.797      7.239
REMARK SMILES O=C(OCCOCCOCCOCCOC(=O)c1ccc(-c2c3nc(c(-c4c(F)c(F)c(F)c(F)c4F)c4ccc([nH]4)c(-c4c(F)c(F)c(F)c(F)c4F)c4nc(c(-c5c(F)c(F)c(F)c(F)c5F)c5ccc2[nH]5)C=C4)C=C3)cc1)c1ccc(NC(=O)[C@H]2CCS(=O)(=O)C2)cc1
REMARK SMILES IDX 9 1 8 2 7 3 6 4 5 5 4 6 3 7 2 8 1 9 81 10 82 11 96 12 83 13
REMARK SMILES IDX 95 14 84 15 85 16 86 17 87 19 88 20 89 21 94 22 90 23 91 24
REMARK SMILES IDX 92 25 93 26 10 27 11 28 12 29 13 30 14 31 15 32 16 33 17 34
REMARK SMILES IDX 18 35 19 36 80 37 20 38 79 39 21 40 22 41 23 42 73 43 24 44
REMARK SMILES IDX 78 45 72 46 74 47 25 48 77 49 71 50 70 51 26 53 58 54 38 55
REMARK SMILES IDX 57 56 39 57 42 58 56 59 75 60 40 61 41 62 55 64 76 65 43 66
REMARK SMILES IDX 27 67 28 68 36 69 29 70 30 71 34 72 37 73 31 74 32 75 35 76
REMARK SMILES IDX 33 77 59 78 60 79 68 80 61 81 62 82 66 83 69 84 63 85 64 86
REMARK SMILES IDX 67 87 65 88 44 89 45 90 53 91 46 92 47 93 51 94 54 95 48 96
REMARK SMILES IDX 49 97 52 98 50 99
REMARK H PARENT 85 18 74 52 42 63
REMARK Flexibility Score: inf
ROOT
ATOM      1  O   UNL A   1      32.703  27.133  26.554  1.00  0.00    -0.377 OA
ENDROOT
BRANCH   1   2
ATOM      2  C   UNL A   1      33.669  27.457  25.551  1.00  0.00     0.188 C 
BRANCH   2   3
ATOM      3  C   UNL A   1      33.692  26.533  24.329  1.00  0.00     0.188 C 
BRANCH   3   4
ATOM      4  O   UNL A   1      33.422  27.279  23.152  1.00  0.00    -0.376 OA
BRANCH   4   5
ATOM      5  C   UNL A   1      32.643  28.459  23.205  1.00  0.00     0.202 C 
BRANCH   5   6
ATOM      6  C   UNL A   1      31.163  28.358  22.838  1.00  0.00     0.261 C 
BRANCH   6   7
ATOM      7  O   UNL A   1      30.259  27.915  23.879  1.00  0.00    -0.460 OA
BRANCH   7   8
ATOM      8  C   UNL A   1      29.531  26.776  23.993  1.00  0.00     0.338 C 
ATOM      9  O   UNL A   1      28.319  26.795  23.809  1.00  0.00    -0.246 OA
BRANCH   8  10
ATOM     10  C   UNL A   1      30.164  25.498  24.386  1.00  0.00     0.060 A 
ATOM     11  C   UNL A   1      30.169  25.105  25.702  1.00  0.00     0.018 A 
ATOM     12  C   UNL A   1      30.595  24.556  23.454  1.00  0.00     0.018 A 
ATOM     13  C   UNL A   1      30.790  23.951  26.141  1.00  0.00     0.027 A 
ATOM     14  C   UNL A   1      31.125  23.314  23.885  1.00  0.00     0.027 A 
ATOM     15  C   UNL A   1      31.271  23.014  25.252  1.00  0.00     0.041 A 
BRANCH  15  16
ATOM     16  N   UNL A   1      31.807  21.765  25.639  1.00  0.00    -0.326 N 
ATOM     17  C   UNL A   1      33.090  21.301  25.832  1.00  0.00     0.228 C 
ATOM     18  H   UNL A   1      31.117  21.082  25.804  1.00  0.00     0.169 HD
ATOM     19  O   UNL A   1      33.238  20.172  26.306  1.00  0.00    -0.274 OA
BRANCH  17  20
ATOM     20  C   UNL A   1      34.298  22.117  25.422  1.00  0.00     0.095 C 
ATOM     21  C   UNL A   1      34.769  23.249  26.344  1.00  0.00     0.030 C 
ATOM     22  C   UNL A   1      35.517  21.205  25.304  1.00  0.00     0.150 C 
ATOM     23  C   UNL A   1      36.068  23.763  25.702  1.00  0.00     0.138 C 
ATOM     24  S   UNL A   1      36.867  22.319  25.007  1.00  0.00     0.151 S 
ATOM     25  O   UNL A   1      36.988  22.489  23.571  1.00  0.00    -0.229 OA
ATOM     26  O   UNL A   1      37.985  21.933  25.835  1.00  0.00    -0.229 OA
ENDBRANCH  17  20
ENDBRANCH  15  16
ENDBRANCH   8  10
ENDBRANCH   7   8
ENDBRANCH   6   7
ENDBRANCH   5   6
ENDBRANCH   4   5
ENDBRANCH   3   4
ENDBRANCH   2   3
ENDBRANCH   1   2
BRANCH   1  27
ATOM     27  C   UNL A   1      31.997  28.230  27.136  1.00  0.00     0.188 C 
BRANCH  27  28
ATOM     28  C   UNL A   1      32.572  29.661  26.963  1.00  0.00     0.188 C 
BRANCH  28  29
ATOM     29  O   UNL A   1      31.675  30.574  26.350  1.00  0.00    -0.376 OA
BRANCH  29  30
ATOM     30  C   UNL A   1      31.749  31.936  26.746  1.00  0.00     0.202 C 
BRANCH  30  31
ATOM     31  C   UNL A   1      32.873  32.444  27.676  1.00  0.00     0.261 C 
BRANCH  31  32
ATOM     32  O   UNL A   1      33.332  33.788  27.482  1.00  0.00    -0.460 OA
BRANCH  32  33
ATOM     33  C   UNL A   1      33.336  34.615  28.554  1.00  0.00     0.338 C 
ATOM     34  O   UNL A   1      32.507  35.455  28.830  1.00  0.00    -0.246 OA
BRANCH  33  35
ATOM     35  C   UNL A   1      34.396  34.144  29.486  1.00  0.00     0.060 A 
ATOM     36  C   UNL A   1      35.725  34.209  29.043  1.00  0.00     0.016 A 
ATOM     37  C   UNL A   1      34.114  33.743  30.797  1.00  0.00     0.016 A 
ATOM     38  C   UNL A   1      36.768  33.839  29.893  1.00  0.00     0.010 A 
ATOM     39  C   UNL A   1      35.161  33.345  31.642  1.00  0.00     0.010 A 
ATOM     40  C   UNL A   1      36.489  33.354  31.178  1.00  0.00    -0.014 A 
BRANCH  40  41
ATOM     41  C   UNL A   1      37.569  32.639  31.906  1.00  0.00     0.031 A 
ATOM     42  C   UNL A   1      38.206  31.456  31.226  1.00  0.00     0.074 A 
ATOM     43  C   UNL A   1      38.049  33.077  33.084  1.00  0.00     0.049 A 
ATOM     44  N   UNL A   1      39.216  30.715  31.606  1.00  0.00    -0.248 NA
ATOM     45  C   UNL A   1      37.628  31.062  29.931  1.00  0.00     0.031 C 
ATOM     46  C   UNL A   1      37.544  34.226  33.830  1.00  0.00     0.029 A 
ATOM     47  N   UNL A   1      39.084  32.603  33.854  1.00  0.00    -0.354 N 
ATOM     48  C   UNL A   1      39.403  29.785  30.592  1.00  0.00     0.074 A 
ATOM     49  C   UNL A   1      38.370  30.016  29.606  1.00  0.00     0.031 C 
ATOM     50  C   UNL A   1      38.268  34.366  34.956  1.00  0.00     0.029 A 
ATOM     51  C   UNL A   1      39.274  33.306  35.019  1.00  0.00     0.049 A 
ATOM     52  H   UNL A   1      39.637  31.831  33.596  1.00  0.00     0.167 HD
ATOM     53  C   UNL A   1      40.361  28.837  30.477  1.00  0.00     0.037 A 
ATOM     54  C   UNL A   1      40.152  33.107  36.022  1.00  0.00     0.037 A 
ATOM     55  C   UNL A   1      41.378  28.592  31.464  1.00  0.00     0.049 A 
ATOM     56  C   UNL A   1      41.162  31.989  35.908  1.00  0.00     0.074 A 
ATOM     57  C   UNL A   1      42.386  27.644  31.449  1.00  0.00     0.029 A 
ATOM     58  N   UNL A   1      41.510  29.297  32.651  1.00  0.00    -0.354 N 
ATOM     59  N   UNL A   1      41.349  31.131  34.934  1.00  0.00    -0.248 NA
ATOM     60  C   UNL A   1      42.096  31.824  37.032  1.00  0.00     0.031 C 
ATOM     61  C   UNL A   1      43.093  27.739  32.653  1.00  0.00     0.029 A 
ATOM     62  C   UNL A   1      42.570  28.790  33.387  1.00  0.00     0.049 A 
ATOM     63  H   UNL A   1      40.935  30.046  32.930  1.00  0.00     0.167 HD
ATOM     64  C   UNL A   1      42.432  30.347  35.312  1.00  0.00     0.074 A 
ATOM     65  C   UNL A   1      42.880  30.850  36.593  1.00  0.00     0.031 C 
ATOM     66  C   UNL A   1      43.003  29.301  34.663  1.00  0.00     0.037 A 
BRANCH  53  67
ATOM     67  C   UNL A   1      40.341  27.982  29.242  1.00  0.00     0.064 A 
ATOM     68  C   UNL A   1      39.579  26.805  29.174  1.00  0.00     0.173 A 
ATOM     69  C   UNL A   1      41.072  28.355  28.105  1.00  0.00     0.173 A 
ATOM     70  F   UNL A   1      38.876  26.393  30.241  1.00  0.00    -0.203 F 
ATOM     71  C   UNL A   1      39.567  26.024  28.021  1.00  0.00     0.198 A 
ATOM     72  C   UNL A   1      41.032  27.590  26.943  1.00  0.00     0.198 A 
ATOM     73  F   UNL A   1      41.820  29.470  28.116  1.00  0.00    -0.203 F 
ATOM     74  F   UNL A   1      38.872  24.879  27.998  1.00  0.00    -0.200 F 
ATOM     75  C   UNL A   1      40.286  26.421  26.904  1.00  0.00     0.200 A 
ATOM     76  F   UNL A   1      41.717  27.981  25.860  1.00  0.00    -0.200 F 
ATOM     77  F   UNL A   1      40.266  25.673  25.793  1.00  0.00    -0.200 F 
ENDBRANCH  53  67
BRANCH  54  78
ATOM     78  C   UNL A   1      40.111  33.967  37.238  1.00  0.00     0.064 A 
ATOM     79  C   UNL A   1      40.903  35.119  37.352  1.00  0.00     0.173 A 
ATOM     80  C   UNL A   1      39.311  33.621  38.337  1.00  0.00     0.173 A 
ATOM     81  F   UNL A   1      41.710  35.479  36.342  1.00  0.00    -0.203 F 
ATOM     82  C   UNL A   1      40.917  35.872  38.525  1.00  0.00     0.198 A 
ATOM     83  C   UNL A   1      39.298  34.394  39.496  1.00  0.00     0.198 A 
ATOM     84  F   UNL A   1      38.538  32.526  38.287  1.00  0.00    -0.203 F 
ATOM     85  F   UNL A   1      41.733  36.930  38.628  1.00  0.00    -0.200 F 
ATOM     86  C   UNL A   1      40.111  35.513  39.594  1.00  0.00     0.200 A 
ATOM     87  F   UNL A   1      38.507  34.050  40.520  1.00  0.00    -0.200 F 
ATOM     88  F   UNL A   1      40.125  36.237  40.721  1.00  0.00    -0.200 F 
ENDBRANCH  54  78
BRANCH  66  89
ATOM     89  C   UNL A   1      44.198  28.656  35.313  1.00  0.00     0.064 A 
ATOM     90  C   UNL A   1      45.510  29.051  35.009  1.00  0.00     0.173 A 
ATOM     91  C   UNL A   1      44.029  27.632  36.259  1.00  0.00     0.173 A 
ATOM     92  F   UNL A   1      45.732  30.019  34.105  1.00  0.00    -0.203 F 
ATOM     93  C   UNL A   1      46.604  28.414  35.588  1.00  0.00     0.198 A 
ATOM     94  C   UNL A   1      45.123  27.025  36.866  1.00  0.00     0.198 A 
ATOM     95  F   UNL A   1      42.796  27.223  36.599  1.00  0.00    -0.203 F 
ATOM     96  F   UNL A   1      47.848  28.760  35.225  1.00  0.00    -0.200 F 
ATOM     97  C   UNL A   1      46.411  27.406  36.519  1.00  0.00     0.200 A 
ATOM     98  F   UNL A   1      44.933  26.065  37.781  1.00  0.00    -0.200 F 
ATOM     99  F   UNL A   1      47.465  26.793  37.075  1.00  0.00    -0.200 F 
ENDBRANCH  66  89
ENDBRANCH  40  41
ENDBRANCH  33  35
ENDBRANCH  32  33
ENDBRANCH  31  32
ENDBRANCH  30  31
ENDBRANCH  29  30
ENDBRANCH  28  29
ENDBRANCH  27  28
ENDBRANCH   1  27
TORSDOF 22
ENDMDL
MODEL 3
REMARK VINA RESULT:     -10.4      4.738     11.057
REMARK SMILES O=C(OCCOCCOCCOCCOC(=O)c1ccc(-c2c3nc(c(-c4c(F)c(F)c(F)c(F)c4F)c4ccc([nH]4)c(-c4c(F)c(F)c(F)c(F)c4F)c4nc(c(-c5c(F)c(F)c(F)c(F)c5F)c5ccc2[nH]5)C=C4)C=C3)cc1)c1ccc(NC(=O)[C@H]2CCS(=O)(=O)C2)cc1
REMARK SMILES IDX 9 1 8 2 7 3 6 4 5 5 4 6 3 7 2 8 1 9 81 10 82 11 96 12 83 13
REMARK SMILES IDX 95 14 84 15 85 16 86 17 87 19 88 20 89 21 94 22 90 23 91 24
REMARK SMILES IDX 92 25 93 26 10 27 11 28 12 29 13 30 14 31 15 32 16 33 17 34
REMARK SMILES IDX 18 35 19 36 80 37 20 38 79 39 21 40 22 41 23 42 73 43 24 44
REMARK SMILES IDX 78 45 72 46 74 47 25 48 77 49 71 50 70 51 26 53 58 54 38 55
REMARK SMILES IDX 57 56 39 57 42 58 56 59 75 60 40 61 41 62 55 64 76 65 43 66
REMARK SMILES IDX 27 67 28 68 36 69 29 70 30 71 34 72 37 73 31 74 32 75 35 76
REMARK SMILES IDX 33 77 59 78 60 79 68 80 61 81 62 82 66 83 69 84 63 85 64 86
REMARK SMILES IDX 67 87 65 88 44 89 45 90 53 91 46 92 47 93 51 94 54 95 48 96
REMARK SMILES IDX 49 97 52 98 50 99
REMARK H PARENT 85 18 74 52 42 63
REMARK Flexibility Score: inf
ROOT
ATOM      1  O   UNL A   1      32.746  36.839  31.945  1.00  0.00    -0.377 OA
ENDROOT
BRANCH   1   2
ATOM      2  C   UNL A   1      33.792  36.686  32.909  1.00  0.00     0.188 C 
BRANCH   2   3
ATOM      3  C   UNL A   1      34.607  35.393  32.804  1.00  0.00     0.188 C 
BRANCH   3   4
ATOM      4  O   UNL A   1      35.740  35.464  33.656  1.00  0.00    -0.376 OA
BRANCH   4   5
ATOM      5  C   UNL A   1      36.782  34.512  33.557  1.00  0.00     0.202 C 
BRANCH   5   6
ATOM      6  C   UNL A   1      37.699  34.577  32.336  1.00  0.00     0.261 C 
BRANCH   6   7
ATOM      7  O   UNL A   1      39.068  34.142  32.522  1.00  0.00    -0.460 OA
BRANCH   7   8
ATOM      8  C   UNL A   1      39.831  34.077  33.643  1.00  0.00     0.338 C 
ATOM      9  O   UNL A   1      40.409  35.076  34.056  1.00  0.00    -0.246 OA
BRANCH   8  10
ATOM     10  C   UNL A   1      40.026  32.800  34.365  1.00  0.00     0.060 A 
ATOM     11  C   UNL A   1      39.542  31.627  33.838  1.00  0.00     0.018 A 
ATOM     12  C   UNL A   1      40.857  32.686  35.477  1.00  0.00     0.018 A 
ATOM     13  C   UNL A   1      39.644  30.412  34.487  1.00  0.00     0.027 A 
ATOM     14  C   UNL A   1      41.069  31.424  36.084  1.00  0.00     0.027 A 
ATOM     15  C   UNL A   1      40.420  30.267  35.617  1.00  0.00     0.041 A 
BRANCH  15  16
ATOM     16  N   UNL A   1      40.657  29.027  36.254  1.00  0.00    -0.326 N 
ATOM     17  C   UNL A   1      41.631  28.062  36.119  1.00  0.00     0.228 C 
ATOM     18  H   UNL A   1      39.983  28.807  36.936  1.00  0.00     0.169 HD
ATOM     19  O   UNL A   1      41.643  27.128  36.923  1.00  0.00    -0.274 OA
BRANCH  17  20
ATOM     20  C   UNL A   1      42.631  28.099  34.981  1.00  0.00     0.095 C 
ATOM     21  C   UNL A   1      44.031  28.665  35.249  1.00  0.00     0.030 C 
ATOM     22  C   UNL A   1      42.894  26.678  34.485  1.00  0.00     0.150 C 
ATOM     23  C   UNL A   1      44.807  28.427  33.943  1.00  0.00     0.138 C 
ATOM     24  S   UNL A   1      44.204  26.867  33.301  1.00  0.00     0.151 S 
ATOM     25  O   UNL A   1      43.594  27.093  32.004  1.00  0.00    -0.229 OA
ATOM     26  O   UNL A   1      45.188  25.834  33.521  1.00  0.00    -0.229 OA
ENDBRANCH  17  20
ENDBRANCH  15  16
ENDBRANCH   8  10
ENDBRANCH   7   8
ENDBRANCH   6   7
ENDBRANCH   5   6
ENDBRANCH   4   5
ENDBRANCH   3   4
ENDBRANCH   2   3
ENDBRANCH   1   2
BRANCH   1  27
ATOM     27  C   UNL A   1      32.746  35.918  30.854  1.00  0.00     0.188 C 
BRANCH  27  28
ATOM     28  C   UNL A   1      33.156  36.431  29.448  1.00  0.00     0.188 C 
BRANCH  28  29
ATOM     29  O   UNL A   1      33.954  35.518  28.710  1.00  0.00    -0.376 OA
BRANCH  29  30
ATOM     30  C   UNL A   1      34.135  34.216  29.249  1.00  0.00     0.202 C 
BRANCH  30  31
ATOM     31  C   UNL A   1      34.095  32.960  28.349  1.00  0.00     0.261 C 
BRANCH  31  32
ATOM     32  O   UNL A   1      34.470  31.711  28.944  1.00  0.00    -0.460 OA
BRANCH  32  33
ATOM     33  C   UNL A   1      34.692  30.660  28.120  1.00  0.00     0.338 C 
ATOM     34  O   UNL A   1      33.974  30.272  27.224  1.00  0.00    -0.246 OA
BRANCH  33  35
ATOM     35  C   UNL A   1      36.096  30.213  28.323  1.00  0.00     0.060 A 
ATOM     36  C   UNL A   1      36.451  29.747  29.597  1.00  0.00     0.016 A 
ATOM     37  C   UNL A   1      37.021  30.154  27.274  1.00  0.00     0.016 A 
ATOM     38  C   UNL A   1      37.735  29.257  29.834  1.00  0.00     0.010 A 
ATOM     39  C   UNL A   1      38.321  29.687  27.520  1.00  0.00     0.010 A 
ATOM     40  C   UNL A   1      38.694  29.274  28.812  1.00  0.00    -0.014 A 
BRANCH  40  41
ATOM     41  C   UNL A   1      40.121  29.095  29.186  1.00  0.00     0.031 A 
ATOM     42  C   UNL A   1      40.797  27.815  28.771  1.00  0.00     0.074 A 
ATOM     43  C   UNL A   1      40.832  30.070  29.781  1.00  0.00     0.049 A 
ATOM     44  N   UNL A   1      42.047  27.448  28.900  1.00  0.00    -0.248 NA
ATOM     45  C   UNL A   1      39.944  26.815  28.108  1.00  0.00     0.031 C 
ATOM     46  C   UNL A   1      40.307  31.365  30.203  1.00  0.00     0.029 A 
ATOM     47  N   UNL A   1      42.162  30.117  30.123  1.00  0.00    -0.354 N 
ATOM     48  C   UNL A   1      42.130  26.188  28.320  1.00  0.00     0.074 A 
ATOM     49  C   UNL A   1      40.798  25.828  27.889  1.00  0.00     0.031 C 
ATOM     50  C   UNL A   1      41.304  32.081  30.754  1.00  0.00     0.029 A 
ATOM     51  C   UNL A   1      42.533  31.287  30.740  1.00  0.00     0.049 A 
ATOM     52  H   UNL A   1      42.791  29.382  29.943  1.00  0.00     0.167 HD
ATOM     53  C   UNL A   1      43.221  25.408  28.141  1.00  0.00     0.037 A 
ATOM     54  C   UNL A   1      43.726  31.665  31.244  1.00  0.00     0.037 A 
ATOM     55  C   UNL A   1      44.544  25.754  28.587  1.00  0.00     0.049 A 
ATOM     56  C   UNL A   1      44.913  30.741  31.104  1.00  0.00     0.074 A 
ATOM     57  C   UNL A   1      45.714  25.026  28.468  1.00  0.00     0.029 A 
ATOM     58  N   UNL A   1      44.871  26.930  29.248  1.00  0.00    -0.354 N 
ATOM     59  N   UNL A   1      44.989  29.564  30.531  1.00  0.00    -0.248 NA
ATOM     60  C   UNL A   1      46.186  31.211  31.669  1.00  0.00     0.031 C 
ATOM     61  C   UNL A   1      46.737  25.734  29.107  1.00  0.00     0.029 A 
ATOM     62  C   UNL A   1      46.221  26.936  29.563  1.00  0.00     0.049 A 
ATOM     63  H   UNL A   1      44.237  27.652  29.463  1.00  0.00     0.167 HD
ATOM     64  C   UNL A   1      46.316  29.166  30.642  1.00  0.00     0.074 A 
ATOM     65  C   UNL A   1      47.016  30.241  31.312  1.00  0.00     0.031 C 
ATOM     66  C   UNL A   1      46.904  28.013  30.233  1.00  0.00     0.037 A 
BRANCH  53  67
ATOM     67  C   UNL A   1      43.021  24.092  27.446  1.00  0.00     0.064 A 
ATOM     68  C   UNL A   1      42.596  22.949  28.142  1.00  0.00     0.173 A 
ATOM     69  C   UNL A   1      43.233  23.977  26.065  1.00  0.00     0.173 A 
ATOM     70  F   UNL A   1      42.397  23.000  29.468  1.00  0.00    -0.203 F 
ATOM     71  C   UNL A   1      42.412  21.736  27.483  1.00  0.00     0.198 A 
ATOM     72  C   UNL A   1      43.016  22.771  25.404  1.00  0.00     0.198 A 
ATOM     73  F   UNL A   1      43.643  25.037  25.352  1.00  0.00    -0.203 F 
ATOM     74  F   UNL A   1      42.054  20.647  28.177  1.00  0.00    -0.200 F 
ATOM     75  C   UNL A   1      42.614  21.650  26.114  1.00  0.00     0.200 A 
ATOM     76  F   UNL A   1      43.199  22.693  24.079  1.00  0.00    -0.200 F 
ATOM     77  F   UNL A   1      42.426  20.484  25.480  1.00  0.00    -0.200 F 
ENDBRANCH  53  67
BRANCH  54  78
ATOM     78  C   UNL A   1      43.863  32.970  31.949  1.00  0.00     0.064 A 
ATOM     79  C   UNL A   1      43.817  33.059  33.348  1.00  0.00     0.173 A 
ATOM     80  C   UNL A   1      43.993  34.167  31.229  1.00  0.00     0.173 A 
ATOM     81  F   UNL A   1      43.663  31.948  34.085  1.00  0.00    -0.203 F 
ATOM     82  C   UNL A   1      43.866  34.293  33.996  1.00  0.00     0.198 A 
ATOM     83  C   UNL A   1      44.079  35.397  31.878  1.00  0.00     0.198 A 
ATOM     84  F   UNL A   1      44.037  34.143  29.889  1.00  0.00    -0.203 F 
ATOM     85  F   UNL A   1      43.754  34.351  35.330  1.00  0.00    -0.200 F 
ATOM     86  C   UNL A   1      44.003  35.460  33.261  1.00  0.00     0.200 A 
ATOM     87  F   UNL A   1      44.225  36.520  31.163  1.00  0.00    -0.200 F 
ATOM     88  F   UNL A   1      44.049  36.646  33.883  1.00  0.00    -0.200 F 
ENDBRANCH  54  78
BRANCH  66  89
ATOM     89  C   UNL A   1      48.384  27.874  30.466  1.00  0.00     0.064 A 
ATOM     90  C   UNL A   1      49.327  28.283  29.510  1.00  0.00     0.173 A 
ATOM     91  C   UNL A   1      48.867  27.330  31.667  1.00  0.00     0.173 A 
ATOM     92  F   UNL A   1      48.922  28.801  28.340  1.00  0.00    -0.203 F 
ATOM     93  C   UNL A   1      50.691  28.107  29.727  1.00  0.00     0.198 A 
ATOM     94  C   UNL A   1      50.233  27.193  31.897  1.00  0.00     0.198 A 
ATOM     95  F   UNL A   1      48.012  26.935  32.623  1.00  0.00    -0.203 F 
ATOM     96  F   UNL A   1      51.568  28.437  28.767  1.00  0.00    -0.200 F 
ATOM     97  C   UNL A   1      51.144  27.567  30.921  1.00  0.00     0.200 A 
ATOM     98  F   UNL A   1      50.668  26.690  33.060  1.00  0.00    -0.200 F 
ATOM     99  F   UNL A   1      52.457  27.397  31.126  1.00  0.00    -0.200 F 
ENDBRANCH  66  89
ENDBRANCH  40  41
ENDBRANCH  33  35
ENDBRANCH  32  33
ENDBRANCH  31  32
ENDBRANCH  30  31
ENDBRANCH  29  30
ENDBRANCH  28  29
ENDBRANCH  27  28
ENDBRANCH   1  27
TORSDOF 22
ENDMDL
