MODEL 1
REMARK VINA RESULT:     -11.4      0.000      0.000
REMARK SMILES C/C(=C\C(=O)c1c(O)n(C)c2ccccc2c1=O)Nc1ccc(C(=O)OCCOCCOCCOCCOC(=O)c2ccc(-c3c4nc(c(-c5c(F)c(F)c(F)c(F)c5F)c5ccc([nH]5)c(-c5c(F)c(F)c(F)c(F)c5F)c5nc(c(-c6c(F)c(F)c(F)c(F)c6F)c6ccc3[nH]6)C=C5)C=C4)cc2)cc1
REMARK SMILES IDX 30 1 29 2 28 3 27 4 26 5 24 6 25 7 23 8 20 9 21 10 105 11
REMARK SMILES IDX 22 12 104 13 19 14 2 16 1 17 3 18 4 19 5 20 6 21 7 22 17 23
REMARK SMILES IDX 9 24 16 25 18 26 10 27 11 28 15 29 12 30 14 31 13 32 8 33
REMARK SMILES IDX 31 35 32 36 33 37 34 38 35 39 36 40 37 41 38 42 39 43 40 44
REMARK SMILES IDX 41 45 42 46 103 47 43 48 102 49 44 50 45 51 46 52 96 53
REMARK SMILES IDX 47 54 101 55 95 56 97 57 48 58 100 59 94 60 93 61 49 63
REMARK SMILES IDX 81 64 61 65 80 66 62 67 65 68 79 69 98 70 63 71 64 72 78 74
REMARK SMILES IDX 99 75 66 76 50 77 51 78 59 79 52 80 53 81 57 82 60 83 54 84
REMARK SMILES IDX 55 85 58 86 56 87 82 88 83 89 91 90 84 91 85 92 89 93 92 94
REMARK SMILES IDX 86 95 87 96 90 97 88 98 67 99 68 100 76 101 69 102 70 103
REMARK SMILES IDX 74 104 77 105 71 106 72 107 75 108 73 109
REMARK H PARENT 19 15 8 34 97 62 65 73
REMARK Flexibility Score: inf
ROOT
ATOM      1  C   UNL A   1      33.846  29.933  26.518  1.00  0.00     0.188 C 
ENDROOT
BRANCH   1   2
ATOM      2  O   UNL A   1      32.824  29.474  25.639  1.00  0.00    -0.376 OA
BRANCH   2   3
ATOM      3  C   UNL A   1      33.262  28.779  24.479  1.00  0.00     0.202 C 
BRANCH   3   4
ATOM      4  C   UNL A   1      32.522  27.465  24.192  1.00  0.00     0.261 C 
BRANCH   4   5
ATOM      5  O   UNL A   1      33.357  26.410  23.690  1.00  0.00    -0.460 OA
BRANCH   5   6
ATOM      6  C   UNL A   1      32.803  25.178  23.622  1.00  0.00     0.338 C 
ATOM      7  O   UNL A   1      31.733  24.897  23.112  1.00  0.00    -0.246 OA
BRANCH   6   8
ATOM      8  C   UNL A   1      33.803  24.180  24.082  1.00  0.00     0.060 A 
ATOM      9  C   UNL A   1      35.908  22.465  24.879  1.00  0.00     0.038 A 
ATOM     10  C   UNL A   1      35.710  22.789  23.534  1.00  0.00     0.027 A 
ATOM     11  C   UNL A   1      35.000  22.981  25.818  1.00  0.00     0.027 A 
ATOM     12  C   UNL A   1      34.676  23.642  23.134  1.00  0.00     0.018 A 
ATOM     13  C   UNL A   1      33.953  23.829  25.427  1.00  0.00     0.018 A 
BRANCH   9  14
ATOM     14  N   UNL A   1      37.006  21.710  25.337  1.00  0.00    -0.359 N 
ATOM     15  H   UNL A   1      36.886  20.734  25.294  1.00  0.00     0.166 HD
BRANCH  14  16
ATOM     16  C   UNL A   1      38.244  22.130  25.843  1.00  0.00     0.016 C 
ATOM     17  C   UNL A   1      38.436  23.607  26.104  1.00  0.00     0.064 C 
ATOM     18  C   UNL A   1      39.179  21.195  26.145  1.00  0.00     0.074 C 
BRANCH  18  19
ATOM     19  C   UNL A   1      40.500  21.247  26.868  1.00  0.00     0.196 C 
ATOM     20  O   UNL A   1      40.512  21.480  28.074  1.00  0.00    -0.289 OA
BRANCH  19  21
ATOM     21  C   UNL A   1      41.751  21.206  26.089  1.00  0.00     0.130 A 
ATOM     22  C   UNL A   1      42.338  20.022  25.825  1.00  0.00     0.206 A 
ATOM     23  C   UNL A   1      42.467  22.456  25.750  1.00  0.00     0.204 A 
ATOM     24  N   UNL A   1      43.663  19.901  25.413  1.00  0.00    -0.315 N 
ATOM     25  C   UNL A   1      43.839  22.332  25.211  1.00  0.00     0.047 A 
ATOM     26  O   UNL A   1      41.973  23.559  25.957  1.00  0.00    -0.288 OA
ATOM     27  C   UNL A   1      44.390  18.633  25.533  1.00  0.00     0.153 C 
ATOM     28  C   UNL A   1      44.422  21.055  25.096  1.00  0.00     0.055 A 
ATOM     29  C   UNL A   1      44.552  23.501  24.898  1.00  0.00     0.014 A 
ATOM     30  C   UNL A   1      45.761  21.004  24.669  1.00  0.00     0.027 A 
ATOM     31  C   UNL A   1      45.874  23.415  24.476  1.00  0.00     0.001 A 
ATOM     32  C   UNL A   1      46.480  22.168  24.369  1.00  0.00     0.002 A 
BRANCH  22  33
ATOM     33  O   UNL A   1      41.674  18.824  26.032  1.00  0.00    -0.494 OA
ATOM     34  H   UNL A   1      41.106  18.726  26.771  1.00  0.00     0.295 HD
ENDBRANCH  22  33
ENDBRANCH  19  21
ENDBRANCH  18  19
ENDBRANCH  14  16
ENDBRANCH   9  14
ENDBRANCH   6   8
ENDBRANCH   5   6
ENDBRANCH   4   5
ENDBRANCH   3   4
ENDBRANCH   2   3
ENDBRANCH   1   2
BRANCH   1  35
ATOM     35  C   UNL A   1      33.346  30.916  27.591  1.00  0.00     0.188 C 
BRANCH  35  36
ATOM     36  O   UNL A   1      34.326  31.575  28.376  1.00  0.00    -0.377 OA
BRANCH  36  37
ATOM     37  C   UNL A   1      34.687  32.918  28.064  1.00  0.00     0.188 C 
BRANCH  37  38
ATOM     38  C   UNL A   1      34.446  34.100  29.031  1.00  0.00     0.188 C 
BRANCH  38  39
ATOM     39  O   UNL A   1      34.675  35.388  28.477  1.00  0.00    -0.376 OA
BRANCH  39  40
ATOM     40  C   UNL A   1      33.682  36.370  28.738  1.00  0.00     0.202 C 
BRANCH  40  41
ATOM     41  C   UNL A   1      32.669  35.941  29.801  1.00  0.00     0.261 C 
BRANCH  41  42
ATOM     42  O   UNL A   1      32.688  36.724  31.005  1.00  0.00    -0.460 OA
BRANCH  42  43
ATOM     43  C   UNL A   1      32.413  36.092  32.169  1.00  0.00     0.338 C 
ATOM     44  O   UNL A   1      31.360  36.090  32.781  1.00  0.00    -0.246 OA
BRANCH  43  45
ATOM     45  C   UNL A   1      33.580  35.247  32.489  1.00  0.00     0.060 A 
ATOM     46  C   UNL A   1      34.871  35.763  32.355  1.00  0.00     0.016 A 
ATOM     47  C   UNL A   1      33.384  33.914  32.877  1.00  0.00     0.016 A 
ATOM     48  C   UNL A   1      35.969  34.948  32.620  1.00  0.00     0.010 A 
ATOM     49  C   UNL A   1      34.488  33.098  33.144  1.00  0.00     0.010 A 
ATOM     50  C   UNL A   1      35.788  33.615  33.030  1.00  0.00    -0.014 A 
BRANCH  50  51
ATOM     51  C   UNL A   1      36.970  32.836  33.469  1.00  0.00     0.031 A 
ATOM     52  C   UNL A   1      37.608  31.803  32.594  1.00  0.00     0.074 A 
ATOM     53  C   UNL A   1      37.497  33.121  34.675  1.00  0.00     0.049 A 
ATOM     54  N   UNL A   1      38.739  31.166  32.770  1.00  0.00    -0.248 NA
ATOM     55  C   UNL A   1      36.888  31.426  31.371  1.00  0.00     0.031 C 
ATOM     56  C   UNL A   1      36.937  34.086  35.622  1.00  0.00     0.029 A 
ATOM     57  N   UNL A   1      38.625  32.653  35.297  1.00  0.00    -0.354 N 
ATOM     58  C   UNL A   1      38.885  30.337  31.668  1.00  0.00     0.074 A 
ATOM     59  C   UNL A   1      37.697  30.508  30.856  1.00  0.00     0.031 C 
ATOM     60  C   UNL A   1      37.746  34.169  36.689  1.00  0.00     0.029 A 
ATOM     61  C   UNL A   1      38.868  33.252  36.509  1.00  0.00     0.049 A 
ATOM     62  H   UNL A   1      39.203  31.955  34.914  1.00  0.00     0.167 HD
ATOM     63  C   UNL A   1      39.928  29.530  31.358  1.00  0.00     0.037 A 
ATOM     64  C   UNL A   1      39.890  33.096  37.370  1.00  0.00     0.037 A 
ATOM     65  C   UNL A   1      41.101  29.361  32.180  1.00  0.00     0.049 A 
ATOM     66  C   UNL A   1      41.008  32.153  37.024  1.00  0.00     0.074 A 
ATOM     67  C   UNL A   1      42.237  28.616  31.915  1.00  0.00     0.029 A 
ATOM     68  N   UNL A   1      41.282  29.931  33.431  1.00  0.00    -0.354 N 
ATOM     69  N   UNL A   1      41.189  31.457  35.929  1.00  0.00    -0.248 NA
ATOM     70  C   UNL A   1      42.064  31.976  38.030  1.00  0.00     0.031 C 
ATOM     71  C   UNL A   1      43.080  28.689  33.029  1.00  0.00     0.029 A 
ATOM     72  C   UNL A   1      42.489  29.517  33.970  1.00  0.00     0.049 A 
ATOM     73  H   UNL A   1      40.646  30.540  33.872  1.00  0.00     0.167 HD
ATOM     74  C   UNL A   1      42.379  30.766  36.108  1.00  0.00     0.074 A 
ATOM     75  C   UNL A   1      42.892  31.147  37.408  1.00  0.00     0.031 C 
ATOM     76  C   UNL A   1      42.985  29.890  35.271  1.00  0.00     0.037 A 
BRANCH  63  77
ATOM     77  C   UNL A   1      39.875  28.775  30.062  1.00  0.00     0.064 A 
ATOM     78  C   UNL A   1      40.440  29.304  28.892  1.00  0.00     0.173 A 
ATOM     79  C   UNL A   1      39.351  27.474  30.009  1.00  0.00     0.173 A 
ATOM     80  F   UNL A   1      40.954  30.542  28.890  1.00  0.00    -0.203 F 
ATOM     81  C   UNL A   1      40.471  28.562  27.713  1.00  0.00     0.198 A 
ATOM     82  C   UNL A   1      39.406  26.727  28.836  1.00  0.00     0.198 A 
ATOM     83  F   UNL A   1      38.813  26.917  31.105  1.00  0.00    -0.203 F 
ATOM     84  F   UNL A   1      40.994  29.097  26.602  1.00  0.00    -0.200 F 
ATOM     85  C   UNL A   1      39.962  27.272  27.688  1.00  0.00     0.200 A 
ATOM     86  F   UNL A   1      38.930  25.474  28.817  1.00  0.00    -0.200 F 
ATOM     87  F   UNL A   1      40.010  26.553  26.558  1.00  0.00    -0.200 F 
ENDBRANCH  63  77
BRANCH  64  88
ATOM     88  C   UNL A   1      39.914  33.887  38.626  1.00  0.00     0.064 A 
ATOM     89  C   UNL A   1      39.244  33.436  39.772  1.00  0.00     0.173 A 
ATOM     90  C   UNL A   1      40.629  35.090  38.716  1.00  0.00     0.173 A 
ATOM     91  F   UNL A   1      38.535  32.299  39.728  1.00  0.00    -0.203 F 
ATOM     92  C   UNL A   1      39.285  34.161  40.960  1.00  0.00     0.198 A 
ATOM     93  C   UNL A   1      40.690  35.802  39.912  1.00  0.00     0.198 A 
ATOM     94  F   UNL A   1      41.290  35.561  37.648  1.00  0.00    -0.203 F 
ATOM     95  F   UNL A   1      38.613  33.724  42.033  1.00  0.00    -0.200 F 
ATOM     96  C   UNL A   1      40.014  35.339  41.031  1.00  0.00     0.200 A 
ATOM     97  F   UNL A   1      41.409  36.930  39.982  1.00  0.00    -0.200 F 
ATOM     98  F   UNL A   1      40.064  36.030  42.178  1.00  0.00    -0.200 F 
ENDBRANCH  64  88
BRANCH  76  99
ATOM     99  C   UNL A   1      44.263  29.255  35.735  1.00  0.00     0.064 A 
ATOM    100  C   UNL A   1      44.259  28.007  36.376  1.00  0.00     0.173 A 
ATOM    101  C   UNL A   1      45.504  29.847  35.456  1.00  0.00     0.173 A 
ATOM    102  F   UNL A   1      43.097  27.408  36.678  1.00  0.00    -0.203 F 
ATOM    103  C   UNL A   1      45.451  27.377  36.723  1.00  0.00     0.198 A 
ATOM    104  C   UNL A   1      46.695  29.201  35.781  1.00  0.00     0.198 A 
ATOM    105  F   UNL A   1      45.561  31.037  34.841  1.00  0.00    -0.203 F 
ATOM    106  F   UNL A   1      45.422  26.194  37.354  1.00  0.00    -0.200 F 
ATOM    107  C   UNL A   1      46.666  27.968  36.414  1.00  0.00     0.200 A 
ATOM    108  F   UNL A   1      47.868  29.768  35.469  1.00  0.00    -0.200 F 
ATOM    109  F   UNL A   1      47.813  27.348  36.727  1.00  0.00    -0.200 F 
ENDBRANCH  76  99
ENDBRANCH  50  51
ENDBRANCH  43  45
ENDBRANCH  42  43
ENDBRANCH  41  42
ENDBRANCH  40  41
ENDBRANCH  39  40
ENDBRANCH  38  39
ENDBRANCH  37  38
ENDBRANCH  36  37
ENDBRANCH  35  36
ENDBRANCH   1  35
TORSDOF 25
ENDMDL
MODEL 2
REMARK VINA RESULT:     -10.0      1.246      6.899
REMARK SMILES C/C(=C\C(=O)c1c(O)n(C)c2ccccc2c1=O)Nc1ccc(C(=O)OCCOCCOCCOCCOC(=O)c2ccc(-c3c4nc(c(-c5c(F)c(F)c(F)c(F)c5F)c5ccc([nH]5)c(-c5c(F)c(F)c(F)c(F)c5F)c5nc(c(-c6c(F)c(F)c(F)c(F)c6F)c6ccc3[nH]6)C=C5)C=C4)cc2)cc1
REMARK SMILES IDX 30 1 29 2 28 3 27 4 26 5 24 6 25 7 23 8 20 9 21 10 105 11
REMARK SMILES IDX 22 12 104 13 19 14 2 16 1 17 3 18 4 19 5 20 6 21 7 22 17 23
REMARK SMILES IDX 9 24 16 25 18 26 10 27 11 28 15 29 12 30 14 31 13 32 8 33
REMARK SMILES IDX 31 35 32 36 33 37 34 38 35 39 36 40 37 41 38 42 39 43 40 44
REMARK SMILES IDX 41 45 42 46 103 47 43 48 102 49 44 50 45 51 46 52 96 53
REMARK SMILES IDX 47 54 101 55 95 56 97 57 48 58 100 59 94 60 93 61 49 63
REMARK SMILES IDX 81 64 61 65 80 66 62 67 65 68 79 69 98 70 63 71 64 72 78 74
REMARK SMILES IDX 99 75 66 76 50 77 51 78 59 79 52 80 53 81 57 82 60 83 54 84
REMARK SMILES IDX 55 85 58 86 56 87 82 88 83 89 91 90 84 91 85 92 89 93 92 94
REMARK SMILES IDX 86 95 87 96 90 97 88 98 67 99 68 100 76 101 69 102 70 103
REMARK SMILES IDX 74 104 77 105 71 106 72 107 75 108 73 109
REMARK H PARENT 19 15 8 34 97 62 65 73
REMARK Flexibility Score: inf
ROOT
ATOM      1  C   UNL A   1      33.787  28.958  25.899  1.00  0.00     0.188 C 
ENDROOT
BRANCH   1   2
ATOM      2  O   UNL A   1      33.500  28.919  24.504  1.00  0.00    -0.376 OA
BRANCH   2   3
ATOM      3  C   UNL A   1      32.474  28.021  24.102  1.00  0.00     0.202 C 
BRANCH   3   4
ATOM      4  C   UNL A   1      32.557  26.620  24.724  1.00  0.00     0.261 C 
BRANCH   4   5
ATOM      5  O   UNL A   1      33.849  26.001  24.624  1.00  0.00    -0.460 OA
BRANCH   5   6
ATOM      6  C   UNL A   1      34.038  25.157  23.584  1.00  0.00     0.338 C 
ATOM      7  O   UNL A   1      33.646  25.321  22.443  1.00  0.00    -0.246 OA
BRANCH   6   8
ATOM      8  C   UNL A   1      34.987  24.092  24.001  1.00  0.00     0.060 A 
ATOM      9  C   UNL A   1      36.997  22.212  24.659  1.00  0.00     0.038 A 
ATOM     10  C   UNL A   1      36.597  22.408  23.334  1.00  0.00     0.027 A 
ATOM     11  C   UNL A   1      36.336  22.944  25.659  1.00  0.00     0.027 A 
ATOM     12  C   UNL A   1      35.610  23.341  23.001  1.00  0.00     0.018 A 
ATOM     13  C   UNL A   1      35.337  23.875  25.337  1.00  0.00     0.018 A 
BRANCH   9  14
ATOM     14  N   UNL A   1      38.069  21.373  25.025  1.00  0.00    -0.359 N 
ATOM     15  H   UNL A   1      38.057  20.480  24.611  1.00  0.00     0.166 HD
BRANCH  14  16
ATOM     16  C   UNL A   1      39.149  21.610  25.886  1.00  0.00     0.016 C 
ATOM     17  C   UNL A   1      39.238  22.966  26.552  1.00  0.00     0.064 C 
ATOM     18  C   UNL A   1      40.018  20.601  26.140  1.00  0.00     0.074 C 
BRANCH  18  19
ATOM     19  C   UNL A   1      41.140  20.424  27.129  1.00  0.00     0.196 C 
ATOM     20  O   UNL A   1      40.946  19.755  28.142  1.00  0.00    -0.289 OA
BRANCH  19  21
ATOM     21  C   UNL A   1      42.380  21.205  26.962  1.00  0.00     0.130 A 
ATOM     22  C   UNL A   1      42.622  22.259  27.766  1.00  0.00     0.206 A 
ATOM     23  C   UNL A   1      43.274  20.959  25.810  1.00  0.00     0.204 A 
ATOM     24  N   UNL A   1      43.563  23.243  27.473  1.00  0.00    -0.315 N 
ATOM     25  C   UNL A   1      44.346  21.946  25.554  1.00  0.00     0.047 A 
ATOM     26  O   UNL A   1      43.107  20.006  25.056  1.00  0.00    -0.288 OA
ATOM     27  C   UNL A   1      43.521  24.560  28.118  1.00  0.00     0.153 C 
ATOM     28  C   UNL A   1      44.437  23.091  26.368  1.00  0.00     0.055 A 
ATOM     29  C   UNL A   1      45.199  21.750  24.456  1.00  0.00     0.014 A 
ATOM     30  C   UNL A   1      45.413  24.042  26.020  1.00  0.00     0.027 A 
ATOM     31  C   UNL A   1      46.156  22.709  24.140  1.00  0.00     0.001 A 
ATOM     32  C   UNL A   1      46.257  23.856  24.918  1.00  0.00     0.002 A 
BRANCH  22  33
ATOM     33  O   UNL A   1      41.876  22.481  28.912  1.00  0.00    -0.494 OA
ATOM     34  H   UNL A   1      41.509  21.756  29.379  1.00  0.00     0.295 HD
ENDBRANCH  22  33
ENDBRANCH  19  21
ENDBRANCH  18  19
ENDBRANCH  14  16
ENDBRANCH   9  14
ENDBRANCH   6   8
ENDBRANCH   5   6
ENDBRANCH   4   5
ENDBRANCH   3   4
ENDBRANCH   2   3
ENDBRANCH   1   2
BRANCH   1  35
ATOM     35  C   UNL A   1      33.350  30.263  26.586  1.00  0.00     0.188 C 
BRANCH  35  36
ATOM     36  O   UNL A   1      34.089  30.679  27.722  1.00  0.00    -0.377 OA
BRANCH  36  37
ATOM     37  C   UNL A   1      34.454  32.050  27.858  1.00  0.00     0.188 C 
BRANCH  37  38
ATOM     38  C   UNL A   1      34.080  32.900  29.094  1.00  0.00     0.188 C 
BRANCH  38  39
ATOM     39  O   UNL A   1      34.170  34.306  28.907  1.00  0.00    -0.376 OA
BRANCH  39  40
ATOM     40  C   UNL A   1      32.965  34.973  28.558  1.00  0.00     0.202 C 
BRANCH  40  41
ATOM     41  C   UNL A   1      32.417  35.861  29.676  1.00  0.00     0.261 C 
BRANCH  41  42
ATOM     42  O   UNL A   1      33.315  36.075  30.775  1.00  0.00    -0.460 OA
BRANCH  42  43
ATOM     43  C   UNL A   1      33.122  35.344  31.896  1.00  0.00     0.338 C 
ATOM     44  O   UNL A   1      32.078  35.170  32.498  1.00  0.00    -0.246 OA
BRANCH  43  45
ATOM     45  C   UNL A   1      34.387  34.636  32.174  1.00  0.00     0.060 A 
ATOM     46  C   UNL A   1      35.590  35.137  31.673  1.00  0.00     0.016 A 
ATOM     47  C   UNL A   1      34.364  33.436  32.899  1.00  0.00     0.016 A 
ATOM     48  C   UNL A   1      36.775  34.443  31.904  1.00  0.00     0.010 A 
ATOM     49  C   UNL A   1      35.555  32.742  33.132  1.00  0.00     0.010 A 
ATOM     50  C   UNL A   1      36.770  33.249  32.647  1.00  0.00    -0.014 A 
BRANCH  50  51
ATOM     51  C   UNL A   1      38.067  32.635  33.020  1.00  0.00     0.031 A 
ATOM     52  C   UNL A   1      38.762  32.968  34.304  1.00  0.00     0.074 A 
ATOM     53  C   UNL A   1      38.590  31.716  32.186  1.00  0.00     0.049 A 
ATOM     54  N   UNL A   1      39.807  32.391  34.843  1.00  0.00    -0.248 NA
ATOM     55  C   UNL A   1      38.226  34.093  35.081  1.00  0.00     0.031 C 
ATOM     56  C   UNL A   1      38.015  31.340  30.894  1.00  0.00     0.029 A 
ATOM     57  N   UNL A   1      39.698  30.918  32.307  1.00  0.00    -0.354 N 
ATOM     58  C   UNL A   1      40.037  33.059  36.036  1.00  0.00     0.074 A 
ATOM     59  C   UNL A   1      39.058  34.124  36.115  1.00  0.00     0.031 C 
ATOM     60  C   UNL A   1      38.751  30.355  30.359  1.00  0.00     0.029 A 
ATOM     61  C   UNL A   1      39.858  30.044  31.260  1.00  0.00     0.049 A 
ATOM     62  H   UNL A   1      40.320  30.969  33.069  1.00  0.00     0.167 HD
ATOM     63  C   UNL A   1      40.966  32.786  36.983  1.00  0.00     0.037 A 
ATOM     64  C   UNL A   1      40.781  29.086  31.057  1.00  0.00     0.037 A 
ATOM     65  C   UNL A   1      41.942  31.729  36.889  1.00  0.00     0.049 A 
ATOM     66  C   UNL A   1      41.832  28.841  32.101  1.00  0.00     0.074 A 
ATOM     67  C   UNL A   1      42.880  31.336  37.828  1.00  0.00     0.029 A 
ATOM     68  N   UNL A   1      42.118  30.908  35.784  1.00  0.00    -0.354 N 
ATOM     69  N   UNL A   1      41.974  29.406  33.275  1.00  0.00    -0.248 NA
ATOM     70  C   UNL A   1      42.850  27.826  31.796  1.00  0.00     0.031 C 
ATOM     71  C   UNL A   1      43.659  30.317  37.272  1.00  0.00     0.029 A 
ATOM     72  C   UNL A   1      43.178  30.043  36.002  1.00  0.00     0.049 A 
ATOM     73  H   UNL A   1      41.570  30.936  34.966  1.00  0.00     0.167 HD
ATOM     74  C   UNL A   1      43.088  28.812  33.852  1.00  0.00     0.074 A 
ATOM     75  C   UNL A   1      43.571  27.824  32.909  1.00  0.00     0.031 C 
ATOM     76  C   UNL A   1      43.660  29.071  35.052  1.00  0.00     0.037 A 
BRANCH  63  77
ATOM     77  C   UNL A   1      40.971  33.624  38.228  1.00  0.00     0.064 A 
ATOM     78  C   UNL A   1      40.086  33.358  39.285  1.00  0.00     0.173 A 
ATOM     79  C   UNL A   1      41.930  34.632  38.414  1.00  0.00     0.173 A 
ATOM     80  F   UNL A   1      39.151  32.405  39.158  1.00  0.00    -0.203 F 
ATOM     81  C   UNL A   1      40.155  34.077  40.475  1.00  0.00     0.198 A 
ATOM     82  C   UNL A   1      42.011  35.332  39.614  1.00  0.00     0.198 A 
ATOM     83  F   UNL A   1      42.809  34.915  37.440  1.00  0.00    -0.203 F 
ATOM     84  F   UNL A   1      39.284  33.821  41.461  1.00  0.00    -0.200 F 
ATOM     85  C   UNL A   1      41.122  35.057  40.643  1.00  0.00     0.200 A 
ATOM     86  F   UNL A   1      42.958  36.267  39.782  1.00  0.00    -0.200 F 
ATOM     87  F   UNL A   1      41.198  35.735  41.796  1.00  0.00    -0.200 F 
ENDBRANCH  63  77
BRANCH  64  88
ATOM     88  C   UNL A   1      40.718  28.263  29.822  1.00  0.00     0.064 A 
ATOM     89  C   UNL A   1      39.812  27.199  29.713  1.00  0.00     0.173 A 
ATOM     90  C   UNL A   1      41.537  28.542  28.718  1.00  0.00     0.173 A 
ATOM     91  F   UNL A   1      39.021  26.886  30.749  1.00  0.00    -0.203 F 
ATOM     92  C   UNL A   1      39.732  26.441  28.548  1.00  0.00     0.198 A 
ATOM     93  C   UNL A   1      41.437  27.799  27.544  1.00  0.00     0.198 A 
ATOM     94  F   UNL A   1      42.416  29.554  28.772  1.00  0.00    -0.203 F 
ATOM     95  F   UNL A   1      38.879  25.411  28.479  1.00  0.00    -0.200 F 
ATOM     96  C   UNL A   1      40.538  26.746  27.462  1.00  0.00     0.200 A 
ATOM     97  F   UNL A   1      42.207  28.108  26.491  1.00  0.00    -0.200 F 
ATOM     98  F   UNL A   1      40.452  26.025  26.336  1.00  0.00    -0.200 F 
ENDBRANCH  64  88
BRANCH  76  99
ATOM     99  C   UNL A   1      44.892  28.296  35.418  1.00  0.00     0.064 A 
ATOM    100  C   UNL A   1      44.804  27.099  36.145  1.00  0.00     0.173 A 
ATOM    101  C   UNL A   1      46.157  28.699  34.964  1.00  0.00     0.173 A 
ATOM    102  F   UNL A   1      43.619  26.681  36.614  1.00  0.00    -0.203 F 
ATOM    103  C   UNL A   1      45.938  26.335  36.405  1.00  0.00     0.198 A 
ATOM    104  C   UNL A   1      47.285  27.918  35.203  1.00  0.00     0.198 A 
ATOM    105  F   UNL A   1      46.293  29.833  34.261  1.00  0.00    -0.203 F 
ATOM    106  F   UNL A   1      45.833  25.206  37.119  1.00  0.00    -0.200 F 
ATOM    107  C   UNL A   1      47.174  26.738  35.923  1.00  0.00     0.200 A 
ATOM    108  F   UNL A   1      48.477  28.301  34.725  1.00  0.00    -0.200 F 
ATOM    109  F   UNL A   1      48.261  25.988  36.153  1.00  0.00    -0.200 F 
ENDBRANCH  76  99
ENDBRANCH  50  51
ENDBRANCH  43  45
ENDBRANCH  42  43
ENDBRANCH  41  42
ENDBRANCH  40  41
ENDBRANCH  39  40
ENDBRANCH  38  39
ENDBRANCH  37  38
ENDBRANCH  36  37
ENDBRANCH  35  36
ENDBRANCH   1  35
TORSDOF 25
ENDMDL
MODEL 3
REMARK VINA RESULT:      -9.9      5.106      8.690
REMARK SMILES C/C(=C\C(=O)c1c(O)n(C)c2ccccc2c1=O)Nc1ccc(C(=O)OCCOCCOCCOCCOC(=O)c2ccc(-c3c4nc(c(-c5c(F)c(F)c(F)c(F)c5F)c5ccc([nH]5)c(-c5c(F)c(F)c(F)c(F)c5F)c5nc(c(-c6c(F)c(F)c(F)c(F)c6F)c6ccc3[nH]6)C=C5)C=C4)cc2)cc1
REMARK SMILES IDX 30 1 29 2 28 3 27 4 26 5 24 6 25 7 23 8 20 9 21 10 105 11
REMARK SMILES IDX 22 12 104 13 19 14 2 16 1 17 3 18 4 19 5 20 6 21 7 22 17 23
REMARK SMILES IDX 9 24 16 25 18 26 10 27 11 28 15 29 12 30 14 31 13 32 8 33
REMARK SMILES IDX 31 35 32 36 33 37 34 38 35 39 36 40 37 41 38 42 39 43 40 44
REMARK SMILES IDX 41 45 42 46 103 47 43 48 102 49 44 50 45 51 46 52 96 53
REMARK SMILES IDX 47 54 101 55 95 56 97 57 48 58 100 59 94 60 93 61 49 63
REMARK SMILES IDX 81 64 61 65 80 66 62 67 65 68 79 69 98 70 63 71 64 72 78 74
REMARK SMILES IDX 99 75 66 76 50 77 51 78 59 79 52 80 53 81 57 82 60 83 54 84
REMARK SMILES IDX 55 85 58 86 56 87 82 88 83 89 91 90 84 91 85 92 89 93 92 94
REMARK SMILES IDX 86 95 87 96 90 97 88 98 67 99 68 100 76 101 69 102 70 103
REMARK SMILES IDX 74 104 77 105 71 106 72 107 75 108 73 109
REMARK H PARENT 19 15 8 34 97 62 65 73
REMARK Flexibility Score: inf
ROOT
ATOM      1  C   UNL A   1      35.784  33.266  28.372  1.00  0.00     0.188 C 
ENDROOT
BRANCH   1   2
ATOM      2  O   UNL A   1      35.699  32.065  29.134  1.00  0.00    -0.376 OA
BRANCH   2   3
ATOM      3  C   UNL A   1      36.411  30.947  28.620  1.00  0.00     0.202 C 
BRANCH   3   4
ATOM      4  C   UNL A   1      35.546  29.721  28.296  1.00  0.00     0.261 C 
BRANCH   4   5
ATOM      5  O   UNL A   1      35.020  29.701  26.959  1.00  0.00    -0.460 OA
BRANCH   5   6
ATOM      6  C   UNL A   1      33.718  30.036  26.815  1.00  0.00     0.338 C 
ATOM      7  O   UNL A   1      33.190  31.062  27.207  1.00  0.00    -0.246 OA
BRANCH   6   8
ATOM      8  C   UNL A   1      33.069  29.050  25.912  1.00  0.00     0.060 A 
ATOM      9  C   UNL A   1      31.863  26.981  24.405  1.00  0.00     0.038 A 
ATOM     10  C   UNL A   1      33.214  26.925  24.757  1.00  0.00     0.027 A 
ATOM     11  C   UNL A   1      31.134  28.120  24.783  1.00  0.00     0.027 A 
ATOM     12  C   UNL A   1      33.815  27.940  25.509  1.00  0.00     0.018 A 
ATOM     13  C   UNL A   1      31.728  29.149  25.528  1.00  0.00     0.018 A 
BRANCH   9  14
ATOM     14  N   UNL A   1      31.191  25.926  23.755  1.00  0.00    -0.359 N 
ATOM     15  H   UNL A   1      30.545  26.207  23.067  1.00  0.00     0.166 HD
BRANCH  14  16
ATOM     16  C   UNL A   1      31.298  24.540  23.934  1.00  0.00     0.016 C 
ATOM     17  C   UNL A   1      31.871  23.723  22.798  1.00  0.00     0.064 C 
ATOM     18  C   UNL A   1      30.955  24.007  25.133  1.00  0.00     0.074 C 
BRANCH  18  19
ATOM     19  C   UNL A   1      31.119  22.640  25.743  1.00  0.00     0.196 C 
ATOM     20  O   UNL A   1      30.154  22.108  26.287  1.00  0.00    -0.289 OA
BRANCH  19  21
ATOM     21  C   UNL A   1      32.467  22.051  25.844  1.00  0.00     0.130 A 
ATOM     22  C   UNL A   1      33.501  22.809  26.259  1.00  0.00     0.206 A 
ATOM     23  C   UNL A   1      32.734  20.691  25.326  1.00  0.00     0.204 A 
ATOM     24  N   UNL A   1      34.834  22.458  26.061  1.00  0.00    -0.315 N 
ATOM     25  C   UNL A   1      34.148  20.269  25.212  1.00  0.00     0.047 A 
ATOM     26  O   UNL A   1      31.829  19.955  24.949  1.00  0.00    -0.288 OA
ATOM     27  C   UNL A   1      35.908  23.454  26.134  1.00  0.00     0.153 C 
ATOM     28  C   UNL A   1      35.168  21.183  25.542  1.00  0.00     0.055 A 
ATOM     29  C   UNL A   1      34.435  18.992  24.705  1.00  0.00     0.014 A 
ATOM     30  C   UNL A   1      36.492  20.761  25.323  1.00  0.00     0.027 A 
ATOM     31  C   UNL A   1      35.755  18.606  24.502  1.00  0.00     0.001 A 
ATOM     32  C   UNL A   1      36.782  19.493  24.805  1.00  0.00     0.002 A 
BRANCH  22  33
ATOM     33  O   UNL A   1      33.299  24.050  26.842  1.00  0.00    -0.494 OA
ATOM     34  H   UNL A   1      33.831  24.778  26.587  1.00  0.00     0.295 HD
ENDBRANCH  22  33
ENDBRANCH  19  21
ENDBRANCH  18  19
ENDBRANCH  14  16
ENDBRANCH   9  14
ENDBRANCH   6   8
ENDBRANCH   5   6
ENDBRANCH   4   5
ENDBRANCH   3   4
ENDBRANCH   2   3
ENDBRANCH   1   2
BRANCH   1  35
ATOM     35  C   UNL A   1      35.343  34.522  29.143  1.00  0.00     0.188 C 
BRANCH  35  36
ATOM     36  O   UNL A   1      33.972  34.875  29.081  1.00  0.00    -0.377 OA
BRANCH  36  37
ATOM     37  C   UNL A   1      33.228  35.012  30.290  1.00  0.00     0.188 C 
BRANCH  37  38
ATOM     38  C   UNL A   1      33.796  35.698  31.553  1.00  0.00     0.188 C 
BRANCH  38  39
ATOM     39  O   UNL A   1      33.947  34.849  32.683  1.00  0.00    -0.376 OA
BRANCH  39  40
ATOM     40  C   UNL A   1      34.016  33.455  32.417  1.00  0.00     0.202 C 
BRANCH  40  41
ATOM     41  C   UNL A   1      35.204  32.766  33.092  1.00  0.00     0.261 C 
BRANCH  41  42
ATOM     42  O   UNL A   1      36.343  32.554  32.243  1.00  0.00    -0.460 OA
BRANCH  42  43
ATOM     43  C   UNL A   1      37.330  33.478  32.274  1.00  0.00     0.338 C 
ATOM     44  O   UNL A   1      37.287  34.594  32.758  1.00  0.00    -0.246 OA
BRANCH  43  45
ATOM     45  C   UNL A   1      38.552  32.822  31.764  1.00  0.00     0.060 A 
ATOM     46  C   UNL A   1      39.333  32.044  32.620  1.00  0.00     0.016 A 
ATOM     47  C   UNL A   1      38.943  33.028  30.434  1.00  0.00     0.016 A 
ATOM     48  C   UNL A   1      40.505  31.462  32.143  1.00  0.00     0.010 A 
ATOM     49  C   UNL A   1      40.119  32.441  29.957  1.00  0.00     0.010 A 
ATOM     50  C   UNL A   1      40.900  31.643  30.806  1.00  0.00    -0.014 A 
BRANCH  50  51
ATOM     51  C   UNL A   1      42.054  30.867  30.292  1.00  0.00     0.031 A 
ATOM     52  C   UNL A   1      41.897  29.485  29.738  1.00  0.00     0.074 A 
ATOM     53  C   UNL A   1      43.261  31.466  30.286  1.00  0.00     0.049 A 
ATOM     54  N   UNL A   1      42.777  28.754  29.101  1.00  0.00    -0.248 NA
ATOM     55  C   UNL A   1      40.595  28.834  29.927  1.00  0.00     0.031 C 
ATOM     56  C   UNL A   1      43.533  32.796  30.831  1.00  0.00     0.029 A 
ATOM     57  N   UNL A   1      44.469  31.051  29.789  1.00  0.00    -0.354 N 
ATOM     58  C   UNL A   1      42.129  27.569  28.785  1.00  0.00     0.074 A 
ATOM     59  C   UNL A   1      40.798  27.655  29.351  1.00  0.00     0.031 C 
ATOM     60  C   UNL A   1      44.818  33.106  30.601  1.00  0.00     0.029 A 
ATOM     61  C   UNL A   1      45.461  31.991  29.912  1.00  0.00     0.049 A 
ATOM     62  H   UNL A   1      44.611  30.164  29.385  1.00  0.00     0.167 HD
ATOM     63  C   UNL A   1      42.601  26.522  28.065  1.00  0.00     0.037 A 
ATOM     64  C   UNL A   1      46.742  31.967  29.499  1.00  0.00     0.037 A 
ATOM     65  C   UNL A   1      43.931  26.444  27.514  1.00  0.00     0.049 A 
ATOM     66  C   UNL A   1      47.253  30.770  28.749  1.00  0.00     0.074 A 
ATOM     67  C   UNL A   1      44.475  25.452  26.716  1.00  0.00     0.029 A 
ATOM     68  N   UNL A   1      44.930  27.385  27.716  1.00  0.00    -0.354 N 
ATOM     69  N   UNL A   1      46.600  29.702  28.360  1.00  0.00    -0.248 NA
ATOM     70  C   UNL A   1      48.675  30.773  28.379  1.00  0.00     0.031 C 
ATOM     71  C   UNL A   1      45.819  25.764  26.483  1.00  0.00     0.029 A 
ATOM     72  C   UNL A   1      46.100  26.973  27.098  1.00  0.00     0.049 A 
ATOM     73  H   UNL A   1      44.824  28.221  28.225  1.00  0.00     0.167 HD
ATOM     74  C   UNL A   1      47.526  28.911  27.695  1.00  0.00     0.074 A 
ATOM     75  C   UNL A   1      48.781  29.633  27.709  1.00  0.00     0.031 C 
ATOM     76  C   UNL A   1      47.349  27.693  27.130  1.00  0.00     0.037 A 
BRANCH  63  77
ATOM     77  C   UNL A   1      41.673  25.373  27.802  1.00  0.00     0.064 A 
ATOM     78  C   UNL A   1      40.650  25.470  26.846  1.00  0.00     0.173 A 
ATOM     79  C   UNL A   1      41.868  24.133  28.430  1.00  0.00     0.173 A 
ATOM     80  F   UNL A   1      40.422  26.633  26.218  1.00  0.00    -0.203 F 
ATOM     81  C   UNL A   1      39.850  24.373  26.539  1.00  0.00     0.198 A 
ATOM     82  C   UNL A   1      41.082  23.032  28.102  1.00  0.00     0.198 A 
ATOM     83  F   UNL A   1      42.842  23.983  29.341  1.00  0.00    -0.203 F 
ATOM     84  F   UNL A   1      38.864  24.497  25.640  1.00  0.00    -0.200 F 
ATOM     85  C   UNL A   1      40.072  23.153  27.159  1.00  0.00     0.200 A 
ATOM     86  F   UNL A   1      41.309  21.848  28.690  1.00  0.00    -0.200 F 
ATOM     87  F   UNL A   1      39.313  22.093  26.848  1.00  0.00    -0.200 F 
ENDBRANCH  63  77
BRANCH  64  88
ATOM     88  C   UNL A   1      47.614  33.141  29.757  1.00  0.00     0.064 A 
ATOM     89  C   UNL A   1      47.759  34.153  28.799  1.00  0.00     0.173 A 
ATOM     90  C   UNL A   1      48.293  33.290  30.975  1.00  0.00     0.173 A 
ATOM     91  F   UNL A   1      47.141  34.045  27.614  1.00  0.00    -0.203 F 
ATOM     92  C   UNL A   1      48.555  35.268  29.047  1.00  0.00     0.198 A 
ATOM     93  C   UNL A   1      49.069  34.419  31.232  1.00  0.00     0.198 A 
ATOM     94  F   UNL A   1      48.182  32.351  31.926  1.00  0.00    -0.203 F 
ATOM     95  F   UNL A   1      48.700  36.208  28.103  1.00  0.00    -0.200 F 
ATOM     96  C   UNL A   1      49.203  35.404  30.265  1.00  0.00     0.200 A 
ATOM     97  F   UNL A   1      49.679  34.554  32.416  1.00  0.00    -0.200 F 
ATOM     98  F   UNL A   1      49.958  36.484  30.509  1.00  0.00    -0.200 F 
ENDBRANCH  64  88
BRANCH  76  99
ATOM     99  C   UNL A   1      48.542  27.038  26.496  1.00  0.00     0.064 A 
ATOM    100  C   UNL A   1      48.818  27.205  25.131  1.00  0.00     0.173 A 
ATOM    101  C   UNL A   1      49.464  26.319  27.271  1.00  0.00     0.173 A 
ATOM    102  F   UNL A   1      47.958  27.870  24.345  1.00  0.00    -0.203 F 
ATOM    103  C   UNL A   1      49.973  26.673  24.564  1.00  0.00     0.198 A 
ATOM    104  C   UNL A   1      50.631  25.811  26.706  1.00  0.00     0.198 A 
ATOM    105  F   UNL A   1      49.247  26.136  28.582  1.00  0.00    -0.203 F 
ATOM    106  F   UNL A   1      50.206  26.826  23.253  1.00  0.00    -0.200 F 
ATOM    107  C   UNL A   1      50.884  25.989  25.354  1.00  0.00     0.200 A 
ATOM    108  F   UNL A   1      51.518  25.162  27.474  1.00  0.00    -0.200 F 
ATOM    109  F   UNL A   1      52.007  25.499  24.812  1.00  0.00    -0.200 F 
ENDBRANCH  76  99
ENDBRANCH  50  51
ENDBRANCH  43  45
ENDBRANCH  42  43
ENDBRANCH  41  42
ENDBRANCH  40  41
ENDBRANCH  39  40
ENDBRANCH  38  39
ENDBRANCH  37  38
ENDBRANCH  36  37
ENDBRANCH  35  36
ENDBRANCH   1  35
TORSDOF 25
ENDMDL
