MODEL 1
REMARK VINA RESULT:      -9.4      0.000      0.000
REMARK SMILES Cc1nc(-c2ccc(C(F)(F)F)cc2)nc(SCC(=O)OCCOCCOCCOCCOC(=O)c2ccc(-c3c4nc(c(-c5c(F)c(F)c(F)c(F)c5F)c5ccc([nH]5)c(-c5c(F)c(F)c(F)c(F)c5F)c5nc(c(-c6c(F)c(F)c(F)c(F)c6F)c6ccc3[nH]6)C=C5)C=C4)cc2)c1C
REMARK SMILES IDX 26 1 25 2 24 3 23 4 22 5 21 6 19 7 20 8 18 9 17 10 16 11
REMARK SMILES IDX 1 12 2 13 3 14 99 15 4 16 100 17 15 18 5 19 6 20 14 21 7 22
REMARK SMILES IDX 13 23 8 24 9 25 10 26 11 27 12 28 27 29 28 30 29 31 30 32
REMARK SMILES IDX 31 33 32 34 33 35 34 36 35 37 36 38 37 39 98 40 38 41 97 42
REMARK SMILES IDX 39 43 40 44 41 45 91 46 42 47 96 48 90 49 92 50 43 51 95 52
REMARK SMILES IDX 89 53 88 54 44 56 76 57 56 58 75 59 57 60 60 61 74 62 93 63
REMARK SMILES IDX 58 64 59 65 73 67 94 68 61 69 45 70 46 71 54 72 47 73 48 74
REMARK SMILES IDX 52 75 55 76 49 77 50 78 53 79 51 80 77 81 78 82 86 83 79 84
REMARK SMILES IDX 80 85 84 86 87 87 81 88 82 89 85 90 83 91 62 92 63 93 71 94
REMARK SMILES IDX 64 95 65 96 69 97 72 98 66 99 67 100 70 101 68 102
REMARK H PARENT 92 55 60 66
REMARK Flexibility Score: inf
ROOT
ATOM      1  C   UNL A   1      36.568  22.057  25.499  1.00  0.00     0.188 C 
ENDROOT
BRANCH   1   2
ATOM      2  C   UNL A   1      36.179  22.616  24.125  1.00  0.00     0.188 C 
BRANCH   2   3
ATOM      3  O   UNL A   1      35.642  23.926  24.079  1.00  0.00    -0.376 OA
BRANCH   3   4
ATOM      4  C   UNL A   1      34.988  24.448  25.223  1.00  0.00     0.202 C 
BRANCH   4   5
ATOM      5  C   UNL A   1      34.289  25.822  25.205  1.00  0.00     0.261 C 
BRANCH   5   6
ATOM      6  O   UNL A   1      33.370  26.126  26.288  1.00  0.00    -0.463 OA
BRANCH   6   7
ATOM      7  C   UNL A   1      32.594  27.234  26.135  1.00  0.00     0.316 C 
ATOM      8  O   UNL A   1      33.052  28.331  25.825  1.00  0.00    -0.251 OA
BRANCH   7   9
ATOM      9  C   UNL A   1      31.124  27.080  26.493  1.00  0.00     0.199 C 
BRANCH   9  10
ATOM     10  S   UNL A   1      30.152  25.691  25.833  1.00  0.00    -0.094 SA
BRANCH  10  11
ATOM     11  C   UNL A   1      30.835  25.001  24.302  1.00  0.00     0.104 A 
ATOM     12  C   UNL A   1      32.775  25.622  21.129  1.00  0.00     0.067 C 
ATOM     13  C   UNL A   1      32.102  24.982  22.313  1.00  0.00     0.045 A 
ATOM     14  N   UNL A   1      32.503  23.718  22.550  1.00  0.00    -0.233 NA
ATOM     15  C   UNL A   1      31.182  25.660  23.122  1.00  0.00     0.003 A 
ATOM     16  C   UNL A   1      31.984  23.096  23.614  1.00  0.00     0.160 A 
ATOM     17  C   UNL A   1      30.672  27.002  22.709  1.00  0.00     0.049 C 
ATOM     18  N   UNL A   1      31.182  23.696  24.510  1.00  0.00    -0.221 NA
BRANCH  16  19
ATOM     19  C   UNL A   1      32.373  21.680  23.783  1.00  0.00     0.019 A 
ATOM     20  C   UNL A   1      32.062  20.725  22.798  1.00  0.00     0.012 A 
ATOM     21  C   UNL A   1      32.971  21.196  24.955  1.00  0.00     0.012 A 
ATOM     22  C   UNL A   1      32.312  19.360  22.959  1.00  0.00     0.014 A 
ATOM     23  C   UNL A   1      33.214  19.820  25.136  1.00  0.00     0.014 A 
ATOM     24  C   UNL A   1      32.879  18.888  24.143  1.00  0.00     0.056 A 
BRANCH  24  25
ATOM     25  C   UNL A   1      33.105  17.404  24.310  1.00  0.00     0.416 C 
ATOM     26  F   UNL A   1      34.271  17.124  24.959  1.00  0.00    -0.166 F 
ATOM     27  F   UNL A   1      32.123  16.808  25.044  1.00  0.00    -0.166 F 
ATOM     28  F   UNL A   1      33.161  16.720  23.134  1.00  0.00    -0.166 F 
ENDBRANCH  24  25
ENDBRANCH  16  19
ENDBRANCH  10  11
ENDBRANCH   9  10
ENDBRANCH   7   9
ENDBRANCH   6   7
ENDBRANCH   5   6
ENDBRANCH   4   5
ENDBRANCH   3   4
ENDBRANCH   2   3
ENDBRANCH   1   2
BRANCH   1  29
ATOM     29  O   UNL A   1      36.999  20.719  25.569  1.00  0.00    -0.377 OA
BRANCH  29  30
ATOM     30  C   UNL A   1      38.186  20.454  24.868  1.00  0.00     0.188 C 
BRANCH  30  31
ATOM     31  C   UNL A   1      39.253  19.778  25.733  1.00  0.00     0.188 C 
BRANCH  31  32
ATOM     32  O   UNL A   1      40.136  20.532  26.549  1.00  0.00    -0.376 OA
BRANCH  32  33
ATOM     33  C   UNL A   1      40.710  21.747  26.095  1.00  0.00     0.202 C 
BRANCH  33  34
ATOM     34  C   UNL A   1      42.211  21.914  25.836  1.00  0.00     0.261 C 
BRANCH  34  35
ATOM     35  O   UNL A   1      42.976  22.575  26.847  1.00  0.00    -0.460 OA
BRANCH  35  36
ATOM     36  C   UNL A   1      42.356  23.579  27.499  1.00  0.00     0.338 C 
ATOM     37  O   UNL A   1      41.367  23.514  28.211  1.00  0.00    -0.246 OA
BRANCH  36  38
ATOM     38  C   UNL A   1      43.210  24.775  27.396  1.00  0.00     0.060 A 
ATOM     39  C   UNL A   1      43.397  25.318  26.120  1.00  0.00     0.016 A 
ATOM     40  C   UNL A   1      43.772  25.385  28.523  1.00  0.00     0.016 A 
ATOM     41  C   UNL A   1      44.122  26.490  25.966  1.00  0.00     0.010 A 
ATOM     42  C   UNL A   1      44.554  26.532  28.361  1.00  0.00     0.010 A 
ATOM     43  C   UNL A   1      44.742  27.074  27.079  1.00  0.00    -0.014 A 
BRANCH  43  44
ATOM     44  C   UNL A   1      45.781  28.088  26.804  1.00  0.00     0.031 A 
ATOM     45  C   UNL A   1      45.389  29.527  26.968  1.00  0.00     0.074 A 
ATOM     46  C   UNL A   1      47.055  27.735  26.566  1.00  0.00     0.049 A 
ATOM     47  N   UNL A   1      46.139  30.596  26.983  1.00  0.00    -0.248 NA
ATOM     48  C   UNL A   1      43.954  29.793  27.172  1.00  0.00     0.031 C 
ATOM     49  C   UNL A   1      47.542  26.363  26.443  1.00  0.00     0.029 A 
ATOM     50  N   UNL A   1      48.177  28.509  26.416  1.00  0.00    -0.354 N 
ATOM     51  C   UNL A   1      45.274  31.651  27.236  1.00  0.00     0.074 A 
ATOM     52  C   UNL A   1      43.938  31.107  27.322  1.00  0.00     0.031 C 
ATOM     53  C   UNL A   1      48.872  26.391  26.246  1.00  0.00     0.029 A 
ATOM     54  C   UNL A   1      49.325  27.782  26.222  1.00  0.00     0.049 A 
ATOM     55  H   UNL A   1      48.161  29.493  26.445  1.00  0.00     0.167 HD
ATOM     56  C   UNL A   1      45.575  32.959  27.400  1.00  0.00     0.037 A 
ATOM     57  C   UNL A   1      50.594  28.202  26.051  1.00  0.00     0.037 A 
ATOM     58  C   UNL A   1      46.903  33.490  27.277  1.00  0.00     0.049 A 
ATOM     59  C   UNL A   1      50.888  29.680  26.125  1.00  0.00     0.074 A 
ATOM     60  C   UNL A   1      47.319  34.801  27.402  1.00  0.00     0.029 A 
ATOM     61  N   UNL A   1      48.027  32.732  26.982  1.00  0.00    -0.354 N 
ATOM     62  N   UNL A   1      50.075  30.671  26.400  1.00  0.00    -0.248 NA
ATOM     63  C   UNL A   1      52.275  30.099  25.869  1.00  0.00     0.031 C 
ATOM     64  C   UNL A   1      48.688  34.845  27.124  1.00  0.00     0.029 A 
ATOM     65  C   UNL A   1      49.135  33.553  26.884  1.00  0.00     0.049 A 
ATOM     66  H   UNL A   1      48.034  31.755  26.860  1.00  0.00     0.167 HD
ATOM     67  C   UNL A   1      50.847  31.825  26.371  1.00  0.00     0.074 A 
ATOM     68  C   UNL A   1      52.201  31.409  26.063  1.00  0.00     0.031 C 
ATOM     69  C   UNL A   1      50.472  33.111  26.580  1.00  0.00     0.037 A 
BRANCH  56  70
ATOM     70  C   UNL A   1      44.445  33.894  27.702  1.00  0.00     0.064 A 
ATOM     71  C   UNL A   1      43.846  34.669  26.698  1.00  0.00     0.173 A 
ATOM     72  C   UNL A   1      43.936  33.998  29.005  1.00  0.00     0.173 A 
ATOM     73  F   UNL A   1      44.311  34.621  25.440  1.00  0.00    -0.203 F 
ATOM     74  C   UNL A   1      42.788  35.525  26.990  1.00  0.00     0.198 A 
ATOM     75  C   UNL A   1      42.862  34.836  29.288  1.00  0.00     0.198 A 
ATOM     76  F   UNL A   1      44.479  33.281  30.001  1.00  0.00    -0.203 F 
ATOM     77  F   UNL A   1      42.256  36.285  26.023  1.00  0.00    -0.200 F 
ATOM     78  C   UNL A   1      42.292  35.602  28.282  1.00  0.00     0.200 A 
ATOM     79  F   UNL A   1      42.378  34.902  30.536  1.00  0.00    -0.200 F 
ATOM     80  F   UNL A   1      41.266  36.419  28.561  1.00  0.00    -0.200 F 
ENDBRANCH  56  70
BRANCH  57  81
ATOM     81  C   UNL A   1      51.675  27.209  25.812  1.00  0.00     0.064 A 
ATOM     82  C   UNL A   1      52.025  26.813  24.514  1.00  0.00     0.173 A 
ATOM     83  C   UNL A   1      52.397  26.651  26.878  1.00  0.00     0.173 A 
ATOM     84  F   UNL A   1      51.352  27.298  23.461  1.00  0.00    -0.203 F 
ATOM     85  C   UNL A   1      53.054  25.898  24.292  1.00  0.00     0.198 A 
ATOM     86  C   UNL A   1      53.441  25.757  26.655  1.00  0.00     0.198 A 
ATOM     87  F   UNL A   1      52.100  26.993  28.141  1.00  0.00    -0.203 F 
ATOM     88  F   UNL A   1      53.352  25.516  23.042  1.00  0.00    -0.200 F 
ATOM     89  C   UNL A   1      53.767  25.378  25.362  1.00  0.00     0.200 A 
ATOM     90  F   UNL A   1      54.136  25.267  27.691  1.00  0.00    -0.200 F 
ATOM     91  F   UNL A   1      54.768  24.513  25.147  1.00  0.00    -0.200 F 
ENDBRANCH  57  81
BRANCH  69  92
ATOM     92  C   UNL A   1      51.527  34.173  26.492  1.00  0.00     0.064 A 
ATOM     93  C   UNL A   1      51.695  34.936  25.328  1.00  0.00     0.173 A 
ATOM     94  C   UNL A   1      52.287  34.515  27.621  1.00  0.00     0.173 A 
ATOM     95  F   UNL A   1      50.998  34.642  24.220  1.00  0.00    -0.203 F 
ATOM     96  C   UNL A   1      52.587  36.005  25.299  1.00  0.00     0.198 A 
ATOM     97  C   UNL A   1      53.155  35.601  27.597  1.00  0.00     0.198 A 
ATOM     98  F   UNL A   1      52.152  33.821  28.762  1.00  0.00    -0.203 F 
ATOM     99  F   UNL A   1      52.746  36.711  24.170  1.00  0.00    -0.200 F 
ATOM    100  C   UNL A   1      53.306  36.345  26.436  1.00  0.00     0.200 A 
ATOM    101  F   UNL A   1      53.832  35.941  28.702  1.00  0.00    -0.200 F 
ATOM    102  F   UNL A   1      54.140  37.393  26.415  1.00  0.00    -0.200 F 
ENDBRANCH  69  92
ENDBRANCH  43  44
ENDBRANCH  36  38
ENDBRANCH  35  36
ENDBRANCH  34  35
ENDBRANCH  33  34
ENDBRANCH  32  33
ENDBRANCH  31  32
ENDBRANCH  30  31
ENDBRANCH  29  30
ENDBRANCH   1  29
TORSDOF 24
ENDMDL
MODEL 2
REMARK VINA RESULT:      -9.0      7.599     12.070
REMARK SMILES Cc1nc(-c2ccc(C(F)(F)F)cc2)nc(SCC(=O)OCCOCCOCCOCCOC(=O)c2ccc(-c3c4nc(c(-c5c(F)c(F)c(F)c(F)c5F)c5ccc([nH]5)c(-c5c(F)c(F)c(F)c(F)c5F)c5nc(c(-c6c(F)c(F)c(F)c(F)c6F)c6ccc3[nH]6)C=C5)C=C4)cc2)c1C
REMARK SMILES IDX 26 1 25 2 24 3 23 4 22 5 21 6 19 7 20 8 18 9 17 10 16 11
REMARK SMILES IDX 1 12 2 13 3 14 99 15 4 16 100 17 15 18 5 19 6 20 14 21 7 22
REMARK SMILES IDX 13 23 8 24 9 25 10 26 11 27 12 28 27 29 28 30 29 31 30 32
REMARK SMILES IDX 31 33 32 34 33 35 34 36 35 37 36 38 37 39 98 40 38 41 97 42
REMARK SMILES IDX 39 43 40 44 41 45 91 46 42 47 96 48 90 49 92 50 43 51 95 52
REMARK SMILES IDX 89 53 88 54 44 56 76 57 56 58 75 59 57 60 60 61 74 62 93 63
REMARK SMILES IDX 58 64 59 65 73 67 94 68 61 69 45 70 46 71 54 72 47 73 48 74
REMARK SMILES IDX 52 75 55 76 49 77 50 78 53 79 51 80 77 81 78 82 86 83 79 84
REMARK SMILES IDX 80 85 84 86 87 87 81 88 82 89 85 90 83 91 62 92 63 93 71 94
REMARK SMILES IDX 64 95 65 96 69 97 72 98 66 99 67 100 70 101 68 102
REMARK H PARENT 92 55 60 66
REMARK Flexibility Score: inf
ROOT
ATOM      1  C   UNL A   1      42.339  21.135  26.742  1.00  0.00     0.188 C 
ENDROOT
BRANCH   1   2
ATOM      2  C   UNL A   1      40.945  21.158  27.381  1.00  0.00     0.188 C 
BRANCH   2   3
ATOM      3  O   UNL A   1      39.827  21.125  26.512  1.00  0.00    -0.376 OA
BRANCH   3   4
ATOM      4  C   UNL A   1      39.052  22.298  26.334  1.00  0.00     0.202 C 
BRANCH   4   5
ATOM      5  C   UNL A   1      37.918  22.374  25.292  1.00  0.00     0.261 C 
BRANCH   5   6
ATOM      6  O   UNL A   1      36.573  22.045  25.734  1.00  0.00    -0.463 OA
BRANCH   6   7
ATOM      7  C   UNL A   1      35.644  23.035  25.646  1.00  0.00     0.316 C 
ATOM      8  O   UNL A   1      34.898  23.336  26.575  1.00  0.00    -0.251 OA
BRANCH   7   9
ATOM      9  C   UNL A   1      35.480  23.682  24.280  1.00  0.00     0.199 C 
BRANCH   9  10
ATOM     10  S   UNL A   1      34.124  23.179  23.175  1.00  0.00    -0.094 SA
BRANCH  10  11
ATOM     11  C   UNL A   1      32.480  23.432  23.896  1.00  0.00     0.104 A 
ATOM     12  C   UNL A   1      30.202  22.930  26.859  1.00  0.00     0.067 C 
ATOM     13  C   UNL A   1      30.831  23.419  25.581  1.00  0.00     0.045 A 
ATOM     14  N   UNL A   1      30.350  24.604  25.156  1.00  0.00    -0.233 NA
ATOM     15  C   UNL A   1      31.857  22.727  24.928  1.00  0.00     0.003 A 
ATOM     16  C   UNL A   1      30.891  25.128  24.052  1.00  0.00     0.160 A 
ATOM     17  C   UNL A   1      32.231  21.351  25.371  1.00  0.00     0.049 C 
ATOM     18  N   UNL A   1      31.951  24.598  23.418  1.00  0.00    -0.221 NA
BRANCH  16  19
ATOM     19  C   UNL A   1      30.270  26.377  23.563  1.00  0.00     0.019 A 
ATOM     20  C   UNL A   1      31.052  27.392  22.984  1.00  0.00     0.012 A 
ATOM     21  C   UNL A   1      28.908  26.661  23.738  1.00  0.00     0.012 A 
ATOM     22  C   UNL A   1      30.528  28.631  22.606  1.00  0.00     0.014 A 
ATOM     23  C   UNL A   1      28.371  27.912  23.376  1.00  0.00     0.014 A 
ATOM     24  C   UNL A   1      29.178  28.912  22.813  1.00  0.00     0.056 A 
BRANCH  24  25
ATOM     25  C   UNL A   1      28.642  30.271  22.432  1.00  0.00     0.416 C 
ATOM     26  F   UNL A   1      29.552  31.016  21.741  1.00  0.00    -0.166 F 
ATOM     27  F   UNL A   1      27.546  30.189  21.626  1.00  0.00    -0.166 F 
ATOM     28  F   UNL A   1      28.270  31.035  23.496  1.00  0.00    -0.166 F 
ENDBRANCH  24  25
ENDBRANCH  16  19
ENDBRANCH  10  11
ENDBRANCH   9  10
ENDBRANCH   7   9
ENDBRANCH   6   7
ENDBRANCH   5   6
ENDBRANCH   4   5
ENDBRANCH   3   4
ENDBRANCH   2   3
ENDBRANCH   1   2
BRANCH   1  29
ATOM     29  O   UNL A   1      42.452  21.517  25.392  1.00  0.00    -0.377 OA
BRANCH  29  30
ATOM     30  C   UNL A   1      43.152  22.715  25.184  1.00  0.00     0.188 C 
BRANCH  30  31
ATOM     31  C   UNL A   1      43.528  23.422  26.488  1.00  0.00     0.188 C 
BRANCH  31  32
ATOM     32  O   UNL A   1      42.876  24.612  26.904  1.00  0.00    -0.376 OA
BRANCH  32  33
ATOM     33  C   UNL A   1      41.607  24.981  26.388  1.00  0.00     0.202 C 
BRANCH  33  34
ATOM     34  C   UNL A   1      41.345  26.329  25.707  1.00  0.00     0.261 C 
BRANCH  34  35
ATOM     35  O   UNL A   1      41.105  27.452  26.558  1.00  0.00    -0.460 OA
BRANCH  35  36
ATOM     36  C   UNL A   1      42.143  28.294  26.737  1.00  0.00     0.338 C 
ATOM     37  O   UNL A   1      42.543  29.163  25.979  1.00  0.00    -0.246 OA
BRANCH  36  38
ATOM     38  C   UNL A   1      42.604  28.149  28.128  1.00  0.00     0.060 A 
ATOM     39  C   UNL A   1      41.650  27.772  29.080  1.00  0.00     0.016 A 
ATOM     40  C   UNL A   1      43.944  28.324  28.488  1.00  0.00     0.016 A 
ATOM     41  C   UNL A   1      42.036  27.539  30.392  1.00  0.00     0.010 A 
ATOM     42  C   UNL A   1      44.322  28.149  29.823  1.00  0.00     0.010 A 
ATOM     43  C   UNL A   1      43.363  27.772  30.777  1.00  0.00    -0.014 A 
BRANCH  43  44
ATOM     44  C   UNL A   1      43.627  27.862  32.228  1.00  0.00     0.031 A 
ATOM     45  C   UNL A   1      44.233  26.657  32.886  1.00  0.00     0.074 A 
ATOM     46  C   UNL A   1      43.472  29.017  32.895  1.00  0.00     0.049 A 
ATOM     47  N   UNL A   1      44.741  26.531  34.082  1.00  0.00    -0.248 NA
ATOM     48  C   UNL A   1      44.302  25.433  32.068  1.00  0.00     0.031 C 
ATOM     49  C   UNL A   1      42.941  30.255  32.329  1.00  0.00     0.029 A 
ATOM     50  N   UNL A   1      43.778  29.340  34.193  1.00  0.00    -0.354 N 
ATOM     51  C   UNL A   1      45.222  25.231  34.144  1.00  0.00     0.074 A 
ATOM     52  C   UNL A   1      44.907  24.590  32.889  1.00  0.00     0.031 C 
ATOM     53  C   UNL A   1      42.969  31.211  33.275  1.00  0.00     0.029 A 
ATOM     54  C   UNL A   1      43.511  30.648  34.512  1.00  0.00     0.049 A 
ATOM     55  H   UNL A   1      44.154  28.695  34.835  1.00  0.00     0.167 HD
ATOM     56  C   UNL A   1      45.885  24.632  35.159  1.00  0.00     0.037 A 
ATOM     57  C   UNL A   1      43.694  31.309  35.672  1.00  0.00     0.037 A 
ATOM     58  C   UNL A   1      46.160  25.270  36.415  1.00  0.00     0.049 A 
ATOM     59  C   UNL A   1      44.333  30.583  36.830  1.00  0.00     0.074 A 
ATOM     60  C   UNL A   1      46.805  24.751  37.520  1.00  0.00     0.029 A 
ATOM     61  N   UNL A   1      45.785  26.568  36.734  1.00  0.00    -0.354 N 
ATOM     62  N   UNL A   1      44.819  29.366  36.875  1.00  0.00    -0.248 NA
ATOM     63  C   UNL A   1      44.454  31.321  38.096  1.00  0.00     0.031 C 
ATOM     64  C   UNL A   1      46.770  25.716  38.531  1.00  0.00     0.029 A 
ATOM     65  C   UNL A   1      46.154  26.856  38.035  1.00  0.00     0.049 A 
ATOM     66  H   UNL A   1      45.325  27.190  36.125  1.00  0.00     0.167 HD
ATOM     67  C   UNL A   1      45.320  29.196  38.158  1.00  0.00     0.074 A 
ATOM     68  C   UNL A   1      45.091  30.443  38.860  1.00  0.00     0.031 C 
ATOM     69  C   UNL A   1      45.916  28.109  38.707  1.00  0.00     0.037 A 
BRANCH  56  70
ATOM     70  C   UNL A   1      46.328  23.216  34.953  1.00  0.00     0.064 A 
ATOM     71  C   UNL A   1      45.440  22.141  35.103  1.00  0.00     0.173 A 
ATOM     72  C   UNL A   1      47.648  22.932  34.576  1.00  0.00     0.173 A 
ATOM     73  F   UNL A   1      44.172  22.359  35.483  1.00  0.00    -0.203 F 
ATOM     74  C   UNL A   1      45.862  20.830  34.896  1.00  0.00     0.198 A 
ATOM     75  C   UNL A   1      48.060  21.623  34.344  1.00  0.00     0.198 A 
ATOM     76  F   UNL A   1      48.536  23.926  34.425  1.00  0.00    -0.203 F 
ATOM     77  F   UNL A   1      45.008  19.815  35.082  1.00  0.00    -0.200 F 
ATOM     78  C   UNL A   1      47.169  20.574  34.510  1.00  0.00     0.200 A 
ATOM     79  F   UNL A   1      49.321  21.378  33.963  1.00  0.00    -0.200 F 
ATOM     80  F   UNL A   1      47.572  19.312  34.301  1.00  0.00    -0.200 F 
ENDBRANCH  56  70
BRANCH  57  81
ATOM     81  C   UNL A   1      43.280  32.732  35.785  1.00  0.00     0.064 A 
ATOM     82  C   UNL A   1      41.978  33.084  36.164  1.00  0.00     0.173 A 
ATOM     83  C   UNL A   1      44.189  33.774  35.537  1.00  0.00     0.173 A 
ATOM     84  F   UNL A   1      41.065  32.129  36.391  1.00  0.00    -0.203 F 
ATOM     85  C   UNL A   1      41.600  34.421  36.291  1.00  0.00     0.198 A 
ATOM     86  C   UNL A   1      43.817  35.108  35.687  1.00  0.00     0.198 A 
ATOM     87  F   UNL A   1      45.447  33.493  35.167  1.00  0.00    -0.203 F 
ATOM     88  F   UNL A   1      40.341  34.731  36.630  1.00  0.00    -0.200 F 
ATOM     89  C   UNL A   1      42.522  35.431  36.061  1.00  0.00     0.200 A 
ATOM     90  F   UNL A   1      44.716  36.080  35.478  1.00  0.00    -0.200 F 
ATOM     91  F   UNL A   1      42.163  36.715  36.200  1.00  0.00    -0.200 F 
ENDBRANCH  57  81
BRANCH  69  92
ATOM     92  C   UNL A   1      46.372  28.203  40.133  1.00  0.00     0.064 A 
ATOM     93  C   UNL A   1      45.517  27.869  41.193  1.00  0.00     0.173 A 
ATOM     94  C   UNL A   1      47.710  28.505  40.433  1.00  0.00     0.173 A 
ATOM     95  F   UNL A   1      44.229  27.583  40.958  1.00  0.00    -0.203 F 
ATOM     96  C   UNL A   1      45.987  27.835  42.504  1.00  0.00     0.198 A 
ATOM     97  C   UNL A   1      48.182  28.440  41.739  1.00  0.00     0.198 A 
ATOM     98  F   UNL A   1      48.568  28.817  39.450  1.00  0.00    -0.203 F 
ATOM     99  F   UNL A   1      45.150  27.531  43.505  1.00  0.00    -0.200 F 
ATOM    100  C   UNL A   1      47.321  28.106  42.774  1.00  0.00     0.200 A 
ATOM    101  F   UNL A   1      49.475  28.682  41.995  1.00  0.00    -0.200 F 
ATOM    102  F   UNL A   1      47.778  28.042  44.032  1.00  0.00    -0.200 F 
ENDBRANCH  69  92
ENDBRANCH  43  44
ENDBRANCH  36  38
ENDBRANCH  35  36
ENDBRANCH  34  35
ENDBRANCH  33  34
ENDBRANCH  32  33
ENDBRANCH  31  32
ENDBRANCH  30  31
ENDBRANCH  29  30
ENDBRANCH   1  29
TORSDOF 24
ENDMDL
MODEL 3
REMARK VINA RESULT:      -9.0      5.263     10.168
REMARK SMILES Cc1nc(-c2ccc(C(F)(F)F)cc2)nc(SCC(=O)OCCOCCOCCOCCOC(=O)c2ccc(-c3c4nc(c(-c5c(F)c(F)c(F)c(F)c5F)c5ccc([nH]5)c(-c5c(F)c(F)c(F)c(F)c5F)c5nc(c(-c6c(F)c(F)c(F)c(F)c6F)c6ccc3[nH]6)C=C5)C=C4)cc2)c1C
REMARK SMILES IDX 26 1 25 2 24 3 23 4 22 5 21 6 19 7 20 8 18 9 17 10 16 11
REMARK SMILES IDX 1 12 2 13 3 14 99 15 4 16 100 17 15 18 5 19 6 20 14 21 7 22
REMARK SMILES IDX 13 23 8 24 9 25 10 26 11 27 12 28 27 29 28 30 29 31 30 32
REMARK SMILES IDX 31 33 32 34 33 35 34 36 35 37 36 38 37 39 98 40 38 41 97 42
REMARK SMILES IDX 39 43 40 44 41 45 91 46 42 47 96 48 90 49 92 50 43 51 95 52
REMARK SMILES IDX 89 53 88 54 44 56 76 57 56 58 75 59 57 60 60 61 74 62 93 63
REMARK SMILES IDX 58 64 59 65 73 67 94 68 61 69 45 70 46 71 54 72 47 73 48 74
REMARK SMILES IDX 52 75 55 76 49 77 50 78 53 79 51 80 77 81 78 82 86 83 79 84
REMARK SMILES IDX 80 85 84 86 87 87 81 88 82 89 85 90 83 91 62 92 63 93 71 94
REMARK SMILES IDX 64 95 65 96 69 97 72 98 66 99 67 100 70 101 68 102
REMARK H PARENT 92 55 60 66
REMARK Flexibility Score: inf
ROOT
ATOM      1  C   UNL A   1      42.288  20.995  26.816  1.00  0.00     0.188 C 
ENDROOT
BRANCH   1   2
ATOM      2  C   UNL A   1      40.851  21.058  27.348  1.00  0.00     0.188 C 
BRANCH   2   3
ATOM      3  O   UNL A   1      39.799  20.968  26.403  1.00  0.00    -0.376 OA
BRANCH   3   4
ATOM      4  C   UNL A   1      39.002  22.112  26.142  1.00  0.00     0.202 C 
BRANCH   4   5
ATOM      5  C   UNL A   1      37.756  22.045  25.237  1.00  0.00     0.261 C 
BRANCH   5   6
ATOM      6  O   UNL A   1      36.466  21.862  25.880  1.00  0.00    -0.463 OA
BRANCH   6   7
ATOM      7  C   UNL A   1      35.598  22.908  25.811  1.00  0.00     0.316 C 
ATOM      8  O   UNL A   1      34.826  23.197  26.723  1.00  0.00    -0.251 OA
BRANCH   7   9
ATOM      9  C   UNL A   1      35.535  23.642  24.481  1.00  0.00     0.199 C 
BRANCH   9  10
ATOM     10  S   UNL A   1      34.180  23.319  23.309  1.00  0.00    -0.094 SA
BRANCH  10  11
ATOM     11  C   UNL A   1      32.536  23.603  24.018  1.00  0.00     0.104 A 
ATOM     12  C   UNL A   1      30.159  22.969  26.876  1.00  0.00     0.067 C 
ATOM     13  C   UNL A   1      30.847  23.534  25.662  1.00  0.00     0.045 A 
ATOM     14  N   UNL A   1      30.446  24.779  25.338  1.00  0.00    -0.233 NA
ATOM     15  C   UNL A   1      31.848  22.845  24.967  1.00  0.00     0.003 A 
ATOM     16  C   UNL A   1      31.044  25.368  24.298  1.00  0.00     0.160 A 
ATOM     17  C   UNL A   1      32.131  21.415  25.290  1.00  0.00     0.049 C 
ATOM     18  N   UNL A   1      32.087  24.837  23.639  1.00  0.00    -0.221 NA
BRANCH  16  19
ATOM     19  C   UNL A   1      30.508  26.691  23.913  1.00  0.00     0.019 A 
ATOM     20  C   UNL A   1      31.307  27.845  23.997  1.00  0.00     0.012 A 
ATOM     21  C   UNL A   1      29.167  26.885  23.549  1.00  0.00     0.012 A 
ATOM     22  C   UNL A   1      30.815  29.129  23.749  1.00  0.00     0.014 A 
ATOM     23  C   UNL A   1      28.655  28.176  23.312  1.00  0.00     0.014 A 
ATOM     24  C   UNL A   1      29.473  29.311  23.417  1.00  0.00     0.056 A 
BRANCH  24  25
ATOM     25  C   UNL A   1      28.954  30.711  23.190  1.00  0.00     0.416 C 
ATOM     26  F   UNL A   1      27.596  30.752  23.069  1.00  0.00    -0.166 F 
ATOM     27  F   UNL A   1      29.257  31.551  24.221  1.00  0.00    -0.166 F 
ATOM     28  F   UNL A   1      29.444  31.304  22.067  1.00  0.00    -0.166 F 
ENDBRANCH  24  25
ENDBRANCH  16  19
ENDBRANCH  10  11
ENDBRANCH   9  10
ENDBRANCH   7   9
ENDBRANCH   6   7
ENDBRANCH   5   6
ENDBRANCH   4   5
ENDBRANCH   3   4
ENDBRANCH   2   3
ENDBRANCH   1   2
BRANCH   1  29
ATOM     29  O   UNL A   1      42.492  21.209  25.439  1.00  0.00    -0.377 OA
BRANCH  29  30
ATOM     30  C   UNL A   1      43.453  22.187  25.140  1.00  0.00     0.188 C 
BRANCH  30  31
ATOM     31  C   UNL A   1      44.025  22.865  26.387  1.00  0.00     0.188 C 
BRANCH  31  32
ATOM     32  O   UNL A   1      44.779  24.064  26.302  1.00  0.00    -0.376 OA
BRANCH  32  33
ATOM     33  C   UNL A   1      45.281  24.538  25.063  1.00  0.00     0.202 C 
BRANCH  33  34
ATOM     34  C   UNL A   1      46.681  25.141  24.907  1.00  0.00     0.261 C 
BRANCH  34  35
ATOM     35  O   UNL A   1      46.791  26.337  24.131  1.00  0.00    -0.460 OA
BRANCH  35  36
ATOM     36  C   UNL A   1      47.655  27.265  24.590  1.00  0.00     0.338 C 
ATOM     37  O   UNL A   1      48.670  27.677  24.050  1.00  0.00    -0.246 OA
BRANCH  36  38
ATOM     38  C   UNL A   1      47.054  27.888  25.781  1.00  0.00     0.060 A 
ATOM     39  C   UNL A   1      45.670  28.096  25.762  1.00  0.00     0.016 A 
ATOM     40  C   UNL A   1      47.811  28.213  26.911  1.00  0.00     0.016 A 
ATOM     41  C   UNL A   1      45.031  28.603  26.884  1.00  0.00     0.010 A 
ATOM     42  C   UNL A   1      47.176  28.781  28.020  1.00  0.00     0.010 A 
ATOM     43  C   UNL A   1      45.787  28.991  27.998  1.00  0.00    -0.014 A 
BRANCH  43  44
ATOM     44  C   UNL A   1      45.111  29.846  28.995  1.00  0.00     0.031 A 
ATOM     45  C   UNL A   1      44.770  29.216  30.314  1.00  0.00     0.074 A 
ATOM     46  C   UNL A   1      44.945  31.162  28.788  1.00  0.00     0.049 A 
ATOM     47  N   UNL A   1      44.360  29.775  31.420  1.00  0.00    -0.248 NA
ATOM     48  C   UNL A   1      44.945  27.755  30.403  1.00  0.00     0.031 C 
ATOM     49  C   UNL A   1      45.294  31.875  27.560  1.00  0.00     0.029 A 
ATOM     50  N   UNL A   1      44.465  32.139  29.622  1.00  0.00    -0.354 N 
ATOM     51  C   UNL A   1      44.267  28.743  32.343  1.00  0.00     0.074 A 
ATOM     52  C   UNL A   1      44.615  27.518  31.662  1.00  0.00     0.031 C 
ATOM     53  C   UNL A   1      45.026  33.182  27.727  1.00  0.00     0.029 A 
ATOM     54  C   UNL A   1      44.481  33.394  29.067  1.00  0.00     0.049 A 
ATOM     55  H   UNL A   1      44.141  31.958  30.535  1.00  0.00     0.167 HD
ATOM     56  C   UNL A   1      43.935  28.819  33.651  1.00  0.00     0.037 A 
ATOM     57  C   UNL A   1      44.101  34.576  29.593  1.00  0.00     0.037 A 
ATOM     58  C   UNL A   1      43.556  30.039  34.306  1.00  0.00     0.049 A 
ATOM     59  C   UNL A   1      43.625  34.616  31.024  1.00  0.00     0.074 A 
ATOM     60  C   UNL A   1      43.180  30.228  35.622  1.00  0.00     0.029 A 
ATOM     61  N   UNL A   1      43.490  31.276  33.682  1.00  0.00    -0.354 N 
ATOM     62  N   UNL A   1      43.571  33.646  31.904  1.00  0.00    -0.248 NA
ATOM     63  C   UNL A   1      43.159  35.914  31.536  1.00  0.00     0.031 C 
ATOM     64  C   UNL A   1      42.830  31.571  35.779  1.00  0.00     0.029 A 
ATOM     65  C   UNL A   1      43.043  32.230  34.577  1.00  0.00     0.049 A 
ATOM     66  H   UNL A   1      43.726  31.449  32.741  1.00  0.00     0.167 HD
ATOM     67  C   UNL A   1      43.089  34.213  33.076  1.00  0.00     0.074 A 
ATOM     68  C   UNL A   1      42.876  35.619  32.798  1.00  0.00     0.031 C 
ATOM     69  C   UNL A   1      42.844  33.626  34.273  1.00  0.00     0.037 A 
BRANCH  56  70
ATOM     70  C   UNL A   1      43.943  27.545  34.440  1.00  0.00     0.064 A 
ATOM     71  C   UNL A   1      45.090  27.113  35.122  1.00  0.00     0.173 A 
ATOM     72  C   UNL A   1      42.784  26.762  34.538  1.00  0.00     0.173 A 
ATOM     73  F   UNL A   1      46.229  27.816  35.041  1.00  0.00    -0.203 F 
ATOM     74  C   UNL A   1      45.080  25.933  35.861  1.00  0.00     0.198 A 
ATOM     75  C   UNL A   1      42.771  25.597  35.299  1.00  0.00     0.198 A 
ATOM     76  F   UNL A   1      41.663  27.131  33.899  1.00  0.00    -0.203 F 
ATOM     77  F   UNL A   1      46.198  25.518  36.474  1.00  0.00    -0.200 F 
ATOM     78  C   UNL A   1      43.919  25.182  35.956  1.00  0.00     0.200 A 
ATOM     79  F   UNL A   1      41.645  24.876  35.396  1.00  0.00    -0.200 F 
ATOM     80  F   UNL A   1      43.907  24.051  36.677  1.00  0.00    -0.200 F 
ENDBRANCH  56  70
BRANCH  57  81
ATOM     81  C   UNL A   1      44.173  35.809  28.767  1.00  0.00     0.064 A 
ATOM     82  C   UNL A   1      45.346  36.574  28.700  1.00  0.00     0.173 A 
ATOM     83  C   UNL A   1      43.074  36.238  28.006  1.00  0.00     0.173 A 
ATOM     84  F   UNL A   1      46.418  36.222  29.424  1.00  0.00    -0.203 F 
ATOM     85  C   UNL A   1      45.417  37.719  27.905  1.00  0.00     0.198 A 
ATOM     86  C   UNL A   1      43.153  37.367  27.194  1.00  0.00     0.198 A 
ATOM     87  F   UNL A   1      41.926  35.546  28.037  1.00  0.00    -0.203 F 
ATOM     88  F   UNL A   1      46.542  38.446  27.879  1.00  0.00    -0.200 F 
ATOM     89  C   UNL A   1      44.324  38.109  27.146  1.00  0.00     0.200 A 
ATOM     90  F   UNL A   1      42.099  37.733  26.451  1.00  0.00    -0.200 F 
ATOM     91  F   UNL A   1      44.398  39.198  26.369  1.00  0.00    -0.200 F 
ENDBRANCH  57  81
BRANCH  69  92
ATOM     92  C   UNL A   1      42.323  34.487  35.385  1.00  0.00     0.064 A 
ATOM     93  C   UNL A   1      43.191  35.223  36.204  1.00  0.00     0.173 A 
ATOM     94  C   UNL A   1      40.942  34.675  35.550  1.00  0.00     0.173 A 
ATOM     95  F   UNL A   1      44.519  35.070  36.090  1.00  0.00    -0.203 F 
ATOM     96  C   UNL A   1      42.694  36.118  37.147  1.00  0.00     0.198 A 
ATOM     97  C   UNL A   1      40.450  35.591  36.473  1.00  0.00     0.198 A 
ATOM     98  F   UNL A   1      40.072  34.002  34.781  1.00  0.00    -0.203 F 
ATOM     99  F   UNL A   1      43.541  36.799  37.932  1.00  0.00    -0.200 F 
ATOM    100  C   UNL A   1      41.326  36.311  37.272  1.00  0.00     0.200 A 
ATOM    101  F   UNL A   1      39.129  35.792  36.577  1.00  0.00    -0.200 F 
ATOM    102  F   UNL A   1      40.851  37.196  38.159  1.00  0.00    -0.200 F 
ENDBRANCH  69  92
ENDBRANCH  43  44
ENDBRANCH  36  38
ENDBRANCH  35  36
ENDBRANCH  34  35
ENDBRANCH  33  34
ENDBRANCH  32  33
ENDBRANCH  31  32
ENDBRANCH  30  31
ENDBRANCH  29  30
ENDBRANCH   1  29
TORSDOF 24
ENDMDL
