MODEL 1
REMARK VINA RESULT:     -10.2      0.000      0.000
REMARK SMILES CC[C@@H](C)CNc1cc(C)ccc1C(=O)OCCOCCOCCOCCOC(=O)c1ccc(-c2c3nc(c(-c4c(F)c(F)c(F)c(F)c4F)c4ccc([nH]4)c(-c4c(F)c(F)c(F)c(F)c4F)c4nc(c(-c5c(F)c(F)c(F)c(F)c5F)c5ccc2[nH]5)C=C4)C=C3)cc1
REMARK SMILES IDX 21 1 20 2 19 3 18 4 17 5 16 6 14 7 15 8 13 9 7 10 8 11 9 12
REMARK SMILES IDX 12 13 10 14 11 15 6 16 5 18 3 19 4 20 2 21 1 22 22 23 23 24
REMARK SMILES IDX 24 25 25 26 26 27 27 28 28 29 29 30 30 31 31 32 32 33 93 34
REMARK SMILES IDX 33 35 92 36 34 37 35 38 36 39 86 40 37 41 91 42 85 43 87 44
REMARK SMILES IDX 38 45 90 46 84 47 83 48 39 50 71 51 51 52 70 53 52 54 55 55
REMARK SMILES IDX 69 56 88 57 53 58 54 59 68 61 89 62 56 63 40 64 41 65 49 66
REMARK SMILES IDX 42 67 43 68 47 69 50 70 44 71 45 72 48 73 46 74 72 75 73 76
REMARK SMILES IDX 81 77 74 78 75 79 79 80 82 81 76 82 77 83 80 84 78 85 57 86
REMARK SMILES IDX 58 87 66 88 59 89 60 90 64 91 67 92 61 93 62 94 65 95 63 96
REMARK H PARENT 6 17 87 49 55 60
REMARK Flexibility Score: inf
ROOT
ATOM      1  C   UNL A   1      32.043  26.981  25.348  1.00  0.00     0.188 C 
ENDROOT
BRANCH   1   2
ATOM      2  C   UNL A   1      31.535  25.770  24.537  1.00  0.00     0.188 C 
BRANCH   2   3
ATOM      3  O   UNL A   1      30.278  25.179  24.828  1.00  0.00    -0.376 OA
BRANCH   3   4
ATOM      4  C   UNL A   1      30.158  24.506  26.078  1.00  0.00     0.202 C 
BRANCH   4   5
ATOM      5  C   UNL A   1      31.061  23.316  26.351  1.00  0.00     0.261 C 
BRANCH   5   6
ATOM      6  O   UNL A   1      32.290  23.858  26.873  1.00  0.00    -0.460 OA
BRANCH   6   7
ATOM      7  C   UNL A   1      33.109  22.967  27.465  1.00  0.00     0.340 C 
ATOM      8  O   UNL A   1      32.822  22.205  28.363  1.00  0.00    -0.246 OA
BRANCH   7   9
ATOM      9  C   UNL A   1      34.168  22.661  26.484  1.00  0.00     0.083 A 
ATOM     10  C   UNL A   1      34.359  21.494  25.703  1.00  0.00     0.049 A 
ATOM     11  C   UNL A   1      35.183  21.697  24.582  1.00  0.00     0.030 A 
ATOM     12  C   UNL A   1      35.925  22.885  24.378  1.00  0.00    -0.049 A 
ATOM     13  C   UNL A   1      34.988  23.807  26.341  1.00  0.00     0.018 A 
ATOM     14  C   UNL A   1      36.706  23.124  23.125  1.00  0.00     0.044 C 
ATOM     15  C   UNL A   1      35.908  23.895  25.327  1.00  0.00     0.004 A 
BRANCH  10  16
ATOM     16  N   UNL A   1      33.793  20.231  25.976  1.00  0.00    -0.384 N 
ATOM     17  H   UNL A   1      33.148  20.165  26.716  1.00  0.00     0.160 HD
BRANCH  16  18
ATOM     18  C   UNL A   1      34.111  18.985  25.211  1.00  0.00     0.116 C 
BRANCH  18  19
ATOM     19  C   UNL A   1      32.863  18.200  24.678  1.00  0.00     0.005 C 
ATOM     20  C   UNL A   1      32.495  17.001  25.574  1.00  0.00     0.009 C 
BRANCH  19  21
ATOM     21  C   UNL A   1      32.983  17.681  23.209  1.00  0.00     0.002 C 
ATOM     22  C   UNL A   1      34.044  16.587  22.955  1.00  0.00     0.004 C 
ENDBRANCH  19  21
ENDBRANCH  18  19
ENDBRANCH  16  18
ENDBRANCH  10  16
ENDBRANCH   7   9
ENDBRANCH   6   7
ENDBRANCH   5   6
ENDBRANCH   4   5
ENDBRANCH   3   4
ENDBRANCH   2   3
ENDBRANCH   1   2
BRANCH   1  23
ATOM     23  O   UNL A   1      31.173  27.667  26.241  1.00  0.00    -0.377 OA
BRANCH  23  24
ATOM     24  C   UNL A   1      31.778  28.585  27.145  1.00  0.00     0.188 C 
BRANCH  24  25
ATOM     25  C   UNL A   1      31.802  30.052  26.822  1.00  0.00     0.188 C 
BRANCH  25  26
ATOM     26  O   UNL A   1      33.050  30.295  26.184  1.00  0.00    -0.376 OA
BRANCH  26  27
ATOM     27  C   UNL A   1      34.187  30.103  27.007  1.00  0.00     0.202 C 
BRANCH  27  28
ATOM     28  C   UNL A   1      34.544  31.344  27.834  1.00  0.00     0.261 C 
BRANCH  28  29
ATOM     29  O   UNL A   1      35.558  30.981  28.798  1.00  0.00    -0.460 OA
BRANCH  29  30
ATOM     30  C   UNL A   1      36.834  31.331  28.482  1.00  0.00     0.338 C 
ATOM     31  O   UNL A   1      37.179  32.426  28.074  1.00  0.00    -0.246 OA
BRANCH  30  32
ATOM     32  C   UNL A   1      37.719  30.128  28.502  1.00  0.00     0.060 A 
ATOM     33  C   UNL A   1      37.457  29.064  29.376  1.00  0.00     0.016 A 
ATOM     34  C   UNL A   1      38.933  30.161  27.832  1.00  0.00     0.016 A 
ATOM     35  C   UNL A   1      38.482  28.167  29.728  1.00  0.00     0.010 A 
ATOM     36  C   UNL A   1      39.949  29.316  28.236  1.00  0.00     0.010 A 
ATOM     37  C   UNL A   1      39.770  28.371  29.257  1.00  0.00    -0.014 A 
BRANCH  37  38
ATOM     38  C   UNL A   1      40.995  27.705  29.757  1.00  0.00     0.031 A 
ATOM     39  C   UNL A   1      41.234  26.326  29.290  1.00  0.00     0.074 A 
ATOM     40  C   UNL A   1      42.017  28.424  30.296  1.00  0.00     0.049 A 
ATOM     41  N   UNL A   1      42.375  25.750  29.341  1.00  0.00    -0.248 NA
ATOM     42  C   UNL A   1      40.244  25.527  28.579  1.00  0.00     0.031 C 
ATOM     43  C   UNL A   1      43.430  28.118  30.594  1.00  0.00     0.029 A 
ATOM     44  N   UNL A   1      41.954  29.709  30.816  1.00  0.00    -0.354 N 
ATOM     45  C   UNL A   1      42.380  24.673  28.489  1.00  0.00     0.074 A 
ATOM     46  C   UNL A   1      41.008  24.554  28.065  1.00  0.00     0.031 C 
ATOM     47  C   UNL A   1      43.915  28.976  31.519  1.00  0.00     0.029 A 
ATOM     48  C   UNL A   1      42.735  29.660  31.988  1.00  0.00     0.049 A 
ATOM     49  H   UNL A   1      41.472  30.484  30.448  1.00  0.00     0.167 HD
ATOM     50  C   UNL A   1      43.600  24.124  28.209  1.00  0.00     0.037 A 
ATOM     51  C   UNL A   1      42.064  29.394  33.144  1.00  0.00     0.037 A 
ATOM     52  C   UNL A   1      44.598  24.593  29.198  1.00  0.00     0.049 A 
ATOM     53  C   UNL A   1      42.612  28.010  33.633  1.00  0.00     0.074 A 
ATOM     54  C   UNL A   1      45.833  25.215  29.172  1.00  0.00     0.029 A 
ATOM     55  N   UNL A   1      44.208  24.616  30.542  1.00  0.00    -0.354 N 
ATOM     56  N   UNL A   1      42.884  26.963  32.860  1.00  0.00    -0.248 NA
ATOM     57  C   UNL A   1      43.249  27.867  34.939  1.00  0.00     0.031 C 
ATOM     58  C   UNL A   1      46.114  25.690  30.498  1.00  0.00     0.029 A 
ATOM     59  C   UNL A   1      45.051  25.358  31.334  1.00  0.00     0.049 A 
ATOM     60  H   UNL A   1      43.411  24.149  30.885  1.00  0.00     0.167 HD
ATOM     61  C   UNL A   1      43.927  26.225  33.418  1.00  0.00     0.074 A 
ATOM     62  C   UNL A   1      43.966  26.736  34.787  1.00  0.00     0.031 C 
ATOM     63  C   UNL A   1      44.836  25.389  32.780  1.00  0.00     0.037 A 
BRANCH  50  64
ATOM     64  C   UNL A   1      43.943  23.266  26.996  1.00  0.00     0.064 A 
ATOM     65  C   UNL A   1      44.804  23.755  25.984  1.00  0.00     0.173 A 
ATOM     66  C   UNL A   1      43.392  21.998  26.706  1.00  0.00     0.173 A 
ATOM     67  F   UNL A   1      45.431  24.932  26.107  1.00  0.00    -0.203 F 
ATOM     68  C   UNL A   1      45.059  23.059  24.793  1.00  0.00     0.198 A 
ATOM     69  C   UNL A   1      43.687  21.281  25.538  1.00  0.00     0.198 A 
ATOM     70  F   UNL A   1      42.514  21.400  27.512  1.00  0.00    -0.203 F 
ATOM     71  F   UNL A   1      45.842  23.610  23.854  1.00  0.00    -0.200 F 
ATOM     72  C   UNL A   1      44.508  21.816  24.574  1.00  0.00     0.200 A 
ATOM     73  F   UNL A   1      43.144  20.066  25.354  1.00  0.00    -0.200 F 
ATOM     74  F   UNL A   1      44.759  21.143  23.443  1.00  0.00    -0.200 F 
ENDBRANCH  50  64
BRANCH  51  75
ATOM     75  C   UNL A   1      40.689  30.099  33.138  1.00  0.00     0.064 A 
ATOM     76  C   UNL A   1      39.498  29.299  33.006  1.00  0.00     0.173 A 
ATOM     77  C   UNL A   1      40.406  31.426  33.436  1.00  0.00     0.173 A 
ATOM     78  F   UNL A   1      39.591  27.999  32.740  1.00  0.00    -0.203 F 
ATOM     79  C   UNL A   1      38.190  29.712  33.245  1.00  0.00     0.198 A 
ATOM     80  C   UNL A   1      39.067  31.872  33.646  1.00  0.00     0.198 A 
ATOM     81  F   UNL A   1      41.402  32.298  33.622  1.00  0.00    -0.203 F 
ATOM     82  F   UNL A   1      37.190  28.815  33.231  1.00  0.00    -0.200 F 
ATOM     83  C   UNL A   1      37.970  31.016  33.571  1.00  0.00     0.200 A 
ATOM     84  F   UNL A   1      38.845  33.135  34.037  1.00  0.00    -0.200 F 
ATOM     85  F   UNL A   1      36.733  31.425  33.887  1.00  0.00    -0.200 F 
ENDBRANCH  51  75
BRANCH  63  86
ATOM     86  C   UNL A   1      45.615  24.310  33.501  1.00  0.00     0.064 A 
ATOM     87  C   UNL A   1      46.917  24.433  33.975  1.00  0.00     0.173 A 
ATOM     88  C   UNL A   1      44.982  23.060  33.760  1.00  0.00     0.173 A 
ATOM     89  F   UNL A   1      47.702  25.443  33.577  1.00  0.00    -0.203 F 
ATOM     90  C   UNL A   1      47.448  23.494  34.861  1.00  0.00     0.198 A 
ATOM     91  C   UNL A   1      45.539  22.096  34.582  1.00  0.00     0.198 A 
ATOM     92  F   UNL A   1      43.783  22.739  33.253  1.00  0.00    -0.203 F 
ATOM     93  F   UNL A   1      48.643  23.718  35.421  1.00  0.00    -0.200 F 
ATOM     94  C   UNL A   1      46.744  22.345  35.191  1.00  0.00     0.200 A 
ATOM     95  F   UNL A   1      44.875  20.954  34.812  1.00  0.00    -0.200 F 
ATOM     96  F   UNL A   1      47.228  21.481  36.092  1.00  0.00    -0.200 F 
ENDBRANCH  63  86
ENDBRANCH  37  38
ENDBRANCH  30  32
ENDBRANCH  29  30
ENDBRANCH  28  29
ENDBRANCH  27  28
ENDBRANCH  26  27
ENDBRANCH  25  26
ENDBRANCH  24  25
ENDBRANCH  23  24
ENDBRANCH   1  23
TORSDOF 24
ENDMDL
MODEL 2
REMARK VINA RESULT:     -10.1      1.578      3.102
REMARK SMILES CC[C@@H](C)CNc1cc(C)ccc1C(=O)OCCOCCOCCOCCOC(=O)c1ccc(-c2c3nc(c(-c4c(F)c(F)c(F)c(F)c4F)c4ccc([nH]4)c(-c4c(F)c(F)c(F)c(F)c4F)c4nc(c(-c5c(F)c(F)c(F)c(F)c5F)c5ccc2[nH]5)C=C4)C=C3)cc1
REMARK SMILES IDX 21 1 20 2 19 3 18 4 17 5 16 6 14 7 15 8 13 9 7 10 8 11 9 12
REMARK SMILES IDX 12 13 10 14 11 15 6 16 5 18 3 19 4 20 2 21 1 22 22 23 23 24
REMARK SMILES IDX 24 25 25 26 26 27 27 28 28 29 29 30 30 31 31 32 32 33 93 34
REMARK SMILES IDX 33 35 92 36 34 37 35 38 36 39 86 40 37 41 91 42 85 43 87 44
REMARK SMILES IDX 38 45 90 46 84 47 83 48 39 50 71 51 51 52 70 53 52 54 55 55
REMARK SMILES IDX 69 56 88 57 53 58 54 59 68 61 89 62 56 63 40 64 41 65 49 66
REMARK SMILES IDX 42 67 43 68 47 69 50 70 44 71 45 72 48 73 46 74 72 75 73 76
REMARK SMILES IDX 81 77 74 78 75 79 79 80 82 81 76 82 77 83 80 84 78 85 57 86
REMARK SMILES IDX 58 87 66 88 59 89 60 90 64 91 67 92 61 93 62 94 65 95 63 96
REMARK H PARENT 6 17 87 49 55 60
REMARK Flexibility Score: inf
ROOT
ATOM      1  C   UNL A   1      32.802  27.045  26.024  1.00  0.00     0.188 C 
ENDROOT
BRANCH   1   2
ATOM      2  C   UNL A   1      32.601  25.560  25.657  1.00  0.00     0.188 C 
BRANCH   2   3
ATOM      3  O   UNL A   1      33.158  25.027  24.465  1.00  0.00    -0.376 OA
BRANCH   3   4
ATOM      4  C   UNL A   1      32.242  24.580  23.470  1.00  0.00     0.202 C 
BRANCH   4   5
ATOM      5  C   UNL A   1      31.194  23.552  23.859  1.00  0.00     0.261 C 
BRANCH   5   6
ATOM      6  O   UNL A   1      31.814  22.263  23.685  1.00  0.00    -0.460 OA
BRANCH   6   7
ATOM      7  C   UNL A   1      32.231  21.666  24.818  1.00  0.00     0.340 C 
ATOM      8  O   UNL A   1      31.712  21.743  25.911  1.00  0.00    -0.246 OA
BRANCH   7   9
ATOM      9  C   UNL A   1      33.012  20.485  24.402  1.00  0.00     0.083 A 
ATOM     10  C   UNL A   1      34.265  20.024  24.877  1.00  0.00     0.049 A 
ATOM     11  C   UNL A   1      34.511  18.670  24.591  1.00  0.00     0.030 A 
ATOM     12  C   UNL A   1      33.690  17.904  23.728  1.00  0.00    -0.049 A 
ATOM     13  C   UNL A   1      32.250  19.757  23.456  1.00  0.00     0.018 A 
ATOM     14  C   UNL A   1      33.905  16.438  23.528  1.00  0.00     0.044 C 
ATOM     15  C   UNL A   1      32.621  18.494  23.072  1.00  0.00     0.004 A 
BRANCH  10  16
ATOM     16  N   UNL A   1      35.207  20.806  25.578  1.00  0.00    -0.384 N 
ATOM     17  H   UNL A   1      35.993  20.350  25.956  1.00  0.00     0.160 HD
BRANCH  16  18
ATOM     18  C   UNL A   1      35.087  22.283  25.783  1.00  0.00     0.116 C 
BRANCH  18  19
ATOM     19  C   UNL A   1      35.943  23.159  24.804  1.00  0.00     0.005 C 
ATOM     20  C   UNL A   1      35.687  22.807  23.324  1.00  0.00     0.009 C 
BRANCH  19  21
ATOM     21  C   UNL A   1      37.485  23.112  25.048  1.00  0.00     0.002 C 
ATOM     22  C   UNL A   1      37.999  23.837  26.312  1.00  0.00     0.004 C 
ENDBRANCH  19  21
ENDBRANCH  18  19
ENDBRANCH  16  18
ENDBRANCH  10  16
ENDBRANCH   7   9
ENDBRANCH   6   7
ENDBRANCH   5   6
ENDBRANCH   4   5
ENDBRANCH   3   4
ENDBRANCH   2   3
ENDBRANCH   1   2
BRANCH   1  23
ATOM     23  O   UNL A   1      31.685  27.923  26.119  1.00  0.00    -0.377 OA
BRANCH  23  24
ATOM     24  C   UNL A   1      31.771  28.965  27.084  1.00  0.00     0.188 C 
BRANCH  24  25
ATOM     25  C   UNL A   1      31.798  30.401  26.640  1.00  0.00     0.188 C 
BRANCH  25  26
ATOM     26  O   UNL A   1      33.162  30.707  26.378  1.00  0.00    -0.376 OA
BRANCH  26  27
ATOM     27  C   UNL A   1      34.044  30.472  27.461  1.00  0.00     0.202 C 
BRANCH  27  28
ATOM     28  C   UNL A   1      34.389  31.747  28.241  1.00  0.00     0.261 C 
BRANCH  28  29
ATOM     29  O   UNL A   1      35.206  31.387  29.377  1.00  0.00    -0.460 OA
BRANCH  29  30
ATOM     30  C   UNL A   1      36.359  32.094  29.530  1.00  0.00     0.338 C 
ATOM     31  O   UNL A   1      36.429  33.306  29.624  1.00  0.00    -0.246 OA
BRANCH  30  32
ATOM     32  C   UNL A   1      37.541  31.198  29.354  1.00  0.00     0.060 A 
ATOM     33  C   UNL A   1      37.386  29.805  29.353  1.00  0.00     0.016 A 
ATOM     34  C   UNL A   1      38.820  31.730  29.429  1.00  0.00     0.016 A 
ATOM     35  C   UNL A   1      38.482  28.970  29.638  1.00  0.00     0.010 A 
ATOM     36  C   UNL A   1      39.873  30.905  29.774  1.00  0.00     0.010 A 
ATOM     37  C   UNL A   1      39.704  29.528  29.979  1.00  0.00    -0.014 A 
BRANCH  37  38
ATOM     38  C   UNL A   1      40.853  28.809  30.579  1.00  0.00     0.031 A 
ATOM     39  C   UNL A   1      41.315  27.598  29.873  1.00  0.00     0.074 A 
ATOM     40  C   UNL A   1      41.665  29.413  31.489  1.00  0.00     0.049 A 
ATOM     41  N   UNL A   1      42.467  27.074  30.050  1.00  0.00    -0.248 NA
ATOM     42  C   UNL A   1      40.577  26.960  28.790  1.00  0.00     0.031 C 
ATOM     43  C   UNL A   1      43.004  29.100  32.024  1.00  0.00     0.029 A 
ATOM     44  N   UNL A   1      41.372  30.527  32.263  1.00  0.00    -0.354 N 
ATOM     45  C   UNL A   1      42.755  26.241  28.997  1.00  0.00     0.074 A 
ATOM     46  C   UNL A   1      41.522  26.175  28.254  1.00  0.00     0.031 C 
ATOM     47  C   UNL A   1      43.198  29.722  33.208  1.00  0.00     0.029 A 
ATOM     48  C   UNL A   1      41.887  30.223  33.539  1.00  0.00     0.049 A 
ATOM     49  H   UNL A   1      40.908  31.349  31.984  1.00  0.00     0.167 HD
ATOM     50  C   UNL A   1      44.053  25.827  28.885  1.00  0.00     0.037 A 
ATOM     51  C   UNL A   1      41.013  29.653  34.417  1.00  0.00     0.037 A 
ATOM     52  C   UNL A   1      44.769  26.077  30.157  1.00  0.00     0.049 A 
ATOM     53  C   UNL A   1      41.573  28.214  34.685  1.00  0.00     0.074 A 
ATOM     54  C   UNL A   1      45.917  26.735  30.559  1.00  0.00     0.029 A 
ATOM     55  N   UNL A   1      44.101  25.753  31.344  1.00  0.00    -0.354 N 
ATOM     56  N   UNL A   1      42.100  27.402  33.774  1.00  0.00    -0.248 NA
ATOM     57  C   UNL A   1      41.928  27.780  36.033  1.00  0.00     0.031 C 
ATOM     58  C   UNL A   1      45.864  26.880  31.987  1.00  0.00     0.029 A 
ATOM     59  C   UNL A   1      44.683  26.310  32.457  1.00  0.00     0.049 A 
ATOM     60  H   UNL A   1      43.298  25.184  31.378  1.00  0.00     0.167 HD
ATOM     61  C   UNL A   1      43.065  26.592  34.371  1.00  0.00     0.074 A 
ATOM     62  C   UNL A   1      42.764  26.751  35.792  1.00  0.00     0.031 C 
ATOM     63  C   UNL A   1      44.164  25.975  33.782  1.00  0.00     0.037 A 
BRANCH  50  64
ATOM     64  C   UNL A   1      44.725  25.308  27.618  1.00  0.00     0.064 A 
ATOM     65  C   UNL A   1      44.959  23.923  27.437  1.00  0.00     0.173 A 
ATOM     66  C   UNL A   1      45.258  26.112  26.585  1.00  0.00     0.173 A 
ATOM     67  F   UNL A   1      44.502  23.017  28.311  1.00  0.00    -0.203 F 
ATOM     68  C   UNL A   1      45.677  23.403  26.351  1.00  0.00     0.198 A 
ATOM     69  C   UNL A   1      45.932  25.587  25.473  1.00  0.00     0.198 A 
ATOM     70  F   UNL A   1      45.189  27.443  26.608  1.00  0.00    -0.203 F 
ATOM     71  F   UNL A   1      45.907  22.085  26.274  1.00  0.00    -0.200 F 
ATOM     72  C   UNL A   1      46.155  24.235  25.362  1.00  0.00     0.200 A 
ATOM     73  F   UNL A   1      46.379  26.418  24.518  1.00  0.00    -0.200 F 
ATOM     74  F   UNL A   1      46.831  23.741  24.316  1.00  0.00    -0.200 F 
ENDBRANCH  50  64
BRANCH  51  75
ATOM     75  C   UNL A   1      39.611  30.282  34.259  1.00  0.00     0.064 A 
ATOM     76  C   UNL A   1      39.383  31.609  34.773  1.00  0.00     0.173 A 
ATOM     77  C   UNL A   1      38.542  29.816  33.505  1.00  0.00     0.173 A 
ATOM     78  F   UNL A   1      40.316  32.214  35.503  1.00  0.00    -0.203 F 
ATOM     79  C   UNL A   1      38.294  32.431  34.495  1.00  0.00     0.198 A 
ATOM     80  C   UNL A   1      37.402  30.634  33.242  1.00  0.00     0.198 A 
ATOM     81  F   UNL A   1      38.604  28.611  32.928  1.00  0.00    -0.203 F 
ATOM     82  F   UNL A   1      38.289  33.706  34.922  1.00  0.00    -0.200 F 
ATOM     83  C   UNL A   1      37.290  31.939  33.718  1.00  0.00     0.200 A 
ATOM     84  F   UNL A   1      36.442  30.186  32.421  1.00  0.00    -0.200 F 
ATOM     85  F   UNL A   1      36.269  32.733  33.365  1.00  0.00    -0.200 F 
ENDBRANCH  51  75
BRANCH  63  86
ATOM     86  C   UNL A   1      44.869  24.784  34.394  1.00  0.00     0.064 A 
ATOM     87  C   UNL A   1      46.002  24.841  35.198  1.00  0.00     0.173 A 
ATOM     88  C   UNL A   1      44.339  23.480  34.171  1.00  0.00     0.173 A 
ATOM     89  F   UNL A   1      46.739  25.958  35.272  1.00  0.00    -0.203 F 
ATOM     90  C   UNL A   1      46.415  23.729  35.935  1.00  0.00     0.198 A 
ATOM     91  C   UNL A   1      44.794  22.362  34.848  1.00  0.00     0.198 A 
ATOM     92  F   UNL A   1      43.336  23.246  33.313  1.00  0.00    -0.203 F 
ATOM     93  F   UNL A   1      47.413  23.856  36.818  1.00  0.00    -0.200 F 
ATOM     94  C   UNL A   1      45.788  22.501  35.785  1.00  0.00     0.200 A 
ATOM     95  F   UNL A   1      44.228  21.169  34.617  1.00  0.00    -0.200 F 
ATOM     96  F   UNL A   1      46.142  21.455  36.542  1.00  0.00    -0.200 F 
ENDBRANCH  63  86
ENDBRANCH  37  38
ENDBRANCH  30  32
ENDBRANCH  29  30
ENDBRANCH  28  29
ENDBRANCH  27  28
ENDBRANCH  26  27
ENDBRANCH  25  26
ENDBRANCH  24  25
ENDBRANCH  23  24
ENDBRANCH   1  23
TORSDOF 24
ENDMDL
MODEL 3
REMARK VINA RESULT:      -9.8      4.314     10.572
REMARK SMILES CC[C@@H](C)CNc1cc(C)ccc1C(=O)OCCOCCOCCOCCOC(=O)c1ccc(-c2c3nc(c(-c4c(F)c(F)c(F)c(F)c4F)c4ccc([nH]4)c(-c4c(F)c(F)c(F)c(F)c4F)c4nc(c(-c5c(F)c(F)c(F)c(F)c5F)c5ccc2[nH]5)C=C4)C=C3)cc1
REMARK SMILES IDX 21 1 20 2 19 3 18 4 17 5 16 6 14 7 15 8 13 9 7 10 8 11 9 12
REMARK SMILES IDX 12 13 10 14 11 15 6 16 5 18 3 19 4 20 2 21 1 22 22 23 23 24
REMARK SMILES IDX 24 25 25 26 26 27 27 28 28 29 29 30 30 31 31 32 32 33 93 34
REMARK SMILES IDX 33 35 92 36 34 37 35 38 36 39 86 40 37 41 91 42 85 43 87 44
REMARK SMILES IDX 38 45 90 46 84 47 83 48 39 50 71 51 51 52 70 53 52 54 55 55
REMARK SMILES IDX 69 56 88 57 53 58 54 59 68 61 89 62 56 63 40 64 41 65 49 66
REMARK SMILES IDX 42 67 43 68 47 69 50 70 44 71 45 72 48 73 46 74 72 75 73 76
REMARK SMILES IDX 81 77 74 78 75 79 79 80 82 81 76 82 77 83 80 84 78 85 57 86
REMARK SMILES IDX 58 87 66 88 59 89 60 90 64 91 67 92 61 93 62 94 65 95 63 96
REMARK H PARENT 6 17 87 49 55 60
REMARK Flexibility Score: inf
ROOT
ATOM      1  C   UNL A   1      34.782  23.166  24.088  1.00  0.00     0.188 C 
ENDROOT
BRANCH   1   2
ATOM      2  C   UNL A   1      33.386  23.413  24.697  1.00  0.00     0.188 C 
BRANCH   2   3
ATOM      3  O   UNL A   1      32.271  22.635  24.291  1.00  0.00    -0.376 OA
BRANCH   3   4
ATOM      4  C   UNL A   1      31.028  23.317  24.149  1.00  0.00     0.202 C 
BRANCH   4   5
ATOM      5  C   UNL A   1      30.908  24.390  23.081  1.00  0.00     0.261 C 
BRANCH   5   6
ATOM      6  O   UNL A   1      30.964  25.652  23.774  1.00  0.00    -0.460 OA
BRANCH   6   7
ATOM      7  C   UNL A   1      31.260  26.719  23.008  1.00  0.00     0.340 C 
ATOM      8  O   UNL A   1      30.689  27.066  21.997  1.00  0.00    -0.246 OA
BRANCH   7   9
ATOM      9  C   UNL A   1      31.955  27.682  23.885  1.00  0.00     0.083 A 
ATOM     10  C   UNL A   1      31.671  29.050  24.119  1.00  0.00     0.049 A 
ATOM     11  C   UNL A   1      32.233  29.545  25.309  1.00  0.00     0.030 A 
ATOM     12  C   UNL A   1      33.167  28.814  26.082  1.00  0.00    -0.049 A 
ATOM     13  C   UNL A   1      32.966  26.990  24.595  1.00  0.00     0.018 A 
ATOM     14  C   UNL A   1      33.664  29.312  27.402  1.00  0.00     0.044 C 
ATOM     15  C   UNL A   1      33.615  27.575  25.652  1.00  0.00     0.004 A 
BRANCH  10  16
ATOM     16  N   UNL A   1      30.902  29.878  23.275  1.00  0.00    -0.384 N 
ATOM     17  H   UNL A   1      31.379  30.452  22.633  1.00  0.00     0.160 HD
BRANCH  16  18
ATOM     18  C   UNL A   1      29.407  29.937  23.291  1.00  0.00     0.116 C 
BRANCH  18  19
ATOM     19  C   UNL A   1      28.801  31.381  23.204  1.00  0.00     0.005 C 
ATOM     20  C   UNL A   1      27.422  31.482  23.886  1.00  0.00     0.009 C 
BRANCH  19  21
ATOM     21  C   UNL A   1      28.665  31.957  21.758  1.00  0.00     0.002 C 
ATOM     22  C   UNL A   1      28.010  31.028  20.711  1.00  0.00     0.004 C 
ENDBRANCH  19  21
ENDBRANCH  18  19
ENDBRANCH  16  18
ENDBRANCH  10  16
ENDBRANCH   7   9
ENDBRANCH   6   7
ENDBRANCH   5   6
ENDBRANCH   4   5
ENDBRANCH   3   4
ENDBRANCH   2   3
ENDBRANCH   1   2
BRANCH   1  23
ATOM     23  O   UNL A   1      35.924  23.843  24.601  1.00  0.00    -0.377 OA
BRANCH  23  24
ATOM     24  C   UNL A   1      36.565  23.255  25.726  1.00  0.00     0.188 C 
BRANCH  24  25
ATOM     25  C   UNL A   1      36.833  21.776  25.751  1.00  0.00     0.188 C 
BRANCH  25  26
ATOM     26  O   UNL A   1      38.022  21.578  24.995  1.00  0.00    -0.376 OA
BRANCH  26  27
ATOM     27  C   UNL A   1      39.103  21.019  25.720  1.00  0.00     0.202 C 
BRANCH  27  28
ATOM     28  C   UNL A   1      39.727  22.002  26.718  1.00  0.00     0.261 C 
BRANCH  28  29
ATOM     29  O   UNL A   1      40.678  22.832  26.014  1.00  0.00    -0.460 OA
BRANCH  29  30
ATOM     30  C   UNL A   1      41.739  23.274  26.743  1.00  0.00     0.338 C 
ATOM     31  O   UNL A   1      42.775  22.657  26.916  1.00  0.00    -0.246 OA
BRANCH  30  32
ATOM     32  C   UNL A   1      41.376  24.523  27.477  1.00  0.00     0.060 A 
ATOM     33  C   UNL A   1      40.513  25.464  26.900  1.00  0.00     0.016 A 
ATOM     34  C   UNL A   1      42.075  24.870  28.625  1.00  0.00     0.016 A 
ATOM     35  C   UNL A   1      40.517  26.798  27.348  1.00  0.00     0.010 A 
ATOM     36  C   UNL A   1      42.121  26.196  29.011  1.00  0.00     0.010 A 
ATOM     37  C   UNL A   1      41.420  27.196  28.321  1.00  0.00    -0.014 A 
BRANCH  37  38
ATOM     38  C   UNL A   1      41.747  28.595  28.685  1.00  0.00     0.031 A 
ATOM     39  C   UNL A   1      40.606  29.490  28.956  1.00  0.00     0.074 A 
ATOM     40  C   UNL A   1      42.993  28.939  29.111  1.00  0.00     0.049 A 
ATOM     41  N   UNL A   1      40.709  30.591  29.598  1.00  0.00    -0.248 NA
ATOM     42  C   UNL A   1      39.220  29.150  28.661  1.00  0.00     0.031 C 
ATOM     43  C   UNL A   1      43.541  30.120  29.806  1.00  0.00     0.029 A 
ATOM     44  N   UNL A   1      44.173  28.235  28.907  1.00  0.00    -0.354 N 
ATOM     45  C   UNL A   1      39.467  30.981  30.035  1.00  0.00     0.074 A 
ATOM     46  C   UNL A   1      38.563  30.064  29.388  1.00  0.00     0.031 C 
ATOM     47  C   UNL A   1      44.877  30.205  29.613  1.00  0.00     0.029 A 
ATOM     48  C   UNL A   1      45.128  29.220  28.590  1.00  0.00     0.049 A 
ATOM     49  H   UNL A   1      44.311  27.263  28.970  1.00  0.00     0.167 HD
ATOM     50  C   UNL A   1      39.435  31.974  30.973  1.00  0.00     0.037 A 
ATOM     51  C   UNL A   1      45.306  29.476  27.263  1.00  0.00     0.037 A 
ATOM     52  C   UNL A   1      40.747  32.660  31.019  1.00  0.00     0.049 A 
ATOM     53  C   UNL A   1      44.831  30.955  27.058  1.00  0.00     0.074 A 
ATOM     54  C   UNL A   1      41.696  32.966  31.977  1.00  0.00     0.029 A 
ATOM     55  N   UNL A   1      41.355  32.964  29.795  1.00  0.00    -0.354 N 
ATOM     56  N   UNL A   1      43.767  31.517  27.623  1.00  0.00    -0.248 NA
ATOM     57  C   UNL A   1      45.735  31.974  26.531  1.00  0.00     0.031 C 
ATOM     58  C   UNL A   1      42.899  33.356  31.297  1.00  0.00     0.029 A 
ATOM     59  C   UNL A   1      42.685  33.289  29.923  1.00  0.00     0.049 A 
ATOM     60  H   UNL A   1      40.880  32.947  28.933  1.00  0.00     0.167 HD
ATOM     61  C   UNL A   1      44.000  32.879  27.810  1.00  0.00     0.074 A 
ATOM     62  C   UNL A   1      45.150  33.117  26.940  1.00  0.00     0.031 C 
ATOM     63  C   UNL A   1      43.431  33.735  28.747  1.00  0.00     0.037 A 
BRANCH  50  64
ATOM     64  C   UNL A   1      38.288  32.268  31.933  1.00  0.00     0.064 A 
ATOM     65  C   UNL A   1      37.084  32.852  31.468  1.00  0.00     0.173 A 
ATOM     66  C   UNL A   1      38.328  32.099  33.336  1.00  0.00     0.173 A 
ATOM     67  F   UNL A   1      36.869  33.062  30.163  1.00  0.00    -0.203 F 
ATOM     68  C   UNL A   1      36.046  33.252  32.321  1.00  0.00     0.198 A 
ATOM     69  C   UNL A   1      37.269  32.452  34.184  1.00  0.00     0.198 A 
ATOM     70  F   UNL A   1      39.401  31.619  33.966  1.00  0.00    -0.203 F 
ATOM     71  F   UNL A   1      34.958  33.849  31.813  1.00  0.00    -0.200 F 
ATOM     72  C   UNL A   1      36.134  33.043  33.680  1.00  0.00     0.200 A 
ATOM     73  F   UNL A   1      37.376  32.229  35.503  1.00  0.00    -0.200 F 
ATOM     74  F   UNL A   1      35.139  33.412  34.497  1.00  0.00    -0.200 F 
ENDBRANCH  50  64
BRANCH  51  75
ATOM     75  C   UNL A   1      45.223  28.165  26.450  1.00  0.00     0.064 A 
ATOM     76  C   UNL A   1      46.327  27.240  26.507  1.00  0.00     0.173 A 
ATOM     77  C   UNL A   1      44.122  27.635  25.789  1.00  0.00     0.173 A 
ATOM     78  F   UNL A   1      47.455  27.582  27.122  1.00  0.00    -0.203 F 
ATOM     79  C   UNL A   1      46.324  25.917  26.072  1.00  0.00     0.198 A 
ATOM     80  C   UNL A   1      44.118  26.293  25.305  1.00  0.00     0.198 A 
ATOM     81  F   UNL A   1      43.000  28.354  25.675  1.00  0.00    -0.203 F 
ATOM     82  F   UNL A   1      47.379  25.125  26.329  1.00  0.00    -0.200 F 
ATOM     83  C   UNL A   1      45.205  25.435  25.464  1.00  0.00     0.200 A 
ATOM     84  F   UNL A   1      42.999  25.786  24.769  1.00  0.00    -0.200 F 
ATOM     85  F   UNL A   1      45.143  24.144  25.109  1.00  0.00    -0.200 F 
ENDBRANCH  51  75
BRANCH  63  86
ATOM     86  C   UNL A   1      43.400  35.239  28.581  1.00  0.00     0.064 A 
ATOM     87  C   UNL A   1      42.660  35.932  27.629  1.00  0.00     0.173 A 
ATOM     88  C   UNL A   1      44.159  36.046  29.477  1.00  0.00     0.173 A 
ATOM     89  F   UNL A   1      42.118  35.297  26.581  1.00  0.00    -0.203 F 
ATOM     90  C   UNL A   1      42.480  37.313  27.729  1.00  0.00     0.198 A 
ATOM     91  C   UNL A   1      44.035  37.424  29.530  1.00  0.00     0.198 A 
ATOM     92  F   UNL A   1      45.025  35.527  30.359  1.00  0.00    -0.203 F 
ATOM     93  F   UNL A   1      41.638  37.930  26.890  1.00  0.00    -0.200 F 
ATOM     94  C   UNL A   1      43.140  38.052  28.700  1.00  0.00     0.200 A 
ATOM     95  F   UNL A   1      44.754  38.121  30.421  1.00  0.00    -0.200 F 
ATOM     96  F   UNL A   1      42.912  39.364  28.835  1.00  0.00    -0.200 F 
ENDBRANCH  63  86
ENDBRANCH  37  38
ENDBRANCH  30  32
ENDBRANCH  29  30
ENDBRANCH  28  29
ENDBRANCH  27  28
ENDBRANCH  26  27
ENDBRANCH  25  26
ENDBRANCH  24  25
ENDBRANCH  23  24
ENDBRANCH   1  23
TORSDOF 24
ENDMDL
