MODEL 1
REMARK VINA RESULT:      -9.7      0.000      0.000
REMARK SMILES COc1ccc(-c2ccc3n(c2=O)C[C@H]2C[C@@H]3CN(C(=O)CCCC(=O)OCCOCCOCCOCCOC(=O)c3ccc(-c4c5nc(c(-c6c(F)c(F)c(F)c(F)c6F)c6ccc([nH]6)c(-c6c(F)c(F)c(F)c(F)c6F)c6nc(c(-c7c(F)c(F)c(F)c(F)c7F)c7ccc4[nH]7)C=C6)C=C5)cc3)C2)cc1
REMARK SMILES IDX 31 1 30 2 29 3 28 4 27 5 25 6 26 7 24 8 23 9 22 10 20 11
REMARK SMILES IDX 21 12 19 13 7 14 8 15 12 16 9 17 11 18 13 19 10 20 14 21
REMARK SMILES IDX 17 22 15 23 16 24 18 25 105 26 6 27 3 28 4 29 107 30 5 31
REMARK SMILES IDX 106 32 2 33 1 34 32 35 33 36 34 37 35 38 36 39 37 40 38 41
REMARK SMILES IDX 39 42 40 43 41 44 42 45 43 46 104 47 44 48 103 49 45 50
REMARK SMILES IDX 46 51 47 52 97 53 48 54 102 55 96 56 98 57 49 58 101 59
REMARK SMILES IDX 95 60 94 61 50 63 82 64 62 65 81 66 63 67 66 68 80 69 99 70
REMARK SMILES IDX 64 71 65 72 79 74 100 75 67 76 51 77 52 78 60 79 53 80 54 81
REMARK SMILES IDX 58 82 61 83 55 84 56 85 59 86 57 87 83 88 84 89 92 90 85 91
REMARK SMILES IDX 86 92 90 93 93 94 87 95 88 96 91 97 89 98 68 99 69 100
REMARK SMILES IDX 77 101 70 102 71 103 75 104 78 105 72 106 73 107 76 108
REMARK SMILES IDX 74 109
REMARK H PARENT 98 62 66 73
REMARK Flexibility Score: inf
ROOT
ATOM      1  C   UNL A   1      40.323  26.180  26.887  1.00  0.00     0.188 C 
ENDROOT
BRANCH   1   2
ATOM      2  O   UNL A   1      39.073  25.530  27.013  1.00  0.00    -0.376 OA
BRANCH   2   3
ATOM      3  C   UNL A   1      38.790  24.204  26.633  1.00  0.00     0.202 C 
BRANCH   3   4
ATOM      4  C   UNL A   1      37.443  23.744  26.089  1.00  0.00     0.261 C 
BRANCH   4   5
ATOM      5  O   UNL A   1      37.451  23.177  24.784  1.00  0.00    -0.463 OA
BRANCH   5   6
ATOM      6  C   UNL A   1      36.344  23.367  24.028  1.00  0.00     0.305 C 
ATOM      7  O   UNL A   1      36.321  23.156  22.822  1.00  0.00    -0.252 OA
BRANCH   6   8
ATOM      8  C   UNL A   1      35.136  23.871  24.813  1.00  0.00     0.123 C 
BRANCH   8   9
ATOM      9  C   UNL A   1      34.982  25.280  25.421  1.00  0.00     0.022 C 
BRANCH   9  10
ATOM     10  C   UNL A   1      34.328  26.438  24.662  1.00  0.00     0.101 C 
BRANCH  10  11
ATOM     11  C   UNL A   1      33.246  27.165  25.451  1.00  0.00     0.222 C 
ATOM     12  O   UNL A   1      33.578  27.988  26.308  1.00  0.00    -0.275 OA
BRANCH  11  13
ATOM     13  N   UNL A   1      31.915  26.876  25.190  1.00  0.00    -0.342 N 
ATOM     14  C   UNL A   1      32.177  21.823  25.180  1.00  0.00     0.047 A 
ATOM     15  C   UNL A   1      31.846  22.204  26.424  1.00  0.00     0.016 A 
ATOM     16  C   UNL A   1      31.754  22.697  24.032  1.00  0.00     0.258 A 
ATOM     17  C   UNL A   1      31.103  23.410  26.674  1.00  0.00     0.023 A 
ATOM     18  N   UNL A   1      31.034  23.862  24.355  1.00  0.00    -0.311 N 
ATOM     19  O   UNL A   1      32.037  22.382  22.876  1.00  0.00    -0.269 OA
ATOM     20  C   UNL A   1      30.712  24.208  25.667  1.00  0.00     0.026 A 
ATOM     21  C   UNL A   1      30.544  24.661  23.236  1.00  0.00     0.131 C 
ATOM     22  C   UNL A   1      29.985  25.520  25.954  1.00  0.00     0.056 C 
ATOM     23  C   UNL A   1      30.114  26.094  23.575  1.00  0.00     0.029 C 
ATOM     24  C   UNL A   1      29.167  26.014  24.755  1.00  0.00     0.019 C 
ATOM     25  C   UNL A   1      31.019  26.607  26.312  1.00  0.00     0.129 C 
ATOM     26  C   UNL A   1      31.272  27.050  23.901  1.00  0.00     0.125 C 
BRANCH  14  27
ATOM     27  C   UNL A   1      32.911  20.560  24.968  1.00  0.00    -0.013 A 
ATOM     28  C   UNL A   1      34.357  18.173  24.545  1.00  0.00     0.118 A 
ATOM     29  C   UNL A   1      32.961  18.174  24.513  1.00  0.00     0.047 A 
ATOM     30  C   UNL A   1      35.031  19.369  24.781  1.00  0.00     0.047 A 
ATOM     31  C   UNL A   1      32.239  19.354  24.734  1.00  0.00     0.013 A 
ATOM     32  C   UNL A   1      34.313  20.552  24.990  1.00  0.00     0.013 A 
BRANCH  28  33
ATOM     33  O   UNL A   1      34.947  16.964  24.297  1.00  0.00    -0.497 OA
ATOM     34  C   UNL A   1      34.564  15.889  25.148  1.00  0.00     0.278 C 
ENDBRANCH  28  33
ENDBRANCH  14  27
ENDBRANCH  11  13
ENDBRANCH  10  11
ENDBRANCH   9  10
ENDBRANCH   8   9
ENDBRANCH   6   8
ENDBRANCH   5   6
ENDBRANCH   4   5
ENDBRANCH   3   4
ENDBRANCH   2   3
ENDBRANCH   1   2
BRANCH   1  35
ATOM     35  C   UNL A   1      41.491  25.360  26.275  1.00  0.00     0.188 C 
BRANCH  35  36
ATOM     36  O   UNL A   1      42.401  24.583  27.040  1.00  0.00    -0.377 OA
BRANCH  36  37
ATOM     37  C   UNL A   1      42.710  23.286  26.568  1.00  0.00     0.188 C 
BRANCH  37  38
ATOM     38  C   UNL A   1      42.808  23.247  25.035  1.00  0.00     0.188 C 
BRANCH  38  39
ATOM     39  O   UNL A   1      43.492  22.103  24.546  1.00  0.00    -0.376 OA
BRANCH  39  40
ATOM     40  C   UNL A   1      44.420  21.423  25.380  1.00  0.00     0.202 C 
BRANCH  40  41
ATOM     41  C   UNL A   1      45.906  21.827  25.457  1.00  0.00     0.261 C 
BRANCH  41  42
ATOM     42  O   UNL A   1      46.217  23.098  26.049  1.00  0.00    -0.460 OA
BRANCH  42  43
ATOM     43  C   UNL A   1      46.352  24.161  25.238  1.00  0.00     0.338 C 
ATOM     44  O   UNL A   1      46.684  24.165  24.064  1.00  0.00    -0.246 OA
BRANCH  43  45
ATOM     45  C   UNL A   1      45.808  25.331  25.958  1.00  0.00     0.060 A 
ATOM     46  C   UNL A   1      45.107  26.303  25.231  1.00  0.00     0.016 A 
ATOM     47  C   UNL A   1      45.968  25.457  27.340  1.00  0.00     0.016 A 
ATOM     48  C   UNL A   1      44.595  27.425  25.878  1.00  0.00     0.010 A 
ATOM     49  C   UNL A   1      45.491  26.601  27.983  1.00  0.00     0.010 A 
ATOM     50  C   UNL A   1      44.840  27.605  27.244  1.00  0.00    -0.014 A 
BRANCH  50  51
ATOM     51  C   UNL A   1      44.658  28.955  27.823  1.00  0.00     0.031 A 
ATOM     52  C   UNL A   1      45.784  29.938  27.660  1.00  0.00     0.074 A 
ATOM     53  C   UNL A   1      43.513  29.317  28.424  1.00  0.00     0.049 A 
ATOM     54  N   UNL A   1      45.887  31.168  28.091  1.00  0.00    -0.248 NA
ATOM     55  C   UNL A   1      46.954  29.466  26.901  1.00  0.00     0.031 C 
ATOM     56  C   UNL A   1      42.335  28.468  28.583  1.00  0.00     0.029 A 
ATOM     57  N   UNL A   1      43.160  30.503  29.017  1.00  0.00    -0.354 N 
ATOM     58  C   UNL A   1      47.130  31.611  27.663  1.00  0.00     0.074 A 
ATOM     59  C   UNL A   1      47.761  30.513  26.965  1.00  0.00     0.031 C 
ATOM     60  C   UNL A   1      41.390  29.159  29.245  1.00  0.00     0.029 A 
ATOM     61  C   UNL A   1      41.912  30.483  29.585  1.00  0.00     0.049 A 
ATOM     62  H   UNL A   1      43.747  31.293  29.031  1.00  0.00     0.167 HD
ATOM     63  C   UNL A   1      47.693  32.830  27.828  1.00  0.00     0.037 A 
ATOM     64  C   UNL A   1      41.281  31.421  30.317  1.00  0.00     0.037 A 
ATOM     65  C   UNL A   1      47.064  33.915  28.530  1.00  0.00     0.049 A 
ATOM     66  C   UNL A   1      41.969  32.741  30.569  1.00  0.00     0.074 A 
ATOM     67  C   UNL A   1      47.543  35.192  28.754  1.00  0.00     0.029 A 
ATOM     68  N   UNL A   1      45.816  33.843  29.135  1.00  0.00    -0.354 N 
ATOM     69  N   UNL A   1      43.137  33.164  30.146  1.00  0.00    -0.248 NA
ATOM     70  C   UNL A   1      41.248  33.715  31.401  1.00  0.00     0.031 C 
ATOM     71  C   UNL A   1      46.614  35.873  29.546  1.00  0.00     0.029 A 
ATOM     72  C   UNL A   1      45.524  35.044  29.758  1.00  0.00     0.049 A 
ATOM     73  H   UNL A   1      45.227  33.054  29.123  1.00  0.00     0.167 HD
ATOM     74  C   UNL A   1      43.274  34.461  30.629  1.00  0.00     0.074 A 
ATOM     75  C   UNL A   1      42.064  34.759  31.366  1.00  0.00     0.031 C 
ATOM     76  C   UNL A   1      44.307  35.326  30.477  1.00  0.00     0.037 A 
BRANCH  63  77
ATOM     77  C   UNL A   1      49.073  33.037  27.275  1.00  0.00     0.064 A 
ATOM     78  C   UNL A   1      49.296  33.734  26.078  1.00  0.00     0.173 A 
ATOM     79  C   UNL A   1      50.192  32.544  27.965  1.00  0.00     0.173 A 
ATOM     80  F   UNL A   1      48.260  34.210  25.370  1.00  0.00    -0.203 F 
ATOM     81  C   UNL A   1      50.584  33.907  25.579  1.00  0.00     0.198 A 
ATOM     82  C   UNL A   1      51.480  32.748  27.479  1.00  0.00     0.198 A 
ATOM     83  F   UNL A   1      50.035  31.868  29.113  1.00  0.00    -0.203 F 
ATOM     84  F   UNL A   1      50.769  34.532  24.407  1.00  0.00    -0.200 F 
ATOM     85  C   UNL A   1      51.676  33.422  26.284  1.00  0.00     0.200 A 
ATOM     86  F   UNL A   1      52.533  32.289  28.170  1.00  0.00    -0.200 F 
ATOM     87  F   UNL A   1      52.915  33.597  25.807  1.00  0.00    -0.200 F 
ENDBRANCH  63  77
BRANCH  64  88
ATOM     88  C   UNL A   1      39.932  31.148  30.882  1.00  0.00     0.064 A 
ATOM     89  C   UNL A   1      39.777  30.423  32.072  1.00  0.00     0.173 A 
ATOM     90  C   UNL A   1      38.768  31.578  30.226  1.00  0.00     0.173 A 
ATOM     91  F   UNL A   1      40.856  29.967  32.724  1.00  0.00    -0.203 F 
ATOM     92  C   UNL A   1      38.511  30.119  32.570  1.00  0.00     0.198 A 
ATOM     93  C   UNL A   1      37.505  31.303  30.743  1.00  0.00     0.198 A 
ATOM     94  F   UNL A   1      38.860  32.273  29.083  1.00  0.00    -0.203 F 
ATOM     95  F   UNL A   1      38.391  29.380  33.681  1.00  0.00    -0.200 F 
ATOM     96  C   UNL A   1      37.376  30.565  31.910  1.00  0.00     0.200 A 
ATOM     97  F   UNL A   1      36.412  31.749  30.109  1.00  0.00    -0.200 F 
ATOM     98  F   UNL A   1      36.160  30.276  32.392  1.00  0.00    -0.200 F 
ENDBRANCH  64  88
BRANCH  76  99
ATOM     99  C   UNL A   1      44.157  36.697  31.076  1.00  0.00     0.064 A 
ATOM    100  C   UNL A   1      44.442  36.952  32.425  1.00  0.00     0.173 A 
ATOM    101  C   UNL A   1      43.768  37.780  30.272  1.00  0.00     0.173 A 
ATOM    102  F   UNL A   1      44.807  35.950  33.239  1.00  0.00    -0.203 F 
ATOM    103  C   UNL A   1      44.314  38.234  32.953  1.00  0.00     0.198 A 
ATOM    104  C   UNL A   1      43.677  39.067  30.794  1.00  0.00     0.198 A 
ATOM    105  F   UNL A   1      43.494  37.595  28.971  1.00  0.00    -0.203 F 
ATOM    106  F   UNL A   1      44.540  38.445  34.258  1.00  0.00    -0.200 F 
ATOM    107  C   UNL A   1      43.941  39.291  32.136  1.00  0.00     0.200 A 
ATOM    108  F   UNL A   1      43.335  40.089  29.999  1.00  0.00    -0.200 F 
ATOM    109  F   UNL A   1      43.828  40.526  32.645  1.00  0.00    -0.200 F 
ENDBRANCH  76  99
ENDBRANCH  50  51
ENDBRANCH  43  45
ENDBRANCH  42  43
ENDBRANCH  41  42
ENDBRANCH  40  41
ENDBRANCH  39  40
ENDBRANCH  38  39
ENDBRANCH  37  38
ENDBRANCH  36  37
ENDBRANCH  35  36
ENDBRANCH   1  35
TORSDOF 26
ENDMDL
MODEL 2
REMARK VINA RESULT:      -9.7      5.473      9.763
REMARK SMILES COc1ccc(-c2ccc3n(c2=O)C[C@H]2C[C@@H]3CN(C(=O)CCCC(=O)OCCOCCOCCOCCOC(=O)c3ccc(-c4c5nc(c(-c6c(F)c(F)c(F)c(F)c6F)c6ccc([nH]6)c(-c6c(F)c(F)c(F)c(F)c6F)c6nc(c(-c7c(F)c(F)c(F)c(F)c7F)c7ccc4[nH]7)C=C6)C=C5)cc3)C2)cc1
REMARK SMILES IDX 31 1 30 2 29 3 28 4 27 5 25 6 26 7 24 8 23 9 22 10 20 11
REMARK SMILES IDX 21 12 19 13 7 14 8 15 12 16 9 17 11 18 13 19 10 20 14 21
REMARK SMILES IDX 17 22 15 23 16 24 18 25 105 26 6 27 3 28 4 29 107 30 5 31
REMARK SMILES IDX 106 32 2 33 1 34 32 35 33 36 34 37 35 38 36 39 37 40 38 41
REMARK SMILES IDX 39 42 40 43 41 44 42 45 43 46 104 47 44 48 103 49 45 50
REMARK SMILES IDX 46 51 47 52 97 53 48 54 102 55 96 56 98 57 49 58 101 59
REMARK SMILES IDX 95 60 94 61 50 63 82 64 62 65 81 66 63 67 66 68 80 69 99 70
REMARK SMILES IDX 64 71 65 72 79 74 100 75 67 76 51 77 52 78 60 79 53 80 54 81
REMARK SMILES IDX 58 82 61 83 55 84 56 85 59 86 57 87 83 88 84 89 92 90 85 91
REMARK SMILES IDX 86 92 90 93 93 94 87 95 88 96 91 97 89 98 68 99 69 100
REMARK SMILES IDX 77 101 70 102 71 103 75 104 78 105 72 106 73 107 76 108
REMARK SMILES IDX 74 109
REMARK H PARENT 98 62 66 73
REMARK Flexibility Score: inf
ROOT
ATOM      1  C   UNL A   1      39.677  24.354  27.928  1.00  0.00     0.188 C 
ENDROOT
BRANCH   1   2
ATOM      2  O   UNL A   1      40.136  23.577  26.838  1.00  0.00    -0.376 OA
BRANCH   2   3
ATOM      3  C   UNL A   1      39.710  22.275  26.515  1.00  0.00     0.202 C 
BRANCH   3   4
ATOM      4  C   UNL A   1      38.423  21.963  25.760  1.00  0.00     0.261 C 
BRANCH   4   5
ATOM      5  O   UNL A   1      37.614  23.079  25.408  1.00  0.00    -0.463 OA
BRANCH   5   6
ATOM      6  C   UNL A   1      36.332  22.819  25.059  1.00  0.00     0.305 C 
ATOM      7  O   UNL A   1      36.030  22.268  24.008  1.00  0.00    -0.252 OA
BRANCH   6   8
ATOM      8  C   UNL A   1      35.303  23.278  26.090  1.00  0.00     0.123 C 
BRANCH   8   9
ATOM      9  C   UNL A   1      34.240  24.374  25.873  1.00  0.00     0.022 C 
BRANCH   9  10
ATOM     10  C   UNL A   1      34.604  25.813  25.496  1.00  0.00     0.101 C 
BRANCH  10  11
ATOM     11  C   UNL A   1      33.511  26.830  25.797  1.00  0.00     0.222 C 
ATOM     12  O   UNL A   1      33.706  27.681  26.669  1.00  0.00    -0.275 OA
BRANCH  11  13
ATOM     13  N   UNL A   1      32.321  26.767  25.087  1.00  0.00    -0.342 N 
ATOM     14  C   UNL A   1      32.037  21.758  24.435  1.00  0.00     0.047 A 
ATOM     15  C   UNL A   1      31.351  22.056  25.551  1.00  0.00     0.016 A 
ATOM     16  C   UNL A   1      32.117  22.796  23.350  1.00  0.00     0.258 A 
ATOM     17  C   UNL A   1      30.699  23.327  25.721  1.00  0.00     0.023 A 
ATOM     18  N   UNL A   1      31.457  24.016  23.592  1.00  0.00    -0.311 N 
ATOM     19  O   UNL A   1      32.735  22.562  22.312  1.00  0.00    -0.269 OA
ATOM     20  C   UNL A   1      30.753  24.271  24.768  1.00  0.00     0.026 A 
ATOM     21  C   UNL A   1      31.457  24.987  22.502  1.00  0.00     0.131 C 
ATOM     22  C   UNL A   1      30.116  25.640  24.994  1.00  0.00     0.056 C 
ATOM     23  C   UNL A   1      31.092  26.426  22.889  1.00  0.00     0.029 C 
ATOM     24  C   UNL A   1      29.802  26.367  23.681  1.00  0.00     0.019 C 
ATOM     25  C   UNL A   1      31.079  26.521  25.815  1.00  0.00     0.129 C 
ATOM     26  C   UNL A   1      32.168  27.163  23.700  1.00  0.00     0.125 C 
BRANCH  14  27
ATOM     27  C   UNL A   1      32.662  20.429  24.288  1.00  0.00    -0.013 A 
ATOM     28  C   UNL A   1      33.903  17.908  24.023  1.00  0.00     0.118 A 
ATOM     29  C   UNL A   1      32.772  18.225  23.271  1.00  0.00     0.047 A 
ATOM     30  C   UNL A   1      34.420  18.855  24.905  1.00  0.00     0.047 A 
ATOM     31  C   UNL A   1      32.146  19.471  23.407  1.00  0.00     0.013 A 
ATOM     32  C   UNL A   1      33.804  20.105  25.035  1.00  0.00     0.013 A 
BRANCH  28  33
ATOM     33  O   UNL A   1      34.435  16.669  23.788  1.00  0.00    -0.497 OA
ATOM     34  C   UNL A   1      34.977  15.992  24.916  1.00  0.00     0.278 C 
ENDBRANCH  28  33
ENDBRANCH  14  27
ENDBRANCH  11  13
ENDBRANCH  10  11
ENDBRANCH   9  10
ENDBRANCH   8   9
ENDBRANCH   6   8
ENDBRANCH   5   6
ENDBRANCH   4   5
ENDBRANCH   3   4
ENDBRANCH   2   3
ENDBRANCH   1   2
BRANCH   1  35
ATOM     35  C   UNL A   1      39.535  25.883  27.700  1.00  0.00     0.188 C 
BRANCH  35  36
ATOM     36  O   UNL A   1      40.239  26.604  26.699  1.00  0.00    -0.377 OA
BRANCH  36  37
ATOM     37  C   UNL A   1      40.845  27.825  27.078  1.00  0.00     0.188 C 
BRANCH  37  38
ATOM     38  C   UNL A   1      39.827  28.975  27.124  1.00  0.00     0.188 C 
BRANCH  38  39
ATOM     39  O   UNL A   1      39.141  29.067  28.364  1.00  0.00    -0.376 OA
BRANCH  39  40
ATOM     40  C   UNL A   1      37.730  29.234  28.381  1.00  0.00     0.202 C 
BRANCH  40  41
ATOM     41  C   UNL A   1      37.007  29.998  29.509  1.00  0.00     0.261 C 
BRANCH  41  42
ATOM     42  O   UNL A   1      36.883  29.341  30.780  1.00  0.00    -0.460 OA
BRANCH  42  43
ATOM     43  C   UNL A   1      37.242  30.020  31.883  1.00  0.00     0.338 C 
ATOM     44  O   UNL A   1      36.563  30.797  32.534  1.00  0.00    -0.246 OA
BRANCH  43  45
ATOM     45  C   UNL A   1      38.552  29.489  32.314  1.00  0.00     0.060 A 
ATOM     46  C   UNL A   1      39.619  30.384  32.482  1.00  0.00     0.016 A 
ATOM     47  C   UNL A   1      38.723  28.127  32.568  1.00  0.00     0.016 A 
ATOM     48  C   UNL A   1      40.870  29.914  32.871  1.00  0.00     0.010 A 
ATOM     49  C   UNL A   1      39.987  27.649  32.919  1.00  0.00     0.010 A 
ATOM     50  C   UNL A   1      41.071  28.538  33.031  1.00  0.00    -0.014 A 
BRANCH  50  51
ATOM     51  C   UNL A   1      42.458  28.023  33.039  1.00  0.00     0.031 A 
ATOM     52  C   UNL A   1      43.130  27.860  34.374  1.00  0.00     0.074 A 
ATOM     53  C   UNL A   1      43.084  27.659  31.908  1.00  0.00     0.049 A 
ATOM     54  N   UNL A   1      44.341  27.455  34.655  1.00  0.00    -0.248 NA
ATOM     55  C   UNL A   1      42.319  28.200  35.556  1.00  0.00     0.031 C 
ATOM     56  C   UNL A   1      42.508  27.715  30.567  1.00  0.00     0.029 A 
ATOM     57  N   UNL A   1      44.351  27.170  31.714  1.00  0.00    -0.354 N 
ATOM     58  C   UNL A   1      44.437  27.497  36.039  1.00  0.00     0.074 A 
ATOM     59  C   UNL A   1      43.177  27.996  36.543  1.00  0.00     0.031 C 
ATOM     60  C   UNL A   1      43.427  27.289  29.683  1.00  0.00     0.029 A 
ATOM     61  C   UNL A   1      44.664  26.964  30.395  1.00  0.00     0.049 A 
ATOM     62  H   UNL A   1      44.975  26.984  32.452  1.00  0.00     0.167 HD
ATOM     63  C   UNL A   1      45.481  27.142  36.822  1.00  0.00     0.037 A 
ATOM     64  C   UNL A   1      45.827  26.583  29.832  1.00  0.00     0.037 A 
ATOM     65  C   UNL A   1      46.735  26.654  36.315  1.00  0.00     0.049 A 
ATOM     66  C   UNL A   1      47.009  26.283  30.722  1.00  0.00     0.074 A 
ATOM     67  C   UNL A   1      47.858  26.262  37.019  1.00  0.00     0.029 A 
ATOM     68  N   UNL A   1      47.033  26.503  34.967  1.00  0.00    -0.354 N 
ATOM     69  N   UNL A   1      47.091  26.305  32.031  1.00  0.00    -0.248 NA
ATOM     70  C   UNL A   1      48.262  25.903  30.053  1.00  0.00     0.031 C 
ATOM     71  C   UNL A   1      48.857  25.935  36.098  1.00  0.00     0.029 A 
ATOM     72  C   UNL A   1      48.334  26.054  34.820  1.00  0.00     0.049 A 
ATOM     73  H   UNL A   1      46.411  26.689  34.226  1.00  0.00     0.167 HD
ATOM     74  C   UNL A   1      48.387  25.910  32.342  1.00  0.00     0.074 A 
ATOM     75  C   UNL A   1      49.052  25.641  31.084  1.00  0.00     0.031 C 
ATOM     76  C   UNL A   1      48.974  25.780  33.558  1.00  0.00     0.037 A 
BRANCH  63  77
ATOM     77  C   UNL A   1      45.323  27.308  38.306  1.00  0.00     0.064 A 
ATOM     78  C   UNL A   1      44.836  26.274  39.120  1.00  0.00     0.173 A 
ATOM     79  C   UNL A   1      45.682  28.516  38.923  1.00  0.00     0.173 A 
ATOM     80  F   UNL A   1      44.461  25.106  38.578  1.00  0.00    -0.203 F 
ATOM     81  C   UNL A   1      44.690  26.454  40.494  1.00  0.00     0.198 A 
ATOM     82  C   UNL A   1      45.565  28.679  40.301  1.00  0.00     0.198 A 
ATOM     83  F   UNL A   1      46.151  29.538  38.191  1.00  0.00    -0.203 F 
ATOM     84  F   UNL A   1      44.174  25.470  41.245  1.00  0.00    -0.200 F 
ATOM     85  C   UNL A   1      45.063  27.652  41.084  1.00  0.00     0.200 A 
ATOM     86  F   UNL A   1      45.939  29.834  40.869  1.00  0.00    -0.200 F 
ATOM     87  F   UNL A   1      44.930  27.819  42.406  1.00  0.00    -0.200 F 
ENDBRANCH  63  77
BRANCH  64  88
ATOM     88  C   UNL A   1      45.945  26.479  28.353  1.00  0.00     0.064 A 
ATOM     89  C   UNL A   1      45.816  25.246  27.699  1.00  0.00     0.173 A 
ATOM     90  C   UNL A   1      46.222  27.607  27.565  1.00  0.00     0.173 A 
ATOM     91  F   UNL A   1      45.576  24.133  28.408  1.00  0.00    -0.203 F 
ATOM     92  C   UNL A   1      45.981  25.141  26.319  1.00  0.00     0.198 A 
ATOM     93  C   UNL A   1      46.354  27.507  26.182  1.00  0.00     0.198 A 
ATOM     94  F   UNL A   1      46.357  28.811  28.140  1.00  0.00    -0.203 F 
ATOM     95  F   UNL A   1      45.905  23.942  25.726  1.00  0.00    -0.200 F 
ATOM     96  C   UNL A   1      46.244  26.272  25.560  1.00  0.00     0.200 A 
ATOM     97  F   UNL A   1      46.593  28.605  25.452  1.00  0.00    -0.200 F 
ATOM     98  F   UNL A   1      46.399  26.172  24.234  1.00  0.00    -0.200 F 
ENDBRANCH  64  88
BRANCH  76  99
ATOM     99  C   UNL A   1      50.392  25.280  33.593  1.00  0.00     0.064 A 
ATOM    100  C   UNL A   1      50.696  23.912  33.640  1.00  0.00     0.173 A 
ATOM    101  C   UNL A   1      51.461  26.187  33.531  1.00  0.00     0.173 A 
ATOM    102  F   UNL A   1      49.710  23.004  33.713  1.00  0.00    -0.203 F 
ATOM    103  C   UNL A   1      52.017  23.472  33.654  1.00  0.00     0.198 A 
ATOM    104  C   UNL A   1      52.780  25.743  33.507  1.00  0.00     0.198 A 
ATOM    105  F   UNL A   1      51.228  27.507  33.473  1.00  0.00    -0.203 F 
ATOM    106  F   UNL A   1      52.284  22.163  33.753  1.00  0.00    -0.200 F 
ATOM    107  C   UNL A   1      53.057  24.387  33.578  1.00  0.00     0.200 A 
ATOM    108  F   UNL A   1      53.783  26.627  33.415  1.00  0.00    -0.200 F 
ATOM    109  F   UNL A   1      54.327  23.960  33.580  1.00  0.00    -0.200 F 
ENDBRANCH  76  99
ENDBRANCH  50  51
ENDBRANCH  43  45
ENDBRANCH  42  43
ENDBRANCH  41  42
ENDBRANCH  40  41
ENDBRANCH  39  40
ENDBRANCH  38  39
ENDBRANCH  37  38
ENDBRANCH  36  37
ENDBRANCH  35  36
ENDBRANCH   1  35
TORSDOF 26
ENDMDL
MODEL 3
REMARK VINA RESULT:      -9.6      5.250      8.830
REMARK SMILES COc1ccc(-c2ccc3n(c2=O)C[C@H]2C[C@@H]3CN(C(=O)CCCC(=O)OCCOCCOCCOCCOC(=O)c3ccc(-c4c5nc(c(-c6c(F)c(F)c(F)c(F)c6F)c6ccc([nH]6)c(-c6c(F)c(F)c(F)c(F)c6F)c6nc(c(-c7c(F)c(F)c(F)c(F)c7F)c7ccc4[nH]7)C=C6)C=C5)cc3)C2)cc1
REMARK SMILES IDX 31 1 30 2 29 3 28 4 27 5 25 6 26 7 24 8 23 9 22 10 20 11
REMARK SMILES IDX 21 12 19 13 7 14 8 15 12 16 9 17 11 18 13 19 10 20 14 21
REMARK SMILES IDX 17 22 15 23 16 24 18 25 105 26 6 27 3 28 4 29 107 30 5 31
REMARK SMILES IDX 106 32 2 33 1 34 32 35 33 36 34 37 35 38 36 39 37 40 38 41
REMARK SMILES IDX 39 42 40 43 41 44 42 45 43 46 104 47 44 48 103 49 45 50
REMARK SMILES IDX 46 51 47 52 97 53 48 54 102 55 96 56 98 57 49 58 101 59
REMARK SMILES IDX 95 60 94 61 50 63 82 64 62 65 81 66 63 67 66 68 80 69 99 70
REMARK SMILES IDX 64 71 65 72 79 74 100 75 67 76 51 77 52 78 60 79 53 80 54 81
REMARK SMILES IDX 58 82 61 83 55 84 56 85 59 86 57 87 83 88 84 89 92 90 85 91
REMARK SMILES IDX 86 92 90 93 93 94 87 95 88 96 91 97 89 98 68 99 69 100
REMARK SMILES IDX 77 101 70 102 71 103 75 104 78 105 72 106 73 107 76 108
REMARK SMILES IDX 74 109
REMARK H PARENT 98 62 66 73
REMARK Flexibility Score: inf
ROOT
ATOM      1  C   UNL A   1      39.784  24.447  27.991  1.00  0.00     0.188 C 
ENDROOT
BRANCH   1   2
ATOM      2  O   UNL A   1      40.240  23.647  26.917  1.00  0.00    -0.376 OA
BRANCH   2   3
ATOM      3  C   UNL A   1      39.721  22.393  26.543  1.00  0.00     0.202 C 
BRANCH   3   4
ATOM      4  C   UNL A   1      38.437  22.206  25.744  1.00  0.00     0.261 C 
BRANCH   4   5
ATOM      5  O   UNL A   1      37.733  23.395  25.397  1.00  0.00    -0.463 OA
BRANCH   5   6
ATOM      6  C   UNL A   1      36.467  23.245  24.945  1.00  0.00     0.305 C 
ATOM      7  O   UNL A   1      36.207  22.961  23.782  1.00  0.00    -0.252 OA
BRANCH   6   8
ATOM      8  C   UNL A   1      35.396  23.467  26.011  1.00  0.00     0.123 C 
BRANCH   8   9
ATOM      9  C   UNL A   1      34.277  24.526  25.955  1.00  0.00     0.022 C 
BRANCH   9  10
ATOM     10  C   UNL A   1      34.543  25.987  25.579  1.00  0.00     0.101 C 
BRANCH  10  11
ATOM     11  C   UNL A   1      33.409  26.938  25.937  1.00  0.00     0.222 C 
ATOM     12  O   UNL A   1      33.590  27.785  26.816  1.00  0.00    -0.275 OA
BRANCH  11  13
ATOM     13  N   UNL A   1      32.198  26.821  25.271  1.00  0.00    -0.342 N 
ATOM     14  C   UNL A   1      32.112  21.802  24.633  1.00  0.00     0.047 A 
ATOM     15  C   UNL A   1      31.455  22.072  25.773  1.00  0.00     0.016 A 
ATOM     16  C   UNL A   1      32.107  22.840  23.545  1.00  0.00     0.258 A 
ATOM     17  C   UNL A   1      30.754  23.314  25.965  1.00  0.00     0.023 A 
ATOM     18  N   UNL A   1      31.404  24.030  23.810  1.00  0.00    -0.311 N 
ATOM     19  O   UNL A   1      32.698  22.631  22.486  1.00  0.00    -0.269 OA
ATOM     20  C   UNL A   1      30.732  24.257  25.011  1.00  0.00     0.026 A 
ATOM     21  C   UNL A   1      31.321  24.998  22.720  1.00  0.00     0.131 C 
ATOM     22  C   UNL A   1      30.043  25.597  25.258  1.00  0.00     0.056 C 
ATOM     23  C   UNL A   1      30.907  26.420  23.118  1.00  0.00     0.029 C 
ATOM     24  C   UNL A   1      29.650  26.306  23.957  1.00  0.00     0.019 C 
ATOM     25  C   UNL A   1      30.995  26.521  26.043  1.00  0.00     0.129 C 
ATOM     26  C   UNL A   1      31.978  27.206  23.890  1.00  0.00     0.125 C 
BRANCH  14  27
ATOM     27  C   UNL A   1      32.790  20.502  24.466  1.00  0.00    -0.013 A 
ATOM     28  C   UNL A   1      34.133  18.040  24.146  1.00  0.00     0.118 A 
ATOM     29  C   UNL A   1      32.827  18.203  23.680  1.00  0.00     0.047 A 
ATOM     30  C   UNL A   1      34.772  19.112  24.766  1.00  0.00     0.047 A 
ATOM     31  C   UNL A   1      32.153  19.420  23.847  1.00  0.00     0.013 A 
ATOM     32  C   UNL A   1      34.105  20.333  24.923  1.00  0.00     0.013 A 
BRANCH  28  33
ATOM     33  O   UNL A   1      34.691  16.813  23.907  1.00  0.00    -0.497 OA
ATOM     34  C   UNL A   1      34.969  16.015  25.053  1.00  0.00     0.278 C 
ENDBRANCH  28  33
ENDBRANCH  14  27
ENDBRANCH  11  13
ENDBRANCH  10  11
ENDBRANCH   9  10
ENDBRANCH   8   9
ENDBRANCH   6   8
ENDBRANCH   5   6
ENDBRANCH   4   5
ENDBRANCH   3   4
ENDBRANCH   2   3
ENDBRANCH   1   2
BRANCH   1  35
ATOM     35  C   UNL A   1      39.634  25.970  27.727  1.00  0.00     0.188 C 
BRANCH  35  36
ATOM     36  O   UNL A   1      40.309  26.665  26.689  1.00  0.00    -0.377 OA
BRANCH  36  37
ATOM     37  C   UNL A   1      40.793  27.963  26.978  1.00  0.00     0.188 C 
BRANCH  37  38
ATOM     38  C   UNL A   1      39.677  29.016  26.903  1.00  0.00     0.188 C 
BRANCH  38  39
ATOM     39  O   UNL A   1      38.945  29.145  28.112  1.00  0.00    -0.376 OA
BRANCH  39  40
ATOM     40  C   UNL A   1      37.524  29.148  28.082  1.00  0.00     0.202 C 
BRANCH  40  41
ATOM     41  C   UNL A   1      36.682  29.929  29.112  1.00  0.00     0.261 C 
BRANCH  41  42
ATOM     42  O   UNL A   1      36.489  29.328  30.401  1.00  0.00    -0.460 OA
BRANCH  42  43
ATOM     43  C   UNL A   1      36.742  30.070  31.493  1.00  0.00     0.338 C 
ATOM     44  O   UNL A   1      35.982  30.832  32.068  1.00  0.00    -0.246 OA
BRANCH  43  45
ATOM     45  C   UNL A   1      38.051  29.634  32.022  1.00  0.00     0.060 A 
ATOM     46  C   UNL A   1      39.060  30.592  32.196  1.00  0.00     0.016 A 
ATOM     47  C   UNL A   1      38.275  28.298  32.363  1.00  0.00     0.016 A 
ATOM     48  C   UNL A   1      40.309  30.211  32.677  1.00  0.00     0.010 A 
ATOM     49  C   UNL A   1      39.540  27.908  32.807  1.00  0.00     0.010 A 
ATOM     50  C   UNL A   1      40.570  28.858  32.925  1.00  0.00    -0.014 A 
BRANCH  50  51
ATOM     51  C   UNL A   1      41.978  28.419  33.036  1.00  0.00     0.031 A 
ATOM     52  C   UNL A   1      42.622  27.830  31.812  1.00  0.00     0.074 A 
ATOM     53  C   UNL A   1      42.683  28.585  34.168  1.00  0.00     0.049 A 
ATOM     54  N   UNL A   1      43.827  27.349  31.651  1.00  0.00    -0.248 NA
ATOM     55  C   UNL A   1      41.787  27.781  30.599  1.00  0.00     0.031 C 
ATOM     56  C   UNL A   1      42.181  29.200  35.394  1.00  0.00     0.029 A 
ATOM     57  N   UNL A   1      43.978  28.245  34.463  1.00  0.00    -0.354 N 
ATOM     58  C   UNL A   1      43.891  26.937  30.327  1.00  0.00     0.074 A 
ATOM     59  C   UNL A   1      42.597  27.194  29.734  1.00  0.00     0.031 C 
ATOM     60  C   UNL A   1      43.158  29.181  36.319  1.00  0.00     0.029 A 
ATOM     61  C   UNL A   1      44.338  28.521  35.757  1.00  0.00     0.049 A 
ATOM     62  H   UNL A   1      44.592  27.841  33.807  1.00  0.00     0.167 HD
ATOM     63  C   UNL A   1      44.939  26.400  29.662  1.00  0.00     0.037 A 
ATOM     64  C   UNL A   1      45.482  28.247  36.414  1.00  0.00     0.037 A 
ATOM     65  C   UNL A   1      46.220  26.140  30.260  1.00  0.00     0.049 A 
ATOM     66  C   UNL A   1      46.605  27.561  35.676  1.00  0.00     0.074 A 
ATOM     67  C   UNL A   1      47.353  25.602  29.677  1.00  0.00     0.029 A 
ATOM     68  N   UNL A   1      46.533  26.390  31.589  1.00  0.00    -0.354 N 
ATOM     69  N   UNL A   1      46.670  27.190  34.418  1.00  0.00    -0.248 NA
ATOM     70  C   UNL A   1      47.817  27.256  36.449  1.00  0.00     0.031 C 
ATOM     71  C   UNL A   1      48.330  25.469  30.667  1.00  0.00     0.029 A 
ATOM     72  C   UNL A   1      47.832  25.988  31.851  1.00  0.00     0.049 A 
ATOM     73  H   UNL A   1      45.922  26.793  32.248  1.00  0.00     0.167 HD
ATOM     74  C   UNL A   1      47.936  26.643  34.243  1.00  0.00     0.074 A 
ATOM     75  C   UNL A   1      48.611  26.743  35.520  1.00  0.00     0.031 C 
ATOM     76  C   UNL A   1      48.491  26.108  33.128  1.00  0.00     0.037 A 
BRANCH  63  77
ATOM     77  C   UNL A   1      44.728  26.023  28.224  1.00  0.00     0.064 A 
ATOM     78  C   UNL A   1      44.978  26.922  27.177  1.00  0.00     0.173 A 
ATOM     79  C   UNL A   1      44.286  24.734  27.890  1.00  0.00     0.173 A 
ATOM     80  F   UNL A   1      45.384  28.173  27.442  1.00  0.00    -0.203 F 
ATOM     81  C   UNL A   1      44.767  26.553  25.851  1.00  0.00     0.198 A 
ATOM     82  C   UNL A   1      44.108  24.358  26.562  1.00  0.00     0.198 A 
ATOM     83  F   UNL A   1      44.030  23.835  28.853  1.00  0.00    -0.203 F 
ATOM     84  F   UNL A   1      44.963  27.445  24.869  1.00  0.00    -0.200 F 
ATOM     85  C   UNL A   1      44.341  25.269  25.544  1.00  0.00     0.200 A 
ATOM     86  F   UNL A   1      43.709  23.113  26.268  1.00  0.00    -0.200 F 
ATOM     87  F   UNL A   1      44.148  24.913  24.267  1.00  0.00    -0.200 F 
ENDBRANCH  63  77
BRANCH  64  88
ATOM     88  C   UNL A   1      45.622  28.600  37.852  1.00  0.00     0.064 A 
ATOM     89  C   UNL A   1      46.137  29.843  38.248  1.00  0.00     0.173 A 
ATOM     90  C   UNL A   1      45.276  27.689  38.861  1.00  0.00     0.173 A 
ATOM     91  F   UNL A   1      46.508  30.739  37.322  1.00  0.00    -0.203 F 
ATOM     92  C   UNL A   1      46.321  30.150  39.595  1.00  0.00     0.198 A 
ATOM     93  C   UNL A   1      45.429  28.010  40.208  1.00  0.00     0.198 A 
ATOM     94  F   UNL A   1      44.781  26.485  38.538  1.00  0.00    -0.203 F 
ATOM     95  F   UNL A   1      46.864  31.325  39.943  1.00  0.00    -0.200 F 
ATOM     96  C   UNL A   1      45.960  29.237  40.574  1.00  0.00     0.200 A 
ATOM     97  F   UNL A   1      45.065  27.130  41.151  1.00  0.00    -0.200 F 
ATOM     98  F   UNL A   1      46.133  29.535  41.868  1.00  0.00    -0.200 F 
ENDBRANCH  64  88
BRANCH  76  99
ATOM     99  C   UNL A   1      49.914  25.631  33.221  1.00  0.00     0.064 A 
ATOM    100  C   UNL A   1      51.000  26.490  32.994  1.00  0.00     0.173 A 
ATOM    101  C   UNL A   1      50.192  24.306  33.590  1.00  0.00     0.173 A 
ATOM    102  F   UNL A   1      50.789  27.763  32.627  1.00  0.00    -0.203 F 
ATOM    103  C   UNL A   1      52.310  26.031  33.104  1.00  0.00     0.198 A 
ATOM    104  C   UNL A   1      51.502  23.860  33.735  1.00  0.00     0.198 A 
ATOM    105  F   UNL A   1      49.191  23.445  33.829  1.00  0.00    -0.203 F 
ATOM    106  F   UNL A   1      53.331  26.854  32.830  1.00  0.00    -0.200 F 
ATOM    107  C   UNL A   1      52.560  24.720  33.483  1.00  0.00     0.200 A 
ATOM    108  F   UNL A   1      51.742  22.599  34.119  1.00  0.00    -0.200 F 
ATOM    109  F   UNL A   1      53.822  24.284  33.598  1.00  0.00    -0.200 F 
ENDBRANCH  76  99
ENDBRANCH  50  51
ENDBRANCH  43  45
ENDBRANCH  42  43
ENDBRANCH  41  42
ENDBRANCH  40  41
ENDBRANCH  39  40
ENDBRANCH  38  39
ENDBRANCH  37  38
ENDBRANCH  36  37
ENDBRANCH  35  36
ENDBRANCH   1  35
TORSDOF 26
ENDMDL
