MODEL 1
REMARK VINA RESULT:     -10.6      0.000      0.000
REMARK SMILES Cc1ccc(Nc2c(Cl)cccc2Cl)c(CC(=O)OCCOCCOCCOCCOC(=O)c2ccc(-c3c4nc(c(-c5c(F)c(F)c(F)c(F)c5F)c5ccc([nH]5)c(-c5c(F)c(F)c(F)c(F)c5F)c5nc(c(-c6c(F)c(F)c(F)c(F)c6F)c6ccc3[nH]6)C=C5)C=C4)cc2)c1
REMARK SMILES IDX 24 1 23 2 22 3 21 4 20 5 19 6 17 7 18 8 16 9 15 10 1 11 2 12
REMARK SMILES IDX 3 13 97 14 4 15 5 16 6 17 7 19 8 20 13 21 9 22 10 23 12 24
REMARK SMILES IDX 14 25 11 26 25 27 26 28 27 29 28 30 29 31 30 32 31 33 32 34
REMARK SMILES IDX 33 35 34 36 35 37 96 38 36 39 95 40 37 41 38 42 39 43 89 44
REMARK SMILES IDX 40 45 94 46 88 47 90 48 41 49 93 50 87 51 86 52 42 54 74 55
REMARK SMILES IDX 54 56 73 57 55 58 58 59 72 60 91 61 56 62 57 63 71 65 92 66
REMARK SMILES IDX 59 67 43 68 44 69 52 70 45 71 46 72 50 73 53 74 47 75 48 76
REMARK SMILES IDX 51 77 49 78 75 79 76 80 84 81 77 82 78 83 82 84 85 85 79 86
REMARK SMILES IDX 80 87 83 88 81 89 60 90 61 91 69 92 62 93 63 94 67 95 70 96
REMARK SMILES IDX 64 97 65 98 68 99 66 100
REMARK H PARENT 6 18 90 53 58 64
REMARK Flexibility Score: inf
ROOT
ATOM      1  C   UNL A   1      40.282  23.315  27.070  1.00  0.00     0.188 C 
ENDROOT
BRANCH   1   2
ATOM      2  C   UNL A   1      38.851  23.632  26.755  1.00  0.00     0.188 C 
BRANCH   2   3
ATOM      3  O   UNL A   1      38.416  23.584  25.412  1.00  0.00    -0.376 OA
BRANCH   3   4
ATOM      4  C   UNL A   1      37.027  23.792  25.305  1.00  0.00     0.202 C 
BRANCH   4   5
ATOM      5  C   UNL A   1      36.198  23.554  26.563  1.00  0.00     0.261 C 
BRANCH   5   6
ATOM      6  O   UNL A   1      34.853  23.139  26.279  1.00  0.00    -0.463 OA
BRANCH   6   7
ATOM      7  C   UNL A   1      34.623  21.814  26.435  1.00  0.00     0.310 C 
ATOM      8  O   UNL A   1      34.204  21.307  27.472  1.00  0.00    -0.252 OA
BRANCH   7   9
ATOM      9  C   UNL A   1      34.999  20.970  25.241  1.00  0.00     0.160 C 
BRANCH   9  10
ATOM     10  C   UNL A   1      34.194  19.727  24.886  1.00  0.00    -0.013 A 
ATOM     11  C   UNL A   1      35.147  15.994  24.706  1.00  0.00     0.044 C 
ATOM     12  C   UNL A   1      34.362  17.270  24.629  1.00  0.00    -0.051 A 
ATOM     13  C   UNL A   1      32.997  17.227  24.401  1.00  0.00     0.005 A 
ATOM     14  C   UNL A   1      34.953  18.519  24.831  1.00  0.00     0.009 A 
ATOM     15  C   UNL A   1      32.247  18.408  24.377  1.00  0.00     0.026 A 
ATOM     16  C   UNL A   1      32.784  19.682  24.657  1.00  0.00     0.042 A 
BRANCH  16  17
ATOM     17  N   UNL A   1      31.940  20.851  24.659  1.00  0.00    -0.353 N 
ATOM     18  H   UNL A   1      31.190  20.825  25.296  1.00  0.00     0.167 HD
BRANCH  17  19
ATOM     19  C   UNL A   1      32.031  22.059  23.863  1.00  0.00     0.076 A 
ATOM     20  C   UNL A   1      32.394  22.074  22.506  1.00  0.00     0.066 A 
ATOM     21  C   UNL A   1      32.023  23.330  24.494  1.00  0.00     0.066 A 
ATOM     22  Cl  UNL A   1      31.938  20.785  21.441  1.00  0.00    -0.082 Cl
ATOM     23  C   UNL A   1      33.037  23.183  21.929  1.00  0.00     0.023 A 
ATOM     24  C   UNL A   1      32.707  24.430  23.943  1.00  0.00     0.023 A 
ATOM     25  Cl  UNL A   1      31.220  23.571  26.014  1.00  0.00    -0.082 Cl
ATOM     26  C   UNL A   1      33.268  24.334  22.674  1.00  0.00     0.003 A 
ENDBRANCH  17  19
ENDBRANCH  16  17
ENDBRANCH   9  10
ENDBRANCH   7   9
ENDBRANCH   6   7
ENDBRANCH   5   6
ENDBRANCH   4   5
ENDBRANCH   3   4
ENDBRANCH   2   3
ENDBRANCH   1   2
BRANCH   1  27
ATOM     27  O   UNL A   1      40.535  22.029  27.617  1.00  0.00    -0.377 OA
BRANCH  27  28
ATOM     28  C   UNL A   1      40.746  21.069  26.578  1.00  0.00     0.188 C 
BRANCH  28  29
ATOM     29  C   UNL A   1      41.342  19.709  26.966  1.00  0.00     0.188 C 
BRANCH  29  30
ATOM     30  O   UNL A   1      41.587  18.963  25.783  1.00  0.00    -0.376 OA
BRANCH  30  31
ATOM     31  C   UNL A   1      42.687  18.060  25.767  1.00  0.00     0.202 C 
BRANCH  31  32
ATOM     32  C   UNL A   1      43.937  18.869  26.097  1.00  0.00     0.261 C 
BRANCH  32  33
ATOM     33  O   UNL A   1      44.402  19.488  24.873  1.00  0.00    -0.460 OA
BRANCH  33  34
ATOM     34  C   UNL A   1      45.318  20.486  25.067  1.00  0.00     0.338 C 
ATOM     35  O   UNL A   1      46.513  20.319  25.191  1.00  0.00    -0.246 OA
BRANCH  34  36
ATOM     36  C   UNL A   1      44.626  21.790  25.340  1.00  0.00     0.060 A 
ATOM     37  C   UNL A   1      44.623  22.788  24.349  1.00  0.00     0.016 A 
ATOM     38  C   UNL A   1      44.207  22.122  26.627  1.00  0.00     0.016 A 
ATOM     39  C   UNL A   1      44.331  24.129  24.675  1.00  0.00     0.010 A 
ATOM     40  C   UNL A   1      43.954  23.455  26.945  1.00  0.00     0.010 A 
ATOM     41  C   UNL A   1      44.071  24.489  25.996  1.00  0.00    -0.014 A 
BRANCH  41  42
ATOM     42  C   UNL A   1      44.089  25.876  26.534  1.00  0.00     0.031 A 
ATOM     43  C   UNL A   1      42.827  26.689  26.572  1.00  0.00     0.074 A 
ATOM     44  C   UNL A   1      45.124  26.262  27.329  1.00  0.00     0.049 A 
ATOM     45  N   UNL A   1      42.698  27.817  27.196  1.00  0.00    -0.248 NA
ATOM     46  C   UNL A   1      41.582  26.299  25.910  1.00  0.00     0.031 C 
ATOM     47  C   UNL A   1      45.051  27.118  28.522  1.00  0.00     0.029 A 
ATOM     48  N   UNL A   1      46.465  25.919  27.309  1.00  0.00    -0.354 N 
ATOM     49  C   UNL A   1      41.353  28.084  27.344  1.00  0.00     0.074 A 
ATOM     50  C   UNL A   1      40.713  27.192  26.407  1.00  0.00     0.031 C 
ATOM     51  C   UNL A   1      46.253  27.241  29.100  1.00  0.00     0.029 A 
ATOM     52  C   UNL A   1      47.205  26.797  28.122  1.00  0.00     0.049 A 
ATOM     53  H   UNL A   1      46.846  25.168  26.799  1.00  0.00     0.167 HD
ATOM     54  C   UNL A   1      40.943  28.906  28.363  1.00  0.00     0.037 A 
ATOM     55  C   UNL A   1      48.099  27.649  27.526  1.00  0.00     0.037 A 
ATOM     56  C   UNL A   1      42.061  29.647  28.993  1.00  0.00     0.049 A 
ATOM     57  C   UNL A   1      47.595  29.095  27.461  1.00  0.00     0.074 A 
ATOM     58  C   UNL A   1      42.440  30.014  30.277  1.00  0.00     0.029 A 
ATOM     59  N   UNL A   1      43.103  30.083  28.184  1.00  0.00    -0.354 N 
ATOM     60  N   UNL A   1      46.477  29.502  28.011  1.00  0.00    -0.248 NA
ATOM     61  C   UNL A   1      48.264  30.190  26.764  1.00  0.00     0.031 C 
ATOM     62  C   UNL A   1      43.732  30.629  30.215  1.00  0.00     0.029 A 
ATOM     63  C   UNL A   1      44.092  30.728  28.885  1.00  0.00     0.049 A 
ATOM     64  H   UNL A   1      43.131  29.944  27.209  1.00  0.00     0.167 HD
ATOM     65  C   UNL A   1      46.231  30.809  27.719  1.00  0.00     0.074 A 
ATOM     66  C   UNL A   1      47.387  31.201  26.930  1.00  0.00     0.031 C 
ATOM     67  C   UNL A   1      45.093  31.455  28.123  1.00  0.00     0.037 A 
BRANCH  54  68
ATOM     68  C   UNL A   1      39.523  28.952  28.931  1.00  0.00     0.064 A 
ATOM     69  C   UNL A   1      38.469  29.533  28.186  1.00  0.00     0.173 A 
ATOM     70  C   UNL A   1      39.161  28.574  30.244  1.00  0.00     0.173 A 
ATOM     71  F   UNL A   1      38.648  29.906  26.911  1.00  0.00    -0.203 F 
ATOM     72  C   UNL A   1      37.192  29.757  28.720  1.00  0.00     0.198 A 
ATOM     73  C   UNL A   1      37.863  28.734  30.752  1.00  0.00     0.198 A 
ATOM     74  F   UNL A   1      40.056  28.082  31.108  1.00  0.00    -0.203 F 
ATOM     75  F   UNL A   1      36.261  30.381  27.983  1.00  0.00    -0.200 F 
ATOM     76  C   UNL A   1      36.885  29.348  30.000  1.00  0.00     0.200 A 
ATOM     77  F   UNL A   1      37.577  28.308  31.992  1.00  0.00    -0.200 F 
ATOM     78  F   UNL A   1      35.660  29.547  30.507  1.00  0.00    -0.200 F 
ENDBRANCH  54  68
BRANCH  55  79
ATOM     79  C   UNL A   1      48.944  26.859  26.568  1.00  0.00     0.064 A 
ATOM     80  C   UNL A   1      48.632  27.100  25.207  1.00  0.00     0.173 A 
ATOM     81  C   UNL A   1      50.288  26.594  26.879  1.00  0.00     0.173 A 
ATOM     82  F   UNL A   1      47.360  27.345  24.850  1.00  0.00    -0.203 F 
ATOM     83  C   UNL A   1      49.636  27.368  24.276  1.00  0.00     0.198 A 
ATOM     84  C   UNL A   1      51.289  26.817  25.924  1.00  0.00     0.198 A 
ATOM     85  F   UNL A   1      50.651  26.351  28.148  1.00  0.00    -0.203 F 
ATOM     86  F   UNL A   1      49.316  27.873  23.076  1.00  0.00    -0.200 F 
ATOM     87  C   UNL A   1      50.964  27.272  24.651  1.00  0.00     0.200 A 
ATOM     88  F   UNL A   1      52.579  26.746  26.282  1.00  0.00    -0.200 F 
ATOM     89  F   UNL A   1      51.926  27.706  23.823  1.00  0.00    -0.200 F 
ENDBRANCH  55  79
BRANCH  67  90
ATOM     90  C   UNL A   1      44.749  32.866  27.742  1.00  0.00     0.064 A 
ATOM     91  C   UNL A   1      44.148  33.192  26.525  1.00  0.00     0.173 A 
ATOM     92  C   UNL A   1      45.086  33.956  28.584  1.00  0.00     0.173 A 
ATOM     93  F   UNL A   1      43.922  32.250  25.598  1.00  0.00    -0.203 F 
ATOM     94  C   UNL A   1      43.778  34.505  26.229  1.00  0.00     0.198 A 
ATOM     95  C   UNL A   1      44.771  35.269  28.259  1.00  0.00     0.198 A 
ATOM     96  F   UNL A   1      45.706  33.785  29.760  1.00  0.00    -0.203 F 
ATOM     97  F   UNL A   1      43.114  34.762  25.094  1.00  0.00    -0.200 F 
ATOM     98  C   UNL A   1      44.081  35.539  27.098  1.00  0.00     0.200 A 
ATOM     99  F   UNL A   1      45.118  36.262  29.091  1.00  0.00    -0.200 F 
ATOM    100  F   UNL A   1      43.706  36.794  26.819  1.00  0.00    -0.200 F 
ENDBRANCH  67  90
ENDBRANCH  41  42
ENDBRANCH  34  36
ENDBRANCH  33  34
ENDBRANCH  32  33
ENDBRANCH  31  32
ENDBRANCH  30  31
ENDBRANCH  29  30
ENDBRANCH  28  29
ENDBRANCH  27  28
ENDBRANCH   1  27
TORSDOF 23
ENDMDL
MODEL 2
REMARK VINA RESULT:     -10.3      1.164      2.943
REMARK SMILES Cc1ccc(Nc2c(Cl)cccc2Cl)c(CC(=O)OCCOCCOCCOCCOC(=O)c2ccc(-c3c4nc(c(-c5c(F)c(F)c(F)c(F)c5F)c5ccc([nH]5)c(-c5c(F)c(F)c(F)c(F)c5F)c5nc(c(-c6c(F)c(F)c(F)c(F)c6F)c6ccc3[nH]6)C=C5)C=C4)cc2)c1
REMARK SMILES IDX 24 1 23 2 22 3 21 4 20 5 19 6 17 7 18 8 16 9 15 10 1 11 2 12
REMARK SMILES IDX 3 13 97 14 4 15 5 16 6 17 7 19 8 20 13 21 9 22 10 23 12 24
REMARK SMILES IDX 14 25 11 26 25 27 26 28 27 29 28 30 29 31 30 32 31 33 32 34
REMARK SMILES IDX 33 35 34 36 35 37 96 38 36 39 95 40 37 41 38 42 39 43 89 44
REMARK SMILES IDX 40 45 94 46 88 47 90 48 41 49 93 50 87 51 86 52 42 54 74 55
REMARK SMILES IDX 54 56 73 57 55 58 58 59 72 60 91 61 56 62 57 63 71 65 92 66
REMARK SMILES IDX 59 67 43 68 44 69 52 70 45 71 46 72 50 73 53 74 47 75 48 76
REMARK SMILES IDX 51 77 49 78 75 79 76 80 84 81 77 82 78 83 82 84 85 85 79 86
REMARK SMILES IDX 80 87 83 88 81 89 60 90 61 91 69 92 62 93 63 94 67 95 70 96
REMARK SMILES IDX 64 97 65 98 68 99 66 100
REMARK H PARENT 6 18 90 53 58 64
REMARK Flexibility Score: inf
ROOT
ATOM      1  C   UNL A   1      40.609  23.552  26.641  1.00  0.00     0.188 C 
ENDROOT
BRANCH   1   2
ATOM      2  C   UNL A   1      39.146  23.541  26.970  1.00  0.00     0.188 C 
BRANCH   2   3
ATOM      3  O   UNL A   1      38.235  24.142  26.074  1.00  0.00    -0.376 OA
BRANCH   3   4
ATOM      4  C   UNL A   1      37.135  23.305  25.808  1.00  0.00     0.202 C 
BRANCH   4   5
ATOM      5  C   UNL A   1      36.774  23.087  24.342  1.00  0.00     0.261 C 
BRANCH   5   6
ATOM      6  O   UNL A   1      35.360  22.963  24.124  1.00  0.00    -0.463 OA
BRANCH   6   7
ATOM      7  C   UNL A   1      34.732  24.119  23.807  1.00  0.00     0.310 C 
ATOM      8  O   UNL A   1      34.747  24.624  22.688  1.00  0.00    -0.252 OA
BRANCH   7   9
ATOM      9  C   UNL A   1      34.056  24.803  24.971  1.00  0.00     0.160 C 
BRANCH   9  10
ATOM     10  C   UNL A   1      32.712  25.495  24.789  1.00  0.00    -0.013 A 
ATOM     11  C   UNL A   1      31.566  29.122  25.428  1.00  0.00     0.044 C 
ATOM     12  C   UNL A   1      31.555  27.668  25.063  1.00  0.00    -0.051 A 
ATOM     13  C   UNL A   1      30.430  27.113  24.475  1.00  0.00     0.005 A 
ATOM     14  C   UNL A   1      32.669  26.846  25.248  1.00  0.00     0.009 A 
ATOM     15  C   UNL A   1      30.427  25.769  24.086  1.00  0.00     0.026 A 
ATOM     16  C   UNL A   1      31.553  24.925  24.178  1.00  0.00     0.042 A 
BRANCH  16  17
ATOM     17  N   UNL A   1      31.490  23.561  23.713  1.00  0.00    -0.353 N 
ATOM     18  H   UNL A   1      31.188  23.449  22.782  1.00  0.00     0.167 HD
BRANCH  17  19
ATOM     19  C   UNL A   1      31.803  22.330  24.412  1.00  0.00     0.076 A 
ATOM     20  C   UNL A   1      31.897  22.228  25.810  1.00  0.00     0.066 A 
ATOM     21  C   UNL A   1      32.307  21.213  23.696  1.00  0.00     0.066 A 
ATOM     22  Cl  UNL A   1      30.875  23.167  26.848  1.00  0.00    -0.082 Cl
ATOM     23  C   UNL A   1      32.735  21.281  26.423  1.00  0.00     0.023 A 
ATOM     24  C   UNL A   1      33.184  20.290  24.294  1.00  0.00     0.023 A 
ATOM     25  Cl  UNL A   1      31.912  20.969  22.023  1.00  0.00    -0.082 Cl
ATOM     26  C   UNL A   1      33.445  20.362  25.658  1.00  0.00     0.003 A 
ENDBRANCH  17  19
ENDBRANCH  16  17
ENDBRANCH   9  10
ENDBRANCH   7   9
ENDBRANCH   6   7
ENDBRANCH   5   6
ENDBRANCH   4   5
ENDBRANCH   3   4
ENDBRANCH   2   3
ENDBRANCH   1   2
BRANCH   1  27
ATOM     27  O   UNL A   1      41.361  22.432  27.083  1.00  0.00    -0.377 OA
BRANCH  27  28
ATOM     28  C   UNL A   1      41.308  21.374  26.120  1.00  0.00     0.188 C 
BRANCH  28  29
ATOM     29  C   UNL A   1      41.840  19.996  26.536  1.00  0.00     0.188 C 
BRANCH  29  30
ATOM     30  O   UNL A   1      42.094  19.232  25.366  1.00  0.00    -0.376 OA
BRANCH  30  31
ATOM     31  C   UNL A   1      43.179  18.310  25.381  1.00  0.00     0.202 C 
BRANCH  31  32
ATOM     32  C   UNL A   1      44.439  19.104  25.709  1.00  0.00     0.261 C 
BRANCH  32  33
ATOM     33  O   UNL A   1      44.906  19.721  24.486  1.00  0.00    -0.460 OA
BRANCH  33  34
ATOM     34  C   UNL A   1      45.758  20.774  24.684  1.00  0.00     0.338 C 
ATOM     35  O   UNL A   1      46.969  20.703  24.654  1.00  0.00    -0.246 OA
BRANCH  34  36
ATOM     36  C   UNL A   1      45.006  21.977  25.174  1.00  0.00     0.060 A 
ATOM     37  C   UNL A   1      44.553  22.931  24.245  1.00  0.00     0.016 A 
ATOM     38  C   UNL A   1      44.963  22.289  26.531  1.00  0.00     0.016 A 
ATOM     39  C   UNL A   1      44.188  24.228  24.661  1.00  0.00     0.010 A 
ATOM     40  C   UNL A   1      44.632  23.584  26.928  1.00  0.00     0.010 A 
ATOM     41  C   UNL A   1      44.300  24.591  26.002  1.00  0.00    -0.014 A 
BRANCH  41  42
ATOM     42  C   UNL A   1      44.285  25.984  26.525  1.00  0.00     0.031 A 
ATOM     43  C   UNL A   1      43.019  26.792  26.488  1.00  0.00     0.074 A 
ATOM     44  C   UNL A   1      45.276  26.385  27.367  1.00  0.00     0.049 A 
ATOM     45  N   UNL A   1      42.854  27.926  27.092  1.00  0.00    -0.248 NA
ATOM     46  C   UNL A   1      41.811  26.389  25.767  1.00  0.00     0.031 C 
ATOM     47  C   UNL A   1      45.138  27.253  28.545  1.00  0.00     0.029 A 
ATOM     48  N   UNL A   1      46.618  26.047  27.420  1.00  0.00    -0.354 N 
ATOM     49  C   UNL A   1      41.502  28.189  27.167  1.00  0.00     0.074 A 
ATOM     50  C   UNL A   1      40.914  27.283  26.209  1.00  0.00     0.031 C 
ATOM     51  C   UNL A   1      46.308  27.388  29.182  1.00  0.00     0.029 A 
ATOM     52  C   UNL A   1      47.311  26.938  28.259  1.00  0.00     0.049 A 
ATOM     53  H   UNL A   1      47.028  25.292  26.939  1.00  0.00     0.167 HD
ATOM     54  C   UNL A   1      41.037  29.020  28.154  1.00  0.00     0.037 A 
ATOM     55  C   UNL A   1      48.232  27.787  27.700  1.00  0.00     0.037 A 
ATOM     56  C   UNL A   1      42.118  29.774  28.832  1.00  0.00     0.049 A 
ATOM     57  C   UNL A   1      47.726  29.230  27.593  1.00  0.00     0.074 A 
ATOM     58  C   UNL A   1      42.429  30.157  30.130  1.00  0.00     0.029 A 
ATOM     59  N   UNL A   1      43.199  30.206  28.073  1.00  0.00    -0.354 N 
ATOM     60  N   UNL A   1      46.580  29.638  28.080  1.00  0.00    -0.248 NA
ATOM     61  C   UNL A   1      48.425  30.320  26.919  1.00  0.00     0.031 C 
ATOM     62  C   UNL A   1      43.720  30.778  30.127  1.00  0.00     0.029 A 
ATOM     63  C   UNL A   1      44.147  30.863  28.816  1.00  0.00     0.049 A 
ATOM     64  H   UNL A   1      43.277  30.055  27.102  1.00  0.00     0.167 HD
ATOM     65  C   UNL A   1      46.343  30.940  27.761  1.00  0.00     0.074 A 
ATOM     66  C   UNL A   1      47.536  31.329  27.027  1.00  0.00     0.031 C 
ATOM     67  C   UNL A   1      45.183  31.585  28.098  1.00  0.00     0.037 A 
BRANCH  54  68
ATOM     68  C   UNL A   1      39.590  29.067  28.648  1.00  0.00     0.064 A 
ATOM     69  C   UNL A   1      38.564  29.586  27.822  1.00  0.00     0.173 A 
ATOM     70  C   UNL A   1      39.168  28.749  29.960  1.00  0.00     0.173 A 
ATOM     71  F   UNL A   1      38.800  29.897  26.540  1.00  0.00    -0.203 F 
ATOM     72  C   UNL A   1      37.258  29.811  28.280  1.00  0.00     0.198 A 
ATOM     73  C   UNL A   1      37.844  28.908  30.393  1.00  0.00     0.198 A 
ATOM     74  F   UNL A   1      40.027  28.320  30.891  1.00  0.00    -0.203 F 
ATOM     75  F   UNL A   1      36.354  30.378  27.466  1.00  0.00    -0.200 F 
ATOM     76  C   UNL A   1      36.894  29.462  29.563  1.00  0.00     0.200 A 
ATOM     77  F   UNL A   1      37.503  28.541  31.638  1.00  0.00    -0.200 F 
ATOM     78  F   UNL A   1      35.641  29.662  29.997  1.00  0.00    -0.200 F 
ENDBRANCH  54  68
BRANCH  55  79
ATOM     79  C   UNL A   1      49.128  26.990  26.797  1.00  0.00     0.064 A 
ATOM     80  C   UNL A   1      48.896  27.226  25.418  1.00  0.00     0.173 A 
ATOM     81  C   UNL A   1      50.451  26.722  27.186  1.00  0.00     0.173 A 
ATOM     82  F   UNL A   1      47.648  27.473  24.987  1.00  0.00    -0.203 F 
ATOM     83  C   UNL A   1      49.953  27.486  24.547  1.00  0.00     0.198 A 
ATOM     84  C   UNL A   1      51.506  26.937  26.290  1.00  0.00     0.198 A 
ATOM     85  F   UNL A   1      50.739  26.483  28.474  1.00  0.00    -0.203 F 
ATOM     86  F   UNL A   1      49.705  27.988  23.327  1.00  0.00    -0.200 F 
ATOM     87  C   UNL A   1      51.257  27.389  24.998  1.00  0.00     0.200 A 
ATOM     88  F   UNL A   1      52.773  26.864  26.722  1.00  0.00    -0.200 F 
ATOM     89  F   UNL A   1      52.266  27.815  24.226  1.00  0.00    -0.200 F 
ENDBRANCH  55  79
BRANCH  67  90
ATOM     90  C   UNL A   1      44.854  32.991  27.684  1.00  0.00     0.064 A 
ATOM     91  C   UNL A   1      44.193  33.289  26.491  1.00  0.00     0.173 A 
ATOM     92  C   UNL A   1      45.265  34.101  28.463  1.00  0.00     0.173 A 
ATOM     93  F   UNL A   1      43.891  32.319  25.614  1.00  0.00    -0.203 F 
ATOM     94  C   UNL A   1      43.839  34.599  26.166  1.00  0.00     0.198 A 
ATOM     95  C   UNL A   1      44.965  35.409  28.107  1.00  0.00     0.198 A 
ATOM     96  F   UNL A   1      45.947  33.957  29.609  1.00  0.00    -0.203 F 
ATOM     97  F   UNL A   1      43.119  34.833  25.062  1.00  0.00    -0.200 F 
ATOM     98  C   UNL A   1      44.217  35.655  26.977  1.00  0.00     0.200 A 
ATOM     99  F   UNL A   1      45.384  36.422  28.880  1.00  0.00    -0.200 F 
ATOM    100  F   UNL A   1      43.859  36.909  26.672  1.00  0.00    -0.200 F 
ENDBRANCH  67  90
ENDBRANCH  41  42
ENDBRANCH  34  36
ENDBRANCH  33  34
ENDBRANCH  32  33
ENDBRANCH  31  32
ENDBRANCH  30  31
ENDBRANCH  29  30
ENDBRANCH  28  29
ENDBRANCH  27  28
ENDBRANCH   1  27
TORSDOF 23
ENDMDL
MODEL 3
REMARK VINA RESULT:      -9.7      4.826      7.144
REMARK SMILES Cc1ccc(Nc2c(Cl)cccc2Cl)c(CC(=O)OCCOCCOCCOCCOC(=O)c2ccc(-c3c4nc(c(-c5c(F)c(F)c(F)c(F)c5F)c5ccc([nH]5)c(-c5c(F)c(F)c(F)c(F)c5F)c5nc(c(-c6c(F)c(F)c(F)c(F)c6F)c6ccc3[nH]6)C=C5)C=C4)cc2)c1
REMARK SMILES IDX 24 1 23 2 22 3 21 4 20 5 19 6 17 7 18 8 16 9 15 10 1 11 2 12
REMARK SMILES IDX 3 13 97 14 4 15 5 16 6 17 7 19 8 20 13 21 9 22 10 23 12 24
REMARK SMILES IDX 14 25 11 26 25 27 26 28 27 29 28 30 29 31 30 32 31 33 32 34
REMARK SMILES IDX 33 35 34 36 35 37 96 38 36 39 95 40 37 41 38 42 39 43 89 44
REMARK SMILES IDX 40 45 94 46 88 47 90 48 41 49 93 50 87 51 86 52 42 54 74 55
REMARK SMILES IDX 54 56 73 57 55 58 58 59 72 60 91 61 56 62 57 63 71 65 92 66
REMARK SMILES IDX 59 67 43 68 44 69 52 70 45 71 46 72 50 73 53 74 47 75 48 76
REMARK SMILES IDX 51 77 49 78 75 79 76 80 84 81 77 82 78 83 82 84 85 85 79 86
REMARK SMILES IDX 80 87 83 88 81 89 60 90 61 91 69 92 62 93 63 94 67 95 70 96
REMARK SMILES IDX 64 97 65 98 68 99 66 100
REMARK H PARENT 6 18 90 53 58 64
REMARK Flexibility Score: inf
ROOT
ATOM      1  C   UNL A   1      41.984  22.570  27.692  1.00  0.00     0.188 C 
ENDROOT
BRANCH   1   2
ATOM      2  C   UNL A   1      40.967  21.615  27.141  1.00  0.00     0.188 C 
BRANCH   2   3
ATOM      3  O   UNL A   1      39.660  22.080  26.876  1.00  0.00    -0.376 OA
BRANCH   3   4
ATOM      4  C   UNL A   1      39.092  21.434  25.761  1.00  0.00     0.202 C 
BRANCH   4   5
ATOM      5  C   UNL A   1      37.729  21.936  25.296  1.00  0.00     0.261 C 
BRANCH   5   6
ATOM      6  O   UNL A   1      36.642  21.415  26.077  1.00  0.00    -0.463 OA
BRANCH   6   7
ATOM      7  C   UNL A   1      35.504  22.146  26.023  1.00  0.00     0.310 C 
ATOM      8  O   UNL A   1      35.477  23.365  25.878  1.00  0.00    -0.252 OA
BRANCH   7   9
ATOM      9  C   UNL A   1      34.240  21.349  26.235  1.00  0.00     0.160 C 
BRANCH   9  10
ATOM     10  C   UNL A   1      33.629  20.547  25.093  1.00  0.00    -0.013 A 
ATOM     11  C   UNL A   1      34.354  17.007  23.744  1.00  0.00     0.044 C 
ATOM     12  C   UNL A   1      33.766  18.377  23.907  1.00  0.00    -0.051 A 
ATOM     13  C   UNL A   1      32.666  18.750  23.153  1.00  0.00     0.005 A 
ATOM     14  C   UNL A   1      34.259  19.291  24.841  1.00  0.00     0.009 A 
ATOM     15  C   UNL A   1      32.079  20.007  23.333  1.00  0.00     0.026 A 
ATOM     16  C   UNL A   1      32.491  20.929  24.318  1.00  0.00     0.042 A 
BRANCH  16  17
ATOM     17  N   UNL A   1      31.808  22.189  24.477  1.00  0.00    -0.353 N 
ATOM     18  H   UNL A   1      30.890  22.128  24.830  1.00  0.00     0.167 HD
BRANCH  17  19
ATOM     19  C   UNL A   1      32.270  23.533  24.192  1.00  0.00     0.076 A 
ATOM     20  C   UNL A   1      33.121  23.856  23.122  1.00  0.00     0.066 A 
ATOM     21  C   UNL A   1      32.103  24.562  25.155  1.00  0.00     0.066 A 
ATOM     22  Cl  UNL A   1      33.023  23.012  21.611  1.00  0.00    -0.082 Cl
ATOM     23  C   UNL A   1      34.003  24.949  23.189  1.00  0.00     0.023 A 
ATOM     24  C   UNL A   1      33.012  25.632  25.255  1.00  0.00     0.023 A 
ATOM     25  Cl  UNL A   1      30.800  24.515  26.301  1.00  0.00    -0.082 Cl
ATOM     26  C   UNL A   1      34.006  25.791  24.295  1.00  0.00     0.003 A 
ENDBRANCH  17  19
ENDBRANCH  16  17
ENDBRANCH   9  10
ENDBRANCH   7   9
ENDBRANCH   6   7
ENDBRANCH   5   6
ENDBRANCH   4   5
ENDBRANCH   3   4
ENDBRANCH   2   3
ENDBRANCH   1   2
BRANCH   1  27
ATOM     27  O   UNL A   1      43.304  22.443  27.187  1.00  0.00    -0.377 OA
BRANCH  27  28
ATOM     28  C   UNL A   1      43.286  22.161  25.784  1.00  0.00     0.188 C 
BRANCH  28  29
ATOM     29  C   UNL A   1      43.401  23.343  24.812  1.00  0.00     0.188 C 
BRANCH  29  30
ATOM     30  O   UNL A   1      44.702  23.901  24.924  1.00  0.00    -0.376 OA
BRANCH  30  31
ATOM     31  C   UNL A   1      44.827  25.239  25.394  1.00  0.00     0.202 C 
BRANCH  31  32
ATOM     32  C   UNL A   1      43.455  25.893  25.260  1.00  0.00     0.261 C 
BRANCH  32  33
ATOM     33  O   UNL A   1      43.648  27.327  25.218  1.00  0.00    -0.460 OA
BRANCH  33  34
ATOM     34  C   UNL A   1      42.537  28.048  25.563  1.00  0.00     0.338 C 
ATOM     35  O   UNL A   1      41.909  28.761  24.808  1.00  0.00    -0.246 OA
BRANCH  34  36
ATOM     36  C   UNL A   1      42.336  28.028  27.050  1.00  0.00     0.060 A 
ATOM     37  C   UNL A   1      41.047  27.804  27.567  1.00  0.00     0.016 A 
ATOM     38  C   UNL A   1      43.338  28.465  27.913  1.00  0.00     0.016 A 
ATOM     39  C   UNL A   1      40.734  28.142  28.900  1.00  0.00     0.010 A 
ATOM     40  C   UNL A   1      43.011  28.827  29.219  1.00  0.00     0.010 A 
ATOM     41  C   UNL A   1      41.697  28.731  29.717  1.00  0.00    -0.014 A 
BRANCH  41  42
ATOM     42  C   UNL A   1      41.427  29.441  30.997  1.00  0.00     0.031 A 
ATOM     43  C   UNL A   1      40.692  30.751  30.995  1.00  0.00     0.074 A 
ATOM     44  C   UNL A   1      41.492  28.746  32.165  1.00  0.00     0.049 A 
ATOM     45  N   UNL A   1      40.238  31.340  32.055  1.00  0.00    -0.248 NA
ATOM     46  C   UNL A   1      40.391  31.519  29.786  1.00  0.00     0.031 C 
ATOM     47  C   UNL A   1      40.605  28.886  33.329  1.00  0.00     0.029 A 
ATOM     48  N   UNL A   1      42.310  27.699  32.557  1.00  0.00    -0.354 N 
ATOM     49  C   UNL A   1      39.312  32.287  31.668  1.00  0.00     0.074 A 
ATOM     50  C   UNL A   1      39.552  32.455  30.255  1.00  0.00     0.031 C 
ATOM     51  C   UNL A   1      40.918  27.997  34.281  1.00  0.00     0.029 A 
ATOM     52  C   UNL A   1      42.227  27.511  33.949  1.00  0.00     0.049 A 
ATOM     53  H   UNL A   1      42.869  27.163  31.949  1.00  0.00     0.167 HD
ATOM     54  C   UNL A   1      38.346  32.680  32.560  1.00  0.00     0.037 A 
ATOM     55  C   UNL A   1      43.330  27.782  34.716  1.00  0.00     0.037 A 
ATOM     56  C   UNL A   1      38.627  32.242  33.947  1.00  0.00     0.049 A 
ATOM     57  C   UNL A   1      43.209  29.096  35.494  1.00  0.00     0.074 A 
ATOM     58  C   UNL A   1      37.902  31.736  35.018  1.00  0.00     0.029 A 
ATOM     59  N   UNL A   1      39.947  32.227  34.381  1.00  0.00    -0.354 N 
ATOM     60  N   UNL A   1      42.126  29.834  35.513  1.00  0.00    -0.248 NA
ATOM     61  C   UNL A   1      44.274  29.711  36.281  1.00  0.00     0.031 C 
ATOM     62  C   UNL A   1      38.817  31.386  36.064  1.00  0.00     0.029 A 
ATOM     63  C   UNL A   1      40.082  31.773  35.670  1.00  0.00     0.049 A 
ATOM     64  H   UNL A   1      40.707  32.511  33.822  1.00  0.00     0.167 HD
ATOM     65  C   UNL A   1      42.328  30.989  36.205  1.00  0.00     0.074 A 
ATOM     66  C   UNL A   1      43.699  30.867  36.671  1.00  0.00     0.031 C 
ATOM     67  C   UNL A   1      41.369  31.961  36.317  1.00  0.00     0.037 A 
BRANCH  54  68
ATOM     68  C   UNL A   1      37.026  33.352  32.178  1.00  0.00     0.064 A 
ATOM     69  C   UNL A   1      36.537  34.452  32.921  1.00  0.00     0.173 A 
ATOM     70  C   UNL A   1      36.132  32.882  31.189  1.00  0.00     0.173 A 
ATOM     71  F   UNL A   1      37.286  35.034  33.868  1.00  0.00    -0.203 F 
ATOM     72  C   UNL A   1      35.260  34.997  32.726  1.00  0.00     0.198 A 
ATOM     73  C   UNL A   1      34.883  33.474  30.948  1.00  0.00     0.198 A 
ATOM     74  F   UNL A   1      36.404  31.801  30.449  1.00  0.00    -0.203 F 
ATOM     75  F   UNL A   1      34.830  35.991  33.518  1.00  0.00    -0.200 F 
ATOM     76  C   UNL A   1      34.436  34.515  31.732  1.00  0.00     0.200 A 
ATOM     77  F   UNL A   1      34.105  33.006  29.960  1.00  0.00    -0.200 F 
ATOM     78  F   UNL A   1      33.220  35.045  31.533  1.00  0.00    -0.200 F 
ENDBRANCH  54  68
BRANCH  55  79
ATOM     79  C   UNL A   1      44.522  27.117  34.089  1.00  0.00     0.064 A 
ATOM     80  C   UNL A   1      44.424  25.703  34.049  1.00  0.00     0.173 A 
ATOM     81  C   UNL A   1      45.188  27.742  33.023  1.00  0.00     0.173 A 
ATOM     82  F   UNL A   1      43.809  25.051  35.050  1.00  0.00    -0.203 F 
ATOM     83  C   UNL A   1      44.695  24.997  32.877  1.00  0.00     0.198 A 
ATOM     84  C   UNL A   1      45.504  27.016  31.867  1.00  0.00     0.198 A 
ATOM     85  F   UNL A   1      45.322  29.076  33.002  1.00  0.00    -0.203 F 
ATOM     86  F   UNL A   1      44.324  23.712  32.771  1.00  0.00    -0.200 F 
ATOM     87  C   UNL A   1      45.189  25.665  31.771  1.00  0.00     0.200 A 
ATOM     88  F   UNL A   1      45.965  27.656  30.783  1.00  0.00    -0.200 F 
ATOM     89  F   UNL A   1      45.275  25.033  30.592  1.00  0.00    -0.200 F 
ENDBRANCH  55  79
BRANCH  67  90
ATOM     90  C   UNL A   1      41.590  33.283  36.996  1.00  0.00     0.064 A 
ATOM     91  C   UNL A   1      42.273  34.337  36.386  1.00  0.00     0.173 A 
ATOM     92  C   UNL A   1      41.168  33.501  38.331  1.00  0.00     0.173 A 
ATOM     93  F   UNL A   1      42.838  34.180  35.180  1.00  0.00    -0.203 F 
ATOM     94  C   UNL A   1      42.402  35.576  37.014  1.00  0.00     0.198 A 
ATOM     95  C   UNL A   1      41.351  34.717  38.976  1.00  0.00     0.198 A 
ATOM     96  F   UNL A   1      40.540  32.557  39.046  1.00  0.00    -0.203 F 
ATOM     97  F   UNL A   1      42.977  36.592  36.357  1.00  0.00    -0.200 F 
ATOM     98  C   UNL A   1      41.934  35.768  38.303  1.00  0.00     0.200 A 
ATOM     99  F   UNL A   1      40.936  34.868  40.243  1.00  0.00    -0.200 F 
ATOM    100  F   UNL A   1      42.042  36.964  38.895  1.00  0.00    -0.200 F 
ENDBRANCH  67  90
ENDBRANCH  41  42
ENDBRANCH  34  36
ENDBRANCH  33  34
ENDBRANCH  32  33
ENDBRANCH  31  32
ENDBRANCH  30  31
ENDBRANCH  29  30
ENDBRANCH  28  29
ENDBRANCH  27  28
ENDBRANCH   1  27
TORSDOF 23
ENDMDL
