MODEL 1
REMARK VINA RESULT:     -10.4      0.000      0.000
REMARK SMILES COc1ccc2c(c1)c(Cc1nc(-c3ccc(C(=O)OCCOCCOCCOCCOC(=O)c4ccc(-c5c6nc(c(-c7c(F)c(F)c(F)c(F)c7F)c7ccc([nH]7)c(-c7c(F)c(F)c(F)c(F)c7F)c7nc(c(-c8c(F)c(F)c(F)c(F)c8F)c8ccc5[nH]8)C=C7)C=C6)cc4)cc3)cs1)c(C)n2C(=O)c1ccc(Cl)cc1
REMARK SMILES IDX 24 1 23 2 22 3 21 4 20 5 18 6 19 7 17 8 14 9 15 10 99 11
REMARK SMILES IDX 16 12 98 13 13 14 11 15 12 16 101 17 100 18 10 19 9 20 3 21
REMARK SMILES IDX 4 22 8 23 5 24 7 25 6 26 104 27 102 28 103 29 2 30 1 31
REMARK SMILES IDX 105 32 106 33 107 34 108 35 113 36 109 37 112 38 110 39
REMARK SMILES IDX 111 40 25 41 26 42 27 43 28 44 29 45 30 46 31 47 32 48 33 49
REMARK SMILES IDX 34 50 35 51 36 52 97 53 37 54 96 55 38 56 39 57 40 58 90 59
REMARK SMILES IDX 41 60 95 61 89 62 91 63 42 64 94 65 88 66 87 67 43 69 75 70
REMARK SMILES IDX 55 71 74 72 56 73 59 74 73 75 92 76 57 77 58 78 72 80 93 81
REMARK SMILES IDX 60 82 44 83 45 84 53 85 46 86 47 87 51 88 54 89 48 90 49 91
REMARK SMILES IDX 52 92 50 93 76 94 77 95 85 96 78 97 79 98 83 99 86 100
REMARK SMILES IDX 80 101 81 102 84 103 82 104 61 105 62 106 70 107 63 108
REMARK SMILES IDX 64 109 68 110 71 111 65 112 66 113 69 114 67 115
REMARK H PARENT 91 68 59 79
REMARK Flexibility Score: inf
ROOT
ATOM      1  C   UNL A   1      43.010  25.992  28.674  1.00  0.00     0.188 C 
ENDROOT
BRANCH   1   2
ATOM      2  O   UNL A   1      42.972  24.985  27.684  1.00  0.00    -0.376 OA
BRANCH   2   3
ATOM      3  C   UNL A   1      41.944  24.007  27.597  1.00  0.00     0.202 C 
BRANCH   3   4
ATOM      4  C   UNL A   1      42.056  22.482  27.378  1.00  0.00     0.261 C 
BRANCH   4   5
ATOM      5  O   UNL A   1      40.860  21.720  27.308  1.00  0.00    -0.460 OA
BRANCH   5   6
ATOM      6  C   UNL A   1      40.707  20.922  26.231  1.00  0.00     0.338 C 
ATOM      7  O   UNL A   1      41.524  20.159  25.754  1.00  0.00    -0.246 OA
BRANCH   6   8
ATOM      8  C   UNL A   1      39.257  20.918  25.927  1.00  0.00     0.060 A 
ATOM      9  C   UNL A   1      36.621  21.142  25.032  1.00  0.00     0.001 A 
ATOM     10  C   UNL A   1      37.274  22.252  25.585  1.00  0.00     0.011 A 
ATOM     11  C   UNL A   1      37.289  19.912  24.944  1.00  0.00     0.011 A 
ATOM     12  C   UNL A   1      38.580  22.135  26.052  1.00  0.00     0.016 A 
ATOM     13  C   UNL A   1      38.616  19.802  25.371  1.00  0.00     0.016 A 
BRANCH   9  14
ATOM     14  C   UNL A   1      35.212  21.235  24.716  1.00  0.00     0.081 A 
ATOM     15  C   UNL A   1      33.576  22.144  23.568  1.00  0.00     0.098 A 
ATOM     16  N   UNL A   1      34.727  22.388  24.152  1.00  0.00    -0.241 NA
ATOM     17  S   UNL A   1      32.863  20.633  23.977  1.00  0.00    -0.126 S 
ATOM     18  C   UNL A   1      34.305  20.200  24.809  1.00  0.00     0.095 A 
BRANCH  15  19
ATOM     19  C   UNL A   1      32.950  23.076  22.575  1.00  0.00     0.105 C 
BRANCH  19  20
ATOM     20  C   UNL A   1      32.382  24.316  23.236  1.00  0.00    -0.012 A 
ATOM     21  C   UNL A   1      30.302  23.640  26.382  1.00  0.00     0.119 A 
ATOM     22  C   UNL A   1      29.885  24.943  26.571  1.00  0.00     0.048 A 
ATOM     23  C   UNL A   1      31.141  23.337  25.310  1.00  0.00     0.057 A 
ATOM     24  C   UNL A   1      30.295  25.955  25.695  1.00  0.00     0.031 A 
ATOM     25  C   UNL A   1      31.586  24.343  24.419  1.00  0.00     0.008 A 
ATOM     26  C   UNL A   1      31.192  25.667  24.642  1.00  0.00     0.057 A 
ATOM     27  N   UNL A   1      31.824  26.480  23.680  1.00  0.00    -0.280 N 
ATOM     28  C   UNL A   1      32.507  25.628  22.793  1.00  0.00     0.028 A 
ATOM     29  C   UNL A   1      33.263  26.058  21.573  1.00  0.00     0.065 C 
BRANCH  21  30
ATOM     30  O   UNL A   1      29.980  22.588  27.196  1.00  0.00    -0.497 OA
ATOM     31  C   UNL A   1      28.626  22.560  27.637  1.00  0.00     0.278 C 
ENDBRANCH  21  30
BRANCH  27  32
ATOM     32  C   UNL A   1      31.756  27.906  23.616  1.00  0.00     0.262 C 
ATOM     33  O   UNL A   1      31.192  28.442  22.665  1.00  0.00    -0.268 OA
BRANCH  32  34
ATOM     34  C   UNL A   1      32.286  28.835  24.631  1.00  0.00     0.040 A 
ATOM     35  C   UNL A   1      33.607  28.737  25.081  1.00  0.00     0.015 A 
ATOM     36  C   UNL A   1      31.422  29.808  25.150  1.00  0.00     0.015 A 
ATOM     37  C   UNL A   1      34.037  29.569  26.120  1.00  0.00     0.021 A 
ATOM     38  C   UNL A   1      31.861  30.638  26.181  1.00  0.00     0.021 A 
ATOM     39  C   UNL A   1      33.159  30.504  26.673  1.00  0.00     0.041 A 
ATOM     40  Cl  UNL A   1      33.675  31.486  27.988  1.00  0.00    -0.084 Cl
ENDBRANCH  32  34
ENDBRANCH  27  32
ENDBRANCH  19  20
ENDBRANCH  15  19
ENDBRANCH   9  14
ENDBRANCH   6   8
ENDBRANCH   5   6
ENDBRANCH   4   5
ENDBRANCH   3   4
ENDBRANCH   2   3
ENDBRANCH   1   2
BRANCH   1  41
ATOM     41  C   UNL A   1      41.685  26.627  29.111  1.00  0.00     0.188 C 
BRANCH  41  42
ATOM     42  O   UNL A   1      40.778  26.771  28.041  1.00  0.00    -0.377 OA
BRANCH  42  43
ATOM     43  C   UNL A   1      40.222  28.059  27.842  1.00  0.00     0.188 C 
BRANCH  43  44
ATOM     44  C   UNL A   1      39.265  28.664  28.885  1.00  0.00     0.188 C 
BRANCH  44  45
ATOM     45  O   UNL A   1      38.040  29.124  28.314  1.00  0.00    -0.376 OA
BRANCH  45  46
ATOM     46  C   UNL A   1      36.962  29.337  29.224  1.00  0.00     0.202 C 
BRANCH  46  47
ATOM     47  C   UNL A   1      37.011  30.676  29.977  1.00  0.00     0.261 C 
BRANCH  47  48
ATOM     48  O   UNL A   1      38.274  31.344  29.838  1.00  0.00    -0.460 OA
BRANCH  48  49
ATOM     49  C   UNL A   1      38.607  32.263  30.776  1.00  0.00     0.338 C 
ATOM     50  O   UNL A   1      38.306  32.255  31.952  1.00  0.00    -0.246 OA
BRANCH  49  51
ATOM     51  C   UNL A   1      39.716  33.047  30.178  1.00  0.00     0.060 A 
ATOM     52  C   UNL A   1      41.056  32.718  30.419  1.00  0.00     0.016 A 
ATOM     53  C   UNL A   1      39.373  34.290  29.630  1.00  0.00     0.016 A 
ATOM     54  C   UNL A   1      42.038  33.685  30.220  1.00  0.00     0.010 A 
ATOM     55  C   UNL A   1      40.356  35.260  29.452  1.00  0.00     0.010 A 
ATOM     56  C   UNL A   1      41.682  34.974  29.792  1.00  0.00    -0.014 A 
BRANCH  56  57
ATOM     57  C   UNL A   1      42.758  35.949  29.569  1.00  0.00     0.031 A 
ATOM     58  C   UNL A   1      43.178  36.693  30.789  1.00  0.00     0.074 A 
ATOM     59  C   UNL A   1      43.487  36.070  28.441  1.00  0.00     0.049 A 
ATOM     60  N   UNL A   1      43.330  37.967  30.959  1.00  0.00    -0.248 NA
ATOM     61  C   UNL A   1      43.416  35.887  31.998  1.00  0.00     0.031 C 
ATOM     62  C   UNL A   1      43.456  35.208  27.262  1.00  0.00     0.029 A 
ATOM     63  N   UNL A   1      44.512  36.938  28.165  1.00  0.00    -0.354 N 
ATOM     64  C   UNL A   1      43.810  38.118  32.257  1.00  0.00     0.074 A 
ATOM     65  C   UNL A   1      43.750  36.823  32.883  1.00  0.00     0.031 C 
ATOM     66  C   UNL A   1      44.530  35.474  26.487  1.00  0.00     0.029 A 
ATOM     67  C   UNL A   1      45.297  36.555  27.086  1.00  0.00     0.049 A 
ATOM     68  H   UNL A   1      44.678  37.757  28.685  1.00  0.00     0.167 HD
ATOM     69  C   UNL A   1      44.393  39.261  32.705  1.00  0.00     0.037 A 
ATOM     70  C   UNL A   1      46.538  37.004  26.770  1.00  0.00     0.037 A 
ATOM     71  C   UNL A   1      44.056  40.406  31.914  1.00  0.00     0.049 A 
ATOM     72  C   UNL A   1      46.759  38.295  27.470  1.00  0.00     0.074 A 
ATOM     73  C   UNL A   1      42.869  41.030  31.583  1.00  0.00     0.029 A 
ATOM     74  N   UNL A   1      44.997  40.942  31.072  1.00  0.00    -0.354 N 
ATOM     75  N   UNL A   1      46.163  39.416  27.168  1.00  0.00    -0.248 NA
ATOM     76  C   UNL A   1      47.384  38.256  28.783  1.00  0.00     0.031 C 
ATOM     77  C   UNL A   1      43.060  41.515  30.259  1.00  0.00     0.029 A 
ATOM     78  C   UNL A   1      44.357  41.168  29.879  1.00  0.00     0.049 A 
ATOM     79  H   UNL A   1      45.941  41.127  31.280  1.00  0.00     0.167 HD
ATOM     80  C   UNL A   1      45.984  40.057  28.384  1.00  0.00     0.074 A 
ATOM     81  C   UNL A   1      46.842  39.348  29.324  1.00  0.00     0.031 C 
ATOM     82  C   UNL A   1      44.949  40.924  28.587  1.00  0.00     0.037 A 
BRANCH  69  83
ATOM     83  C   UNL A   1      45.485  39.265  33.732  1.00  0.00     0.064 A 
ATOM     84  C   UNL A   1      46.665  38.532  33.522  1.00  0.00     0.173 A 
ATOM     85  C   UNL A   1      45.296  39.774  35.036  1.00  0.00     0.173 A 
ATOM     86  F   UNL A   1      46.909  37.959  32.333  1.00  0.00    -0.203 F 
ATOM     87  C   UNL A   1      47.583  38.313  34.552  1.00  0.00     0.198 A 
ATOM     88  C   UNL A   1      46.239  39.602  36.044  1.00  0.00     0.198 A 
ATOM     89  F   UNL A   1      44.149  40.367  35.397  1.00  0.00    -0.203 F 
ATOM     90  F   UNL A   1      48.648  37.529  34.337  1.00  0.00    -0.200 F 
ATOM     91  C   UNL A   1      47.372  38.853  35.809  1.00  0.00     0.200 A 
ATOM     92  F   UNL A   1      46.004  40.113  37.262  1.00  0.00    -0.200 F 
ATOM     93  F   UNL A   1      48.235  38.612  36.806  1.00  0.00    -0.200 F 
ENDBRANCH  69  83
BRANCH  70  94
ATOM     94  C   UNL A   1      47.637  36.245  26.113  1.00  0.00     0.064 A 
ATOM     95  C   UNL A   1      48.464  36.832  25.140  1.00  0.00     0.173 A 
ATOM     96  C   UNL A   1      48.044  34.979  26.582  1.00  0.00     0.173 A 
ATOM     97  F   UNL A   1      48.205  38.068  24.687  1.00  0.00    -0.203 F 
ATOM     98  C   UNL A   1      49.610  36.185  24.659  1.00  0.00     0.198 A 
ATOM     99  C   UNL A   1      49.169  34.323  26.084  1.00  0.00     0.198 A 
ATOM    100  F   UNL A   1      47.412  34.382  27.602  1.00  0.00    -0.203 F 
ATOM    101  F   UNL A   1      50.404  36.799  23.771  1.00  0.00    -0.200 F 
ATOM    102  C   UNL A   1      49.958  34.928  25.128  1.00  0.00     0.200 A 
ATOM    103  F   UNL A   1      49.510  33.125  26.579  1.00  0.00    -0.200 F 
ATOM    104  F   UNL A   1      51.071  34.321  24.692  1.00  0.00    -0.200 F 
ENDBRANCH  70  94
BRANCH  82 105
ATOM    105  C   UNL A   1      44.166  41.403  27.399  1.00  0.00     0.064 A 
ATOM    106  C   UNL A   1      44.586  42.456  26.570  1.00  0.00     0.173 A 
ATOM    107  C   UNL A   1      43.072  40.635  26.968  1.00  0.00     0.173 A 
ATOM    108  F   UNL A   1      45.685  43.166  26.858  1.00  0.00    -0.203 F 
ATOM    109  C   UNL A   1      43.922  42.742  25.378  1.00  0.00     0.198 A 
ATOM    110  C   UNL A   1      42.434  40.904  25.760  1.00  0.00     0.198 A 
ATOM    111  F   UNL A   1      42.665  39.580  27.690  1.00  0.00    -0.203 F 
ATOM    112  F   UNL A   1      44.349  43.748  24.601  1.00  0.00    -0.200 F 
ATOM    113  C   UNL A   1      42.855  41.960  24.969  1.00  0.00     0.200 A 
ATOM    114  F   UNL A   1      41.438  40.110  25.341  1.00  0.00    -0.200 F 
ATOM    115  F   UNL A   1      42.258  42.199  23.794  1.00  0.00    -0.200 F 
ENDBRANCH  82 105
ENDBRANCH  56  57
ENDBRANCH  49  51
ENDBRANCH  48  49
ENDBRANCH  47  48
ENDBRANCH  46  47
ENDBRANCH  45  46
ENDBRANCH  44  45
ENDBRANCH  43  44
ENDBRANCH  42  43
ENDBRANCH  41  42
ENDBRANCH   1  41
TORSDOF 26
ENDMDL
MODEL 2
REMARK VINA RESULT:     -10.2      1.234      2.004
REMARK SMILES COc1ccc2c(c1)c(Cc1nc(-c3ccc(C(=O)OCCOCCOCCOCCOC(=O)c4ccc(-c5c6nc(c(-c7c(F)c(F)c(F)c(F)c7F)c7ccc([nH]7)c(-c7c(F)c(F)c(F)c(F)c7F)c7nc(c(-c8c(F)c(F)c(F)c(F)c8F)c8ccc5[nH]8)C=C7)C=C6)cc4)cc3)cs1)c(C)n2C(=O)c1ccc(Cl)cc1
REMARK SMILES IDX 24 1 23 2 22 3 21 4 20 5 18 6 19 7 17 8 14 9 15 10 99 11
REMARK SMILES IDX 16 12 98 13 13 14 11 15 12 16 101 17 100 18 10 19 9 20 3 21
REMARK SMILES IDX 4 22 8 23 5 24 7 25 6 26 104 27 102 28 103 29 2 30 1 31
REMARK SMILES IDX 105 32 106 33 107 34 108 35 113 36 109 37 112 38 110 39
REMARK SMILES IDX 111 40 25 41 26 42 27 43 28 44 29 45 30 46 31 47 32 48 33 49
REMARK SMILES IDX 34 50 35 51 36 52 97 53 37 54 96 55 38 56 39 57 40 58 90 59
REMARK SMILES IDX 41 60 95 61 89 62 91 63 42 64 94 65 88 66 87 67 43 69 75 70
REMARK SMILES IDX 55 71 74 72 56 73 59 74 73 75 92 76 57 77 58 78 72 80 93 81
REMARK SMILES IDX 60 82 44 83 45 84 53 85 46 86 47 87 51 88 54 89 48 90 49 91
REMARK SMILES IDX 52 92 50 93 76 94 77 95 85 96 78 97 79 98 83 99 86 100
REMARK SMILES IDX 80 101 81 102 84 103 82 104 61 105 62 106 70 107 63 108
REMARK SMILES IDX 64 109 68 110 71 111 65 112 66 113 69 114 67 115
REMARK H PARENT 91 68 59 79
REMARK Flexibility Score: inf
ROOT
ATOM      1  C   UNL A   1      42.881  25.724  29.050  1.00  0.00     0.188 C 
ENDROOT
BRANCH   1   2
ATOM      2  O   UNL A   1      42.830  24.853  27.939  1.00  0.00    -0.376 OA
BRANCH   2   3
ATOM      3  C   UNL A   1      41.759  23.953  27.694  1.00  0.00     0.202 C 
BRANCH   3   4
ATOM      4  C   UNL A   1      41.800  22.462  27.289  1.00  0.00     0.261 C 
BRANCH   4   5
ATOM      5  O   UNL A   1      40.572  21.762  27.161  1.00  0.00    -0.460 OA
BRANCH   5   6
ATOM      6  C   UNL A   1      40.427  20.977  26.075  1.00  0.00     0.338 C 
ATOM      7  O   UNL A   1      41.274  20.282  25.546  1.00  0.00    -0.246 OA
BRANCH   6   8
ATOM      8  C   UNL A   1      38.969  20.876  25.832  1.00  0.00     0.060 A 
ATOM      9  C   UNL A   1      36.292  20.910  25.041  1.00  0.00     0.001 A 
ATOM     10  C   UNL A   1      36.901  22.079  25.517  1.00  0.00     0.011 A 
ATOM     11  C   UNL A   1      37.026  19.717  24.979  1.00  0.00     0.011 A 
ATOM     12  C   UNL A   1      38.228  22.058  25.933  1.00  0.00     0.016 A 
ATOM     13  C   UNL A   1      38.373  19.702  25.353  1.00  0.00     0.016 A 
BRANCH   9  14
ATOM     14  C   UNL A   1      34.868  20.909  24.781  1.00  0.00     0.081 A 
ATOM     15  C   UNL A   1      33.143  21.639  23.636  1.00  0.00     0.098 A 
ATOM     16  N   UNL A   1      34.303  21.986  24.147  1.00  0.00    -0.241 NA
ATOM     17  S   UNL A   1      32.525  20.136  24.198  1.00  0.00    -0.126 S 
ATOM     18  C   UNL A   1      34.020  19.842  24.998  1.00  0.00     0.095 A 
BRANCH  15  19
ATOM     19  C   UNL A   1      32.431  22.454  22.599  1.00  0.00     0.105 C 
BRANCH  19  20
ATOM     20  C   UNL A   1      32.099  23.846  23.097  1.00  0.00    -0.012 A 
ATOM     21  C   UNL A   1      30.350  23.951  26.505  1.00  0.00     0.119 A 
ATOM     22  C   UNL A   1      30.116  25.313  26.513  1.00  0.00     0.048 A 
ATOM     23  C   UNL A   1      31.010  23.376  25.419  1.00  0.00     0.057 A 
ATOM     24  C   UNL A   1      30.535  26.113  25.444  1.00  0.00     0.031 A 
ATOM     25  C   UNL A   1      31.461  24.163  24.333  1.00  0.00     0.008 A 
ATOM     26  C   UNL A   1      31.257  25.547  24.369  1.00  0.00     0.057 A 
ATOM     27  N   UNL A   1      31.860  26.109  23.225  1.00  0.00    -0.280 N 
ATOM     28  C   UNL A   1      32.324  25.045  22.430  1.00  0.00     0.028 A 
ATOM     29  C   UNL A   1      32.972  25.176  21.086  1.00  0.00     0.065 C 
BRANCH  21  30
ATOM     30  O   UNL A   1      30.005  23.090  27.511  1.00  0.00    -0.497 OA
ATOM     31  C   UNL A   1      28.868  22.277  27.245  1.00  0.00     0.278 C 
ENDBRANCH  21  30
BRANCH  27  32
ATOM     32  C   UNL A   1      31.956  27.503  22.931  1.00  0.00     0.262 C 
ATOM     33  O   UNL A   1      33.021  27.965  22.528  1.00  0.00    -0.268 OA
BRANCH  32  34
ATOM     34  C   UNL A   1      30.855  28.478  23.034  1.00  0.00     0.040 A 
ATOM     35  C   UNL A   1      31.015  29.680  23.732  1.00  0.00     0.015 A 
ATOM     36  C   UNL A   1      29.631  28.159  22.430  1.00  0.00     0.015 A 
ATOM     37  C   UNL A   1      29.915  30.528  23.895  1.00  0.00     0.021 A 
ATOM     38  C   UNL A   1      28.541  29.013  22.591  1.00  0.00     0.021 A 
ATOM     39  C   UNL A   1      28.681  30.183  23.336  1.00  0.00     0.041 A 
ATOM     40  Cl  UNL A   1      27.317  31.201  23.587  1.00  0.00    -0.084 Cl
ENDBRANCH  32  34
ENDBRANCH  27  32
ENDBRANCH  19  20
ENDBRANCH  15  19
ENDBRANCH   9  14
ENDBRANCH   6   8
ENDBRANCH   5   6
ENDBRANCH   4   5
ENDBRANCH   3   4
ENDBRANCH   2   3
ENDBRANCH   1   2
BRANCH   1  41
ATOM     41  C   UNL A   1      41.562  26.299  29.579  1.00  0.00     0.188 C 
BRANCH  41  42
ATOM     42  O   UNL A   1      40.596  26.450  28.564  1.00  0.00    -0.377 OA
BRANCH  42  43
ATOM     43  C   UNL A   1      40.347  27.768  28.107  1.00  0.00     0.188 C 
BRANCH  43  44
ATOM     44  C   UNL A   1      39.442  28.715  28.914  1.00  0.00     0.188 C 
BRANCH  44  45
ATOM     45  O   UNL A   1      38.396  29.287  28.130  1.00  0.00    -0.376 OA
BRANCH  45  46
ATOM     46  C   UNL A   1      37.243  29.732  28.843  1.00  0.00     0.202 C 
BRANCH  46  47
ATOM     47  C   UNL A   1      37.388  31.112  29.503  1.00  0.00     0.261 C 
BRANCH  47  48
ATOM     48  O   UNL A   1      38.754  31.546  29.586  1.00  0.00    -0.460 OA
BRANCH  48  49
ATOM     49  C   UNL A   1      39.061  32.488  30.510  1.00  0.00     0.338 C 
ATOM     50  O   UNL A   1      38.739  32.502  31.680  1.00  0.00    -0.246 OA
BRANCH  49  51
ATOM     51  C   UNL A   1      40.172  33.270  29.914  1.00  0.00     0.060 A 
ATOM     52  C   UNL A   1      41.511  32.960  30.184  1.00  0.00     0.016 A 
ATOM     53  C   UNL A   1      39.827  34.499  29.336  1.00  0.00     0.016 A 
ATOM     54  C   UNL A   1      42.487  33.933  29.983  1.00  0.00     0.010 A 
ATOM     55  C   UNL A   1      40.803  35.475  29.154  1.00  0.00     0.010 A 
ATOM     56  C   UNL A   1      42.126  35.210  29.523  1.00  0.00    -0.014 A 
BRANCH  56  57
ATOM     57  C   UNL A   1      43.196  36.190  29.298  1.00  0.00     0.031 A 
ATOM     58  C   UNL A   1      43.528  37.023  30.487  1.00  0.00     0.074 A 
ATOM     59  C   UNL A   1      43.991  36.251  28.209  1.00  0.00     0.049 A 
ATOM     60  N   UNL A   1      43.647  38.309  30.578  1.00  0.00    -0.248 NA
ATOM     61  C   UNL A   1      43.706  36.306  31.760  1.00  0.00     0.031 C 
ATOM     62  C   UNL A   1      44.046  35.312  27.092  1.00  0.00     0.029 A 
ATOM     63  N   UNL A   1      45.015  37.121  27.937  1.00  0.00    -0.354 N 
ATOM     64  C   UNL A   1      44.044  38.557  31.889  1.00  0.00     0.074 A 
ATOM     65  C   UNL A   1      43.969  37.305  32.597  1.00  0.00     0.031 C 
ATOM     66  C   UNL A   1      45.160  35.548  26.366  1.00  0.00     0.029 A 
ATOM     67  C   UNL A   1      45.870  36.683  26.935  1.00  0.00     0.049 A 
ATOM     68  H   UNL A   1      45.134  37.976  28.408  1.00  0.00     0.167 HD
ATOM     69  C   UNL A   1      44.579  39.740  32.292  1.00  0.00     0.037 A 
ATOM     70  C   UNL A   1      47.120  37.137  26.663  1.00  0.00     0.037 A 
ATOM     71  C   UNL A   1      44.270  40.822  31.406  1.00  0.00     0.049 A 
ATOM     72  C   UNL A   1      47.275  38.477  27.285  1.00  0.00     0.074 A 
ATOM     73  C   UNL A   1      43.094  41.396  30.963  1.00  0.00     0.029 A 
ATOM     74  N   UNL A   1      45.250  41.320  30.586  1.00  0.00    -0.354 N 
ATOM     75  N   UNL A   1      46.679  39.561  26.872  1.00  0.00    -0.248 NA
ATOM     76  C   UNL A   1      47.820  38.539  28.632  1.00  0.00     0.031 C 
ATOM     77  C   UNL A   1      43.357  41.795  29.622  1.00  0.00     0.029 A 
ATOM     78  C   UNL A   1      44.681  41.452  29.346  1.00  0.00     0.049 A 
ATOM     79  H   UNL A   1      46.177  41.540  30.838  1.00  0.00     0.167 HD
ATOM     80  C   UNL A   1      46.415  40.279  28.029  1.00  0.00     0.074 A 
ATOM     81  C   UNL A   1      47.227  39.653  29.065  1.00  0.00     0.031 C 
ATOM     82  C   UNL A   1      45.354  41.135  28.110  1.00  0.00     0.037 A 
BRANCH  69  83
ATOM     83  C   UNL A   1      45.606  39.836  33.380  1.00  0.00     0.064 A 
ATOM     84  C   UNL A   1      45.378  40.643  34.507  1.00  0.00     0.173 A 
ATOM     85  C   UNL A   1      46.922  39.348  33.223  1.00  0.00     0.173 A 
ATOM     86  F   UNL A   1      44.176  41.201  34.713  1.00  0.00    -0.203 F 
ATOM     87  C   UNL A   1      46.403  40.949  35.405  1.00  0.00     0.198 A 
ATOM     88  C   UNL A   1      47.926  39.608  34.150  1.00  0.00     0.198 A 
ATOM     89  F   UNL A   1      47.297  38.686  32.118  1.00  0.00    -0.203 F 
ATOM     90  F   UNL A   1      46.170  41.799  36.415  1.00  0.00    -0.200 F 
ATOM     91  C   UNL A   1      47.674  40.427  35.229  1.00  0.00     0.200 A 
ATOM     92  F   UNL A   1      49.156  39.113  33.948  1.00  0.00    -0.200 F 
ATOM     93  F   UNL A   1      48.664  40.751  36.071  1.00  0.00    -0.200 F 
ENDBRANCH  69  83
BRANCH  70  94
ATOM     94  C   UNL A   1      48.270  36.360  26.126  1.00  0.00     0.064 A 
ATOM     95  C   UNL A   1      49.018  36.809  25.024  1.00  0.00     0.173 A 
ATOM     96  C   UNL A   1      48.803  35.254  26.819  1.00  0.00     0.173 A 
ATOM     97  F   UNL A   1      48.635  37.901  24.346  1.00  0.00    -0.203 F 
ATOM     98  C   UNL A   1      50.208  36.180  24.635  1.00  0.00     0.198 A 
ATOM     99  C   UNL A   1      49.973  34.611  26.416  1.00  0.00     0.198 A 
ATOM    100  F   UNL A   1      48.252  34.822  27.962  1.00  0.00    -0.203 F 
ATOM    101  F   UNL A   1      50.922  36.670  23.612  1.00  0.00    -0.200 F 
ATOM    102  C   UNL A   1      50.681  35.078  25.329  1.00  0.00     0.200 A 
ATOM    103  F   UNL A   1      50.435  33.571  27.125  1.00  0.00    -0.200 F 
ATOM    104  F   UNL A   1      51.836  34.495  24.978  1.00  0.00    -0.200 F 
ENDBRANCH  70  94
BRANCH  82 105
ATOM    105  C   UNL A   1      44.637  41.515  26.848  1.00  0.00     0.064 A 
ATOM    106  C   UNL A   1      43.508  40.832  26.365  1.00  0.00     0.173 A 
ATOM    107  C   UNL A   1      44.974  42.729  26.229  1.00  0.00     0.173 A 
ATOM    108  F   UNL A   1      43.060  39.724  26.969  1.00  0.00    -0.203 F 
ATOM    109  C   UNL A   1      42.770  41.331  25.293  1.00  0.00     0.198 A 
ATOM    110  C   UNL A   1      44.212  43.240  25.182  1.00  0.00     0.198 A 
ATOM    111  F   UNL A   1      46.007  43.454  26.687  1.00  0.00    -0.203 F 
ATOM    112  F   UNL A   1      41.691  40.665  24.858  1.00  0.00    -0.200 F 
ATOM    113  C   UNL A   1      43.115  42.539  24.711  1.00  0.00     0.200 A 
ATOM    114  F   UNL A   1      44.517  44.436  24.658  1.00  0.00    -0.200 F 
ATOM    115  F   UNL A   1      42.367  43.047  23.722  1.00  0.00    -0.200 F 
ENDBRANCH  82 105
ENDBRANCH  56  57
ENDBRANCH  49  51
ENDBRANCH  48  49
ENDBRANCH  47  48
ENDBRANCH  46  47
ENDBRANCH  45  46
ENDBRANCH  44  45
ENDBRANCH  43  44
ENDBRANCH  42  43
ENDBRANCH  41  42
ENDBRANCH   1  41
TORSDOF 26
ENDMDL
MODEL 3
REMARK VINA RESULT:      -9.9      6.913     13.920
REMARK SMILES COc1ccc2c(c1)c(Cc1nc(-c3ccc(C(=O)OCCOCCOCCOCCOC(=O)c4ccc(-c5c6nc(c(-c7c(F)c(F)c(F)c(F)c7F)c7ccc([nH]7)c(-c7c(F)c(F)c(F)c(F)c7F)c7nc(c(-c8c(F)c(F)c(F)c(F)c8F)c8ccc5[nH]8)C=C7)C=C6)cc4)cc3)cs1)c(C)n2C(=O)c1ccc(Cl)cc1
REMARK SMILES IDX 24 1 23 2 22 3 21 4 20 5 18 6 19 7 17 8 14 9 15 10 99 11
REMARK SMILES IDX 16 12 98 13 13 14 11 15 12 16 101 17 100 18 10 19 9 20 3 21
REMARK SMILES IDX 4 22 8 23 5 24 7 25 6 26 104 27 102 28 103 29 2 30 1 31
REMARK SMILES IDX 105 32 106 33 107 34 108 35 113 36 109 37 112 38 110 39
REMARK SMILES IDX 111 40 25 41 26 42 27 43 28 44 29 45 30 46 31 47 32 48 33 49
REMARK SMILES IDX 34 50 35 51 36 52 97 53 37 54 96 55 38 56 39 57 40 58 90 59
REMARK SMILES IDX 41 60 95 61 89 62 91 63 42 64 94 65 88 66 87 67 43 69 75 70
REMARK SMILES IDX 55 71 74 72 56 73 59 74 73 75 92 76 57 77 58 78 72 80 93 81
REMARK SMILES IDX 60 82 44 83 45 84 53 85 46 86 47 87 51 88 54 89 48 90 49 91
REMARK SMILES IDX 52 92 50 93 76 94 77 95 85 96 78 97 79 98 83 99 86 100
REMARK SMILES IDX 80 101 81 102 84 103 82 104 61 105 62 106 70 107 63 108
REMARK SMILES IDX 64 109 68 110 71 111 65 112 66 113 69 114 67 115
REMARK H PARENT 91 68 59 79
REMARK Flexibility Score: inf
ROOT
ATOM      1  C   UNL A   1      45.184  44.085  29.263  1.00  0.00     0.188 C 
ENDROOT
BRANCH   1   2
ATOM      2  O   UNL A   1      44.830  43.390  28.084  1.00  0.00    -0.376 OA
BRANCH   2   3
ATOM      3  C   UNL A   1      44.705  41.977  28.013  1.00  0.00     0.202 C 
BRANCH   3   4
ATOM      4  C   UNL A   1      43.433  41.108  27.894  1.00  0.00     0.261 C 
BRANCH   4   5
ATOM      5  O   UNL A   1      43.526  39.862  27.221  1.00  0.00    -0.460 OA
BRANCH   5   6
ATOM      6  C   UNL A   1      42.428  39.079  27.230  1.00  0.00     0.338 C 
ATOM      7  O   UNL A   1      41.291  39.395  26.937  1.00  0.00    -0.246 OA
BRANCH   6   8
ATOM      8  C   UNL A   1      42.918  37.687  27.364  1.00  0.00     0.060 A 
ATOM      9  C   UNL A   1      43.558  34.969  27.337  1.00  0.00     0.001 A 
ATOM     10  C   UNL A   1      42.346  35.402  27.891  1.00  0.00     0.011 A 
ATOM     11  C   UNL A   1      44.458  35.907  26.810  1.00  0.00     0.011 A 
ATOM     12  C   UNL A   1      42.036  36.757  27.926  1.00  0.00     0.016 A 
ATOM     13  C   UNL A   1      44.130  37.266  26.802  1.00  0.00     0.016 A 
BRANCH   9  14
ATOM     14  C   UNL A   1      43.942  33.580  27.469  1.00  0.00     0.081 A 
ATOM     15  C   UNL A   1      43.778  31.652  28.506  1.00  0.00     0.098 A 
ATOM     16  N   UNL A   1      43.784  32.955  28.679  1.00  0.00    -0.241 NA
ATOM     17  S   UNL A   1      44.318  31.125  26.961  1.00  0.00    -0.126 S 
ATOM     18  C   UNL A   1      44.341  32.762  26.432  1.00  0.00     0.095 A 
BRANCH  15  19
ATOM     19  C   UNL A   1      43.285  30.692  29.547  1.00  0.00     0.105 C 
BRANCH  19  20
ATOM     20  C   UNL A   1      43.912  29.320  29.399  1.00  0.00    -0.012 A 
ATOM     21  C   UNL A   1      41.518  26.591  28.172  1.00  0.00     0.119 A 
ATOM     22  C   UNL A   1      42.405  25.540  28.308  1.00  0.00     0.048 A 
ATOM     23  C   UNL A   1      41.931  27.882  28.499  1.00  0.00     0.057 A 
ATOM     24  C   UNL A   1      43.707  25.762  28.770  1.00  0.00     0.031 A 
ATOM     25  C   UNL A   1      43.248  28.139  28.952  1.00  0.00     0.008 A 
ATOM     26  C   UNL A   1      44.151  27.075  29.046  1.00  0.00     0.057 A 
ATOM     27  N   UNL A   1      45.401  27.595  29.437  1.00  0.00    -0.280 N 
ATOM     28  C   UNL A   1      45.222  28.966  29.701  1.00  0.00     0.028 A 
ATOM     29  C   UNL A   1      46.273  29.903  30.211  1.00  0.00     0.065 C 
BRANCH  21  30
ATOM     30  O   UNL A   1      40.237  26.480  27.704  1.00  0.00    -0.497 OA
ATOM     31  C   UNL A   1      39.337  27.480  28.170  1.00  0.00     0.278 C 
ENDBRANCH  21  30
BRANCH  27  32
ATOM     32  C   UNL A   1      46.614  26.851  29.559  1.00  0.00     0.262 C 
ATOM     33  O   UNL A   1      46.840  26.229  30.595  1.00  0.00    -0.268 OA
BRANCH  32  34
ATOM     34  C   UNL A   1      47.648  26.721  28.517  1.00  0.00     0.040 A 
ATOM     35  C   UNL A   1      47.776  27.675  27.501  1.00  0.00     0.015 A 
ATOM     36  C   UNL A   1      48.489  25.601  28.556  1.00  0.00     0.015 A 
ATOM     37  C   UNL A   1      48.699  27.459  26.473  1.00  0.00     0.021 A 
ATOM     38  C   UNL A   1      49.412  25.396  27.531  1.00  0.00     0.021 A 
ATOM     39  C   UNL A   1      49.502  26.315  26.486  1.00  0.00     0.041 A 
ATOM     40  Cl  UNL A   1      50.595  26.025  25.190  1.00  0.00    -0.084 Cl
ENDBRANCH  32  34
ENDBRANCH  27  32
ENDBRANCH  19  20
ENDBRANCH  15  19
ENDBRANCH   9  14
ENDBRANCH   6   8
ENDBRANCH   5   6
ENDBRANCH   4   5
ENDBRANCH   3   4
ENDBRANCH   2   3
ENDBRANCH   1   2
BRANCH   1  41
ATOM     41  C   UNL A   1      44.092  44.336  30.309  1.00  0.00     0.188 C 
BRANCH  41  42
ATOM     42  O   UNL A   1      44.354  43.681  31.529  1.00  0.00    -0.377 OA
BRANCH  42  43
ATOM     43  C   UNL A   1      45.671  43.196  31.726  1.00  0.00     0.188 C 
BRANCH  43  44
ATOM     44  C   UNL A   1      45.938  41.684  31.830  1.00  0.00     0.188 C 
BRANCH  44  45
ATOM     45  O   UNL A   1      46.997  41.247  30.980  1.00  0.00    -0.376 OA
BRANCH  45  46
ATOM     46  C   UNL A   1      47.872  40.258  31.520  1.00  0.00     0.202 C 
BRANCH  46  47
ATOM     47  C   UNL A   1      47.169  39.004  32.063  1.00  0.00     0.261 C 
BRANCH  47  48
ATOM     48  O   UNL A   1      46.666  38.155  31.020  1.00  0.00    -0.460 OA
BRANCH  48  49
ATOM     49  C   UNL A   1      45.337  38.192  30.763  1.00  0.00     0.338 C 
ATOM     50  O   UNL A   1      44.769  38.852  29.918  1.00  0.00    -0.246 OA
BRANCH  49  51
ATOM     51  C   UNL A   1      44.776  36.996  31.440  1.00  0.00     0.060 A 
ATOM     52  C   UNL A   1      44.719  35.753  30.797  1.00  0.00     0.016 A 
ATOM     53  C   UNL A   1      44.036  37.231  32.606  1.00  0.00     0.016 A 
ATOM     54  C   UNL A   1      43.826  34.790  31.261  1.00  0.00     0.010 A 
ATOM     55  C   UNL A   1      43.132  36.273  33.054  1.00  0.00     0.010 A 
ATOM     56  C   UNL A   1      42.991  35.071  32.354  1.00  0.00    -0.014 A 
BRANCH  56  57
ATOM     57  C   UNL A   1      42.089  34.011  32.823  1.00  0.00     0.031 A 
ATOM     58  C   UNL A   1      40.759  33.992  32.152  1.00  0.00     0.074 A 
ATOM     59  C   UNL A   1      42.431  32.987  33.632  1.00  0.00     0.049 A 
ATOM     60  N   UNL A   1      39.577  33.940  32.678  1.00  0.00    -0.248 NA
ATOM     61  C   UNL A   1      40.766  34.090  30.682  1.00  0.00     0.031 C 
ATOM     62  C   UNL A   1      43.765  32.643  34.118  1.00  0.00     0.029 A 
ATOM     63  N   UNL A   1      41.655  31.958  34.097  1.00  0.00    -0.354 N 
ATOM     64  C   UNL A   1      38.692  33.867  31.605  1.00  0.00     0.074 A 
ATOM     65  C   UNL A   1      39.465  34.062  30.406  1.00  0.00     0.031 C 
ATOM     66  C   UNL A   1      43.741  31.399  34.644  1.00  0.00     0.029 A 
ATOM     67  C   UNL A   1      42.384  30.879  34.579  1.00  0.00     0.049 A 
ATOM     68  H   UNL A   1      40.671  31.980  34.088  1.00  0.00     0.167 HD
ATOM     69  C   UNL A   1      37.396  33.480  31.737  1.00  0.00     0.037 A 
ATOM     70  C   UNL A   1      41.938  29.615  34.797  1.00  0.00     0.037 A 
ATOM     71  C   UNL A   1      36.909  33.610  33.078  1.00  0.00     0.049 A 
ATOM     72  C   UNL A   1      40.456  29.654  34.890  1.00  0.00     0.074 A 
ATOM     73  C   UNL A   1      36.781  34.670  33.955  1.00  0.00     0.029 A 
ATOM     74  N   UNL A   1      36.718  32.484  33.836  1.00  0.00    -0.354 N 
ATOM     75  N   UNL A   1      39.786  30.174  35.882  1.00  0.00    -0.248 NA
ATOM     76  C   UNL A   1      39.695  29.439  33.669  1.00  0.00     0.031 C 
ATOM     77  C   UNL A   1      37.021  34.116  35.244  1.00  0.00     0.029 A 
ATOM     78  C   UNL A   1      37.263  32.754  35.066  1.00  0.00     0.049 A 
ATOM     79  H   UNL A   1      36.278  31.648  33.555  1.00  0.00     0.167 HD
ATOM     80  C   UNL A   1      38.657  30.723  35.294  1.00  0.00     0.074 A 
ATOM     81  C   UNL A   1      38.604  30.153  33.953  1.00  0.00     0.031 C 
ATOM     82  C   UNL A   1      38.022  31.802  35.840  1.00  0.00     0.037 A 
BRANCH  69  83
ATOM     83  C   UNL A   1      36.659  32.737  30.664  1.00  0.00     0.064 A 
ATOM     84  C   UNL A   1      37.264  31.658  29.998  1.00  0.00     0.173 A 
ATOM     85  C   UNL A   1      35.458  33.219  30.098  1.00  0.00     0.173 A 
ATOM     86  F   UNL A   1      38.437  31.166  30.425  1.00  0.00    -0.203 F 
ATOM     87  C   UNL A   1      36.711  31.112  28.838  1.00  0.00     0.198 A 
ATOM     88  C   UNL A   1      34.879  32.636  28.976  1.00  0.00     0.198 A 
ATOM     89  F   UNL A   1      34.862  34.329  30.559  1.00  0.00    -0.203 F 
ATOM     90  F   UNL A   1      37.367  30.147  28.179  1.00  0.00    -0.200 F 
ATOM     91  C   UNL A   1      35.516  31.597  28.332  1.00  0.00     0.200 A 
ATOM     92  F   UNL A   1      33.735  33.137  28.487  1.00  0.00    -0.200 F 
ATOM     93  F   UNL A   1      35.005  31.096  27.199  1.00  0.00    -0.200 F 
ENDBRANCH  69  83
BRANCH  70  94
ATOM     94  C   UNL A   1      42.704  28.347  34.662  1.00  0.00     0.064 A 
ATOM     95  C   UNL A   1      42.998  27.788  33.407  1.00  0.00     0.173 A 
ATOM     96  C   UNL A   1      43.359  27.759  35.764  1.00  0.00     0.173 A 
ATOM     97  F   UNL A   1      42.485  28.326  32.290  1.00  0.00    -0.203 F 
ATOM     98  C   UNL A   1      43.874  26.703  33.270  1.00  0.00     0.198 A 
ATOM     99  C   UNL A   1      44.210  26.662  35.630  1.00  0.00     0.198 A 
ATOM    100  F   UNL A   1      43.263  28.290  36.991  1.00  0.00    -0.203 F 
ATOM    101  F   UNL A   1      44.171  26.232  32.051  1.00  0.00    -0.200 F 
ATOM    102  C   UNL A   1      44.474  26.138  34.383  1.00  0.00     0.200 A 
ATOM    103  F   UNL A   1      44.811  26.155  36.716  1.00  0.00    -0.200 F 
ATOM    104  F   UNL A   1      45.337  25.121  34.250  1.00  0.00    -0.200 F 
ENDBRANCH  70  94
BRANCH  82 105
ATOM    105  C   UNL A   1      38.381  32.219  37.236  1.00  0.00     0.064 A 
ATOM    106  C   UNL A   1      39.308  33.234  37.525  1.00  0.00     0.173 A 
ATOM    107  C   UNL A   1      37.610  31.723  38.299  1.00  0.00     0.173 A 
ATOM    108  F   UNL A   1      40.004  33.832  36.549  1.00  0.00    -0.203 F 
ATOM    109  C   UNL A   1      39.471  33.710  38.825  1.00  0.00     0.198 A 
ATOM    110  C   UNL A   1      37.753  32.226  39.589  1.00  0.00     0.198 A 
ATOM    111  F   UNL A   1      36.668  30.794  38.071  1.00  0.00    -0.203 F 
ATOM    112  F   UNL A   1      40.356  34.686  39.072  1.00  0.00    -0.200 F 
ATOM    113  C   UNL A   1      38.687  33.214  39.852  1.00  0.00     0.200 A 
ATOM    114  F   UNL A   1      36.953  31.783  40.570  1.00  0.00    -0.200 F 
ATOM    115  F   UNL A   1      38.802  33.716  41.089  1.00  0.00    -0.200 F 
ENDBRANCH  82 105
ENDBRANCH  56  57
ENDBRANCH  49  51
ENDBRANCH  48  49
ENDBRANCH  47  48
ENDBRANCH  46  47
ENDBRANCH  45  46
ENDBRANCH  44  45
ENDBRANCH  43  44
ENDBRANCH  42  43
ENDBRANCH  41  42
ENDBRANCH   1  41
TORSDOF 26
ENDMDL
