MODEL 1
REMARK VINA RESULT:     -11.0      0.000      0.000
REMARK SMILES C[C@H]1N=N[C@H](S/C(=C/c2ccc(-c3cccc(Cl)c3)o2)C(=O)OCCOCCOCCOCCOC(=O)c2ccc(-c3c4nc(c(-c5c(F)c(F)c(F)c(F)c5F)c5ccc([nH]5)c(-c5c(F)c(F)c(F)c(F)c5F)c5nc(c(-c6c(F)c(F)c(F)c(F)c6F)c6ccc3[nH]6)C=C5)C=C4)cc2)[NH2+]1
REMARK SMILES IDX 29 1 28 2 27 3 26 4 25 5 24 6 23 7 21 8 22 9 7 10 8 11 6 12
REMARK SMILES IDX 5 13 1 14 2 15 3 16 101 17 4 18 9 21 10 22 20 23 11 24 12 25
REMARK SMILES IDX 13 26 14 27 19 28 15 29 17 30 16 31 18 32 30 33 31 34 32 35
REMARK SMILES IDX 33 36 34 37 35 38 36 39 37 40 38 41 39 42 100 43 40 44 99 45
REMARK SMILES IDX 41 46 42 47 43 48 93 49 44 50 98 51 92 52 94 53 45 54 97 55
REMARK SMILES IDX 91 56 90 57 46 59 78 60 58 61 77 62 59 63 62 64 76 65 95 66
REMARK SMILES IDX 60 67 61 68 75 70 96 71 63 72 47 73 48 74 56 75 49 76 50 77
REMARK SMILES IDX 54 78 57 79 51 80 52 81 55 82 53 83 79 84 80 85 88 86 81 87
REMARK SMILES IDX 82 88 86 89 89 90 83 91 84 92 87 93 85 94 64 95 65 96 73 97
REMARK SMILES IDX 66 98 67 99 71 100 74 101 68 102 69 103 72 104 70 105
REMARK H PARENT 101 19 101 20 94 58 62 69
REMARK Flexibility Score: inf
ROOT
ATOM      1  O   UNL A   1      39.399  21.340  25.802  1.00  0.00    -0.377 OA
ENDROOT
BRANCH   1   2
ATOM      2  C   UNL A   1      38.314  22.250  25.764  1.00  0.00     0.188 C 
BRANCH   2   3
ATOM      3  C   UNL A   1      36.884  21.678  25.617  1.00  0.00     0.188 C 
BRANCH   3   4
ATOM      4  O   UNL A   1      35.841  22.504  26.096  1.00  0.00    -0.376 OA
BRANCH   4   5
ATOM      5  C   UNL A   1      34.965  23.193  25.222  1.00  0.00     0.202 C 
BRANCH   5   6
ATOM      6  C   UNL A   1      34.978  24.711  24.989  1.00  0.00     0.261 C 
BRANCH   6   7
ATOM      7  O   UNL A   1      33.737  25.272  24.584  1.00  0.00    -0.459 OA
BRANCH   7   8
ATOM      8  C   UNL A   1      33.283  25.013  23.334  1.00  0.00     0.345 C 
ATOM      9  O   UNL A   1      33.949  24.609  22.394  1.00  0.00    -0.246 OA
BRANCH   8  10
ATOM     10  C   UNL A   1      31.792  25.203  23.318  1.00  0.00     0.104 C 
ATOM     11  C   UNL A   1      30.948  24.237  23.741  1.00  0.00     0.070 C 
BRANCH  10  12
ATOM     12  S   UNL A   1      31.356  26.659  22.459  1.00  0.00    -0.028 SA
BRANCH  12  13
ATOM     13  C   UNL A   1      30.154  27.566  23.468  1.00  0.00     0.393 C 
ATOM     14  C   UNL A   1      28.926  30.838  22.877  1.00  0.00     0.106 C 
ATOM     15  C   UNL A   1      29.938  29.700  22.791  1.00  0.00     0.324 C 
ATOM     16  N   UNL A   1      30.696  29.664  24.051  1.00  0.00    -0.126 NA
ATOM     17  N   UNL A   1      29.292  28.392  22.615  1.00  0.00    -0.293 N 
ATOM     18  N   UNL A   1      30.782  28.478  24.452  1.00  0.00    -0.115 NA
ATOM     19  H   UNL A   1      29.317  28.086  21.642  1.00  0.00     0.350 HD
ATOM     20  H   UNL A   1      28.300  28.366  22.851  1.00  0.00     0.350 HD
ENDBRANCH  12  13
ENDBRANCH  10  12
BRANCH  11  21
ATOM     21  C   UNL A   1      31.370  23.008  24.350  1.00  0.00     0.128 A 
ATOM     22  C   UNL A   1      31.377  22.623  25.691  1.00  0.00     0.051 A 
ATOM     23  O   UNL A   1      31.875  21.933  23.625  1.00  0.00    -0.457 OA
ATOM     24  C   UNL A   1      31.994  21.365  25.792  1.00  0.00     0.051 A 
ATOM     25  C   UNL A   1      32.243  20.956  24.505  1.00  0.00     0.134 A 
BRANCH  25  26
ATOM     26  C   UNL A   1      32.736  19.689  23.986  1.00  0.00     0.019 A 
ATOM     27  C   UNL A   1      32.171  19.198  22.794  1.00  0.00     0.012 A 
ATOM     28  C   UNL A   1      33.688  18.911  24.651  1.00  0.00     0.032 A 
ATOM     29  C   UNL A   1      32.518  17.947  22.288  1.00  0.00     0.002 A 
ATOM     30  C   UNL A   1      34.043  17.663  24.128  1.00  0.00     0.041 A 
ATOM     31  C   UNL A   1      33.450  17.171  22.965  1.00  0.00     0.020 A 
ATOM     32  Cl  UNL A   1      35.245  16.710  24.899  1.00  0.00    -0.084 Cl
ENDBRANCH  25  26
ENDBRANCH  11  21
ENDBRANCH   8  10
ENDBRANCH   7   8
ENDBRANCH   6   7
ENDBRANCH   5   6
ENDBRANCH   4   5
ENDBRANCH   3   4
ENDBRANCH   2   3
ENDBRANCH   1   2
BRANCH   1  33
ATOM     33  C   UNL A   1      40.478  21.557  26.703  1.00  0.00     0.188 C 
BRANCH  33  34
ATOM     34  C   UNL A   1      41.454  20.432  27.126  1.00  0.00     0.188 C 
BRANCH  34  35
ATOM     35  O   UNL A   1      41.829  19.537  26.096  1.00  0.00    -0.376 OA
BRANCH  35  36
ATOM     36  C   UNL A   1      42.664  18.438  26.413  1.00  0.00     0.202 C 
BRANCH  36  37
ATOM     37  C   UNL A   1      43.859  18.162  25.491  1.00  0.00     0.261 C 
BRANCH  37  38
ATOM     38  O   UNL A   1      43.998  19.040  24.364  1.00  0.00    -0.460 OA
BRANCH  38  39
ATOM     39  C   UNL A   1      45.155  19.723  24.258  1.00  0.00     0.338 C 
ATOM     40  O   UNL A   1      46.191  19.358  23.726  1.00  0.00    -0.246 OA
BRANCH  39  41
ATOM     41  C   UNL A   1      44.911  21.084  24.765  1.00  0.00     0.060 A 
ATOM     42  C   UNL A   1      44.654  22.126  23.863  1.00  0.00     0.016 A 
ATOM     43  C   UNL A   1      44.955  21.328  26.137  1.00  0.00     0.016 A 
ATOM     44  C   UNL A   1      44.468  23.427  24.333  1.00  0.00     0.010 A 
ATOM     45  C   UNL A   1      44.805  22.634  26.599  1.00  0.00     0.010 A 
ATOM     46  C   UNL A   1      44.586  23.694  25.702  1.00  0.00    -0.014 A 
BRANCH  46  47
ATOM     47  C   UNL A   1      44.717  25.093  26.178  1.00  0.00     0.031 A 
ATOM     48  C   UNL A   1      46.078  25.732  26.117  1.00  0.00     0.074 A 
ATOM     49  C   UNL A   1      43.664  25.786  26.646  1.00  0.00     0.049 A 
ATOM     50  N   UNL A   1      46.467  26.914  26.521  1.00  0.00    -0.248 NA
ATOM     51  C   UNL A   1      47.151  24.916  25.522  1.00  0.00     0.031 C 
ATOM     52  C   UNL A   1      42.292  25.291  26.732  1.00  0.00     0.029 A 
ATOM     53  N   UNL A   1      43.594  27.065  27.144  1.00  0.00    -0.354 N 
ATOM     54  C   UNL A   1      47.827  26.973  26.247  1.00  0.00     0.074 A 
ATOM     55  C   UNL A   1      48.206  25.697  25.680  1.00  0.00     0.031 C 
ATOM     56  C   UNL A   1      41.515  26.255  27.255  1.00  0.00     0.029 A 
ATOM     57  C   UNL A   1      42.340  27.421  27.574  1.00  0.00     0.049 A 
ATOM     58  H   UNL A   1      44.370  27.669  27.187  1.00  0.00     0.167 HD
ATOM     59  C   UNL A   1      48.684  28.004  26.435  1.00  0.00     0.037 A 
ATOM     60  C   UNL A   1      41.918  28.552  28.174  1.00  0.00     0.037 A 
ATOM     61  C   UNL A   1      48.305  29.272  26.997  1.00  0.00     0.049 A 
ATOM     62  C   UNL A   1      42.905  29.666  28.432  1.00  0.00     0.074 A 
ATOM     63  C   UNL A   1      49.092  30.389  27.215  1.00  0.00     0.029 A 
ATOM     64  N   UNL A   1      47.029  29.588  27.438  1.00  0.00    -0.354 N 
ATOM     65  N   UNL A   1      44.182  29.729  28.144  1.00  0.00    -0.248 NA
ATOM     66  C   UNL A   1      42.385  30.871  29.097  1.00  0.00     0.031 C 
ATOM     67  C   UNL A   1      48.307  31.358  27.846  1.00  0.00     0.029 A 
ATOM     68  C   UNL A   1      47.013  30.875  27.952  1.00  0.00     0.049 A 
ATOM     69  H   UNL A   1      46.250  28.988  27.393  1.00  0.00     0.167 HD
ATOM     70  C   UNL A   1      44.609  30.987  28.554  1.00  0.00     0.074 A 
ATOM     71  C   UNL A   1      43.451  31.659  29.101  1.00  0.00     0.031 C 
ATOM     72  C   UNL A   1      45.847  31.537  28.480  1.00  0.00     0.037 A 
BRANCH  59  73
ATOM     73  C   UNL A   1      50.122  27.785  26.059  1.00  0.00     0.064 A 
ATOM     74  C   UNL A   1      51.108  27.514  27.021  1.00  0.00     0.173 A 
ATOM     75  C   UNL A   1      50.516  27.835  24.713  1.00  0.00     0.173 A 
ATOM     76  F   UNL A   1      50.787  27.473  28.323  1.00  0.00    -0.203 F 
ATOM     77  C   UNL A   1      52.437  27.335  26.653  1.00  0.00     0.198 A 
ATOM     78  C   UNL A   1      51.841  27.619  24.346  1.00  0.00     0.198 A 
ATOM     79  F   UNL A   1      49.615  28.090  23.752  1.00  0.00    -0.203 F 
ATOM     80  F   UNL A   1      53.371  27.137  27.595  1.00  0.00    -0.200 F 
ATOM     81  C   UNL A   1      52.802  27.379  25.316  1.00  0.00     0.200 A 
ATOM     82  F   UNL A   1      52.189  27.647  23.052  1.00  0.00    -0.200 F 
ATOM     83  F   UNL A   1      54.082  27.199  24.963  1.00  0.00    -0.200 F 
ENDBRANCH  59  73
BRANCH  60  84
ATOM     84  C   UNL A   1      40.494  28.695  28.580  1.00  0.00     0.064 A 
ATOM     85  C   UNL A   1      39.523  29.146  27.674  1.00  0.00     0.173 A 
ATOM     86  C   UNL A   1      40.078  28.416  29.891  1.00  0.00     0.173 A 
ATOM     87  F   UNL A   1      39.873  29.454  26.416  1.00  0.00    -0.203 F 
ATOM     88  C   UNL A   1      38.199  29.334  28.067  1.00  0.00     0.198 A 
ATOM     89  C   UNL A   1      38.747  28.570  30.274  1.00  0.00     0.198 A 
ATOM     90  F   UNL A   1      40.964  27.989  30.802  1.00  0.00    -0.203 F 
ATOM     91  F   UNL A   1      37.305  29.821  27.195  1.00  0.00    -0.200 F 
ATOM     92  C   UNL A   1      37.811  29.041  29.366  1.00  0.00     0.200 A 
ATOM     93  F   UNL A   1      38.375  28.271  31.526  1.00  0.00    -0.200 F 
ATOM     94  F   UNL A   1      36.538  29.219  29.744  1.00  0.00    -0.200 F 
ENDBRANCH  60  84
BRANCH  72  95
ATOM     95  C   UNL A   1      46.006  32.958  28.948  1.00  0.00     0.064 A 
ATOM     96  C   UNL A   1      45.803  34.052  28.095  1.00  0.00     0.173 A 
ATOM     97  C   UNL A   1      46.326  33.226  30.290  1.00  0.00     0.173 A 
ATOM     98  F   UNL A   1      45.505  33.854  26.802  1.00  0.00    -0.203 F 
ATOM     99  C   UNL A   1      45.946  35.358  28.558  1.00  0.00     0.198 A 
ATOM    100  C   UNL A   1      46.432  34.533  30.758  1.00  0.00     0.198 A 
ATOM    101  F   UNL A   1      46.521  32.218  31.154  1.00  0.00    -0.203 F 
ATOM    102  F   UNL A   1      45.804  36.386  27.709  1.00  0.00    -0.200 F 
ATOM    103  C   UNL A   1      46.253  35.598  29.889  1.00  0.00     0.200 A 
ATOM    104  F   UNL A   1      46.708  34.761  32.049  1.00  0.00    -0.200 F 
ATOM    105  F   UNL A   1      46.383  36.856  30.333  1.00  0.00    -0.200 F 
ENDBRANCH  72  95
ENDBRANCH  46  47
ENDBRANCH  39  41
ENDBRANCH  38  39
ENDBRANCH  37  38
ENDBRANCH  36  37
ENDBRANCH  35  36
ENDBRANCH  34  35
ENDBRANCH  33  34
ENDBRANCH   1  33
TORSDOF 24
ENDMDL
MODEL 2
REMARK VINA RESULT:     -10.6      4.658      8.954
REMARK SMILES C[C@H]1N=N[C@H](S/C(=C/c2ccc(-c3cccc(Cl)c3)o2)C(=O)OCCOCCOCCOCCOC(=O)c2ccc(-c3c4nc(c(-c5c(F)c(F)c(F)c(F)c5F)c5ccc([nH]5)c(-c5c(F)c(F)c(F)c(F)c5F)c5nc(c(-c6c(F)c(F)c(F)c(F)c6F)c6ccc3[nH]6)C=C5)C=C4)cc2)[NH2+]1
REMARK SMILES IDX 29 1 28 2 27 3 26 4 25 5 24 6 23 7 21 8 22 9 7 10 8 11 6 12
REMARK SMILES IDX 5 13 1 14 2 15 3 16 101 17 4 18 9 21 10 22 20 23 11 24 12 25
REMARK SMILES IDX 13 26 14 27 19 28 15 29 17 30 16 31 18 32 30 33 31 34 32 35
REMARK SMILES IDX 33 36 34 37 35 38 36 39 37 40 38 41 39 42 100 43 40 44 99 45
REMARK SMILES IDX 41 46 42 47 43 48 93 49 44 50 98 51 92 52 94 53 45 54 97 55
REMARK SMILES IDX 91 56 90 57 46 59 78 60 58 61 77 62 59 63 62 64 76 65 95 66
REMARK SMILES IDX 60 67 61 68 75 70 96 71 63 72 47 73 48 74 56 75 49 76 50 77
REMARK SMILES IDX 54 78 57 79 51 80 52 81 55 82 53 83 79 84 80 85 88 86 81 87
REMARK SMILES IDX 82 88 86 89 89 90 83 91 84 92 87 93 85 94 64 95 65 96 73 97
REMARK SMILES IDX 66 98 67 99 71 100 74 101 68 102 69 103 72 104 70 105
REMARK H PARENT 101 19 101 20 94 58 62 69
REMARK Flexibility Score: inf
ROOT
ATOM      1  O   UNL A   1      40.513  22.902  27.707  1.00  0.00    -0.377 OA
ENDROOT
BRANCH   1   2
ATOM      2  C   UNL A   1      39.735  23.032  26.530  1.00  0.00     0.188 C 
BRANCH   2   3
ATOM      3  C   UNL A   1      38.672  24.156  26.477  1.00  0.00     0.188 C 
BRANCH   3   4
ATOM      4  O   UNL A   1      37.336  23.747  26.688  1.00  0.00    -0.376 OA
BRANCH   4   5
ATOM      5  C   UNL A   1      36.585  23.083  25.688  1.00  0.00     0.202 C 
BRANCH   5   6
ATOM      6  C   UNL A   1      36.156  23.711  24.354  1.00  0.00     0.261 C 
BRANCH   6   7
ATOM      7  O   UNL A   1      34.846  24.259  24.336  1.00  0.00    -0.459 OA
BRANCH   7   8
ATOM      8  C   UNL A   1      34.008  23.907  23.332  1.00  0.00     0.345 C 
ATOM      9  O   UNL A   1      34.321  23.352  22.291  1.00  0.00    -0.246 OA
BRANCH   8  10
ATOM     10  C   UNL A   1      32.599  24.217  23.754  1.00  0.00     0.104 C 
ATOM     11  C   UNL A   1      31.901  23.392  24.564  1.00  0.00     0.070 C 
BRANCH  10  12
ATOM     12  S   UNL A   1      31.961  25.573  22.858  1.00  0.00    -0.028 SA
BRANCH  12  13
ATOM     13  C   UNL A   1      32.854  27.061  23.383  1.00  0.00     0.393 C 
ATOM     14  C   UNL A   1      31.725  29.517  25.676  1.00  0.00     0.106 C 
ATOM     15  C   UNL A   1      31.565  28.408  24.641  1.00  0.00     0.324 C 
ATOM     16  N   UNL A   1      31.729  29.001  23.305  1.00  0.00    -0.126 NA
ATOM     17  N   UNL A   1      32.575  27.352  24.794  1.00  0.00    -0.293 N 
ATOM     18  N   UNL A   1      32.482  28.272  22.615  1.00  0.00    -0.115 NA
ATOM     19  H   UNL A   1      32.201  26.538  25.282  1.00  0.00     0.350 HD
ATOM     20  H   UNL A   1      33.390  27.613  25.349  1.00  0.00     0.350 HD
ENDBRANCH  12  13
ENDBRANCH  10  12
BRANCH  11  21
ATOM     21  C   UNL A   1      32.453  22.227  25.196  1.00  0.00     0.128 A 
ATOM     22  C   UNL A   1      33.023  22.072  26.459  1.00  0.00     0.051 A 
ATOM     23  O   UNL A   1      32.501  20.979  24.581  1.00  0.00    -0.457 OA
ATOM     24  C   UNL A   1      33.522  20.763  26.567  1.00  0.00     0.051 A 
ATOM     25  C   UNL A   1      33.143  20.113  25.418  1.00  0.00     0.134 A 
BRANCH  25  26
ATOM     26  C   UNL A   1      33.256  18.714  25.032  1.00  0.00     0.019 A 
ATOM     27  C   UNL A   1      33.933  18.410  23.837  1.00  0.00     0.012 A 
ATOM     28  C   UNL A   1      32.666  17.674  25.756  1.00  0.00     0.032 A 
ATOM     29  C   UNL A   1      33.996  17.106  23.349  1.00  0.00     0.002 A 
ATOM     30  C   UNL A   1      32.748  16.365  25.268  1.00  0.00     0.041 A 
ATOM     31  C   UNL A   1      33.391  16.080  24.063  1.00  0.00     0.020 A 
ATOM     32  Cl  UNL A   1      32.074  15.063  26.163  1.00  0.00    -0.084 Cl
ENDBRANCH  25  26
ENDBRANCH  11  21
ENDBRANCH   8  10
ENDBRANCH   7   8
ENDBRANCH   6   7
ENDBRANCH   5   6
ENDBRANCH   4   5
ENDBRANCH   3   4
ENDBRANCH   2   3
ENDBRANCH   1   2
BRANCH   1  33
ATOM     33  C   UNL A   1      41.321  21.747  27.900  1.00  0.00     0.188 C 
BRANCH  33  34
ATOM     34  C   UNL A   1      42.040  21.026  26.735  1.00  0.00     0.188 C 
BRANCH  34  35
ATOM     35  O   UNL A   1      43.177  21.692  26.219  1.00  0.00    -0.376 OA
BRANCH  35  36
ATOM     36  C   UNL A   1      43.054  22.429  25.016  1.00  0.00     0.202 C 
BRANCH  36  37
ATOM     37  C   UNL A   1      44.212  23.359  24.629  1.00  0.00     0.261 C 
BRANCH  37  38
ATOM     38  O   UNL A   1      44.872  24.025  25.715  1.00  0.00    -0.460 OA
BRANCH  38  39
ATOM     39  C   UNL A   1      45.127  25.340  25.564  1.00  0.00     0.338 C 
ATOM     40  O   UNL A   1      45.803  25.873  24.699  1.00  0.00    -0.246 OA
BRANCH  39  41
ATOM     41  C   UNL A   1      44.305  26.065  26.547  1.00  0.00     0.060 A 
ATOM     42  C   UNL A   1      44.408  27.460  26.645  1.00  0.00     0.016 A 
ATOM     43  C   UNL A   1      43.443  25.356  27.383  1.00  0.00     0.016 A 
ATOM     44  C   UNL A   1      43.666  28.149  27.605  1.00  0.00     0.010 A 
ATOM     45  C   UNL A   1      42.732  26.045  28.364  1.00  0.00     0.010 A 
ATOM     46  C   UNL A   1      42.857  27.439  28.499  1.00  0.00    -0.014 A 
BRANCH  46  47
ATOM     47  C   UNL A   1      42.326  28.105  29.714  1.00  0.00     0.031 A 
ATOM     48  C   UNL A   1      40.999  28.805  29.609  1.00  0.00     0.074 A 
ATOM     49  C   UNL A   1      42.992  28.088  30.882  1.00  0.00     0.049 A 
ATOM     50  N   UNL A   1      40.348  29.505  30.502  1.00  0.00    -0.248 NA
ATOM     51  C   UNL A   1      40.315  28.705  28.308  1.00  0.00     0.031 C 
ATOM     52  C   UNL A   1      44.271  27.423  31.121  1.00  0.00     0.029 A 
ATOM     53  N   UNL A   1      42.676  28.657  32.092  1.00  0.00    -0.354 N 
ATOM     54  C   UNL A   1      39.194  29.942  29.866  1.00  0.00     0.074 A 
ATOM     55  C   UNL A   1      39.250  29.465  28.502  1.00  0.00     0.031 C 
ATOM     56  C   UNL A   1      44.633  27.626  32.399  1.00  0.00     0.029 A 
ATOM     57  C   UNL A   1      43.631  28.463  33.058  1.00  0.00     0.049 A 
ATOM     58  H   UNL A   1      41.843  29.157  32.250  1.00  0.00     0.167 HD
ATOM     59  C   UNL A   1      38.169  30.665  30.376  1.00  0.00     0.037 A 
ATOM     60  C   UNL A   1      43.692  28.928  34.323  1.00  0.00     0.037 A 
ATOM     61  C   UNL A   1      38.115  31.137  31.733  1.00  0.00     0.049 A 
ATOM     62  C   UNL A   1      42.567  29.786  34.851  1.00  0.00     0.074 A 
ATOM     63  C   UNL A   1      37.114  31.862  32.354  1.00  0.00     0.029 A 
ATOM     64  N   UNL A   1      39.110  30.936  32.677  1.00  0.00    -0.354 N 
ATOM     65  N   UNL A   1      41.465  30.171  34.256  1.00  0.00    -0.248 NA
ATOM     66  C   UNL A   1      42.696  30.269  36.235  1.00  0.00     0.031 C 
ATOM     67  C   UNL A   1      37.533  32.156  33.655  1.00  0.00     0.029 A 
ATOM     68  C   UNL A   1      38.759  31.547  33.870  1.00  0.00     0.049 A 
ATOM     69  H   UNL A   1      39.943  30.434  32.522  1.00  0.00     0.167 HD
ATOM     70  C   UNL A   1      40.753  30.906  35.198  1.00  0.00     0.074 A 
ATOM     71  C   UNL A   1      41.545  30.902  36.409  1.00  0.00     0.031 C 
ATOM     72  C   UNL A   1      39.552  31.523  35.074  1.00  0.00     0.037 A 
BRANCH  59  73
ATOM     73  C   UNL A   1      37.041  31.014  29.448  1.00  0.00     0.064 A 
ATOM     74  C   UNL A   1      36.905  32.297  28.894  1.00  0.00     0.173 A 
ATOM     75  C   UNL A   1      36.088  30.045  29.096  1.00  0.00     0.173 A 
ATOM     76  F   UNL A   1      37.778  33.265  29.212  1.00  0.00    -0.203 F 
ATOM     77  C   UNL A   1      35.841  32.606  28.053  1.00  0.00     0.198 A 
ATOM     78  C   UNL A   1      35.046  30.347  28.225  1.00  0.00     0.198 A 
ATOM     79  F   UNL A   1      36.170  28.803  29.596  1.00  0.00    -0.203 F 
ATOM     80  F   UNL A   1      35.698  33.853  27.584  1.00  0.00    -0.200 F 
ATOM     81  C   UNL A   1      34.917  31.630  27.712  1.00  0.00     0.200 A 
ATOM     82  F   UNL A   1      34.162  29.399  27.885  1.00  0.00    -0.200 F 
ATOM     83  F   UNL A   1      33.896  31.926  26.895  1.00  0.00    -0.200 F 
ENDBRANCH  59  73
BRANCH  60  84
ATOM     84  C   UNL A   1      44.862  28.602  35.183  1.00  0.00     0.064 A 
ATOM     85  C   UNL A   1      46.015  29.400  35.172  1.00  0.00     0.173 A 
ATOM     86  C   UNL A   1      44.865  27.468  36.010  1.00  0.00     0.173 A 
ATOM     87  F   UNL A   1      46.075  30.480  34.378  1.00  0.00    -0.203 F 
ATOM     88  C   UNL A   1      47.133  29.066  35.935  1.00  0.00     0.198 A 
ATOM     89  C   UNL A   1      45.969  27.154  36.799  1.00  0.00     0.198 A 
ATOM     90  F   UNL A   1      43.792  26.665  36.055  1.00  0.00    -0.203 F 
ATOM     91  F   UNL A   1      48.241  29.815  35.860  1.00  0.00    -0.200 F 
ATOM     92  C   UNL A   1      47.107  27.946  36.752  1.00  0.00     0.200 A 
ATOM     93  F   UNL A   1      45.933  26.079  37.599  1.00  0.00    -0.200 F 
ATOM     94  F   UNL A   1      48.180  27.625  37.488  1.00  0.00    -0.200 F 
ENDBRANCH  60  84
BRANCH  72  95
ATOM     95  C   UNL A   1      38.986  32.199  36.293  1.00  0.00     0.064 A 
ATOM     96  C   UNL A   1      38.128  31.537  37.182  1.00  0.00     0.173 A 
ATOM     97  C   UNL A   1      39.348  33.522  36.597  1.00  0.00     0.173 A 
ATOM     98  F   UNL A   1      37.741  30.275  36.936  1.00  0.00    -0.203 F 
ATOM     99  C   UNL A   1      37.627  32.183  38.310  1.00  0.00     0.198 A 
ATOM    100  C   UNL A   1      38.876  34.152  37.744  1.00  0.00     0.198 A 
ATOM    101  F   UNL A   1      40.175  34.200  35.787  1.00  0.00    -0.203 F 
ATOM    102  F   UNL A   1      36.762  31.548  39.114  1.00  0.00    -0.200 F 
ATOM    103  C   UNL A   1      38.007  33.486  38.595  1.00  0.00     0.200 A 
ATOM    104  F   UNL A   1      39.261  35.404  38.027  1.00  0.00    -0.200 F 
ATOM    105  F   UNL A   1      37.529  34.103  39.684  1.00  0.00    -0.200 F 
ENDBRANCH  72  95
ENDBRANCH  46  47
ENDBRANCH  39  41
ENDBRANCH  38  39
ENDBRANCH  37  38
ENDBRANCH  36  37
ENDBRANCH  35  36
ENDBRANCH  34  35
ENDBRANCH  33  34
ENDBRANCH   1  33
TORSDOF 24
ENDMDL
MODEL 3
REMARK VINA RESULT:     -10.1      5.250      9.904
REMARK SMILES C[C@H]1N=N[C@H](S/C(=C/c2ccc(-c3cccc(Cl)c3)o2)C(=O)OCCOCCOCCOCCOC(=O)c2ccc(-c3c4nc(c(-c5c(F)c(F)c(F)c(F)c5F)c5ccc([nH]5)c(-c5c(F)c(F)c(F)c(F)c5F)c5nc(c(-c6c(F)c(F)c(F)c(F)c6F)c6ccc3[nH]6)C=C5)C=C4)cc2)[NH2+]1
REMARK SMILES IDX 29 1 28 2 27 3 26 4 25 5 24 6 23 7 21 8 22 9 7 10 8 11 6 12
REMARK SMILES IDX 5 13 1 14 2 15 3 16 101 17 4 18 9 21 10 22 20 23 11 24 12 25
REMARK SMILES IDX 13 26 14 27 19 28 15 29 17 30 16 31 18 32 30 33 31 34 32 35
REMARK SMILES IDX 33 36 34 37 35 38 36 39 37 40 38 41 39 42 100 43 40 44 99 45
REMARK SMILES IDX 41 46 42 47 43 48 93 49 44 50 98 51 92 52 94 53 45 54 97 55
REMARK SMILES IDX 91 56 90 57 46 59 78 60 58 61 77 62 59 63 62 64 76 65 95 66
REMARK SMILES IDX 60 67 61 68 75 70 96 71 63 72 47 73 48 74 56 75 49 76 50 77
REMARK SMILES IDX 54 78 57 79 51 80 52 81 55 82 53 83 79 84 80 85 88 86 81 87
REMARK SMILES IDX 82 88 86 89 89 90 83 91 84 92 87 93 85 94 64 95 65 96 73 97
REMARK SMILES IDX 66 98 67 99 71 100 74 101 68 102 69 103 72 104 70 105
REMARK H PARENT 101 19 101 20 94 58 62 69
REMARK Flexibility Score: inf
ROOT
ATOM      1  O   UNL A   1      40.945  23.098  27.803  1.00  0.00    -0.377 OA
ENDROOT
BRANCH   1   2
ATOM      2  C   UNL A   1      40.357  23.572  26.605  1.00  0.00     0.188 C 
BRANCH   2   3
ATOM      3  C   UNL A   1      39.270  24.670  26.708  1.00  0.00     0.188 C 
BRANCH   3   4
ATOM      4  O   UNL A   1      37.939  24.206  26.813  1.00  0.00    -0.376 OA
BRANCH   4   5
ATOM      5  C   UNL A   1      37.318  23.457  25.784  1.00  0.00     0.202 C 
BRANCH   5   6
ATOM      6  C   UNL A   1      36.060  23.894  25.020  1.00  0.00     0.261 C 
BRANCH   6   7
ATOM      7  O   UNL A   1      34.987  22.963  25.037  1.00  0.00    -0.459 OA
BRANCH   7   8
ATOM      8  C   UNL A   1      33.916  23.220  25.826  1.00  0.00     0.345 C 
ATOM      9  O   UNL A   1      33.884  23.992  26.771  1.00  0.00    -0.246 OA
BRANCH   8  10
ATOM     10  C   UNL A   1      32.731  22.472  25.281  1.00  0.00     0.104 C 
ATOM     11  C   UNL A   1      31.881  23.035  24.395  1.00  0.00     0.070 C 
BRANCH  10  12
ATOM     12  S   UNL A   1      32.490  20.971  26.139  1.00  0.00    -0.028 SA
BRANCH  12  13
ATOM     13  C   UNL A   1      33.358  19.663  25.233  1.00  0.00     0.393 C 
ATOM     14  C   UNL A   1      32.304  18.100  22.232  1.00  0.00     0.106 C 
ATOM     15  C   UNL A   1      32.113  18.847  23.547  1.00  0.00     0.324 C 
ATOM     16  N   UNL A   1      32.153  17.865  24.642  1.00  0.00    -0.126 NA
ATOM     17  N   UNL A   1      33.173  19.834  23.787  1.00  0.00    -0.293 N 
ATOM     18  N   UNL A   1      32.881  18.301  25.566  1.00  0.00    -0.115 NA
ATOM     19  H   UNL A   1      32.870  20.780  23.554  1.00  0.00     0.350 HD
ATOM     20  H   UNL A   1      34.016  19.706  23.227  1.00  0.00     0.350 HD
ENDBRANCH  12  13
ENDBRANCH  10  12
BRANCH  11  21
ATOM     21  C   UNL A   1      32.079  24.325  23.796  1.00  0.00     0.128 A 
ATOM     22  C   UNL A   1      32.640  24.670  22.567  1.00  0.00     0.051 A 
ATOM     23  O   UNL A   1      31.706  25.515  24.413  1.00  0.00    -0.457 OA
ATOM     24  C   UNL A   1      32.716  26.071  22.488  1.00  0.00     0.051 A 
ATOM     25  C   UNL A   1      32.093  26.552  23.614  1.00  0.00     0.134 A 
BRANCH  25  26
ATOM     26  C   UNL A   1      31.748  27.911  24.006  1.00  0.00     0.019 A 
ATOM     27  C   UNL A   1      32.580  28.563  24.934  1.00  0.00     0.012 A 
ATOM     28  C   UNL A   1      30.597  28.564  23.556  1.00  0.00     0.032 A 
ATOM     29  C   UNL A   1      32.261  29.824  25.434  1.00  0.00     0.002 A 
ATOM     30  C   UNL A   1      30.292  29.837  24.050  1.00  0.00     0.041 A 
ATOM     31  C   UNL A   1      31.105  30.459  24.998  1.00  0.00     0.020 A 
ATOM     32  Cl  UNL A   1      28.911  30.682  23.478  1.00  0.00    -0.084 Cl
ENDBRANCH  25  26
ENDBRANCH  11  21
ENDBRANCH   8  10
ENDBRANCH   7   8
ENDBRANCH   6   7
ENDBRANCH   5   6
ENDBRANCH   4   5
ENDBRANCH   3   4
ENDBRANCH   2   3
ENDBRANCH   1   2
BRANCH   1  33
ATOM     33  C   UNL A   1      41.578  21.825  27.828  1.00  0.00     0.188 C 
BRANCH  33  34
ATOM     34  C   UNL A   1      42.275  21.213  26.589  1.00  0.00     0.188 C 
BRANCH  34  35
ATOM     35  O   UNL A   1      43.391  21.935  26.103  1.00  0.00    -0.376 OA
BRANCH  35  36
ATOM     36  C   UNL A   1      43.240  22.734  24.944  1.00  0.00     0.202 C 
BRANCH  36  37
ATOM     37  C   UNL A   1      44.406  23.653  24.555  1.00  0.00     0.261 C 
BRANCH  37  38
ATOM     38  O   UNL A   1      45.134  24.239  25.644  1.00  0.00    -0.460 OA
BRANCH  38  39
ATOM     39  C   UNL A   1      45.403  25.557  25.562  1.00  0.00     0.338 C 
ATOM     40  O   UNL A   1      46.106  26.124  24.742  1.00  0.00    -0.246 OA
BRANCH  39  41
ATOM     41  C   UNL A   1      44.561  26.242  26.557  1.00  0.00     0.060 A 
ATOM     42  C   UNL A   1      44.578  27.641  26.635  1.00  0.00     0.016 A 
ATOM     43  C   UNL A   1      43.768  25.491  27.425  1.00  0.00     0.016 A 
ATOM     44  C   UNL A   1      43.817  28.295  27.606  1.00  0.00     0.010 A 
ATOM     45  C   UNL A   1      43.041  26.147  28.416  1.00  0.00     0.010 A 
ATOM     46  C   UNL A   1      43.079  27.548  28.530  1.00  0.00    -0.014 A 
BRANCH  46  47
ATOM     47  C   UNL A   1      42.538  28.196  29.750  1.00  0.00     0.031 A 
ATOM     48  C   UNL A   1      41.197  28.870  29.651  1.00  0.00     0.074 A 
ATOM     49  C   UNL A   1      43.206  28.185  30.916  1.00  0.00     0.049 A 
ATOM     50  N   UNL A   1      40.534  29.552  30.550  1.00  0.00    -0.248 NA
ATOM     51  C   UNL A   1      40.512  28.766  28.351  1.00  0.00     0.031 C 
ATOM     52  C   UNL A   1      44.498  27.544  31.148  1.00  0.00     0.029 A 
ATOM     53  N   UNL A   1      42.881  28.741  32.130  1.00  0.00    -0.354 N 
ATOM     54  C   UNL A   1      39.370  29.971  29.919  1.00  0.00     0.074 A 
ATOM     55  C   UNL A   1      39.433  29.503  28.552  1.00  0.00     0.031 C 
ATOM     56  C   UNL A   1      44.859  27.746  32.428  1.00  0.00     0.029 A 
ATOM     57  C   UNL A   1      43.842  28.559  33.094  1.00  0.00     0.049 A 
ATOM     58  H   UNL A   1      42.039  29.223  32.293  1.00  0.00     0.167 HD
ATOM     59  C   UNL A   1      38.332  30.670  30.435  1.00  0.00     0.037 A 
ATOM     60  C   UNL A   1      43.897  29.018  34.361  1.00  0.00     0.037 A 
ATOM     61  C   UNL A   1      38.272  31.132  31.796  1.00  0.00     0.049 A 
ATOM     62  C   UNL A   1      42.756  29.850  34.897  1.00  0.00     0.074 A 
ATOM     63  C   UNL A   1      37.259  31.834  32.423  1.00  0.00     0.029 A 
ATOM     64  N   UNL A   1      39.273  30.945  32.736  1.00  0.00    -0.354 N 
ATOM     65  N   UNL A   1      41.645  30.218  34.306  1.00  0.00    -0.248 NA
ATOM     66  C   UNL A   1      42.878  30.328  36.283  1.00  0.00     0.031 C 
ATOM     67  C   UNL A   1      37.674  32.128  33.725  1.00  0.00     0.029 A 
ATOM     68  C   UNL A   1      38.912  31.543  33.934  1.00  0.00     0.049 A 
ATOM     69  H   UNL A   1      40.115  30.461  32.577  1.00  0.00     0.167 HD
ATOM     70  C   UNL A   1      40.921  30.932  35.254  1.00  0.00     0.074 A 
ATOM     71  C   UNL A   1      41.715  30.937  36.464  1.00  0.00     0.031 C 
ATOM     72  C   UNL A   1      39.708  31.526  35.135  1.00  0.00     0.037 A 
BRANCH  59  73
ATOM     73  C   UNL A   1      37.196  31.003  29.511  1.00  0.00     0.064 A 
ATOM     74  C   UNL A   1      36.213  30.059  29.173  1.00  0.00     0.173 A 
ATOM     75  C   UNL A   1      37.081  32.291  28.967  1.00  0.00     0.173 A 
ATOM     76  F   UNL A   1      36.286  28.807  29.652  1.00  0.00    -0.203 F 
ATOM     77  C   UNL A   1      35.180  30.381  28.299  1.00  0.00     0.198 A 
ATOM     78  C   UNL A   1      36.025  32.621  28.122  1.00  0.00     0.198 A 
ATOM     79  F   UNL A   1      37.991  33.233  29.257  1.00  0.00    -0.203 F 
ATOM     80  F   UNL A   1      34.288  29.446  27.943  1.00  0.00    -0.200 F 
ATOM     81  C   UNL A   1      35.081  31.664  27.780  1.00  0.00     0.200 A 
ATOM     82  F   UNL A   1      35.923  33.865  27.634  1.00  0.00    -0.200 F 
ATOM     83  F   UNL A   1      34.082  31.976  26.945  1.00  0.00    -0.200 F 
ENDBRANCH  59  73
BRANCH  60  84
ATOM     84  C   UNL A   1      45.074  28.709  35.217  1.00  0.00     0.064 A 
ATOM     85  C   UNL A   1      45.101  27.564  36.026  1.00  0.00     0.173 A 
ATOM     86  C   UNL A   1      46.183  29.567  35.268  1.00  0.00     0.173 A 
ATOM     87  F   UNL A   1      44.054  26.726  36.035  1.00  0.00    -0.203 F 
ATOM     88  C   UNL A   1      46.179  27.302  36.871  1.00  0.00     0.198 A 
ATOM     89  C   UNL A   1      47.275  29.286  36.086  1.00  0.00     0.198 A 
ATOM     90  F   UNL A   1      46.209  30.680  34.521  1.00  0.00    -0.203 F 
ATOM     91  F   UNL A   1      46.151  26.231  37.676  1.00  0.00    -0.200 F 
ATOM     92  C   UNL A   1      47.268  28.160  36.896  1.00  0.00     0.200 A 
ATOM     93  F   UNL A   1      48.332  30.110  36.096  1.00  0.00    -0.200 F 
ATOM     94  F   UNL A   1      48.305  27.907  37.705  1.00  0.00    -0.200 F 
ENDBRANCH  60  84
BRANCH  72  95
ATOM     95  C   UNL A   1      39.131  32.183  36.360  1.00  0.00     0.064 A 
ATOM     96  C   UNL A   1      39.505  33.474  36.760  1.00  0.00     0.173 A 
ATOM     97  C   UNL A   1      38.152  31.522  37.120  1.00  0.00     0.173 A 
ATOM     98  F   UNL A   1      40.444  34.148  36.077  1.00  0.00    -0.203 F 
ATOM     99  C   UNL A   1      38.948  34.063  37.892  1.00  0.00     0.198 A 
ATOM    100  C   UNL A   1      37.569  32.129  38.228  1.00  0.00     0.198 A 
ATOM    101  F   UNL A   1      37.747  30.289  36.776  1.00  0.00    -0.203 F 
ATOM    102  F   UNL A   1      39.364  35.275  38.288  1.00  0.00    -0.200 F 
ATOM    103  C   UNL A   1      37.975  33.395  38.620  1.00  0.00     0.200 A 
ATOM    104  F   UNL A   1      36.615  31.488  38.917  1.00  0.00    -0.200 F 
ATOM    105  F   UNL A   1      37.434  33.967  39.705  1.00  0.00    -0.200 F 
ENDBRANCH  72  95
ENDBRANCH  46  47
ENDBRANCH  39  41
ENDBRANCH  38  39
ENDBRANCH  37  38
ENDBRANCH  36  37
ENDBRANCH  35  36
ENDBRANCH  34  35
ENDBRANCH  33  34
ENDBRANCH   1  33
TORSDOF 24
ENDMDL
