MODEL 1
REMARK VINA RESULT:      -8.9      0.000      0.000
REMARK SMILES COc1ccc(N2C(=O)/C(=C/c3c(C(=O)OCCOCCOCCOCCOC(=O)c4ccc(-c5c6nc(c(-c7c(F)c(F)c(F)c(F)c7F)c7ccc([nH]7)c(-c7c(F)c(F)c(F)c(F)c7F)c7nc(c(-c8c(F)c(F)c(F)c(F)c8F)c8ccc5[nH]8)C=C7)C=C6)cc4)[nH]c4cc(OC)ccc34)SC2=S)cc1
REMARK SMILES IDX 21 1 20 2 19 3 18 4 17 5 16 6 14 7 15 8 13 9 12 10 102 11
REMARK SMILES IDX 94 12 95 13 101 14 96 16 100 17 97 18 11 19 7 20 8 21 104 22
REMARK SMILES IDX 9 23 10 24 103 25 105 26 6 27 3 28 4 29 107 30 5 31 106 32
REMARK SMILES IDX 2 33 1 34 98 35 99 36 22 37 23 38 24 39 25 40 26 41 27 42
REMARK SMILES IDX 28 43 29 44 30 45 31 46 32 47 93 48 33 49 92 50 34 51 35 52
REMARK SMILES IDX 36 53 86 54 37 55 91 56 85 57 87 58 38 59 90 60 84 61 83 62
REMARK SMILES IDX 39 64 71 65 51 66 70 67 52 68 55 69 69 70 88 71 53 72 54 73
REMARK SMILES IDX 68 75 89 76 56 77 40 78 41 79 49 80 42 81 43 82 47 83 50 84
REMARK SMILES IDX 44 85 45 86 48 87 46 88 72 89 73 90 81 91 74 92 75 93 79 94
REMARK SMILES IDX 82 95 76 96 77 97 80 98 78 99 57 100 58 101 66 102 59 103
REMARK SMILES IDX 60 104 64 105 67 106 61 107 62 108 65 109 63 110
REMARK H PARENT 94 15 87 63 55 74
REMARK Flexibility Score: inf
ROOT
ATOM      1  C   UNL A   1      33.227  36.593  30.144  1.00  0.00     0.188 C 
ENDROOT
BRANCH   1   2
ATOM      2  C   UNL A   1      33.122  35.552  29.034  1.00  0.00     0.188 C 
BRANCH   2   3
ATOM      3  O   UNL A   1      33.644  34.271  29.403  1.00  0.00    -0.376 OA
BRANCH   3   4
ATOM      4  C   UNL A   1      34.164  33.487  28.322  1.00  0.00     0.202 C 
BRANCH   4   5
ATOM      5  C   UNL A   1      35.654  33.169  28.433  1.00  0.00     0.261 C 
BRANCH   5   6
ATOM      6  O   UNL A   1      36.046  33.303  29.806  1.00  0.00    -0.459 OA
BRANCH   6   7
ATOM      7  C   UNL A   1      36.503  32.160  30.368  1.00  0.00     0.355 C 
ATOM      8  O   UNL A   1      35.915  31.086  30.328  1.00  0.00    -0.244 OA
BRANCH   7   9
ATOM      9  C   UNL A   1      37.888  32.294  30.761  1.00  0.00     0.133 A 
ATOM     10  C   UNL A   1      39.009  31.472  30.910  1.00  0.00     0.016 A 
ATOM     11  C   UNL A   1      40.067  32.296  31.456  1.00  0.00     0.008 A 
ATOM     12  N   UNL A   1      38.239  33.528  31.273  1.00  0.00    -0.348 N 
ATOM     13  C   UNL A   1      39.500  33.522  31.792  1.00  0.00     0.050 A 
ATOM     14  C   UNL A   1      41.430  32.099  31.777  1.00  0.00     0.015 A 
ATOM     15  H   UNL A   1      37.649  34.315  31.266  1.00  0.00     0.167 HD
ATOM     16  C   UNL A   1      40.159  34.508  32.534  1.00  0.00     0.073 A 
ATOM     17  C   UNL A   1      42.135  33.103  32.462  1.00  0.00     0.047 A 
ATOM     18  C   UNL A   1      41.495  34.273  32.850  1.00  0.00     0.120 A 
BRANCH  10  19
ATOM     19  C   UNL A   1      39.114  30.035  30.782  1.00  0.00     0.032 C 
ATOM     20  N   UNL A   1      40.389  27.397  28.669  1.00  0.00    -0.261 N 
ATOM     21  C   UNL A   1      39.680  27.806  29.799  1.00  0.00     0.270 C 
ATOM     22  C   UNL A   1      41.093  28.406  28.022  1.00  0.00     0.152 C 
ATOM     23  O   UNL A   1      38.944  27.131  30.506  1.00  0.00    -0.268 OA
ATOM     24  C   UNL A   1      39.929  29.272  30.038  1.00  0.00     0.081 C 
ATOM     25  S   UNL A   1      41.276  29.773  29.105  1.00  0.00    -0.054 SA
ATOM     26  S   UNL A   1      41.596  28.496  26.426  1.00  0.00    -0.051 S 
BRANCH  20  27
ATOM     27  C   UNL A   1      40.364  26.054  28.178  1.00  0.00     0.051 A 
ATOM     28  C   UNL A   1      40.079  23.335  27.456  1.00  0.00     0.119 A 
ATOM     29  C   UNL A   1      41.278  23.820  27.989  1.00  0.00     0.048 A 
ATOM     30  C   UNL A   1      39.041  24.225  27.228  1.00  0.00     0.048 A 
ATOM     31  C   UNL A   1      41.442  25.177  28.317  1.00  0.00     0.030 A 
ATOM     32  C   UNL A   1      39.184  25.567  27.590  1.00  0.00     0.030 A 
BRANCH  28  33
ATOM     33  O   UNL A   1      40.044  21.998  27.175  1.00  0.00    -0.497 OA
ATOM     34  C   UNL A   1      39.310  21.620  26.011  1.00  0.00     0.278 C 
ENDBRANCH  28  33
ENDBRANCH  20  27
ENDBRANCH  10  19
BRANCH  18  35
ATOM     35  O   UNL A   1      42.171  35.164  33.639  1.00  0.00    -0.497 OA
ATOM     36  C   UNL A   1      42.569  34.575  34.876  1.00  0.00     0.278 C 
ENDBRANCH  18  35
ENDBRANCH   7   9
ENDBRANCH   6   7
ENDBRANCH   5   6
ENDBRANCH   4   5
ENDBRANCH   3   4
ENDBRANCH   2   3
ENDBRANCH   1   2
BRANCH   1  37
ATOM     37  O   UNL A   1      32.205  36.525  31.145  1.00  0.00    -0.377 OA
BRANCH  37  38
ATOM     38  C   UNL A   1      32.623  36.282  32.481  1.00  0.00     0.188 C 
BRANCH  38  39
ATOM     39  C   UNL A   1      33.949  36.908  32.949  1.00  0.00     0.188 C 
BRANCH  39  40
ATOM     40  O   UNL A   1      34.834  36.015  33.606  1.00  0.00    -0.376 OA
BRANCH  40  41
ATOM     41  C   UNL A   1      35.149  34.825  32.888  1.00  0.00     0.202 C 
BRANCH  41  42
ATOM     42  C   UNL A   1      35.011  33.523  33.694  1.00  0.00     0.261 C 
BRANCH  42  43
ATOM     43  O   UNL A   1      35.689  33.513  34.961  1.00  0.00    -0.460 OA
BRANCH  43  44
ATOM     44  C   UNL A   1      36.939  33.008  34.977  1.00  0.00     0.338 C 
ATOM     45  O   UNL A   1      37.445  32.249  34.170  1.00  0.00    -0.246 OA
BRANCH  44  46
ATOM     46  C   UNL A   1      37.682  33.653  36.074  1.00  0.00     0.060 A 
ATOM     47  C   UNL A   1      38.720  34.533  35.750  1.00  0.00     0.016 A 
ATOM     48  C   UNL A   1      37.390  33.351  37.406  1.00  0.00     0.016 A 
ATOM     49  C   UNL A   1      39.502  35.080  36.766  1.00  0.00     0.010 A 
ATOM     50  C   UNL A   1      38.192  33.875  38.421  1.00  0.00     0.010 A 
ATOM     51  C   UNL A   1      39.273  34.711  38.101  1.00  0.00    -0.014 A 
BRANCH  51  52
ATOM     52  C   UNL A   1      40.298  35.038  39.119  1.00  0.00     0.031 A 
ATOM     53  C   UNL A   1      40.218  36.371  39.802  1.00  0.00     0.074 A 
ATOM     54  C   UNL A   1      41.260  34.161  39.450  1.00  0.00     0.049 A 
ATOM     55  N   UNL A   1      40.950  36.854  40.772  1.00  0.00    -0.248 NA
ATOM     56  C   UNL A   1      39.187  37.297  39.304  1.00  0.00     0.031 C 
ATOM     57  C   UNL A   1      41.454  32.859  38.829  1.00  0.00     0.029 A 
ATOM     58  N   UNL A   1      42.225  34.221  40.425  1.00  0.00    -0.354 N 
ATOM     59  C   UNL A   1      40.507  38.155  40.961  1.00  0.00     0.074 A 
ATOM     60  C   UNL A   1      39.418  38.377  40.034  1.00  0.00     0.031 C 
ATOM     61  C   UNL A   1      42.415  32.199  39.499  1.00  0.00     0.029 A 
ATOM     62  C   UNL A   1      42.911  33.040  40.583  1.00  0.00     0.049 A 
ATOM     63  H   UNL A   1      42.407  35.028  40.958  1.00  0.00     0.167 HD
ATOM     64  C   UNL A   1      40.995  39.094  41.806  1.00  0.00     0.037 A 
ATOM     65  C   UNL A   1      43.804  32.679  41.526  1.00  0.00     0.037 A 
ATOM     66  C   UNL A   1      42.078  38.869  42.724  1.00  0.00     0.049 A 
ATOM     67  C   UNL A   1      44.237  33.701  42.546  1.00  0.00     0.074 A 
ATOM     68  C   UNL A   1      42.675  39.763  43.595  1.00  0.00     0.029 A 
ATOM     69  N   UNL A   1      42.726  37.655  42.888  1.00  0.00    -0.354 N 
ATOM     70  N   UNL A   1      43.808  34.926  42.729  1.00  0.00    -0.248 NA
ATOM     71  C   UNL A   1      45.305  33.296  43.474  1.00  0.00     0.031 C 
ATOM     72  C   UNL A   1      43.705  39.094  44.269  1.00  0.00     0.029 A 
ATOM     73  C   UNL A   1      43.723  37.776  43.842  1.00  0.00     0.049 A 
ATOM     74  H   UNL A   1      42.509  36.828  42.400  1.00  0.00     0.167 HD
ATOM     75  C   UNL A   1      44.566  35.444  43.770  1.00  0.00     0.074 A 
ATOM     76  C   UNL A   1      45.434  34.378  44.228  1.00  0.00     0.031 C 
ATOM     77  C   UNL A   1      44.576  36.702  44.275  1.00  0.00     0.037 A 
BRANCH  64  78
ATOM     78  C   UNL A   1      40.407  40.467  41.704  1.00  0.00     0.064 A 
ATOM     79  C   UNL A   1      39.454  40.938  42.616  1.00  0.00     0.173 A 
ATOM     80  C   UNL A   1      40.796  41.316  40.656  1.00  0.00     0.173 A 
ATOM     81  F   UNL A   1      39.032  40.151  43.617  1.00  0.00    -0.203 F 
ATOM     82  C   UNL A   1      38.891  42.204  42.469  1.00  0.00     0.198 A 
ATOM     83  C   UNL A   1      40.248  42.589  40.526  1.00  0.00     0.198 A 
ATOM     84  F   UNL A   1      41.700  40.907  39.753  1.00  0.00    -0.203 F 
ATOM     85  F   UNL A   1      37.943  42.616  43.322  1.00  0.00    -0.200 F 
ATOM     86  C   UNL A   1      39.290  43.028  41.427  1.00  0.00     0.200 A 
ATOM     87  F   UNL A   1      40.639  43.385  39.520  1.00  0.00    -0.200 F 
ATOM     88  F   UNL A   1      38.744  44.243  41.285  1.00  0.00    -0.200 F 
ENDBRANCH  64  78
BRANCH  65  89
ATOM     89  C   UNL A   1      44.299  31.278  41.606  1.00  0.00     0.064 A 
ATOM     90  C   UNL A   1      43.727  30.384  42.525  1.00  0.00     0.173 A 
ATOM     91  C   UNL A   1      45.339  30.798  40.801  1.00  0.00     0.173 A 
ATOM     92  F   UNL A   1      42.743  30.795  43.340  1.00  0.00    -0.203 F 
ATOM     93  C   UNL A   1      44.184  29.073  42.642  1.00  0.00     0.198 A 
ATOM     94  C   UNL A   1      45.771  29.474  40.893  1.00  0.00     0.198 A 
ATOM     95  F   UNL A   1      45.938  31.611  39.919  1.00  0.00    -0.203 F 
ATOM     96  F   UNL A   1      43.641  28.257  43.555  1.00  0.00    -0.200 F 
ATOM     97  C   UNL A   1      45.196  28.615  41.816  1.00  0.00     0.200 A 
ATOM     98  F   UNL A   1      46.750  29.033  40.092  1.00  0.00    -0.200 F 
ATOM     99  F   UNL A   1      45.622  27.349  41.916  1.00  0.00    -0.200 F 
ENDBRANCH  65  89
BRANCH  77 100
ATOM    100  C   UNL A   1      45.583  36.997  45.346  1.00  0.00     0.064 A 
ATOM    101  C   UNL A   1      46.873  37.444  45.020  1.00  0.00     0.173 A 
ATOM    102  C   UNL A   1      45.251  36.871  46.702  1.00  0.00     0.173 A 
ATOM    103  F   UNL A   1      47.239  37.569  43.736  1.00  0.00    -0.203 F 
ATOM    104  C   UNL A   1      47.802  37.731  46.014  1.00  0.00     0.198 A 
ATOM    105  C   UNL A   1      46.177  37.181  47.694  1.00  0.00     0.198 A 
ATOM    106  F   UNL A   1      44.029  36.453  47.063  1.00  0.00    -0.203 F 
ATOM    107  F   UNL A   1      49.042  38.116  45.680  1.00  0.00    -0.200 F 
ATOM    108  C   UNL A   1      47.453  37.604  47.350  1.00  0.00     0.200 A 
ATOM    109  F   UNL A   1      45.837  37.067  48.986  1.00  0.00    -0.200 F 
ATOM    110  F   UNL A   1      48.349  37.883  48.307  1.00  0.00    -0.200 F 
ENDBRANCH  77 100
ENDBRANCH  51  52
ENDBRANCH  44  46
ENDBRANCH  43  44
ENDBRANCH  42  43
ENDBRANCH  41  42
ENDBRANCH  40  41
ENDBRANCH  39  40
ENDBRANCH  38  39
ENDBRANCH  37  38
ENDBRANCH   1  37
TORSDOF 24
ENDMDL
MODEL 2
REMARK VINA RESULT:      -8.7     12.821     18.450
REMARK SMILES COc1ccc(N2C(=O)/C(=C/c3c(C(=O)OCCOCCOCCOCCOC(=O)c4ccc(-c5c6nc(c(-c7c(F)c(F)c(F)c(F)c7F)c7ccc([nH]7)c(-c7c(F)c(F)c(F)c(F)c7F)c7nc(c(-c8c(F)c(F)c(F)c(F)c8F)c8ccc5[nH]8)C=C7)C=C6)cc4)[nH]c4cc(OC)ccc34)SC2=S)cc1
REMARK SMILES IDX 21 1 20 2 19 3 18 4 17 5 16 6 14 7 15 8 13 9 12 10 102 11
REMARK SMILES IDX 94 12 95 13 101 14 96 16 100 17 97 18 11 19 7 20 8 21 104 22
REMARK SMILES IDX 9 23 10 24 103 25 105 26 6 27 3 28 4 29 107 30 5 31 106 32
REMARK SMILES IDX 2 33 1 34 98 35 99 36 22 37 23 38 24 39 25 40 26 41 27 42
REMARK SMILES IDX 28 43 29 44 30 45 31 46 32 47 93 48 33 49 92 50 34 51 35 52
REMARK SMILES IDX 36 53 86 54 37 55 91 56 85 57 87 58 38 59 90 60 84 61 83 62
REMARK SMILES IDX 39 64 71 65 51 66 70 67 52 68 55 69 69 70 88 71 53 72 54 73
REMARK SMILES IDX 68 75 89 76 56 77 40 78 41 79 49 80 42 81 43 82 47 83 50 84
REMARK SMILES IDX 44 85 45 86 48 87 46 88 72 89 73 90 81 91 74 92 75 93 79 94
REMARK SMILES IDX 82 95 76 96 77 97 80 98 78 99 57 100 58 101 66 102 59 103
REMARK SMILES IDX 60 104 64 105 67 106 61 107 62 108 65 109 63 110
REMARK H PARENT 94 15 87 63 55 74
REMARK Flexibility Score: inf
ROOT
ATOM      1  C   UNL A   1      47.025  40.465  25.964  1.00  0.00     0.188 C 
ENDROOT
BRANCH   1   2
ATOM      2  C   UNL A   1      46.502  40.406  24.531  1.00  0.00     0.188 C 
BRANCH   2   3
ATOM      3  O   UNL A   1      45.757  41.566  24.149  1.00  0.00    -0.376 OA
BRANCH   3   4
ATOM      4  C   UNL A   1      44.532  41.770  24.864  1.00  0.00     0.202 C 
BRANCH   4   5
ATOM      5  C   UNL A   1      43.535  42.689  24.161  1.00  0.00     0.261 C 
BRANCH   5   6
ATOM      6  O   UNL A   1      42.972  41.981  23.048  1.00  0.00    -0.459 OA
BRANCH   6   7
ATOM      7  C   UNL A   1      41.985  42.648  22.406  1.00  0.00     0.355 C 
ATOM      8  O   UNL A   1      40.985  43.098  22.953  1.00  0.00    -0.244 OA
BRANCH   7   9
ATOM      9  C   UNL A   1      42.393  43.015  21.069  1.00  0.00     0.133 A 
ATOM     10  C   UNL A   1      43.574  43.068  20.322  1.00  0.00     0.016 A 
ATOM     11  C   UNL A   1      43.237  43.651  19.041  1.00  0.00     0.008 A 
ATOM     12  N   UNL A   1      41.418  43.616  20.298  1.00  0.00    -0.348 N 
ATOM     13  C   UNL A   1      41.922  44.100  19.127  1.00  0.00     0.050 A 
ATOM     14  C   UNL A   1      43.939  43.921  17.843  1.00  0.00     0.015 A 
ATOM     15  H   UNL A   1      40.472  43.688  20.563  1.00  0.00     0.167 HD
ATOM     16  C   UNL A   1      41.307  44.903  18.161  1.00  0.00     0.073 A 
ATOM     17  C   UNL A   1      43.319  44.667  16.826  1.00  0.00     0.047 A 
ATOM     18  C   UNL A   1      42.033  45.165  17.002  1.00  0.00     0.120 A 
BRANCH  10  19
ATOM     19  C   UNL A   1      44.936  42.822  20.743  1.00  0.00     0.032 C 
ATOM     20  N   UNL A   1      48.082  44.437  21.479  1.00  0.00    -0.261 N 
ATOM     21  C   UNL A   1      47.322  43.276  21.342  1.00  0.00     0.270 C 
ATOM     22  C   UNL A   1      47.353  45.620  21.457  1.00  0.00     0.152 C 
ATOM     23  O   UNL A   1      47.722  42.121  21.274  1.00  0.00    -0.268 OA
ATOM     24  C   UNL A   1      45.863  43.644  21.258  1.00  0.00     0.081 C 
ATOM     25  S   UNL A   1      45.663  45.268  21.764  1.00  0.00    -0.054 SA
ATOM     26  S   UNL A   1      47.853  47.169  21.055  1.00  0.00    -0.051 S 
BRANCH  20  27
ATOM     27  C   UNL A   1      49.507  44.425  21.589  1.00  0.00     0.051 A 
ATOM     28  C   UNL A   1      52.306  44.057  21.765  1.00  0.00     0.119 A 
ATOM     29  C   UNL A   1      51.564  44.498  22.866  1.00  0.00     0.048 A 
ATOM     30  C   UNL A   1      51.655  43.857  20.557  1.00  0.00     0.048 A 
ATOM     31  C   UNL A   1      50.178  44.719  22.778  1.00  0.00     0.030 A 
ATOM     32  C   UNL A   1      50.272  44.036  20.475  1.00  0.00     0.030 A 
BRANCH  28  33
ATOM     33  O   UNL A   1      53.646  43.882  21.975  1.00  0.00    -0.497 OA
ATOM     34  C   UNL A   1      54.203  42.661  21.489  1.00  0.00     0.278 C 
ENDBRANCH  28  33
ENDBRANCH  20  27
ENDBRANCH  10  19
BRANCH  18  35
ATOM     35  O   UNL A   1      41.517  46.005  16.054  1.00  0.00    -0.497 OA
ATOM     36  C   UNL A   1      41.716  47.376  16.401  1.00  0.00     0.278 C 
ENDBRANCH  18  35
ENDBRANCH   7   9
ENDBRANCH   6   7
ENDBRANCH   5   6
ENDBRANCH   4   5
ENDBRANCH   3   4
ENDBRANCH   2   3
ENDBRANCH   1   2
BRANCH   1  37
ATOM     37  O   UNL A   1      47.060  39.211  26.654  1.00  0.00    -0.377 OA
BRANCH  37  38
ATOM     38  C   UNL A   1      46.202  39.068  27.778  1.00  0.00     0.188 C 
BRANCH  38  39
ATOM     39  C   UNL A   1      45.207  40.203  28.076  1.00  0.00     0.188 C 
BRANCH  39  40
ATOM     40  O   UNL A   1      43.993  39.790  28.682  1.00  0.00    -0.376 OA
BRANCH  40  41
ATOM     41  C   UNL A   1      42.819  39.978  27.896  1.00  0.00     0.202 C 
BRANCH  41  42
ATOM     42  C   UNL A   1      42.510  38.845  26.904  1.00  0.00     0.261 C 
BRANCH  42  43
ATOM     43  O   UNL A   1      43.074  37.566  27.241  1.00  0.00    -0.460 OA
BRANCH  43  44
ATOM     44  C   UNL A   1      42.218  36.530  27.330  1.00  0.00     0.338 C 
ATOM     45  O   UNL A   1      41.004  36.573  27.423  1.00  0.00    -0.246 OA
BRANCH  44  46
ATOM     46  C   UNL A   1      42.981  35.284  27.136  1.00  0.00     0.060 A 
ATOM     47  C   UNL A   1      43.405  34.578  28.267  1.00  0.00     0.016 A 
ATOM     48  C   UNL A   1      43.319  34.848  25.852  1.00  0.00     0.016 A 
ATOM     49  C   UNL A   1      44.211  33.451  28.114  1.00  0.00     0.010 A 
ATOM     50  C   UNL A   1      44.151  33.737  25.701  1.00  0.00     0.010 A 
ATOM     51  C   UNL A   1      44.630  33.059  26.832  1.00  0.00    -0.014 A 
BRANCH  51  52
ATOM     52  C   UNL A   1      45.730  32.075  26.709  1.00  0.00     0.031 A 
ATOM     53  C   UNL A   1      47.139  32.590  26.659  1.00  0.00     0.074 A 
ATOM     54  C   UNL A   1      45.487  30.755  26.672  1.00  0.00     0.049 A 
ATOM     55  N   UNL A   1      48.265  31.928  26.627  1.00  0.00    -0.248 NA
ATOM     56  C   UNL A   1      47.295  34.053  26.612  1.00  0.00     0.031 C 
ATOM     57  C   UNL A   1      44.164  30.148  26.677  1.00  0.00     0.029 A 
ATOM     58  N   UNL A   1      46.352  29.688  26.669  1.00  0.00    -0.354 N 
ATOM     59  C   UNL A   1      49.258  32.888  26.499  1.00  0.00     0.074 A 
ATOM     60  C   UNL A   1      48.608  34.180  26.498  1.00  0.00     0.031 C 
ATOM     61  C   UNL A   1      44.300  28.814  26.772  1.00  0.00     0.029 A 
ATOM     62  C   UNL A   1      45.719  28.477  26.819  1.00  0.00     0.049 A 
ATOM     63  H   UNL A   1      47.326  29.781  26.569  1.00  0.00     0.167 HD
ATOM     64  C   UNL A   1      50.591  32.702  26.354  1.00  0.00     0.037 A 
ATOM     65  C   UNL A   1      46.239  27.248  27.013  1.00  0.00     0.037 A 
ATOM     66  C   UNL A   1      51.233  31.415  26.355  1.00  0.00     0.049 A 
ATOM     67  C   UNL A   1      47.737  27.081  26.982  1.00  0.00     0.074 A 
ATOM     68  C   UNL A   1      52.572  31.114  26.176  1.00  0.00     0.029 A 
ATOM     69  N   UNL A   1      50.573  30.211  26.547  1.00  0.00    -0.354 N 
ATOM     70  N   UNL A   1      48.674  27.992  26.873  1.00  0.00    -0.248 NA
ATOM     71  C   UNL A   1      48.250  25.704  27.074  1.00  0.00     0.031 C 
ATOM     72  C   UNL A   1      52.717  29.723  26.234  1.00  0.00     0.029 A 
ATOM     73  C   UNL A   1      51.474  29.163  26.485  1.00  0.00     0.049 A 
ATOM     74  H   UNL A   1      49.606  30.117  26.706  1.00  0.00     0.167 HD
ATOM     75  C   UNL A   1      49.878  27.301  26.857  1.00  0.00     0.074 A 
ATOM     76  C   UNL A   1      49.559  25.900  27.040  1.00  0.00     0.031 C 
ATOM     77  C   UNL A   1      51.132  27.777  26.664  1.00  0.00     0.037 A 
BRANCH  64  78
ATOM     78  C   UNL A   1      51.421  33.922  26.099  1.00  0.00     0.064 A 
ATOM     79  C   UNL A   1      51.828  34.775  27.134  1.00  0.00     0.173 A 
ATOM     80  C   UNL A   1      51.793  34.251  24.786  1.00  0.00     0.173 A 
ATOM     81  F   UNL A   1      51.472  34.516  28.401  1.00  0.00    -0.203 F 
ATOM     82  C   UNL A   1      52.561  35.928  26.860  1.00  0.00     0.198 A 
ATOM     83  C   UNL A   1      52.545  35.391  24.520  1.00  0.00     0.198 A 
ATOM     84  F   UNL A   1      51.420  33.470  23.762  1.00  0.00    -0.203 F 
ATOM     85  F   UNL A   1      52.898  36.757  27.858  1.00  0.00    -0.200 F 
ATOM     86  C   UNL A   1      52.920  36.233  25.556  1.00  0.00     0.200 A 
ATOM     87  F   UNL A   1      52.893  35.682  23.259  1.00  0.00    -0.200 F 
ATOM     88  F   UNL A   1      53.621  37.345  25.294  1.00  0.00    -0.200 F 
ENDBRANCH  64  78
BRANCH  65  89
ATOM     89  C   UNL A   1      45.358  26.091  27.324  1.00  0.00     0.064 A 
ATOM     90  C   UNL A   1      44.743  25.379  26.282  1.00  0.00     0.173 A 
ATOM     91  C   UNL A   1      45.094  25.673  28.634  1.00  0.00     0.173 A 
ATOM     92  F   UNL A   1      44.938  25.749  25.007  1.00  0.00    -0.203 F 
ATOM     93  C   UNL A   1      43.893  24.305  26.541  1.00  0.00     0.198 A 
ATOM     94  C   UNL A   1      44.273  24.575  28.891  1.00  0.00     0.198 A 
ATOM     95  F   UNL A   1      45.638  26.328  29.671  1.00  0.00    -0.203 F 
ATOM     96  F   UNL A   1      43.293  23.671  25.525  1.00  0.00    -0.200 F 
ATOM     97  C   UNL A   1      43.670  23.895  27.844  1.00  0.00     0.200 A 
ATOM     98  F   UNL A   1      44.059  24.180  30.153  1.00  0.00    -0.200 F 
ATOM     99  F   UNL A   1      42.867  22.851  28.091  1.00  0.00    -0.200 F 
ENDBRANCH  65  89
BRANCH  77 100
ATOM    100  C   UNL A   1      52.240  26.769  26.600  1.00  0.00     0.064 A 
ATOM    101  C   UNL A   1      53.126  26.602  27.676  1.00  0.00     0.173 A 
ATOM    102  C   UNL A   1      52.398  25.940  25.481  1.00  0.00     0.173 A 
ATOM    103  F   UNL A   1      53.020  27.381  28.763  1.00  0.00    -0.203 F 
ATOM    104  C   UNL A   1      54.145  25.658  27.623  1.00  0.00     0.198 A 
ATOM    105  C   UNL A   1      53.405  24.980  25.441  1.00  0.00     0.198 A 
ATOM    106  F   UNL A   1      51.572  26.058  24.431  1.00  0.00    -0.203 F 
ATOM    107  F   UNL A   1      55.005  25.544  28.645  1.00  0.00    -0.200 F 
ATOM    108  C   UNL A   1      54.281  24.844  26.509  1.00  0.00     0.200 A 
ATOM    109  F   UNL A   1      53.532  24.188  24.368  1.00  0.00    -0.200 F 
ATOM    110  F   UNL A   1      55.262  23.933  26.460  1.00  0.00    -0.200 F 
ENDBRANCH  77 100
ENDBRANCH  51  52
ENDBRANCH  44  46
ENDBRANCH  43  44
ENDBRANCH  42  43
ENDBRANCH  41  42
ENDBRANCH  40  41
ENDBRANCH  39  40
ENDBRANCH  38  39
ENDBRANCH  37  38
ENDBRANCH   1  37
TORSDOF 24
ENDMDL
MODEL 3
REMARK VINA RESULT:      -8.4      7.213     12.553
REMARK SMILES COc1ccc(N2C(=O)/C(=C/c3c(C(=O)OCCOCCOCCOCCOC(=O)c4ccc(-c5c6nc(c(-c7c(F)c(F)c(F)c(F)c7F)c7ccc([nH]7)c(-c7c(F)c(F)c(F)c(F)c7F)c7nc(c(-c8c(F)c(F)c(F)c(F)c8F)c8ccc5[nH]8)C=C7)C=C6)cc4)[nH]c4cc(OC)ccc34)SC2=S)cc1
REMARK SMILES IDX 21 1 20 2 19 3 18 4 17 5 16 6 14 7 15 8 13 9 12 10 102 11
REMARK SMILES IDX 94 12 95 13 101 14 96 16 100 17 97 18 11 19 7 20 8 21 104 22
REMARK SMILES IDX 9 23 10 24 103 25 105 26 6 27 3 28 4 29 107 30 5 31 106 32
REMARK SMILES IDX 2 33 1 34 98 35 99 36 22 37 23 38 24 39 25 40 26 41 27 42
REMARK SMILES IDX 28 43 29 44 30 45 31 46 32 47 93 48 33 49 92 50 34 51 35 52
REMARK SMILES IDX 36 53 86 54 37 55 91 56 85 57 87 58 38 59 90 60 84 61 83 62
REMARK SMILES IDX 39 64 71 65 51 66 70 67 52 68 55 69 69 70 88 71 53 72 54 73
REMARK SMILES IDX 68 75 89 76 56 77 40 78 41 79 49 80 42 81 43 82 47 83 50 84
REMARK SMILES IDX 44 85 45 86 48 87 46 88 72 89 73 90 81 91 74 92 75 93 79 94
REMARK SMILES IDX 82 95 76 96 77 97 80 98 78 99 57 100 58 101 66 102 59 103
REMARK SMILES IDX 60 104 64 105 67 106 61 107 62 108 65 109 63 110
REMARK H PARENT 94 15 87 63 55 74
REMARK Flexibility Score: inf
ROOT
ATOM      1  C   UNL A   1      42.573  25.577  37.169  1.00  0.00     0.188 C 
ENDROOT
BRANCH   1   2
ATOM      2  C   UNL A   1      41.133  25.870  36.759  1.00  0.00     0.188 C 
BRANCH   2   3
ATOM      3  O   UNL A   1      40.990  26.197  35.373  1.00  0.00    -0.376 OA
BRANCH   3   4
ATOM      4  C   UNL A   1      41.977  27.095  34.851  1.00  0.00     0.202 C 
BRANCH   4   5
ATOM      5  C   UNL A   1      41.749  28.561  35.210  1.00  0.00     0.261 C 
BRANCH   5   6
ATOM      6  O   UNL A   1      40.494  28.976  34.653  1.00  0.00    -0.459 OA
BRANCH   6   7
ATOM      7  C   UNL A   1      39.907  30.004  35.310  1.00  0.00     0.355 C 
ATOM      8  O   UNL A   1      39.320  29.896  36.380  1.00  0.00    -0.244 OA
BRANCH   7   9
ATOM      9  C   UNL A   1      40.307  31.273  34.746  1.00  0.00     0.133 A 
ATOM     10  C   UNL A   1      40.859  31.753  33.554  1.00  0.00     0.016 A 
ATOM     11  C   UNL A   1      41.092  33.170  33.736  1.00  0.00     0.008 A 
ATOM     12  N   UNL A   1      40.293  32.340  35.624  1.00  0.00    -0.348 N 
ATOM     13  C   UNL A   1      40.856  33.455  35.078  1.00  0.00     0.050 A 
ATOM     14  C   UNL A   1      41.562  34.224  32.919  1.00  0.00     0.015 A 
ATOM     15  H   UNL A   1      39.922  32.298  36.535  1.00  0.00     0.167 HD
ATOM     16  C   UNL A   1      41.174  34.675  35.683  1.00  0.00     0.073 A 
ATOM     17  C   UNL A   1      41.824  35.482  33.490  1.00  0.00     0.047 A 
ATOM     18  C   UNL A   1      41.653  35.686  34.854  1.00  0.00     0.120 A 
BRANCH  10  19
ATOM     19  C   UNL A   1      41.338  31.015  32.406  1.00  0.00     0.032 C 
ATOM     20  N   UNL A   1      40.351  29.687  29.194  1.00  0.00    -0.261 N 
ATOM     21  C   UNL A   1      41.310  29.846  30.194  1.00  0.00     0.270 C 
ATOM     22  C   UNL A   1      39.217  30.477  29.340  1.00  0.00     0.152 C 
ATOM     23  O   UNL A   1      42.362  29.234  30.328  1.00  0.00    -0.268 OA
ATOM     24  C   UNL A   1      40.850  30.907  31.160  1.00  0.00     0.081 C 
ATOM     25  S   UNL A   1      39.558  31.785  30.456  1.00  0.00    -0.054 SA
ATOM     26  S   UNL A   1      37.671  30.238  28.737  1.00  0.00    -0.051 S 
BRANCH  20  27
ATOM     27  C   UNL A   1      40.494  28.754  28.120  1.00  0.00     0.051 A 
ATOM     28  C   UNL A   1      40.971  26.721  26.214  1.00  0.00     0.119 A 
ATOM     29  C   UNL A   1      41.479  28.012  26.036  1.00  0.00     0.048 A 
ATOM     30  C   UNL A   1      40.172  26.463  27.317  1.00  0.00     0.048 A 
ATOM     31  C   UNL A   1      41.217  29.039  26.960  1.00  0.00     0.030 A 
ATOM     32  C   UNL A   1      39.942  27.469  28.259  1.00  0.00     0.030 A 
BRANCH  28  33
ATOM     33  O   UNL A   1      41.293  25.810  25.246  1.00  0.00    -0.497 OA
ATOM     34  C   UNL A   1      42.531  25.122  25.418  1.00  0.00     0.278 C 
ENDBRANCH  28  33
ENDBRANCH  20  27
ENDBRANCH  10  19
BRANCH  18  35
ATOM     35  O   UNL A   1      42.053  36.876  35.397  1.00  0.00    -0.497 OA
ATOM     36  C   UNL A   1      43.075  36.691  36.376  1.00  0.00     0.278 C 
ENDBRANCH  18  35
ENDBRANCH   7   9
ENDBRANCH   6   7
ENDBRANCH   5   6
ENDBRANCH   4   5
ENDBRANCH   3   4
ENDBRANCH   2   3
ENDBRANCH   1   2
BRANCH   1  37
ATOM     37  O   UNL A   1      43.119  26.457  38.158  1.00  0.00    -0.377 OA
BRANCH  37  38
ATOM     38  C   UNL A   1      44.322  26.049  38.794  1.00  0.00     0.188 C 
BRANCH  38  39
ATOM     39  C   UNL A   1      45.296  27.143  39.266  1.00  0.00     0.188 C 
BRANCH  39  40
ATOM     40  O   UNL A   1      44.690  28.234  39.940  1.00  0.00    -0.376 OA
BRANCH  40  41
ATOM     41  C   UNL A   1      45.370  28.690  41.107  1.00  0.00     0.202 C 
BRANCH  41  42
ATOM     42  C   UNL A   1      45.373  30.215  41.305  1.00  0.00     0.261 C 
BRANCH  42  43
ATOM     43  O   UNL A   1      44.130  30.872  41.007  1.00  0.00    -0.460 OA
BRANCH  43  44
ATOM     44  C   UNL A   1      44.210  32.096  40.448  1.00  0.00     0.338 C 
ATOM     45  O   UNL A   1      44.204  33.174  41.015  1.00  0.00    -0.246 OA
BRANCH  44  46
ATOM     46  C   UNL A   1      44.468  31.928  39.007  1.00  0.00     0.060 A 
ATOM     47  C   UNL A   1      43.383  31.685  38.158  1.00  0.00     0.016 A 
ATOM     48  C   UNL A   1      45.773  31.960  38.509  1.00  0.00     0.016 A 
ATOM     49  C   UNL A   1      43.609  31.426  36.808  1.00  0.00     0.010 A 
ATOM     50  C   UNL A   1      46.001  31.670  37.163  1.00  0.00     0.010 A 
ATOM     51  C   UNL A   1      44.924  31.365  36.318  1.00  0.00    -0.014 A 
BRANCH  51  52
ATOM     52  C   UNL A   1      45.161  30.779  34.979  1.00  0.00     0.031 A 
ATOM     53  C   UNL A   1      45.187  31.701  33.795  1.00  0.00     0.074 A 
ATOM     54  C   UNL A   1      45.377  29.463  34.820  1.00  0.00     0.049 A 
ATOM     55  N   UNL A   1      45.447  31.437  32.541  1.00  0.00    -0.248 NA
ATOM     56  C   UNL A   1      44.846  33.108  34.060  1.00  0.00     0.031 C 
ATOM     57  C   UNL A   1      45.339  28.474  35.888  1.00  0.00     0.029 A 
ATOM     58  N   UNL A   1      45.718  28.743  33.701  1.00  0.00    -0.354 N 
ATOM     59  C   UNL A   1      45.246  32.629  31.861  1.00  0.00     0.074 A 
ATOM     60  C   UNL A   1      44.880  33.628  32.842  1.00  0.00     0.031 C 
ATOM     61  C   UNL A   1      45.737  27.288  35.394  1.00  0.00     0.029 A 
ATOM     62  C   UNL A   1      46.041  27.435  33.975  1.00  0.00     0.049 A 
ATOM     63  H   UNL A   1      45.729  29.125  32.794  1.00  0.00     0.167 HD
ATOM     64  C   UNL A   1      45.321  32.859  30.529  1.00  0.00     0.037 A 
ATOM     65  C   UNL A   1      46.562  26.487  33.171  1.00  0.00     0.037 A 
ATOM     66  C   UNL A   1      45.683  31.863  29.556  1.00  0.00     0.049 A 
ATOM     67  C   UNL A   1      46.765  26.804  31.711  1.00  0.00     0.074 A 
ATOM     68  C   UNL A   1      45.751  31.980  28.180  1.00  0.00     0.029 A 
ATOM     69  N   UNL A   1      46.042  30.560  29.867  1.00  0.00    -0.354 N 
ATOM     70  N   UNL A   1      46.586  27.935  31.073  1.00  0.00    -0.248 NA
ATOM     71  C   UNL A   1      47.218  25.698  30.852  1.00  0.00     0.031 C 
ATOM     72  C   UNL A   1      46.126  30.737  27.654  1.00  0.00     0.029 A 
ATOM     73  C   UNL A   1      46.326  29.859  28.707  1.00  0.00     0.049 A 
ATOM     74  H   UNL A   1      46.089  30.189  30.777  1.00  0.00     0.167 HD
ATOM     75  C   UNL A   1      46.877  27.673  29.741  1.00  0.00     0.074 A 
ATOM     76  C   UNL A   1      47.315  26.294  29.672  1.00  0.00     0.031 C 
ATOM     77  C   UNL A   1      46.753  28.486  28.664  1.00  0.00     0.037 A 
BRANCH  64  78
ATOM     78  C   UNL A   1      44.920  34.220  30.052  1.00  0.00     0.064 A 
ATOM     79  C   UNL A   1      45.850  35.255  29.888  1.00  0.00     0.173 A 
ATOM     80  C   UNL A   1      43.571  34.494  29.778  1.00  0.00     0.173 A 
ATOM     81  F   UNL A   1      47.146  35.048  30.165  1.00  0.00    -0.203 F 
ATOM     82  C   UNL A   1      45.440  36.525  29.487  1.00  0.00     0.198 A 
ATOM     83  C   UNL A   1      43.169  35.757  29.355  1.00  0.00     0.198 A 
ATOM     84  F   UNL A   1      42.642  33.538  29.928  1.00  0.00    -0.203 F 
ATOM     85  F   UNL A   1      46.338  37.515  29.385  1.00  0.00    -0.200 F 
ATOM     86  C   UNL A   1      44.102  36.774  29.219  1.00  0.00     0.200 A 
ATOM     87  F   UNL A   1      41.876  35.994  29.093  1.00  0.00    -0.200 F 
ATOM     88  F   UNL A   1      43.710  37.997  28.838  1.00  0.00    -0.200 F 
ENDBRANCH  64  78
BRANCH  65  89
ATOM     89  C   UNL A   1      46.997  25.176  33.724  1.00  0.00     0.064 A 
ATOM     90  C   UNL A   1      46.065  24.138  33.881  1.00  0.00     0.173 A 
ATOM     91  C   UNL A   1      48.316  24.923  34.118  1.00  0.00     0.173 A 
ATOM     92  F   UNL A   1      44.780  24.330  33.544  1.00  0.00    -0.203 F 
ATOM     93  C   UNL A   1      46.435  22.907  34.418  1.00  0.00     0.198 A 
ATOM     94  C   UNL A   1      48.693  23.678  34.622  1.00  0.00     0.198 A 
ATOM     95  F   UNL A   1      49.246  25.884  34.011  1.00  0.00    -0.203 F 
ATOM     96  F   UNL A   1      45.512  21.950  34.589  1.00  0.00    -0.200 F 
ATOM     97  C   UNL A   1      47.752  22.673  34.775  1.00  0.00     0.200 A 
ATOM     98  F   UNL A   1      49.969  23.454  34.966  1.00  0.00    -0.200 F 
ATOM     99  F   UNL A   1      48.110  21.483  35.276  1.00  0.00    -0.200 F 
ENDBRANCH  65  89
BRANCH  77 100
ATOM    100  C   UNL A   1      47.054  27.889  27.322  1.00  0.00     0.064 A 
ATOM    101  C   UNL A   1      46.048  27.265  26.568  1.00  0.00     0.173 A 
ATOM    102  C   UNL A   1      48.339  27.970  26.769  1.00  0.00     0.173 A 
ATOM    103  F   UNL A   1      44.805  27.155  27.062  1.00  0.00    -0.203 F 
ATOM    104  C   UNL A   1      46.324  26.724  25.318  1.00  0.00     0.198 A 
ATOM    105  C   UNL A   1      48.606  27.446  25.507  1.00  0.00     0.198 A 
ATOM    106  F   UNL A   1      49.332  28.561  27.450  1.00  0.00    -0.203 F 
ATOM    107  F   UNL A   1      45.357  26.096  24.633  1.00  0.00    -0.200 F 
ATOM    108  C   UNL A   1      47.600  26.819  24.785  1.00  0.00     0.200 A 
ATOM    109  F   UNL A   1      49.838  27.545  24.989  1.00  0.00    -0.200 F 
ATOM    110  F   UNL A   1      47.865  26.297  23.580  1.00  0.00    -0.200 F 
ENDBRANCH  77 100
ENDBRANCH  51  52
ENDBRANCH  44  46
ENDBRANCH  43  44
ENDBRANCH  42  43
ENDBRANCH  41  42
ENDBRANCH  40  41
ENDBRANCH  39  40
ENDBRANCH  38  39
ENDBRANCH  37  38
ENDBRANCH   1  37
TORSDOF 24
ENDMDL
