MODEL 1
REMARK VINA RESULT:      -9.7      0.000      0.000
REMARK SMILES CCC(CC)(NC(=O)c1ccc(C)s1)C(=O)OCCOCCOCCOCCOC(=O)c1ccc(-c2c3nc(c(-c4c(F)c(F)c(F)c(F)c4F)c4ccc([nH]4)c(-c4c(F)c(F)c(F)c(F)c4F)c4nc(c(-c5c(F)c(F)c(F)c(F)c5F)c5ccc2[nH]5)C=C4)C=C3)cc1
REMARK SMILES IDX 23 1 22 2 21 3 20 4 19 5 18 6 17 7 15 8 16 9 3 10 2 11 1 12
REMARK SMILES IDX 4 13 5 14 6 15 7 16 8 18 9 19 10 20 14 21 11 22 12 23 13 24
REMARK SMILES IDX 24 25 25 26 26 27 27 28 28 29 29 30 30 31 31 32 32 33 33 34
REMARK SMILES IDX 94 35 34 36 93 37 35 38 36 39 37 40 87 41 38 42 92 43 86 44
REMARK SMILES IDX 88 45 39 46 91 47 85 48 84 49 40 51 72 52 52 53 71 54 53 55
REMARK SMILES IDX 56 56 70 57 89 58 54 59 55 60 69 62 90 63 57 64 41 65 42 66
REMARK SMILES IDX 50 67 43 68 44 69 48 70 51 71 45 72 46 73 49 74 47 75 73 76
REMARK SMILES IDX 74 77 82 78 75 79 76 80 80 81 83 82 77 83 78 84 81 85 79 86
REMARK SMILES IDX 58 87 59 88 67 89 60 90 61 91 65 92 68 93 62 94 63 95 66 96
REMARK SMILES IDX 64 97
REMARK H PARENT 6 17 88 50 56 61
REMARK Flexibility Score: inf
ROOT
ATOM      1  O   UNL A   1      35.237  23.966  23.650  1.00  0.00    -0.377 OA
ENDROOT
BRANCH   1   2
ATOM      2  C   UNL A   1      34.327  23.035  23.087  1.00  0.00     0.188 C 
BRANCH   2   3
ATOM      3  C   UNL A   1      33.065  23.651  22.482  1.00  0.00     0.188 C 
BRANCH   3   4
ATOM      4  O   UNL A   1      33.260  24.767  21.617  1.00  0.00    -0.376 OA
BRANCH   4   5
ATOM      5  C   UNL A   1      32.655  26.003  22.022  1.00  0.00     0.202 C 
BRANCH   5   6
ATOM      6  C   UNL A   1      33.634  27.113  22.390  1.00  0.00     0.261 C 
BRANCH   6   7
ATOM      7  O   UNL A   1      32.884  28.251  22.863  1.00  0.00    -0.461 OA
BRANCH   7   8
ATOM      8  C   UNL A   1      32.949  28.463  24.197  1.00  0.00     0.331 C 
ATOM      9  O   UNL A   1      34.005  28.647  24.797  1.00  0.00    -0.249 OA
BRANCH   8  10
ATOM     10  C   UNL A   1      31.554  28.551  24.883  1.00  0.00     0.137 C 
BRANCH  10  11
ATOM     11  C   UNL A   1      30.840  29.795  24.245  1.00  0.00     0.037 C 
ATOM     12  C   UNL A   1      29.646  29.552  23.333  1.00  0.00     0.007 C 
ENDBRANCH  10  11
BRANCH  10  13
ATOM     13  C   UNL A   1      31.819  28.729  26.402  1.00  0.00     0.037 C 
ATOM     14  C   UNL A   1      31.878  30.165  26.904  1.00  0.00     0.007 C 
ENDBRANCH  10  13
BRANCH  10  15
ATOM     15  N   UNL A   1      30.562  27.450  24.673  1.00  0.00    -0.335 N 
ATOM     16  C   UNL A   1      30.340  26.199  25.184  1.00  0.00     0.262 C 
ATOM     17  H   UNL A   1      29.896  27.688  23.989  1.00  0.00     0.165 HD
ATOM     18  O   UNL A   1      29.194  25.765  25.042  1.00  0.00    -0.268 OA
BRANCH  16  19
ATOM     19  C   UNL A   1      31.419  25.406  25.716  1.00  0.00     0.092 A 
ATOM     20  C   UNL A   1      32.746  25.687  25.967  1.00  0.00     0.026 A 
ATOM     21  S   UNL A   1      31.034  23.801  26.191  1.00  0.00    -0.135 S 
ATOM     22  C   UNL A   1      33.477  24.517  26.350  1.00  0.00     0.016 A 
ATOM     23  C   UNL A   1      32.680  23.391  26.384  1.00  0.00     0.002 A 
ATOM     24  C   UNL A   1      33.073  21.964  26.543  1.00  0.00     0.056 C 
ENDBRANCH  16  19
ENDBRANCH  10  15
ENDBRANCH   8  10
ENDBRANCH   7   8
ENDBRANCH   6   7
ENDBRANCH   5   6
ENDBRANCH   4   5
ENDBRANCH   3   4
ENDBRANCH   2   3
ENDBRANCH   1   2
BRANCH   1  25
ATOM     25  C   UNL A   1      36.311  23.388  24.391  1.00  0.00     0.188 C 
BRANCH  25  26
ATOM     26  C   UNL A   1      36.496  21.867  24.287  1.00  0.00     0.188 C 
BRANCH  26  27
ATOM     27  O   UNL A   1      37.748  21.321  24.681  1.00  0.00    -0.376 OA
BRANCH  27  28
ATOM     28  C   UNL A   1      37.799  19.948  25.061  1.00  0.00     0.202 C 
BRANCH  28  29
ATOM     29  C   UNL A   1      39.157  19.467  25.558  1.00  0.00     0.261 C 
BRANCH  29  30
ATOM     30  O   UNL A   1      40.022  20.582  25.836  1.00  0.00    -0.460 OA
BRANCH  30  31
ATOM     31  C   UNL A   1      40.591  20.603  27.059  1.00  0.00     0.338 C 
ATOM     32  O   UNL A   1      40.951  19.656  27.735  1.00  0.00    -0.246 OA
BRANCH  31  33
ATOM     33  C   UNL A   1      40.809  21.999  27.467  1.00  0.00     0.060 A 
ATOM     34  C   UNL A   1      40.142  23.008  26.765  1.00  0.00     0.016 A 
ATOM     35  C   UNL A   1      41.749  22.311  28.452  1.00  0.00     0.016 A 
ATOM     36  C   UNL A   1      40.447  24.344  27.022  1.00  0.00     0.010 A 
ATOM     37  C   UNL A   1      42.064  23.649  28.697  1.00  0.00     0.010 A 
ATOM     38  C   UNL A   1      41.436  24.668  27.964  1.00  0.00    -0.014 A 
BRANCH  38  39
ATOM     39  C   UNL A   1      41.902  26.068  28.085  1.00  0.00     0.031 A 
ATOM     40  C   UNL A   1      43.217  26.450  27.476  1.00  0.00     0.074 A 
ATOM     41  C   UNL A   1      41.158  26.982  28.729  1.00  0.00     0.049 A 
ATOM     42  N   UNL A   1      43.835  27.603  27.499  1.00  0.00    -0.248 NA
ATOM     43  C   UNL A   1      43.946  25.388  26.764  1.00  0.00     0.031 C 
ATOM     44  C   UNL A   1      39.884  26.704  29.381  1.00  0.00     0.029 A 
ATOM     45  N   UNL A   1      41.356  28.321  28.939  1.00  0.00    -0.354 N 
ATOM     46  C   UNL A   1      45.035  27.399  26.833  1.00  0.00     0.074 A 
ATOM     47  C   UNL A   1      45.059  26.015  26.409  1.00  0.00     0.031 C 
ATOM     48  C   UNL A   1      39.382  27.846  29.875  1.00  0.00     0.029 A 
ATOM     49  C   UNL A   1      40.340  28.924  29.641  1.00  0.00     0.049 A 
ATOM     50  H   UNL A   1      42.152  28.806  28.618  1.00  0.00     0.167 HD
ATOM     51  C   UNL A   1      46.033  28.287  26.615  1.00  0.00     0.037 A 
ATOM     52  C   UNL A   1      40.220  30.193  30.074  1.00  0.00     0.037 A 
ATOM     53  C   UNL A   1      46.005  29.657  27.053  1.00  0.00     0.049 A 
ATOM     54  C   UNL A   1      41.350  31.157  29.817  1.00  0.00     0.074 A 
ATOM     55  C   UNL A   1      46.962  30.640  26.876  1.00  0.00     0.029 A 
ATOM     56  N   UNL A   1      44.964  30.235  27.767  1.00  0.00    -0.354 N 
ATOM     57  N   UNL A   1      42.474  30.961  29.171  1.00  0.00    -0.248 NA
ATOM     58  C   UNL A   1      41.208  32.509  30.376  1.00  0.00     0.031 C 
ATOM     59  C   UNL A   1      46.520  31.801  27.519  1.00  0.00     0.029 A 
ATOM     60  C   UNL A   1      45.266  31.556  28.055  1.00  0.00     0.049 A 
ATOM     61  H   UNL A   1      44.134  29.774  28.028  1.00  0.00     0.167 HD
ATOM     62  C   UNL A   1      43.172  32.158  29.247  1.00  0.00     0.074 A 
ATOM     63  C   UNL A   1      42.329  33.088  29.969  1.00  0.00     0.031 C 
ATOM     64  C   UNL A   1      44.409  32.458  28.779  1.00  0.00     0.037 A 
BRANCH  51  65
ATOM     65  C   UNL A   1      47.260  27.790  25.913  1.00  0.00     0.064 A 
ATOM     66  C   UNL A   1      48.372  27.311  26.620  1.00  0.00     0.173 A 
ATOM     67  C   UNL A   1      47.307  27.757  24.511  1.00  0.00     0.173 A 
ATOM     68  F   UNL A   1      48.382  27.339  27.961  1.00  0.00    -0.203 F 
ATOM     69  C   UNL A   1      49.492  26.829  25.948  1.00  0.00     0.198 A 
ATOM     70  C   UNL A   1      48.419  27.253  23.843  1.00  0.00     0.198 A 
ATOM     71  F   UNL A   1      46.268  28.205  23.789  1.00  0.00    -0.203 F 
ATOM     72  F   UNL A   1      50.559  26.408  26.643  1.00  0.00    -0.200 F 
ATOM     73  C   UNL A   1      49.512  26.793  24.561  1.00  0.00     0.200 A 
ATOM     74  F   UNL A   1      48.432  27.210  22.503  1.00  0.00    -0.200 F 
ATOM     75  F   UNL A   1      50.587  26.320  23.917  1.00  0.00    -0.200 F 
ENDBRANCH  51  65
BRANCH  52  76
ATOM     76  C   UNL A   1      39.012  30.623  30.829  1.00  0.00     0.064 A 
ATOM     77  C   UNL A   1      38.964  30.525  32.227  1.00  0.00     0.173 A 
ATOM     78  C   UNL A   1      37.874  31.112  30.173  1.00  0.00     0.173 A 
ATOM     79  F   UNL A   1      40.017  30.039  32.901  1.00  0.00    -0.203 F 
ATOM     80  C   UNL A   1      37.818  30.880  32.936  1.00  0.00     0.198 A 
ATOM     81  C   UNL A   1      36.740  31.499  30.885  1.00  0.00     0.198 A 
ATOM     82  F   UNL A   1      37.863  31.223  28.837  1.00  0.00    -0.203 F 
ATOM     83  F   UNL A   1      37.781  30.726  34.267  1.00  0.00    -0.200 F 
ATOM     84  C   UNL A   1      36.709  31.374  32.265  1.00  0.00     0.200 A 
ATOM     85  F   UNL A   1      35.677  31.991  30.234  1.00  0.00    -0.200 F 
ATOM     86  F   UNL A   1      35.609  31.719  32.947  1.00  0.00    -0.200 F 
ENDBRANCH  52  76
BRANCH  64  87
ATOM     87  C   UNL A   1      44.912  33.850  29.025  1.00  0.00     0.064 A 
ATOM     88  C   UNL A   1      45.663  34.164  30.167  1.00  0.00     0.173 A 
ATOM     89  C   UNL A   1      44.672  34.870  28.093  1.00  0.00     0.173 A 
ATOM     90  F   UNL A   1      45.905  33.226  31.096  1.00  0.00    -0.203 F 
ATOM     91  C   UNL A   1      46.137  35.456  30.378  1.00  0.00     0.198 A 
ATOM     92  C   UNL A   1      45.170  36.154  28.293  1.00  0.00     0.198 A 
ATOM     93  F   UNL A   1      43.963  34.618  26.982  1.00  0.00    -0.203 F 
ATOM     94  F   UNL A   1      46.813  35.745  31.498  1.00  0.00    -0.200 F 
ATOM     95  C   UNL A   1      45.896  36.447  29.438  1.00  0.00     0.200 A 
ATOM     96  F   UNL A   1      44.946  37.108  27.379  1.00  0.00    -0.200 F 
ATOM     97  F   UNL A   1      46.355  37.689  29.641  1.00  0.00    -0.200 F 
ENDBRANCH  64  87
ENDBRANCH  38  39
ENDBRANCH  31  33
ENDBRANCH  30  31
ENDBRANCH  29  30
ENDBRANCH  28  29
ENDBRANCH  27  28
ENDBRANCH  26  27
ENDBRANCH  25  26
ENDBRANCH   1  25
TORSDOF 24
ENDMDL
MODEL 2
REMARK VINA RESULT:      -8.8      4.151      7.765
REMARK SMILES CCC(CC)(NC(=O)c1ccc(C)s1)C(=O)OCCOCCOCCOCCOC(=O)c1ccc(-c2c3nc(c(-c4c(F)c(F)c(F)c(F)c4F)c4ccc([nH]4)c(-c4c(F)c(F)c(F)c(F)c4F)c4nc(c(-c5c(F)c(F)c(F)c(F)c5F)c5ccc2[nH]5)C=C4)C=C3)cc1
REMARK SMILES IDX 23 1 22 2 21 3 20 4 19 5 18 6 17 7 15 8 16 9 3 10 2 11 1 12
REMARK SMILES IDX 4 13 5 14 6 15 7 16 8 18 9 19 10 20 14 21 11 22 12 23 13 24
REMARK SMILES IDX 24 25 25 26 26 27 27 28 28 29 29 30 30 31 31 32 32 33 33 34
REMARK SMILES IDX 94 35 34 36 93 37 35 38 36 39 37 40 87 41 38 42 92 43 86 44
REMARK SMILES IDX 88 45 39 46 91 47 85 48 84 49 40 51 72 52 52 53 71 54 53 55
REMARK SMILES IDX 56 56 70 57 89 58 54 59 55 60 69 62 90 63 57 64 41 65 42 66
REMARK SMILES IDX 50 67 43 68 44 69 48 70 51 71 45 72 46 73 49 74 47 75 73 76
REMARK SMILES IDX 74 77 82 78 75 79 76 80 80 81 83 82 77 83 78 84 81 85 79 86
REMARK SMILES IDX 58 87 59 88 67 89 60 90 61 91 65 92 68 93 62 94 63 95 66 96
REMARK SMILES IDX 64 97
REMARK H PARENT 6 17 88 50 56 61
REMARK Flexibility Score: inf
ROOT
ATOM      1  O   UNL A   1      41.757  20.724  27.173  1.00  0.00    -0.377 OA
ENDROOT
BRANCH   1   2
ATOM      2  C   UNL A   1      41.455  22.048  27.581  1.00  0.00     0.188 C 
BRANCH   2   3
ATOM      3  C   UNL A   1      40.072  22.553  27.169  1.00  0.00     0.188 C 
BRANCH   3   4
ATOM      4  O   UNL A   1      39.289  21.666  26.373  1.00  0.00    -0.376 OA
BRANCH   4   5
ATOM      5  C   UNL A   1      38.127  22.226  25.746  1.00  0.00     0.202 C 
BRANCH   5   6
ATOM      6  C   UNL A   1      37.038  21.221  25.384  1.00  0.00     0.261 C 
BRANCH   6   7
ATOM      7  O   UNL A   1      35.810  21.620  26.027  1.00  0.00    -0.461 OA
BRANCH   7   8
ATOM      8  C   UNL A   1      34.713  21.578  25.239  1.00  0.00     0.331 C 
ATOM      9  O   UNL A   1      34.338  20.559  24.665  1.00  0.00    -0.249 OA
BRANCH   8  10
ATOM     10  C   UNL A   1      33.916  22.915  25.207  1.00  0.00     0.137 C 
BRANCH  10  11
ATOM     11  C   UNL A   1      34.727  23.876  24.265  1.00  0.00     0.037 C 
ATOM     12  C   UNL A   1      35.460  23.270  23.077  1.00  0.00     0.007 C 
ENDBRANCH  10  11
BRANCH  10  13
ATOM     13  C   UNL A   1      33.855  23.427  26.671  1.00  0.00     0.037 C 
ATOM     14  C   UNL A   1      33.052  22.573  27.642  1.00  0.00     0.007 C 
ENDBRANCH  10  13
BRANCH  10  15
ATOM     15  N   UNL A   1      32.545  22.938  24.609  1.00  0.00    -0.335 N 
ATOM     16  C   UNL A   1      31.620  23.892  24.274  1.00  0.00     0.262 C 
ATOM     17  H   UNL A   1      32.223  22.031  24.404  1.00  0.00     0.165 HD
ATOM     18  O   UNL A   1      30.777  23.543  23.443  1.00  0.00    -0.268 OA
BRANCH  16  19
ATOM     19  C   UNL A   1      31.567  25.157  24.962  1.00  0.00     0.092 A 
ATOM     20  C   UNL A   1      31.054  25.529  26.187  1.00  0.00     0.026 A 
ATOM     21  S   UNL A   1      32.306  26.493  24.177  1.00  0.00    -0.135 S 
ATOM     22  C   UNL A   1      31.090  26.948  26.373  1.00  0.00     0.016 A 
ATOM     23  C   UNL A   1      31.635  27.603  25.286  1.00  0.00     0.002 A 
ATOM     24  C   UNL A   1      31.681  29.062  24.992  1.00  0.00     0.056 C 
ENDBRANCH  16  19
ENDBRANCH  10  15
ENDBRANCH   8  10
ENDBRANCH   7   8
ENDBRANCH   6   7
ENDBRANCH   5   6
ENDBRANCH   4   5
ENDBRANCH   3   4
ENDBRANCH   2   3
ENDBRANCH   1   2
BRANCH   1  25
ATOM     25  C   UNL A   1      42.724  20.617  26.130  1.00  0.00     0.188 C 
BRANCH  25  26
ATOM     26  C   UNL A   1      43.374  21.920  25.641  1.00  0.00     0.188 C 
BRANCH  26  27
ATOM     27  O   UNL A   1      44.785  22.045  25.759  1.00  0.00    -0.376 OA
BRANCH  27  28
ATOM     28  C   UNL A   1      45.502  22.664  24.693  1.00  0.00     0.202 C 
BRANCH  28  29
ATOM     29  C   UNL A   1      46.149  24.000  25.042  1.00  0.00     0.261 C 
BRANCH  29  30
ATOM     30  O   UNL A   1      45.170  25.053  25.051  1.00  0.00    -0.460 OA
BRANCH  30  31
ATOM     31  C   UNL A   1      45.650  26.311  25.129  1.00  0.00     0.338 C 
ATOM     32  O   UNL A   1      46.268  26.931  24.283  1.00  0.00    -0.246 OA
BRANCH  31  33
ATOM     33  C   UNL A   1      45.242  26.906  26.411  1.00  0.00     0.060 A 
ATOM     34  C   UNL A   1      44.451  26.142  27.275  1.00  0.00     0.016 A 
ATOM     35  C   UNL A   1      45.537  28.240  26.698  1.00  0.00     0.016 A 
ATOM     36  C   UNL A   1      43.918  26.731  28.421  1.00  0.00     0.010 A 
ATOM     37  C   UNL A   1      44.990  28.832  27.839  1.00  0.00     0.010 A 
ATOM     38  C   UNL A   1      44.156  28.088  28.688  1.00  0.00    -0.014 A 
BRANCH  38  39
ATOM     39  C   UNL A   1      43.423  28.759  29.786  1.00  0.00     0.031 A 
ATOM     40  C   UNL A   1      44.106  28.945  31.107  1.00  0.00     0.074 A 
ATOM     41  C   UNL A   1      42.167  29.196  29.601  1.00  0.00     0.049 A 
ATOM     42  N   UNL A   1      43.640  29.464  32.213  1.00  0.00    -0.248 NA
ATOM     43  C   UNL A   1      45.493  28.461  31.204  1.00  0.00     0.031 C 
ATOM     44  C   UNL A   1      41.406  29.035  28.368  1.00  0.00     0.029 A 
ATOM     45  N   UNL A   1      41.311  29.863  30.438  1.00  0.00    -0.354 N 
ATOM     46  C   UNL A   1      44.661  29.345  33.144  1.00  0.00     0.074 A 
ATOM     47  C   UNL A   1      45.778  28.711  32.475  1.00  0.00     0.031 C 
ATOM     48  C   UNL A   1      40.213  29.634  28.503  1.00  0.00     0.029 A 
ATOM     49  C   UNL A   1      40.097  30.154  29.864  1.00  0.00     0.049 A 
ATOM     50  H   UNL A   1      41.544  30.110  31.363  1.00  0.00     0.167 HD
ATOM     51  C   UNL A   1      44.656  29.715  34.445  1.00  0.00     0.037 A 
ATOM     52  C   UNL A   1      39.007  30.742  30.393  1.00  0.00     0.037 A 
ATOM     53  C   UNL A   1      43.535  30.332  35.105  1.00  0.00     0.049 A 
ATOM     54  C   UNL A   1      39.031  31.140  31.846  1.00  0.00     0.074 A 
ATOM     55  C   UNL A   1      43.431  30.752  36.418  1.00  0.00     0.029 A 
ATOM     56  N   UNL A   1      42.318  30.608  34.498  1.00  0.00    -0.354 N 
ATOM     57  N   UNL A   1      40.008  31.040  32.715  1.00  0.00    -0.248 NA
ATOM     58  C   UNL A   1      37.793  31.705  32.399  1.00  0.00     0.031 C 
ATOM     59  C   UNL A   1      42.137  31.244  36.618  1.00  0.00     0.029 A 
ATOM     60  C   UNL A   1      41.450  31.174  35.416  1.00  0.00     0.049 A 
ATOM     61  H   UNL A   1      42.104  30.428  33.554  1.00  0.00     0.167 HD
ATOM     62  C   UNL A   1      39.504  31.525  33.914  1.00  0.00     0.074 A 
ATOM     63  C   UNL A   1      38.147  31.956  33.652  1.00  0.00     0.031 C 
ATOM     64  C   UNL A   1      40.102  31.591  35.129  1.00  0.00     0.037 A 
BRANCH  51  65
ATOM     65  C   UNL A   1      45.881  29.418  35.255  1.00  0.00     0.064 A 
ATOM     66  C   UNL A   1      46.942  30.331  35.350  1.00  0.00     0.173 A 
ATOM     67  C   UNL A   1      45.977  28.220  35.979  1.00  0.00     0.173 A 
ATOM     68  F   UNL A   1      46.905  31.482  34.662  1.00  0.00    -0.203 F 
ATOM     69  C   UNL A   1      48.061  30.047  36.129  1.00  0.00     0.198 A 
ATOM     70  C   UNL A   1      47.086  27.951  36.775  1.00  0.00     0.198 A 
ATOM     71  F   UNL A   1      44.989  27.314  35.921  1.00  0.00    -0.203 F 
ATOM     72  F   UNL A   1      49.079  30.918  36.178  1.00  0.00    -0.200 F 
ATOM     73  C   UNL A   1      48.128  28.862  36.847  1.00  0.00     0.200 A 
ATOM     74  F   UNL A   1      47.145  26.809  37.476  1.00  0.00    -0.200 F 
ATOM     75  F   UNL A   1      49.201  28.596  37.604  1.00  0.00    -0.200 F 
ENDBRANCH  51  65
BRANCH  52  76
ATOM     76  C   UNL A   1      37.787  30.953  29.568  1.00  0.00     0.064 A 
ATOM     77  C   UNL A   1      36.894  29.900  29.320  1.00  0.00     0.173 A 
ATOM     78  C   UNL A   1      37.501  32.197  28.989  1.00  0.00     0.173 A 
ATOM     79  F   UNL A   1      37.136  28.682  29.829  1.00  0.00    -0.203 F 
ATOM     80  C   UNL A   1      35.775  30.080  28.508  1.00  0.00     0.198 A 
ATOM     81  C   UNL A   1      36.364  32.384  28.205  1.00  0.00     0.198 A 
ATOM     82  F   UNL A   1      38.322  33.237  29.190  1.00  0.00    -0.203 F 
ATOM     83  F   UNL A   1      34.969  29.042  28.244  1.00  0.00    -0.200 F 
ATOM     84  C   UNL A   1      35.507  31.323  27.957  1.00  0.00     0.200 A 
ATOM     85  F   UNL A   1      36.100  33.592  27.688  1.00  0.00    -0.200 F 
ATOM     86  F   UNL A   1      34.430  31.496  27.180  1.00  0.00    -0.200 F 
ENDBRANCH  52  76
BRANCH  64  87
ATOM     87  C   UNL A   1      39.294  32.160  36.257  1.00  0.00     0.064 A 
ATOM     88  C   UNL A   1      39.419  33.503  36.641  1.00  0.00     0.173 A 
ATOM     89  C   UNL A   1      38.359  31.365  36.936  1.00  0.00     0.173 A 
ATOM     90  F   UNL A   1      40.311  34.300  36.033  1.00  0.00    -0.203 F 
ATOM     91  C   UNL A   1      38.653  34.024  37.681  1.00  0.00     0.198 A 
ATOM     92  C   UNL A   1      37.575  31.895  37.957  1.00  0.00     0.198 A 
ATOM     93  F   UNL A   1      38.199  30.076  36.602  1.00  0.00    -0.203 F 
ATOM     94  F   UNL A   1      38.821  35.297  38.062  1.00  0.00    -0.200 F 
ATOM     95  C   UNL A   1      37.728  33.222  38.332  1.00  0.00     0.200 A 
ATOM     96  F   UNL A   1      36.674  31.122  38.577  1.00  0.00    -0.200 F 
ATOM     97  F   UNL A   1      36.988  33.725  39.330  1.00  0.00    -0.200 F 
ENDBRANCH  64  87
ENDBRANCH  38  39
ENDBRANCH  31  33
ENDBRANCH  30  31
ENDBRANCH  29  30
ENDBRANCH  28  29
ENDBRANCH  27  28
ENDBRANCH  26  27
ENDBRANCH  25  26
ENDBRANCH   1  25
TORSDOF 24
ENDMDL
MODEL 3
REMARK VINA RESULT:      -8.5      4.727      8.952
REMARK SMILES CCC(CC)(NC(=O)c1ccc(C)s1)C(=O)OCCOCCOCCOCCOC(=O)c1ccc(-c2c3nc(c(-c4c(F)c(F)c(F)c(F)c4F)c4ccc([nH]4)c(-c4c(F)c(F)c(F)c(F)c4F)c4nc(c(-c5c(F)c(F)c(F)c(F)c5F)c5ccc2[nH]5)C=C4)C=C3)cc1
REMARK SMILES IDX 23 1 22 2 21 3 20 4 19 5 18 6 17 7 15 8 16 9 3 10 2 11 1 12
REMARK SMILES IDX 4 13 5 14 6 15 7 16 8 18 9 19 10 20 14 21 11 22 12 23 13 24
REMARK SMILES IDX 24 25 25 26 26 27 27 28 28 29 29 30 30 31 31 32 32 33 33 34
REMARK SMILES IDX 94 35 34 36 93 37 35 38 36 39 37 40 87 41 38 42 92 43 86 44
REMARK SMILES IDX 88 45 39 46 91 47 85 48 84 49 40 51 72 52 52 53 71 54 53 55
REMARK SMILES IDX 56 56 70 57 89 58 54 59 55 60 69 62 90 63 57 64 41 65 42 66
REMARK SMILES IDX 50 67 43 68 44 69 48 70 51 71 45 72 46 73 49 74 47 75 73 76
REMARK SMILES IDX 74 77 82 78 75 79 76 80 80 81 83 82 77 83 78 84 81 85 79 86
REMARK SMILES IDX 58 87 59 88 67 89 60 90 61 91 65 92 68 93 62 94 63 95 66 96
REMARK SMILES IDX 64 97
REMARK H PARENT 6 17 88 50 56 61
REMARK Flexibility Score: inf
ROOT
ATOM      1  O   UNL A   1      33.721  27.589  25.820  1.00  0.00    -0.377 OA
ENDROOT
BRANCH   1   2
ATOM      2  C   UNL A   1      33.858  28.268  24.583  1.00  0.00     0.188 C 
BRANCH   2   3
ATOM      3  C   UNL A   1      32.861  27.850  23.501  1.00  0.00     0.188 C 
BRANCH   3   4
ATOM      4  O   UNL A   1      33.222  26.717  22.716  1.00  0.00    -0.376 OA
BRANCH   4   5
ATOM      5  C   UNL A   1      33.239  25.451  23.389  1.00  0.00     0.202 C 
BRANCH   5   6
ATOM      6  C   UNL A   1      34.262  24.450  22.862  1.00  0.00     0.261 C 
BRANCH   6   7
ATOM      7  O   UNL A   1      34.739  23.653  23.966  1.00  0.00    -0.461 OA
BRANCH   7   8
ATOM      8  C   UNL A   1      35.811  22.878  23.688  1.00  0.00     0.331 C 
ATOM      9  O   UNL A   1      36.591  23.114  22.770  1.00  0.00    -0.249 OA
BRANCH   8  10
ATOM     10  C   UNL A   1      36.019  21.715  24.704  1.00  0.00     0.137 C 
BRANCH  10  11
ATOM     11  C   UNL A   1      35.925  22.368  26.129  1.00  0.00     0.037 C 
ATOM     12  C   UNL A   1      36.315  23.831  26.278  1.00  0.00     0.007 C 
ENDBRANCH  10  11
BRANCH  10  13
ATOM     13  C   UNL A   1      37.422  21.120  24.411  1.00  0.00     0.037 C 
ATOM     14  C   UNL A   1      38.530  21.522  25.374  1.00  0.00     0.007 C 
ENDBRANCH  10  13
BRANCH  10  15
ATOM     15  N   UNL A   1      35.010  20.612  24.772  1.00  0.00    -0.335 N 
ATOM     16  C   UNL A   1      33.673  20.500  25.045  1.00  0.00     0.262 C 
ATOM     17  H   UNL A   1      35.414  19.738  24.568  1.00  0.00     0.165 HD
ATOM     18  O   UNL A   1      33.127  19.482  24.612  1.00  0.00    -0.268 OA
BRANCH  16  19
ATOM     19  C   UNL A   1      33.003  21.445  25.902  1.00  0.00     0.092 A 
ATOM     20  C   UNL A   1      33.217  21.832  27.209  1.00  0.00     0.026 A 
ATOM     21  S   UNL A   1      31.702  22.327  25.210  1.00  0.00    -0.135 S 
ATOM     22  C   UNL A   1      32.180  22.694  27.688  1.00  0.00     0.016 A 
ATOM     23  C   UNL A   1      31.219  22.939  26.728  1.00  0.00     0.002 A 
ATOM     24  C   UNL A   1      29.899  23.612  26.867  1.00  0.00     0.056 C 
ENDBRANCH  16  19
ENDBRANCH  10  15
ENDBRANCH   8  10
ENDBRANCH   7   8
ENDBRANCH   6   7
ENDBRANCH   5   6
ENDBRANCH   4   5
ENDBRANCH   3   4
ENDBRANCH   2   3
ENDBRANCH   1   2
BRANCH   1  25
ATOM     25  C   UNL A   1      33.084  28.338  26.854  1.00  0.00     0.188 C 
BRANCH  25  26
ATOM     26  C   UNL A   1      33.302  29.858  26.854  1.00  0.00     0.188 C 
BRANCH  26  27
ATOM     27  O   UNL A   1      32.167  30.693  27.044  1.00  0.00    -0.376 OA
BRANCH  27  28
ATOM     28  C   UNL A   1      32.336  32.103  26.923  1.00  0.00     0.202 C 
BRANCH  28  29
ATOM     29  C   UNL A   1      33.572  32.665  27.617  1.00  0.00     0.261 C 
BRANCH  29  30
ATOM     30  O   UNL A   1      33.558  34.103  27.596  1.00  0.00    -0.460 OA
BRANCH  30  31
ATOM     31  C   UNL A   1      33.409  34.714  28.790  1.00  0.00     0.338 C 
ATOM     32  O   UNL A   1      32.492  35.425  29.159  1.00  0.00    -0.246 OA
BRANCH  31  33
ATOM     33  C   UNL A   1      34.521  34.329  29.672  1.00  0.00     0.060 A 
ATOM     34  C   UNL A   1      35.828  34.568  29.236  1.00  0.00     0.016 A 
ATOM     35  C   UNL A   1      34.276  33.635  30.859  1.00  0.00     0.016 A 
ATOM     36  C   UNL A   1      36.902  34.072  29.975  1.00  0.00     0.010 A 
ATOM     37  C   UNL A   1      35.352  33.126  31.589  1.00  0.00     0.010 A 
ATOM     38  C   UNL A   1      36.666  33.319  31.136  1.00  0.00    -0.014 A 
BRANCH  38  39
ATOM     39  C   UNL A   1      37.792  32.623  31.799  1.00  0.00     0.031 A 
ATOM     40  C   UNL A   1      38.475  31.498  31.081  1.00  0.00     0.074 A 
ATOM     41  C   UNL A   1      38.197  32.995  33.025  1.00  0.00     0.049 A 
ATOM     42  N   UNL A   1      39.448  30.727  31.490  1.00  0.00    -0.248 NA
ATOM     43  C   UNL A   1      37.981  31.184  29.731  1.00  0.00     0.031 C 
ATOM     44  C   UNL A   1      37.580  34.051  33.817  1.00  0.00     0.029 A 
ATOM     45  N   UNL A   1      39.217  32.535  33.816  1.00  0.00    -0.354 N 
ATOM     46  C   UNL A   1      39.665  29.820  30.464  1.00  0.00     0.074 A 
ATOM     47  C   UNL A   1      38.729  30.138  29.407  1.00  0.00     0.031 C 
ATOM     48  C   UNL A   1      38.263  34.202  34.962  1.00  0.00     0.029 A 
ATOM     49  C   UNL A   1      39.321  33.196  35.016  1.00  0.00     0.049 A 
ATOM     50  H   UNL A   1      39.817  31.801  33.550  1.00  0.00     0.167 HD
ATOM     51  C   UNL A   1      40.555  28.801  30.420  1.00  0.00     0.037 A 
ATOM     52  C   UNL A   1      40.154  32.984  36.053  1.00  0.00     0.037 A 
ATOM     53  C   UNL A   1      41.473  28.485  31.482  1.00  0.00     0.049 A 
ATOM     54  C   UNL A   1      41.132  31.840  35.975  1.00  0.00     0.074 A 
ATOM     55  C   UNL A   1      42.420  27.478  31.533  1.00  0.00     0.029 A 
ATOM     56  N   UNL A   1      41.549  29.169  32.687  1.00  0.00    -0.354 N 
ATOM     57  N   UNL A   1      41.343  30.997  34.992  1.00  0.00    -0.248 NA
ATOM     58  C   UNL A   1      41.966  31.599  37.161  1.00  0.00     0.031 C 
ATOM     59  C   UNL A   1      43.041  27.525  32.786  1.00  0.00     0.029 A 
ATOM     60  C   UNL A   1      42.514  28.592  33.497  1.00  0.00     0.049 A 
ATOM     61  H   UNL A   1      41.000  29.949  32.930  1.00  0.00     0.167 HD
ATOM     62  C   UNL A   1      42.328  30.128  35.439  1.00  0.00     0.074 A 
ATOM     63  C   UNL A   1      42.701  30.568  36.768  1.00  0.00     0.031 C 
ATOM     64  C   UNL A   1      42.864  29.049  34.817  1.00  0.00     0.037 A 
BRANCH  51  65
ATOM     65  C   UNL A   1      40.546  27.925  29.205  1.00  0.00     0.064 A 
ATOM     66  C   UNL A   1      39.691  26.818  29.099  1.00  0.00     0.173 A 
ATOM     67  C   UNL A   1      41.375  28.222  28.113  1.00  0.00     0.173 A 
ATOM     68  F   UNL A   1      38.893  26.483  30.123  1.00  0.00    -0.203 F 
ATOM     69  C   UNL A   1      39.679  26.032  27.950  1.00  0.00     0.198 A 
ATOM     70  C   UNL A   1      41.344  27.448  26.957  1.00  0.00     0.198 A 
ATOM     71  F   UNL A   1      42.211  29.271  28.164  1.00  0.00    -0.203 F 
ATOM     72  F   UNL A   1      38.881  24.957  27.883  1.00  0.00    -0.200 F 
ATOM     73  C   UNL A   1      40.499  26.351  26.877  1.00  0.00     0.200 A 
ATOM     74  F   UNL A   1      42.129  27.765  25.918  1.00  0.00    -0.200 F 
ATOM     75  F   UNL A   1      40.479  25.600  25.769  1.00  0.00    -0.200 F 
ENDBRANCH  51  65
BRANCH  52  76
ATOM     76  C   UNL A   1      40.079  33.837  37.270  1.00  0.00     0.064 A 
ATOM     77  C   UNL A   1      39.165  33.551  38.294  1.00  0.00     0.173 A 
ATOM     78  C   UNL A   1      40.895  34.967  37.423  1.00  0.00     0.173 A 
ATOM     79  F   UNL A   1      38.344  32.497  38.185  1.00  0.00    -0.203 F 
ATOM     80  C   UNL A   1      39.057  34.375  39.414  1.00  0.00     0.198 A 
ATOM     81  C   UNL A   1      40.809  35.770  38.558  1.00  0.00     0.198 A 
ATOM     82  F   UNL A   1      41.783  35.289  36.472  1.00  0.00    -0.203 F 
ATOM     83  F   UNL A   1      38.138  34.108  40.352  1.00  0.00    -0.200 F 
ATOM     84  C   UNL A   1      39.884  35.480  39.548  1.00  0.00     0.200 A 
ATOM     85  F   UNL A   1      41.622  36.828  38.692  1.00  0.00    -0.200 F 
ATOM     86  F   UNL A   1      39.782  36.268  40.626  1.00  0.00    -0.200 F 
ENDBRANCH  52  76
BRANCH  64  87
ATOM     87  C   UNL A   1      43.916  28.284  35.563  1.00  0.00     0.064 A 
ATOM     88  C   UNL A   1      45.275  28.612  35.452  1.00  0.00     0.173 A 
ATOM     89  C   UNL A   1      43.559  27.237  36.425  1.00  0.00     0.173 A 
ATOM     90  F   UNL A   1      45.668  29.595  34.628  1.00  0.00    -0.203 F 
ATOM     91  C   UNL A   1      46.242  27.903  36.161  1.00  0.00     0.198 A 
ATOM     92  C   UNL A   1      44.525  26.548  37.152  1.00  0.00     0.198 A 
ATOM     93  F   UNL A   1      42.272  26.889  36.568  1.00  0.00    -0.203 F 
ATOM     94  F   UNL A   1      47.538  28.203  36.005  1.00  0.00    -0.200 F 
ATOM     95  C   UNL A   1      45.865  26.877  37.015  1.00  0.00     0.200 A 
ATOM     96  F   UNL A   1      44.159  25.565  37.986  1.00  0.00    -0.200 F 
ATOM     97  F   UNL A   1      46.796  26.199  37.699  1.00  0.00    -0.200 F 
ENDBRANCH  64  87
ENDBRANCH  38  39
ENDBRANCH  31  33
ENDBRANCH  30  31
ENDBRANCH  29  30
ENDBRANCH  28  29
ENDBRANCH  27  28
ENDBRANCH  26  27
ENDBRANCH  25  26
ENDBRANCH   1  25
TORSDOF 24
ENDMDL
