MODEL 1
REMARK VINA RESULT:     -10.8      0.000      0.000
REMARK SMILES O=C(OCCOCCOCCOCCOC(=O)[C@@]1(Cc2cn3ccccc3n2)CCC[NH2+]C1)c1ccc(-c2c3nc(c(-c4c(F)c(F)c(F)c(F)c4F)c4ccc([nH]4)c(-c4c(F)c(F)c(F)c(F)c4F)c4nc(c(-c5c(F)c(F)c(F)c(F)c5F)c5ccc2[nH]5)C=C4)C=C3)cc1
REMARK SMILES IDX 9 1 8 2 7 3 6 4 5 5 4 6 3 7 2 8 1 9 34 10 35 11 96 12 36 13
REMARK SMILES IDX 95 14 37 15 38 16 39 17 89 18 40 19 94 20 88 21 90 22 41 23
REMARK SMILES IDX 93 24 87 25 86 26 42 28 74 29 54 30 73 31 55 32 58 33 72 34
REMARK SMILES IDX 91 35 56 36 57 37 71 39 92 40 59 41 43 42 44 43 52 44 45 45
REMARK SMILES IDX 46 46 50 47 53 48 47 49 48 50 51 51 49 52 75 53 76 54 84 55
REMARK SMILES IDX 77 56 78 57 82 58 85 59 79 60 80 61 83 62 81 63 60 64 61 65
REMARK SMILES IDX 69 66 62 67 63 68 67 69 70 70 64 71 65 72 68 73 66 74 10 75
REMARK SMILES IDX 11 76 12 77 13 78 14 79 15 80 16 81 17 82 18 83 29 84 33 85
REMARK SMILES IDX 30 86 32 87 31 88 19 91 20 92 21 93 28 94 22 95 27 96 23 97
REMARK SMILES IDX 26 98 24 99 25 100
REMARK H PARENT 90 27 58 38 32 89 32 90
REMARK Flexibility Score: inf
ROOT
ATOM      1  O   UNL A   1      35.358  32.873  27.639  1.00  0.00    -0.377 OA
ENDROOT
BRANCH   1   2
ATOM      2  C   UNL A   1      34.654  33.746  28.509  1.00  0.00     0.188 C 
BRANCH   2   3
ATOM      3  C   UNL A   1      33.222  34.009  28.071  1.00  0.00     0.188 C 
BRANCH   3   4
ATOM      4  O   UNL A   1      32.638  35.022  28.889  1.00  0.00    -0.376 OA
BRANCH   4   5
ATOM      5  C   UNL A   1      33.266  36.303  28.822  1.00  0.00     0.202 C 
BRANCH   5   6
ATOM      6  C   UNL A   1      33.009  37.170  30.048  1.00  0.00     0.261 C 
BRANCH   6   7
ATOM      7  O   UNL A   1      32.267  36.495  31.076  1.00  0.00    -0.460 OA
BRANCH   7   8
ATOM      8  C   UNL A   1      32.714  35.947  32.232  1.00  0.00     0.338 C 
ATOM      9  O   UNL A   1      32.110  36.224  33.269  1.00  0.00    -0.246 OA
BRANCH   8  10
ATOM     10  C   UNL A   1      33.887  35.023  32.354  1.00  0.00     0.060 A 
ATOM     11  C   UNL A   1      33.874  33.747  32.918  1.00  0.00     0.016 A 
ATOM     12  C   UNL A   1      35.095  35.464  31.781  1.00  0.00     0.016 A 
ATOM     13  C   UNL A   1      34.993  32.937  32.937  1.00  0.00     0.010 A 
ATOM     14  C   UNL A   1      36.245  34.669  31.817  1.00  0.00     0.010 A 
ATOM     15  C   UNL A   1      36.192  33.413  32.426  1.00  0.00    -0.014 A 
BRANCH  15  16
ATOM     16  C   UNL A   1      37.397  32.670  32.813  1.00  0.00     0.031 A 
ATOM     17  C   UNL A   1      37.923  32.915  34.194  1.00  0.00     0.074 A 
ATOM     18  C   UNL A   1      37.844  31.667  32.041  1.00  0.00     0.049 A 
ATOM     19  N   UNL A   1      38.984  32.434  34.778  1.00  0.00    -0.248 NA
ATOM     20  C   UNL A   1      37.122  33.814  35.046  1.00  0.00     0.031 C 
ATOM     21  C   UNL A   1      37.238  31.242  30.776  1.00  0.00     0.029 A 
ATOM     22  N   UNL A   1      38.879  30.795  32.227  1.00  0.00    -0.354 N 
ATOM     23  C   UNL A   1      39.000  33.006  36.043  1.00  0.00     0.074 A 
ATOM     24  C   UNL A   1      37.843  33.860  36.153  1.00  0.00     0.031 C 
ATOM     25  C   UNL A   1      37.912  30.182  30.303  1.00  0.00     0.029 A 
ATOM     26  C   UNL A   1      39.039  29.911  31.189  1.00  0.00     0.049 A 
ATOM     27  H   UNL A   1      39.453  30.799  33.026  1.00  0.00     0.167 HD
ATOM     28  C   UNL A   1      39.923  32.832  37.014  1.00  0.00     0.037 A 
ATOM     29  C   UNL A   1      40.028  29.026  30.972  1.00  0.00     0.037 A 
ATOM     30  C   UNL A   1      41.053  31.963  36.854  1.00  0.00     0.049 A 
ATOM     31  C   UNL A   1      41.114  28.941  32.012  1.00  0.00     0.074 A 
ATOM     32  C   UNL A   1      42.118  31.752  37.706  1.00  0.00     0.029 A 
ATOM     33  N   UNL A   1      41.253  31.150  35.742  1.00  0.00    -0.354 N 
ATOM     34  N   UNL A   1      41.207  29.567  33.163  1.00  0.00    -0.248 NA
ATOM     35  C   UNL A   1      42.242  28.052  31.720  1.00  0.00     0.031 C 
ATOM     36  C   UNL A   1      42.989  30.849  37.084  1.00  0.00     0.029 A 
ATOM     37  C   UNL A   1      42.436  30.449  35.875  1.00  0.00     0.049 A 
ATOM     38  H   UNL A   1      40.641  31.084  34.974  1.00  0.00     0.167 HD
ATOM     39  C   UNL A   1      42.389  29.136  33.744  1.00  0.00     0.074 A 
ATOM     40  C   UNL A   1      42.969  28.176  32.822  1.00  0.00     0.031 C 
ATOM     41  C   UNL A   1      42.955  29.495  34.924  1.00  0.00     0.037 A 
BRANCH  28  42
ATOM     42  C   UNL A   1      39.784  33.675  38.248  1.00  0.00     0.064 A 
ATOM     43  C   UNL A   1      38.935  33.322  39.308  1.00  0.00     0.173 A 
ATOM     44  C   UNL A   1      40.469  34.896  38.337  1.00  0.00     0.173 A 
ATOM     45  F   UNL A   1      38.225  32.186  39.256  1.00  0.00    -0.203 F 
ATOM     46  C   UNL A   1      38.754  34.177  40.395  1.00  0.00     0.198 A 
ATOM     47  C   UNL A   1      40.308  35.733  39.438  1.00  0.00     0.198 A 
ATOM     48  F   UNL A   1      41.280  35.291  37.343  1.00  0.00    -0.203 F 
ATOM     49  F   UNL A   1      37.884  33.852  41.363  1.00  0.00    -0.200 F 
ATOM     50  C   UNL A   1      39.443  35.378  40.460  1.00  0.00     0.200 A 
ATOM     51  F   UNL A   1      40.975  36.894  39.497  1.00  0.00    -0.200 F 
ATOM     52  F   UNL A   1      39.259  36.203  41.501  1.00  0.00    -0.200 F 
ENDBRANCH  28  42
BRANCH  29  53
ATOM     53  C   UNL A   1      40.073  28.231  29.715  1.00  0.00     0.064 A 
ATOM     54  C   UNL A   1      39.419  26.997  29.602  1.00  0.00     0.173 A 
ATOM     55  C   UNL A   1      40.792  28.685  28.596  1.00  0.00     0.173 A 
ATOM     56  F   UNL A   1      38.734  26.504  30.644  1.00  0.00    -0.203 F 
ATOM     57  C   UNL A   1      39.500  26.241  28.431  1.00  0.00     0.198 A 
ATOM     58  C   UNL A   1      40.843  27.946  27.416  1.00  0.00     0.198 A 
ATOM     59  F   UNL A   1      41.443  29.857  28.643  1.00  0.00    -0.203 F 
ATOM     60  F   UNL A   1      38.907  25.041  28.370  1.00  0.00    -0.200 F 
ATOM     61  C   UNL A   1      40.205  26.719  27.338  1.00  0.00     0.200 A 
ATOM     62  F   UNL A   1      41.514  28.422  26.358  1.00  0.00    -0.200 F 
ATOM     63  F   UNL A   1      40.281  25.993  26.214  1.00  0.00    -0.200 F 
ENDBRANCH  29  53
BRANCH  41  64
ATOM     64  C   UNL A   1      44.236  28.812  35.291  1.00  0.00     0.064 A 
ATOM     65  C   UNL A   1      45.483  29.351  34.944  1.00  0.00     0.173 A 
ATOM     66  C   UNL A   1      44.209  27.631  36.047  1.00  0.00     0.173 A 
ATOM     67  F   UNL A   1      45.555  30.470  34.208  1.00  0.00    -0.203 F 
ATOM     68  C   UNL A   1      46.660  28.714  35.323  1.00  0.00     0.198 A 
ATOM     69  C   UNL A   1      45.388  27.019  36.454  1.00  0.00     0.198 A 
ATOM     70  F   UNL A   1      43.038  27.086  36.410  1.00  0.00    -0.203 F 
ATOM     71  F   UNL A   1      47.842  29.216  34.939  1.00  0.00    -0.200 F 
ATOM     72  C   UNL A   1      46.612  27.556  36.085  1.00  0.00     0.200 A 
ATOM     73  F   UNL A   1      45.339  25.911  37.207  1.00  0.00    -0.200 F 
ATOM     74  F   UNL A   1      47.748  26.953  36.459  1.00  0.00    -0.200 F 
ENDBRANCH  41  64
ENDBRANCH  15  16
ENDBRANCH   8  10
ENDBRANCH   7   8
ENDBRANCH   6   7
ENDBRANCH   5   6
ENDBRANCH   4   5
ENDBRANCH   3   4
ENDBRANCH   2   3
ENDBRANCH   1   2
BRANCH   1  75
ATOM     75  C   UNL A   1      35.217  31.480  27.885  1.00  0.00     0.188 C 
BRANCH  75  76
ATOM     76  C   UNL A   1      34.200  30.649  27.102  1.00  0.00     0.188 C 
BRANCH  76  77
ATOM     77  O   UNL A   1      32.931  30.554  27.725  1.00  0.00    -0.376 OA
BRANCH  77  78
ATOM     78  C   UNL A   1      31.984  29.771  27.009  1.00  0.00     0.202 C 
BRANCH  78  79
ATOM     79  C   UNL A   1      31.822  28.299  27.436  1.00  0.00     0.261 C 
BRANCH  79  80
ATOM     80  O   UNL A   1      32.324  27.279  26.545  1.00  0.00    -0.463 OA
BRANCH  80  81
ATOM     81  C   UNL A   1      31.502  26.688  25.652  1.00  0.00     0.318 C 
ATOM     82  O   UNL A   1      30.342  26.377  25.923  1.00  0.00    -0.251 OA
BRANCH  81  83
ATOM     83  C   UNL A   1      32.151  26.461  24.252  1.00  0.00     0.122 C 
ATOM     84  C   UNL A   1      33.478  25.632  24.293  1.00  0.00     0.031 C 
ATOM     85  C   UNL A   1      31.106  25.601  23.503  1.00  0.00     0.279 C 
ATOM     86  C   UNL A   1      33.892  24.995  22.972  1.00  0.00     0.063 C 
ATOM     87  N   UNL A   1      31.542  25.057  22.212  1.00  0.00    -0.345 N 
ATOM     88  C   UNL A   1      32.748  24.242  22.325  1.00  0.00     0.260 C 
ATOM     89  H   UNL A   1      30.793  24.479  21.830  1.00  0.00     0.346 HD
ATOM     90  H   UNL A   1      31.759  25.845  21.602  1.00  0.00     0.346 HD
BRANCH  83  91
ATOM     91  C   UNL A   1      32.308  27.905  23.653  1.00  0.00     0.082 C 
BRANCH  91  92
ATOM     92  C   UNL A   1      31.068  28.674  23.381  1.00  0.00     0.061 A 
ATOM     93  C   UNL A   1      30.224  28.540  22.301  1.00  0.00     0.116 A 
ATOM     94  N   UNL A   1      30.612  29.658  24.236  1.00  0.00    -0.234 NA
ATOM     95  N   UNL A   1      29.416  29.637  22.348  1.00  0.00    -0.307 N 
ATOM     96  C   UNL A   1      29.617  30.236  23.586  1.00  0.00     0.136 A 
ATOM     97  C   UNL A   1      28.585  30.151  21.360  1.00  0.00     0.093 A 
ATOM     98  C   UNL A   1      28.815  31.378  23.880  1.00  0.00     0.048 A 
ATOM     99  C   UNL A   1      27.896  31.277  21.609  1.00  0.00     0.018 A 
ATOM    100  C   UNL A   1      27.999  31.882  22.931  1.00  0.00     0.005 A 
ENDBRANCH  91  92
ENDBRANCH  83  91
ENDBRANCH  81  83
ENDBRANCH  80  81
ENDBRANCH  79  80
ENDBRANCH  78  79
ENDBRANCH  77  78
ENDBRANCH  76  77
ENDBRANCH  75  76
ENDBRANCH   1  75
TORSDOF 22
ENDMDL
MODEL 2
REMARK VINA RESULT:     -10.5      2.205      3.714
REMARK SMILES O=C(OCCOCCOCCOCCOC(=O)[C@@]1(Cc2cn3ccccc3n2)CCC[NH2+]C1)c1ccc(-c2c3nc(c(-c4c(F)c(F)c(F)c(F)c4F)c4ccc([nH]4)c(-c4c(F)c(F)c(F)c(F)c4F)c4nc(c(-c5c(F)c(F)c(F)c(F)c5F)c5ccc2[nH]5)C=C4)C=C3)cc1
REMARK SMILES IDX 9 1 8 2 7 3 6 4 5 5 4 6 3 7 2 8 1 9 34 10 35 11 96 12 36 13
REMARK SMILES IDX 95 14 37 15 38 16 39 17 89 18 40 19 94 20 88 21 90 22 41 23
REMARK SMILES IDX 93 24 87 25 86 26 42 28 74 29 54 30 73 31 55 32 58 33 72 34
REMARK SMILES IDX 91 35 56 36 57 37 71 39 92 40 59 41 43 42 44 43 52 44 45 45
REMARK SMILES IDX 46 46 50 47 53 48 47 49 48 50 51 51 49 52 75 53 76 54 84 55
REMARK SMILES IDX 77 56 78 57 82 58 85 59 79 60 80 61 83 62 81 63 60 64 61 65
REMARK SMILES IDX 69 66 62 67 63 68 67 69 70 70 64 71 65 72 68 73 66 74 10 75
REMARK SMILES IDX 11 76 12 77 13 78 14 79 15 80 16 81 17 82 18 83 29 84 33 85
REMARK SMILES IDX 30 86 32 87 31 88 19 91 20 92 21 93 28 94 22 95 27 96 23 97
REMARK SMILES IDX 26 98 24 99 25 100
REMARK H PARENT 90 27 58 38 32 89 32 90
REMARK Flexibility Score: inf
ROOT
ATOM      1  O   UNL A   1      32.723  29.217  24.569  1.00  0.00    -0.377 OA
ENDROOT
BRANCH   1   2
ATOM      2  C   UNL A   1      33.339  29.532  25.809  1.00  0.00     0.188 C 
BRANCH   2   3
ATOM      3  C   UNL A   1      32.429  30.296  26.758  1.00  0.00     0.188 C 
BRANCH   3   4
ATOM      4  O   UNL A   1      31.491  31.074  26.016  1.00  0.00    -0.376 OA
BRANCH   4   5
ATOM      5  C   UNL A   1      31.261  32.394  26.511  1.00  0.00     0.202 C 
BRANCH   5   6
ATOM      6  C   UNL A   1      32.477  33.007  27.196  1.00  0.00     0.261 C 
BRANCH   6   7
ATOM      7  O   UNL A   1      32.195  34.260  27.838  1.00  0.00    -0.460 OA
BRANCH   7   8
ATOM      8  C   UNL A   1      32.951  34.956  28.721  1.00  0.00     0.338 C 
ATOM      9  O   UNL A   1      32.588  36.096  29.014  1.00  0.00    -0.246 OA
BRANCH   8  10
ATOM     10  C   UNL A   1      34.199  34.449  29.379  1.00  0.00     0.060 A 
ATOM     11  C   UNL A   1      35.468  34.393  28.802  1.00  0.00     0.016 A 
ATOM     12  C   UNL A   1      34.083  34.058  30.725  1.00  0.00     0.016 A 
ATOM     13  C   UNL A   1      36.579  33.963  29.503  1.00  0.00     0.010 A 
ATOM     14  C   UNL A   1      35.190  33.592  31.441  1.00  0.00     0.010 A 
ATOM     15  C   UNL A   1      36.435  33.521  30.810  1.00  0.00    -0.014 A 
BRANCH  15  16
ATOM     16  C   UNL A   1      37.553  32.741  31.352  1.00  0.00     0.031 A 
ATOM     17  C   UNL A   1      37.958  33.036  32.764  1.00  0.00     0.074 A 
ATOM     18  C   UNL A   1      38.015  31.674  30.681  1.00  0.00     0.049 A 
ATOM     19  N   UNL A   1      38.929  32.536  33.473  1.00  0.00    -0.248 NA
ATOM     20  C   UNL A   1      37.130  34.021  33.486  1.00  0.00     0.031 C 
ATOM     21  C   UNL A   1      37.510  31.210  29.385  1.00  0.00     0.029 A 
ATOM     22  N   UNL A   1      38.977  30.762  31.012  1.00  0.00    -0.354 N 
ATOM     23  C   UNL A   1      38.856  33.177  34.703  1.00  0.00     0.074 A 
ATOM     24  C   UNL A   1      37.744  34.093  34.655  1.00  0.00     0.031 C 
ATOM     25  C   UNL A   1      38.167  30.092  29.036  1.00  0.00     0.029 A 
ATOM     26  C   UNL A   1      39.186  29.815  30.041  1.00  0.00     0.049 A 
ATOM     27  H   UNL A   1      39.471  30.783  31.862  1.00  0.00     0.167 HD
ATOM     28  C   UNL A   1      39.671  33.011  35.768  1.00  0.00     0.037 A 
ATOM     29  C   UNL A   1      40.140  28.869  29.969  1.00  0.00     0.037 A 
ATOM     30  C   UNL A   1      40.760  32.078  35.765  1.00  0.00     0.049 A 
ATOM     31  C   UNL A   1      41.116  28.789  31.114  1.00  0.00     0.074 A 
ATOM     32  C   UNL A   1      41.725  31.861  36.728  1.00  0.00     0.029 A 
ATOM     33  N   UNL A   1      41.020  31.194  34.721  1.00  0.00    -0.354 N 
ATOM     34  N   UNL A   1      41.132  29.473  32.235  1.00  0.00    -0.248 NA
ATOM     35  C   UNL A   1      42.215  27.828  30.981  1.00  0.00     0.031 C 
ATOM     36  C   UNL A   1      42.599  30.882  36.242  1.00  0.00     0.029 A 
ATOM     37  C   UNL A   1      42.143  30.443  35.006  1.00  0.00     0.049 A 
ATOM     38  H   UNL A   1      40.481  31.116  33.901  1.00  0.00     0.167 HD
ATOM     39  C   UNL A   1      42.227  29.015  32.951  1.00  0.00     0.074 A 
ATOM     40  C   UNL A   1      42.838  27.977  32.142  1.00  0.00     0.031 C 
ATOM     41  C   UNL A   1      42.697  29.412  34.161  1.00  0.00     0.037 A 
BRANCH  28  42
ATOM     42  C   UNL A   1      39.461  33.928  36.937  1.00  0.00     0.064 A 
ATOM     43  C   UNL A   1      40.004  35.221  36.987  1.00  0.00     0.173 A 
ATOM     44  C   UNL A   1      38.755  33.471  38.061  1.00  0.00     0.173 A 
ATOM     45  F   UNL A   1      40.722  35.693  35.957  1.00  0.00    -0.203 F 
ATOM     46  C   UNL A   1      39.873  36.009  38.130  1.00  0.00     0.198 A 
ATOM     47  C   UNL A   1      38.601  34.273  39.189  1.00  0.00     0.198 A 
ATOM     48  F   UNL A   1      38.231  32.236  38.074  1.00  0.00    -0.203 F 
ATOM     49  F   UNL A   1      40.460  37.214  38.181  1.00  0.00    -0.200 F 
ATOM     50  C   UNL A   1      39.170  35.536  39.227  1.00  0.00     0.200 A 
ATOM     51  F   UNL A   1      37.922  33.812  40.248  1.00  0.00    -0.200 F 
ATOM     52  F   UNL A   1      39.055  36.291  40.329  1.00  0.00    -0.200 F 
ENDBRANCH  28  42
BRANCH  29  53
ATOM     53  C   UNL A   1      40.261  28.004  28.765  1.00  0.00     0.064 A 
ATOM     54  C   UNL A   1      39.654  26.742  28.703  1.00  0.00     0.173 A 
ATOM     55  C   UNL A   1      41.007  28.416  27.647  1.00  0.00     0.173 A 
ATOM     56  F   UNL A   1      38.947  26.287  29.747  1.00  0.00    -0.203 F 
ATOM     57  C   UNL A   1      39.806  25.922  27.584  1.00  0.00     0.198 A 
ATOM     58  C   UNL A   1      41.128  27.611  26.517  1.00  0.00     0.198 A 
ATOM     59  F   UNL A   1      41.615  29.612  27.648  1.00  0.00    -0.203 F 
ATOM     60  F   UNL A   1      39.257  24.699  27.573  1.00  0.00    -0.200 F 
ATOM     61  C   UNL A   1      40.537  26.359  26.490  1.00  0.00     0.200 A 
ATOM     62  F   UNL A   1      41.824  28.047  25.457  1.00  0.00    -0.200 F 
ATOM     63  F   UNL A   1      40.680  25.571  25.416  1.00  0.00    -0.200 F 
ENDBRANCH  29  53
BRANCH  41  64
ATOM     64  C   UNL A   1      43.896  28.686  34.687  1.00  0.00     0.064 A 
ATOM     65  C   UNL A   1      45.196  29.168  34.483  1.00  0.00     0.173 A 
ATOM     66  C   UNL A   1      43.731  27.522  35.453  1.00  0.00     0.173 A 
ATOM     67  F   UNL A   1      45.401  30.269  33.743  1.00  0.00    -0.203 F 
ATOM     68  C   UNL A   1      46.294  28.494  35.007  1.00  0.00     0.198 A 
ATOM     69  C   UNL A   1      44.828  26.873  36.006  1.00  0.00     0.198 A 
ATOM     70  F   UNL A   1      42.504  27.031  35.683  1.00  0.00    -0.203 F 
ATOM     71  F   UNL A   1      47.532  28.941  34.758  1.00  0.00    -0.200 F 
ATOM     72  C   UNL A   1      46.108  27.353  35.776  1.00  0.00     0.200 A 
ATOM     73  F   UNL A   1      44.646  25.782  36.764  1.00  0.00    -0.200 F 
ATOM     74  F   UNL A   1      47.167  26.714  36.291  1.00  0.00    -0.200 F 
ENDBRANCH  41  64
ENDBRANCH  15  16
ENDBRANCH   8  10
ENDBRANCH   7   8
ENDBRANCH   6   7
ENDBRANCH   5   6
ENDBRANCH   4   5
ENDBRANCH   3   4
ENDBRANCH   2   3
ENDBRANCH   1   2
BRANCH   1  75
ATOM     75  C   UNL A   1      33.592  28.870  23.499  1.00  0.00     0.188 C 
BRANCH  75  76
ATOM     76  C   UNL A   1      33.677  27.428  23.000  1.00  0.00     0.188 C 
BRANCH  76  77
ATOM     77  O   UNL A   1      33.708  26.461  24.036  1.00  0.00    -0.376 OA
BRANCH  77  78
ATOM     78  C   UNL A   1      34.012  25.143  23.597  1.00  0.00     0.202 C 
BRANCH  78  79
ATOM     79  C   UNL A   1      35.033  24.343  24.429  1.00  0.00     0.261 C 
BRANCH  79  80
ATOM     80  O   UNL A   1      34.796  22.930  24.612  1.00  0.00    -0.463 OA
BRANCH  80  81
ATOM     81  C   UNL A   1      33.924  22.275  23.815  1.00  0.00     0.318 C 
ATOM     82  O   UNL A   1      33.610  22.685  22.698  1.00  0.00    -0.251 OA
BRANCH  81  83
ATOM     83  C   UNL A   1      33.375  20.953  24.433  1.00  0.00     0.122 C 
ATOM     84  C   UNL A   1      32.508  20.101  23.447  1.00  0.00     0.031 C 
ATOM     85  C   UNL A   1      34.654  20.134  24.731  1.00  0.00     0.279 C 
ATOM     86  C   UNL A   1      32.345  18.633  23.822  1.00  0.00     0.063 C 
ATOM     87  N   UNL A   1      34.434  18.742  25.137  1.00  0.00    -0.345 N 
ATOM     88  C   UNL A   1      33.675  17.982  24.149  1.00  0.00     0.260 C 
ATOM     89  H   UNL A   1      35.340  18.292  25.268  1.00  0.00     0.346 HD
ATOM     90  H   UNL A   1      33.891  18.754  26.001  1.00  0.00     0.346 HD
BRANCH  83  91
ATOM     91  C   UNL A   1      32.618  21.411  25.731  1.00  0.00     0.082 C 
BRANCH  91  92
ATOM     92  C   UNL A   1      31.880  22.698  25.677  1.00  0.00     0.061 A 
ATOM     93  C   UNL A   1      30.933  23.078  24.753  1.00  0.00     0.116 A 
ATOM     94  N   UNL A   1      32.085  23.702  26.603  1.00  0.00    -0.234 NA
ATOM     95  N   UNL A   1      30.774  24.418  24.942  1.00  0.00    -0.307 N 
ATOM     96  C   UNL A   1      31.414  24.739  26.134  1.00  0.00     0.136 A 
ATOM     97  C   UNL A   1      30.164  25.350  24.110  1.00  0.00     0.093 A 
ATOM     98  C   UNL A   1      31.317  26.094  26.565  1.00  0.00     0.048 A 
ATOM     99  C   UNL A   1      30.150  26.641  24.480  1.00  0.00     0.018 A 
ATOM    100  C   UNL A   1      30.720  27.006  25.771  1.00  0.00     0.005 A 
ENDBRANCH  91  92
ENDBRANCH  83  91
ENDBRANCH  81  83
ENDBRANCH  80  81
ENDBRANCH  79  80
ENDBRANCH  78  79
ENDBRANCH  77  78
ENDBRANCH  76  77
ENDBRANCH  75  76
ENDBRANCH   1  75
TORSDOF 22
ENDMDL
MODEL 3
REMARK VINA RESULT:     -10.4      1.156      3.275
REMARK SMILES O=C(OCCOCCOCCOCCOC(=O)[C@@]1(Cc2cn3ccccc3n2)CCC[NH2+]C1)c1ccc(-c2c3nc(c(-c4c(F)c(F)c(F)c(F)c4F)c4ccc([nH]4)c(-c4c(F)c(F)c(F)c(F)c4F)c4nc(c(-c5c(F)c(F)c(F)c(F)c5F)c5ccc2[nH]5)C=C4)C=C3)cc1
REMARK SMILES IDX 9 1 8 2 7 3 6 4 5 5 4 6 3 7 2 8 1 9 34 10 35 11 96 12 36 13
REMARK SMILES IDX 95 14 37 15 38 16 39 17 89 18 40 19 94 20 88 21 90 22 41 23
REMARK SMILES IDX 93 24 87 25 86 26 42 28 74 29 54 30 73 31 55 32 58 33 72 34
REMARK SMILES IDX 91 35 56 36 57 37 71 39 92 40 59 41 43 42 44 43 52 44 45 45
REMARK SMILES IDX 46 46 50 47 53 48 47 49 48 50 51 51 49 52 75 53 76 54 84 55
REMARK SMILES IDX 77 56 78 57 82 58 85 59 79 60 80 61 83 62 81 63 60 64 61 65
REMARK SMILES IDX 69 66 62 67 63 68 67 69 70 70 64 71 65 72 68 73 66 74 10 75
REMARK SMILES IDX 11 76 12 77 13 78 14 79 15 80 16 81 17 82 18 83 29 84 33 85
REMARK SMILES IDX 30 86 32 87 31 88 19 91 20 92 21 93 28 94 22 95 27 96 23 97
REMARK SMILES IDX 26 98 24 99 25 100
REMARK H PARENT 90 27 58 38 32 89 32 90
REMARK Flexibility Score: inf
ROOT
ATOM      1  O   UNL A   1      35.174  32.650  27.633  1.00  0.00    -0.377 OA
ENDROOT
BRANCH   1   2
ATOM      2  C   UNL A   1      34.552  33.621  28.461  1.00  0.00     0.188 C 
BRANCH   2   3
ATOM      3  C   UNL A   1      33.126  33.945  28.045  1.00  0.00     0.188 C 
BRANCH   3   4
ATOM      4  O   UNL A   1      32.595  34.974  28.878  1.00  0.00    -0.376 OA
BRANCH   4   5
ATOM      5  C   UNL A   1      33.273  36.230  28.809  1.00  0.00     0.202 C 
BRANCH   5   6
ATOM      6  C   UNL A   1      32.997  37.136  30.003  1.00  0.00     0.261 C 
BRANCH   6   7
ATOM      7  O   UNL A   1      32.250  36.489  31.045  1.00  0.00    -0.460 OA
BRANCH   7   8
ATOM      8  C   UNL A   1      32.696  35.945  32.203  1.00  0.00     0.338 C 
ATOM      9  O   UNL A   1      32.096  36.232  33.240  1.00  0.00    -0.246 OA
BRANCH   8  10
ATOM     10  C   UNL A   1      33.864  35.014  32.328  1.00  0.00     0.060 A 
ATOM     11  C   UNL A   1      33.851  33.755  32.929  1.00  0.00     0.016 A 
ATOM     12  C   UNL A   1      35.063  35.428  31.718  1.00  0.00     0.016 A 
ATOM     13  C   UNL A   1      34.964  32.936  32.949  1.00  0.00     0.010 A 
ATOM     14  C   UNL A   1      36.206  34.624  31.754  1.00  0.00     0.010 A 
ATOM     15  C   UNL A   1      36.156  33.386  32.399  1.00  0.00    -0.014 A 
BRANCH  15  16
ATOM     16  C   UNL A   1      37.362  32.644  32.783  1.00  0.00     0.031 A 
ATOM     17  C   UNL A   1      37.895  32.892  34.160  1.00  0.00     0.074 A 
ATOM     18  C   UNL A   1      37.804  31.637  32.012  1.00  0.00     0.049 A 
ATOM     19  N   UNL A   1      38.958  32.413  34.740  1.00  0.00    -0.248 NA
ATOM     20  C   UNL A   1      37.099  33.794  35.014  1.00  0.00     0.031 C 
ATOM     21  C   UNL A   1      37.192  31.210  30.751  1.00  0.00     0.029 A 
ATOM     22  N   UNL A   1      38.840  30.765  32.195  1.00  0.00    -0.354 N 
ATOM     23  C   UNL A   1      38.981  32.989  36.004  1.00  0.00     0.074 A 
ATOM     24  C   UNL A   1      37.825  33.844  36.117  1.00  0.00     0.031 C 
ATOM     25  C   UNL A   1      37.864  30.147  30.278  1.00  0.00     0.029 A 
ATOM     26  C   UNL A   1      38.994  29.878  31.159  1.00  0.00     0.049 A 
ATOM     27  H   UNL A   1      39.418  30.772  32.992  1.00  0.00     0.167 HD
ATOM     28  C   UNL A   1      39.908  32.817  36.971  1.00  0.00     0.037 A 
ATOM     29  C   UNL A   1      39.982  28.992  30.941  1.00  0.00     0.037 A 
ATOM     30  C   UNL A   1      41.037  31.947  36.809  1.00  0.00     0.049 A 
ATOM     31  C   UNL A   1      41.073  28.910  31.976  1.00  0.00     0.074 A 
ATOM     32  C   UNL A   1      42.106  31.737  37.656  1.00  0.00     0.029 A 
ATOM     33  N   UNL A   1      41.231  31.130  35.698  1.00  0.00    -0.354 N 
ATOM     34  N   UNL A   1      41.171  29.540  33.125  1.00  0.00    -0.248 NA
ATOM     35  C   UNL A   1      42.199  28.019  31.681  1.00  0.00     0.031 C 
ATOM     36  C   UNL A   1      42.973  30.833  37.033  1.00  0.00     0.029 A 
ATOM     37  C   UNL A   1      42.414  30.429  35.827  1.00  0.00     0.049 A 
ATOM     38  H   UNL A   1      40.615  31.062  34.933  1.00  0.00     0.167 HD
ATOM     39  C   UNL A   1      42.356  29.109  33.701  1.00  0.00     0.074 A 
ATOM     40  C   UNL A   1      42.931  28.146  32.779  1.00  0.00     0.031 C 
ATOM     41  C   UNL A   1      42.928  29.472  34.877  1.00  0.00     0.037 A 
BRANCH  28  42
ATOM     42  C   UNL A   1      39.776  33.664  38.203  1.00  0.00     0.064 A 
ATOM     43  C   UNL A   1      40.490  34.859  38.376  1.00  0.00     0.173 A 
ATOM     44  C   UNL A   1      38.963  33.229  39.261  1.00  0.00     0.173 A 
ATOM     45  F   UNL A   1      41.313  35.300  37.413  1.00  0.00    -0.203 F 
ATOM     46  C   UNL A   1      40.418  35.569  39.574  1.00  0.00     0.198 A 
ATOM     47  C   UNL A   1      38.871  33.957  40.444  1.00  0.00     0.198 A 
ATOM     48  F   UNL A   1      38.271  32.084  39.156  1.00  0.00    -0.203 F 
ATOM     49  F   UNL A   1      41.164  36.671  39.743  1.00  0.00    -0.200 F 
ATOM     50  C   UNL A   1      39.607  35.120  40.604  1.00  0.00     0.200 A 
ATOM     51  F   UNL A   1      38.086  33.518  41.439  1.00  0.00    -0.200 F 
ATOM     52  F   UNL A   1      39.548  35.798  41.759  1.00  0.00    -0.200 F 
ENDBRANCH  28  42
BRANCH  29  53
ATOM     53  C   UNL A   1      40.020  28.194  29.686  1.00  0.00     0.064 A 
ATOM     54  C   UNL A   1      39.403  26.938  29.594  1.00  0.00     0.173 A 
ATOM     55  C   UNL A   1      40.696  28.664  28.547  1.00  0.00     0.173 A 
ATOM     56  F   UNL A   1      38.761  26.429  30.655  1.00  0.00    -0.203 F 
ATOM     57  C   UNL A   1      39.478  26.180  28.425  1.00  0.00     0.198 A 
ATOM     58  C   UNL A   1      40.740  27.922  27.369  1.00  0.00     0.198 A 
ATOM     59  F   UNL A   1      41.311  29.856  28.574  1.00  0.00    -0.203 F 
ATOM     60  F   UNL A   1      38.922  24.962  28.383  1.00  0.00    -0.200 F 
ATOM     61  C   UNL A   1      40.140  26.675  27.312  1.00  0.00     0.200 A 
ATOM     62  F   UNL A   1      41.370  28.414  26.292  1.00  0.00    -0.200 F 
ATOM     63  F   UNL A   1      40.210  25.947  26.189  1.00  0.00    -0.200 F 
ENDBRANCH  29  53
BRANCH  41  64
ATOM     64  C   UNL A   1      44.210  28.789  35.240  1.00  0.00     0.064 A 
ATOM     65  C   UNL A   1      45.456  29.330  34.893  1.00  0.00     0.173 A 
ATOM     66  C   UNL A   1      44.185  27.605  35.992  1.00  0.00     0.173 A 
ATOM     67  F   UNL A   1      45.526  30.452  34.160  1.00  0.00    -0.203 F 
ATOM     68  C   UNL A   1      46.634  28.694  35.268  1.00  0.00     0.198 A 
ATOM     69  C   UNL A   1      45.366  26.994  36.396  1.00  0.00     0.198 A 
ATOM     70  F   UNL A   1      43.016  27.058  36.355  1.00  0.00    -0.203 F 
ATOM     71  F   UNL A   1      47.815  29.199  34.884  1.00  0.00    -0.200 F 
ATOM     72  C   UNL A   1      46.589  27.533  36.027  1.00  0.00     0.200 A 
ATOM     73  F   UNL A   1      45.320  25.883  37.145  1.00  0.00    -0.200 F 
ATOM     74  F   UNL A   1      47.726  26.931  36.397  1.00  0.00    -0.200 F 
ENDBRANCH  41  64
ENDBRANCH  15  16
ENDBRANCH   8  10
ENDBRANCH   7   8
ENDBRANCH   6   7
ENDBRANCH   5   6
ENDBRANCH   4   5
ENDBRANCH   3   4
ENDBRANCH   2   3
ENDBRANCH   1   2
BRANCH   1  75
ATOM     75  C   UNL A   1      34.892  31.288  27.929  1.00  0.00     0.188 C 
BRANCH  75  76
ATOM     76  C   UNL A   1      33.946  30.477  27.044  1.00  0.00     0.188 C 
BRANCH  76  77
ATOM     77  O   UNL A   1      32.577  30.619  27.383  1.00  0.00    -0.376 OA
BRANCH  77  78
ATOM     78  C   UNL A   1      31.746  29.562  26.919  1.00  0.00     0.202 C 
BRANCH  78  79
ATOM     79  C   UNL A   1      31.890  28.197  27.617  1.00  0.00     0.261 C 
BRANCH  79  80
ATOM     80  O   UNL A   1      32.294  27.067  26.812  1.00  0.00    -0.463 OA
BRANCH  80  81
ATOM     81  C   UNL A   1      31.374  26.351  26.131  1.00  0.00     0.318 C 
ATOM     82  O   UNL A   1      30.542  25.636  26.690  1.00  0.00    -0.251 OA
BRANCH  81  83
ATOM     83  C   UNL A   1      31.453  26.532  24.584  1.00  0.00     0.122 C 
ATOM     84  C   UNL A   1      30.204  27.241  23.961  1.00  0.00     0.031 C 
ATOM     85  C   UNL A   1      32.656  27.486  24.392  1.00  0.00     0.279 C 
ATOM     86  C   UNL A   1      30.420  27.849  22.580  1.00  0.00     0.063 C 
ATOM     87  N   UNL A   1      32.845  28.000  23.031  1.00  0.00    -0.345 N 
ATOM     88  C   UNL A   1      31.669  28.706  22.529  1.00  0.00     0.260 C 
ATOM     89  H   UNL A   1      33.636  28.644  23.031  1.00  0.00     0.346 HD
ATOM     90  H   UNL A   1      33.010  27.201  22.419  1.00  0.00     0.346 HD
BRANCH  83  91
ATOM     91  C   UNL A   1      31.718  25.084  24.032  1.00  0.00     0.082 C 
BRANCH  91  92
ATOM     92  C   UNL A   1      33.060  24.495  24.268  1.00  0.00     0.061 A 
ATOM     93  C   UNL A   1      34.140  24.513  23.414  1.00  0.00     0.116 A 
ATOM     94  N   UNL A   1      33.375  23.830  25.436  1.00  0.00    -0.234 NA
ATOM     95  N   UNL A   1      35.018  23.611  23.937  1.00  0.00    -0.307 N 
ATOM     96  C   UNL A   1      34.562  23.293  25.211  1.00  0.00     0.136 A 
ATOM     97  C   UNL A   1      36.130  23.029  23.340  1.00  0.00     0.093 A 
ATOM     98  C   UNL A   1      35.373  22.404  25.975  1.00  0.00     0.048 A 
ATOM     99  C   UNL A   1      36.843  22.126  24.033  1.00  0.00     0.018 A 
ATOM    100  C   UNL A   1      36.459  21.839  25.409  1.00  0.00     0.005 A 
ENDBRANCH  91  92
ENDBRANCH  83  91
ENDBRANCH  81  83
ENDBRANCH  80  81
ENDBRANCH  79  80
ENDBRANCH  78  79
ENDBRANCH  77  78
ENDBRANCH  76  77
ENDBRANCH  75  76
ENDBRANCH   1  75
TORSDOF 22
ENDMDL
