MODEL 1
REMARK VINA RESULT:      -7.4      0.000      0.000
REMARK SMILES O=C(CSc1nnc2sc3ccccc3n12)N[C@H](Cc1c[nH]c2ccccc12)C(=O)OCCOCCOCCOCCOC(=O)c1ccc(-c2c3nc(c(-c4c(F)c(F)c(F)c(F)c4F)c4ccc([nH]4)c(-c4c(F)c(F)c(F)c(F)c4F)c4nc(c(-c5c(F)c(F)c(F)c(F)c5F)c5ccc2[nH]5)C=C4)C=C3)cc1
REMARK SMILES IDX 36 1 35 2 34 3 33 4 32 5 31 6 29 7 30 8 18 9 17 10 1 11 2 12
REMARK SMILES IDX 3 14 4 15 5 16 6 17 16 18 7 19 8 20 15 21 9 22 10 23 14 24
REMARK SMILES IDX 11 25 13 26 12 27 19 28 20 29 21 30 28 31 22 32 23 33 27 34
REMARK SMILES IDX 24 36 26 37 25 38 37 39 38 40 39 41 40 42 41 43 42 44 43 45
REMARK SMILES IDX 44 46 45 47 46 48 47 49 108 50 48 51 107 52 49 53 50 54
REMARK SMILES IDX 51 55 101 56 52 57 106 58 100 59 102 60 53 61 105 62 99 63
REMARK SMILES IDX 98 64 54 66 86 67 66 68 85 69 67 70 70 71 84 72 103 73 68 74
REMARK SMILES IDX 69 75 83 77 104 78 71 79 55 80 56 81 64 82 57 83 58 84 62 85
REMARK SMILES IDX 65 86 59 87 60 88 63 89 61 90 87 91 88 92 96 93 89 94 90 95
REMARK SMILES IDX 94 96 97 97 91 98 92 99 95 100 93 101 72 102 73 103 81 104
REMARK SMILES IDX 74 105 75 106 79 107 82 108 76 109 77 110 80 111 78 112
REMARK H PARENT 17 13 22 35 102 65 70 76
REMARK Flexibility Score: inf
ROOT
ATOM      1  C   UNL A   1      40.622  30.991  35.662  1.00  0.00     0.188 C 
ENDROOT
BRANCH   1   2
ATOM      2  C   UNL A   1      41.530  31.653  36.705  1.00  0.00     0.188 C 
BRANCH   2   3
ATOM      3  O   UNL A   1      42.292  30.712  37.379  1.00  0.00    -0.376 OA
BRANCH   3   4
ATOM      4  C   UNL A   1      43.596  30.723  36.803  1.00  0.00     0.202 C 
BRANCH   4   5
ATOM      5  C   UNL A   1      44.919  31.089  37.641  1.00  0.00     0.261 C 
BRANCH   5   6
ATOM      6  O   UNL A   1      45.797  30.076  38.288  1.00  0.00    -0.462 OA
BRANCH   6   7
ATOM      7  C   UNL A   1      45.484  29.568  39.504  1.00  0.00     0.329 C 
ATOM      8  O   UNL A   1      44.581  30.060  40.183  1.00  0.00    -0.250 OA
BRANCH   7   9
ATOM      9  C   UNL A   1      46.274  28.353  40.095  1.00  0.00     0.196 C 
BRANCH   9  10
ATOM     10  N   UNL A   1      47.309  29.195  40.786  1.00  0.00    -0.342 N 
ATOM     11  O   UNL A   1      46.619  28.668  42.909  1.00  0.00    -0.274 OA
ATOM     12  C   UNL A   1      47.501  29.078  42.160  1.00  0.00     0.231 C 
ATOM     13  H   UNL A   1      47.852  29.829  40.266  1.00  0.00     0.164 HD
BRANCH  12  14
ATOM     14  C   UNL A   1      48.880  29.460  42.679  1.00  0.00     0.178 C 
BRANCH  14  15
ATOM     15  S   UNL A   1      50.219  28.860  41.622  1.00  0.00    -0.076 SA
BRANCH  15  16
ATOM     16  C   UNL A   1      50.547  30.106  40.454  1.00  0.00     0.197 A 
ATOM     17  N   UNL A   1      50.551  31.427  40.648  1.00  0.00    -0.122 NA
ATOM     18  N   UNL A   1      50.457  29.812  39.121  1.00  0.00    -0.260 N 
ATOM     19  N   UNL A   1      50.289  32.229  39.463  1.00  0.00    -0.118 NA
ATOM     20  C   UNL A   1      50.205  31.413  38.420  1.00  0.00     0.217 A 
ATOM     21  C   UNL A   1      50.213  28.439  38.058  1.00  0.00     0.068 A 
ATOM     22  S   UNL A   1      49.491  31.140  36.023  1.00  0.00    -0.094 S 
ATOM     23  C   UNL A   1      49.754  28.830  36.396  1.00  0.00     0.055 A 
ATOM     24  C   UNL A   1      50.433  27.147  38.421  1.00  0.00     0.028 A 
ATOM     25  C   UNL A   1      49.905  27.920  35.394  1.00  0.00     0.021 A 
ATOM     26  C   UNL A   1      50.472  26.274  37.319  1.00  0.00     0.002 A 
ATOM     27  C   UNL A   1      50.278  26.646  35.906  1.00  0.00     0.002 A 
ENDBRANCH  15  16
ENDBRANCH  14  15
ENDBRANCH  12  14
ENDBRANCH   9  10
BRANCH   9  28
ATOM     28  C   UNL A   1      46.840  27.060  39.418  1.00  0.00     0.074 C 
BRANCH  28  29
ATOM     29  C   UNL A   1      46.588  26.374  37.901  1.00  0.00    -0.020 A 
ATOM     30  C   UNL A   1      46.941  25.025  37.842  1.00  0.00     0.087 A 
ATOM     31  C   UNL A   1      46.410  26.713  36.410  1.00  0.00     0.003 A 
ATOM     32  N   UNL A   1      47.058  24.589  36.557  1.00  0.00    -0.361 N 
ATOM     33  C   UNL A   1      46.890  25.615  35.674  1.00  0.00     0.046 A 
ATOM     34  C   UNL A   1      46.041  27.776  35.520  1.00  0.00     0.010 A 
ATOM     35  H   UNL A   1      47.240  23.656  36.299  1.00  0.00     0.166 HD
ATOM     36  C   UNL A   1      47.174  25.624  34.282  1.00  0.00     0.026 A 
ATOM     37  C   UNL A   1      46.470  27.881  34.174  1.00  0.00     0.001 A 
ATOM     38  C   UNL A   1      47.053  26.804  33.559  1.00  0.00     0.002 A 
ENDBRANCH  28  29
ENDBRANCH   9  28
ENDBRANCH   7   9
ENDBRANCH   6   7
ENDBRANCH   5   6
ENDBRANCH   4   5
ENDBRANCH   3   4
ENDBRANCH   2   3
ENDBRANCH   1   2
BRANCH   1  39
ATOM     39  O   UNL A   1      39.402  30.404  36.032  1.00  0.00    -0.377 OA
BRANCH  39  40
ATOM     40  C   UNL A   1      38.243  30.839  35.389  1.00  0.00     0.188 C 
BRANCH  40  41
ATOM     41  C   UNL A   1      37.870  32.312  35.511  1.00  0.00     0.188 C 
BRANCH  41  42
ATOM     42  O   UNL A   1      37.139  32.895  34.434  1.00  0.00    -0.376 OA
BRANCH  42  43
ATOM     43  C   UNL A   1      36.569  32.024  33.457  1.00  0.00     0.202 C 
BRANCH  43  44
ATOM     44  C   UNL A   1      35.417  32.680  32.712  1.00  0.00     0.261 C 
BRANCH  44  45
ATOM     45  O   UNL A   1      35.039  31.836  31.600  1.00  0.00    -0.460 OA
BRANCH  45  46
ATOM     46  C   UNL A   1      35.279  32.345  30.361  1.00  0.00     0.338 C 
ATOM     47  O   UNL A   1      34.883  33.426  29.953  1.00  0.00    -0.246 OA
BRANCH  46  48
ATOM     48  C   UNL A   1      36.390  31.583  29.689  1.00  0.00     0.060 A 
ATOM     49  C   UNL A   1      36.251  30.299  29.163  1.00  0.00     0.016 A 
ATOM     50  C   UNL A   1      37.693  32.074  29.891  1.00  0.00     0.016 A 
ATOM     51  C   UNL A   1      37.391  29.457  29.119  1.00  0.00     0.010 A 
ATOM     52  C   UNL A   1      38.825  31.248  29.777  1.00  0.00     0.010 A 
ATOM     53  C   UNL A   1      38.687  29.884  29.564  1.00  0.00    -0.014 A 
BRANCH  53  54
ATOM     54  C   UNL A   1      39.903  28.998  29.391  1.00  0.00     0.031 A 
ATOM     55  C   UNL A   1      40.248  28.602  30.792  1.00  0.00     0.074 A 
ATOM     56  C   UNL A   1      40.601  28.480  28.313  1.00  0.00     0.049 A 
ATOM     57  N   UNL A   1      41.206  29.092  31.503  1.00  0.00    -0.248 NA
ATOM     58  C   UNL A   1      39.224  27.899  31.598  1.00  0.00     0.031 C 
ATOM     59  C   UNL A   1      40.361  28.567  26.859  1.00  0.00     0.029 A 
ATOM     60  N   UNL A   1      41.782  27.714  28.312  1.00  0.00    -0.354 N 
ATOM     61  C   UNL A   1      41.043  28.563  32.779  1.00  0.00     0.074 A 
ATOM     62  C   UNL A   1      39.710  28.038  32.833  1.00  0.00     0.031 C 
ATOM     63  C   UNL A   1      41.198  27.744  26.162  1.00  0.00     0.029 A 
ATOM     64  C   UNL A   1      42.129  27.100  27.066  1.00  0.00     0.049 A 
ATOM     65  H   UNL A   1      42.336  27.606  29.119  1.00  0.00     0.167 HD
ATOM     66  C   UNL A   1      42.138  28.333  33.550  1.00  0.00     0.037 A 
ATOM     67  C   UNL A   1      43.126  26.179  26.791  1.00  0.00     0.037 A 
ATOM     68  C   UNL A   1      43.248  29.112  33.064  1.00  0.00     0.049 A 
ATOM     69  C   UNL A   1      44.114  26.274  27.888  1.00  0.00     0.074 A 
ATOM     70  C   UNL A   1      43.538  30.457  32.979  1.00  0.00     0.029 A 
ATOM     71  N   UNL A   1      44.033  28.489  32.130  1.00  0.00    -0.354 N 
ATOM     72  N   UNL A   1      44.846  27.337  28.052  1.00  0.00    -0.248 NA
ATOM     73  C   UNL A   1      43.811  25.482  29.070  1.00  0.00     0.031 C 
ATOM     74  C   UNL A   1      44.153  30.623  31.701  1.00  0.00     0.029 A 
ATOM     75  C   UNL A   1      44.343  29.371  31.129  1.00  0.00     0.049 A 
ATOM     76  H   UNL A   1      44.329  27.552  32.173  1.00  0.00     0.167 HD
ATOM     77  C   UNL A   1      44.660  27.640  29.386  1.00  0.00     0.074 A 
ATOM     78  C   UNL A   1      43.994  26.460  29.961  1.00  0.00     0.031 C 
ATOM     79  C   UNL A   1      44.745  28.928  29.824  1.00  0.00     0.037 A 
BRANCH  66  80
ATOM     80  C   UNL A   1      42.344  27.050  34.326  1.00  0.00     0.064 A 
ATOM     81  C   UNL A   1      42.046  27.044  35.703  1.00  0.00     0.173 A 
ATOM     82  C   UNL A   1      43.119  25.960  33.869  1.00  0.00     0.173 A 
ATOM     83  F   UNL A   1      41.348  28.047  36.255  1.00  0.00    -0.203 F 
ATOM     84  C   UNL A   1      42.544  26.059  36.562  1.00  0.00     0.198 A 
ATOM     85  C   UNL A   1      43.573  24.957  34.721  1.00  0.00     0.198 A 
ATOM     86  F   UNL A   1      43.570  25.872  32.613  1.00  0.00    -0.203 F 
ATOM     87  F   UNL A   1      42.336  26.161  37.882  1.00  0.00    -0.200 F 
ATOM     88  C   UNL A   1      43.309  25.018  36.070  1.00  0.00     0.200 A 
ATOM     89  F   UNL A   1      44.342  23.975  34.228  1.00  0.00    -0.200 F 
ATOM     90  F   UNL A   1      43.828  24.102  36.897  1.00  0.00    -0.200 F 
ENDBRANCH  66  80
BRANCH  67  91
ATOM     91  C   UNL A   1      43.130  24.925  25.940  1.00  0.00     0.064 A 
ATOM     92  C   UNL A   1      44.170  24.581  25.030  1.00  0.00     0.173 A 
ATOM     93  C   UNL A   1      42.290  23.864  26.304  1.00  0.00     0.173 A 
ATOM     94  F   UNL A   1      45.056  25.504  24.621  1.00  0.00    -0.203 F 
ATOM     95  C   UNL A   1      44.370  23.259  24.578  1.00  0.00     0.198 A 
ATOM     96  C   UNL A   1      42.502  22.548  25.871  1.00  0.00     0.198 A 
ATOM     97  F   UNL A   1      41.297  24.064  27.178  1.00  0.00    -0.203 F 
ATOM     98  F   UNL A   1      45.396  22.959  23.763  1.00  0.00    -0.200 F 
ATOM     99  C   UNL A   1      43.551  22.239  25.026  1.00  0.00     0.200 A 
ATOM    100  F   UNL A   1      41.720  21.568  26.344  1.00  0.00    -0.200 F 
ATOM    101  F   UNL A   1      43.790  20.963  24.684  1.00  0.00    -0.200 F 
ENDBRANCH  67  91
BRANCH  79 102
ATOM    102  C   UNL A   1      45.268  29.952  28.849  1.00  0.00     0.064 A 
ATOM    103  C   UNL A   1      44.283  30.797  27.746  1.00  0.00     0.173 A 
ATOM    104  C   UNL A   1      46.947  30.203  28.989  1.00  0.00     0.173 A 
ATOM    105  F   UNL A   1      42.970  30.555  27.668  1.00  0.00    -0.203 F 
ATOM    106  C   UNL A   1      45.036  31.976  26.646  1.00  0.00     0.198 A 
ATOM    107  C   UNL A   1      47.860  31.282  28.088  1.00  0.00     0.198 A 
ATOM    108  F   UNL A   1      47.582  29.506  29.948  1.00  0.00    -0.203 F 
ATOM    109  F   UNL A   1      44.141  32.493  25.748  1.00  0.00    -0.200 F 
ATOM    110  C   UNL A   1      47.061  32.222  26.848  1.00  0.00     0.200 A 
ATOM    111  F   UNL A   1      49.159  31.469  28.347  1.00  0.00    -0.200 F 
ATOM    112  F   UNL A   1      47.957  33.031  26.205  1.00  0.00    -0.200 F 
ENDBRANCH  79 102
ENDBRANCH  53  54
ENDBRANCH  46  48
ENDBRANCH  45  46
ENDBRANCH  44  45
ENDBRANCH  43  44
ENDBRANCH  42  43
ENDBRANCH  41  42
ENDBRANCH  40  41
ENDBRANCH  39  40
ENDBRANCH   1  39
TORSDOF 26
ENDMDL
MODEL 2
REMARK VINA RESULT:      -7.0      5.000     11.571
REMARK SMILES O=C(CSc1nnc2sc3ccccc3n12)N[C@H](Cc1c[nH]c2ccccc12)C(=O)OCCOCCOCCOCCOC(=O)c1ccc(-c2c3nc(c(-c4c(F)c(F)c(F)c(F)c4F)c4ccc([nH]4)c(-c4c(F)c(F)c(F)c(F)c4F)c4nc(c(-c5c(F)c(F)c(F)c(F)c5F)c5ccc2[nH]5)C=C4)C=C3)cc1
REMARK SMILES IDX 36 1 35 2 34 3 33 4 32 5 31 6 29 7 30 8 18 9 17 10 1 11 2 12
REMARK SMILES IDX 3 14 4 15 5 16 6 17 16 18 7 19 8 20 15 21 9 22 10 23 14 24
REMARK SMILES IDX 11 25 13 26 12 27 19 28 20 29 21 30 28 31 22 32 23 33 27 34
REMARK SMILES IDX 24 36 26 37 25 38 37 39 38 40 39 41 40 42 41 43 42 44 43 45
REMARK SMILES IDX 44 46 45 47 46 48 47 49 108 50 48 51 107 52 49 53 50 54
REMARK SMILES IDX 51 55 101 56 52 57 106 58 100 59 102 60 53 61 105 62 99 63
REMARK SMILES IDX 98 64 54 66 86 67 66 68 85 69 67 70 70 71 84 72 103 73 68 74
REMARK SMILES IDX 69 75 83 77 104 78 71 79 55 80 56 81 64 82 57 83 58 84 62 85
REMARK SMILES IDX 65 86 59 87 60 88 63 89 61 90 87 91 88 92 96 93 89 94 90 95
REMARK SMILES IDX 94 96 97 97 91 98 92 99 95 100 93 101 72 102 73 103 81 104
REMARK SMILES IDX 74 105 75 106 79 107 82 108 76 109 77 110 80 111 78 112
REMARK H PARENT 17 13 22 35 102 65 70 76
REMARK Flexibility Score: inf
ROOT
ATOM      1  C   UNL A   1      40.132  26.500  28.320  1.00  0.00     0.188 C 
ENDROOT
BRANCH   1   2
ATOM      2  C   UNL A   1      39.058  27.555  28.028  1.00  0.00     0.188 C 
BRANCH   2   3
ATOM      3  O   UNL A   1      39.605  28.675  27.423  1.00  0.00    -0.376 OA
BRANCH   3   4
ATOM      4  C   UNL A   1      38.884  29.812  27.893  1.00  0.00     0.202 C 
BRANCH   4   5
ATOM      5  C   UNL A   1      37.286  29.819  28.079  1.00  0.00     0.261 C 
BRANCH   5   6
ATOM      6  O   UNL A   1      36.603  29.628  29.387  1.00  0.00    -0.462 OA
BRANCH   6   7
ATOM      7  C   UNL A   1      37.298  29.718  30.547  1.00  0.00     0.329 C 
ATOM      8  O   UNL A   1      37.606  28.708  31.181  1.00  0.00    -0.250 OA
BRANCH   7   9
ATOM      9  C   UNL A   1      37.712  31.110  31.129  1.00  0.00     0.196 C 
BRANCH   9  10
ATOM     10  N   UNL A   1      37.605  30.688  32.566  1.00  0.00    -0.342 N 
ATOM     11  O   UNL A   1      39.392  31.934  33.283  1.00  0.00    -0.274 OA
ATOM     12  C   UNL A   1      38.350  31.340  33.545  1.00  0.00     0.231 C 
ATOM     13  H   UNL A   1      37.004  29.949  32.816  1.00  0.00     0.164 HD
BRANCH  12  14
ATOM     14  C   UNL A   1      37.782  31.302  34.956  1.00  0.00     0.178 C 
BRANCH  14  15
ATOM     15  S   UNL A   1      38.246  32.749  35.939  1.00  0.00    -0.076 SA
BRANCH  15  16
ATOM     16  C   UNL A   1      38.163  32.280  37.612  1.00  0.00     0.197 A 
ATOM     17  N   UNL A   1      37.565  31.205  38.130  1.00  0.00    -0.122 NA
ATOM     18  N   UNL A   1      38.401  33.216  38.580  1.00  0.00    -0.260 N 
ATOM     19  N   UNL A   1      37.153  31.332  39.519  1.00  0.00    -0.118 NA
ATOM     20  C   UNL A   1      37.582  32.503  39.972  1.00  0.00     0.217 A 
ATOM     21  C   UNL A   1      38.931  34.879  38.744  1.00  0.00     0.068 A 
ATOM     22  S   UNL A   1      37.407  34.242  41.782  1.00  0.00    -0.094 S 
ATOM     23  C   UNL A   1      38.590  35.641  40.303  1.00  0.00     0.055 A 
ATOM     24  C   UNL A   1      39.636  35.550  37.795  1.00  0.00     0.028 A 
ATOM     25  C   UNL A   1      39.264  36.756  40.701  1.00  0.00     0.021 A 
ATOM     26  C   UNL A   1      40.208  36.739  38.283  1.00  0.00     0.002 A 
ATOM     27  C   UNL A   1      40.075  37.271  39.651  1.00  0.00     0.002 A 
ENDBRANCH  15  16
ENDBRANCH  14  15
ENDBRANCH  12  14
ENDBRANCH   9  10
BRANCH   9  28
ATOM     28  C   UNL A   1      37.180  32.554  30.837  1.00  0.00     0.074 C 
BRANCH  28  29
ATOM     29  C   UNL A   1      35.625  33.165  30.627  1.00  0.00    -0.020 A 
ATOM     30  C   UNL A   1      35.112  32.933  29.350  1.00  0.00     0.087 A 
ATOM     31  C   UNL A   1      34.616  34.184  31.186  1.00  0.00     0.003 A 
ATOM     32  N   UNL A   1      34.026  33.716  29.092  1.00  0.00    -0.361 N 
ATOM     33  C   UNL A   1      33.793  34.582  30.119  1.00  0.00     0.046 A 
ATOM     34  C   UNL A   1      34.296  34.941  32.362  1.00  0.00     0.010 A 
ATOM     35  H   UNL A   1      33.483  33.662  28.273  1.00  0.00     0.166 HD
ATOM     36  C   UNL A   1      32.925  35.708  30.130  1.00  0.00     0.026 A 
ATOM     37  C   UNL A   1      33.579  36.162  32.359  1.00  0.00     0.001 A 
ATOM     38  C   UNL A   1      32.904  36.553  31.231  1.00  0.00     0.002 A 
ENDBRANCH  28  29
ENDBRANCH   9  28
ENDBRANCH   7   9
ENDBRANCH   6   7
ENDBRANCH   5   6
ENDBRANCH   4   5
ENDBRANCH   3   4
ENDBRANCH   2   3
ENDBRANCH   1   2
BRANCH   1  39
ATOM     39  O   UNL A   1      39.792  25.149  28.488  1.00  0.00    -0.377 OA
BRANCH  39  40
ATOM     40  C   UNL A   1      40.312  24.224  27.583  1.00  0.00     0.188 C 
BRANCH  40  41
ATOM     41  C   UNL A   1      39.328  23.373  26.787  1.00  0.00     0.188 C 
BRANCH  41  42
ATOM     42  O   UNL A   1      39.846  22.224  26.119  1.00  0.00    -0.376 OA
BRANCH  42  43
ATOM     43  C   UNL A   1      40.273  21.117  26.912  1.00  0.00     0.202 C 
BRANCH  43  44
ATOM     44  C   UNL A   1      41.158  20.163  26.127  1.00  0.00     0.261 C 
BRANCH  44  45
ATOM     45  O   UNL A   1      42.525  20.319  26.575  1.00  0.00    -0.460 OA
BRANCH  45  46
ATOM     46  C   UNL A   1      43.363  20.954  25.711  1.00  0.00     0.338 C 
ATOM     47  O   UNL A   1      43.723  20.520  24.628  1.00  0.00    -0.246 OA
BRANCH  46  48
ATOM     48  C   UNL A   1      43.496  22.407  26.086  1.00  0.00     0.060 A 
ATOM     49  C   UNL A   1      43.436  23.459  25.173  1.00  0.00     0.016 A 
ATOM     50  C   UNL A   1      44.015  22.674  27.366  1.00  0.00     0.016 A 
ATOM     51  C   UNL A   1      44.143  24.653  25.467  1.00  0.00     0.010 A 
ATOM     52  C   UNL A   1      44.654  23.890  27.670  1.00  0.00     0.010 A 
ATOM     53  C   UNL A   1      44.888  24.833  26.679  1.00  0.00    -0.014 A 
BRANCH  53  54
ATOM     54  C   UNL A   1      45.531  26.164  27.011  1.00  0.00     0.031 A 
ATOM     55  C   UNL A   1      46.952  25.984  26.577  1.00  0.00     0.074 A 
ATOM     56  C   UNL A   1      45.082  27.383  27.489  1.00  0.00     0.049 A 
ATOM     57  N   UNL A   1      47.957  25.762  27.353  1.00  0.00    -0.248 NA
ATOM     58  C   UNL A   1      47.217  25.636  25.163  1.00  0.00     0.031 C 
ATOM     59  C   UNL A   1      43.725  27.869  27.813  1.00  0.00     0.029 A 
ATOM     60  N   UNL A   1      45.829  28.530  27.823  1.00  0.00    -0.354 N 
ATOM     61  C   UNL A   1      49.033  25.489  26.514  1.00  0.00     0.074 A 
ATOM     62  C   UNL A   1      48.478  25.203  25.223  1.00  0.00     0.031 C 
ATOM     63  C   UNL A   1      43.722  29.208  28.077  1.00  0.00     0.029 A 
ATOM     64  C   UNL A   1      45.074  29.726  28.043  1.00  0.00     0.049 A 
ATOM     65  H   UNL A   1      46.810  28.510  27.900  1.00  0.00     0.167 HD
ATOM     66  C   UNL A   1      50.286  25.842  26.901  1.00  0.00     0.037 A 
ATOM     67  C   UNL A   1      45.523  31.023  28.229  1.00  0.00     0.037 A 
ATOM     68  C   UNL A   1      50.320  26.028  28.329  1.00  0.00     0.049 A 
ATOM     69  C   UNL A   1      46.937  30.932  28.654  1.00  0.00     0.074 A 
ATOM     70  C   UNL A   1      50.164  25.211  29.428  1.00  0.00     0.029 A 
ATOM     71  N   UNL A   1      50.056  27.302  28.757  1.00  0.00    -0.354 N 
ATOM     72  N   UNL A   1      47.268  30.425  29.805  1.00  0.00    -0.248 NA
ATOM     73  C   UNL A   1      47.907  30.830  27.574  1.00  0.00     0.031 C 
ATOM     74  C   UNL A   1      49.385  25.973  30.350  1.00  0.00     0.029 A 
ATOM     75  C   UNL A   1      49.225  27.258  29.845  1.00  0.00     0.049 A 
ATOM     76  H   UNL A   1      50.409  28.123  28.346  1.00  0.00     0.167 HD
ATOM     77  C   UNL A   1      48.234  29.498  29.471  1.00  0.00     0.074 A 
ATOM     78  C   UNL A   1      48.576  29.785  28.068  1.00  0.00     0.031 C 
ATOM     79  C   UNL A   1      48.419  28.382  30.232  1.00  0.00     0.037 A 
BRANCH  66  80
ATOM     80  C   UNL A   1      51.267  26.539  25.984  1.00  0.00     0.064 A 
ATOM     81  C   UNL A   1      52.597  26.075  25.946  1.00  0.00     0.173 A 
ATOM     82  C   UNL A   1      51.054  27.815  25.414  1.00  0.00     0.173 A 
ATOM     83  F   UNL A   1      52.923  24.893  26.490  1.00  0.00    -0.203 F 
ATOM     84  C   UNL A   1      53.639  26.859  25.441  1.00  0.00     0.198 A 
ATOM     85  C   UNL A   1      52.089  28.572  24.869  1.00  0.00     0.198 A 
ATOM     86  F   UNL A   1      49.872  28.437  25.461  1.00  0.00    -0.203 F 
ATOM     87  F   UNL A   1      54.904  26.427  25.537  1.00  0.00    -0.200 F 
ATOM     88  C   UNL A   1      53.384  28.107  24.905  1.00  0.00     0.200 A 
ATOM     89  F   UNL A   1      51.823  29.795  24.386  1.00  0.00    -0.200 F 
ATOM     90  F   UNL A   1      54.385  28.880  24.466  1.00  0.00    -0.200 F 
ENDBRANCH  66  80
BRANCH  67  91
ATOM     91  C   UNL A   1      45.033  32.346  27.676  1.00  0.00     0.064 A 
ATOM     92  C   UNL A   1      44.917  32.637  26.286  1.00  0.00     0.173 A 
ATOM     93  C   UNL A   1      44.310  33.201  28.519  1.00  0.00     0.173 A 
ATOM     94  F   UNL A   1      45.543  31.877  25.373  1.00  0.00    -0.203 F 
ATOM     95  C   UNL A   1      44.089  33.671  25.798  1.00  0.00     0.198 A 
ATOM     96  C   UNL A   1      43.472  34.213  28.033  1.00  0.00     0.198 A 
ATOM     97  F   UNL A   1      44.320  33.003  29.843  1.00  0.00    -0.203 F 
ATOM     98  F   UNL A   1      43.959  33.882  24.477  1.00  0.00    -0.200 F 
ATOM     99  C   UNL A   1      43.343  34.437  26.676  1.00  0.00     0.200 A 
ATOM    100  F   UNL A   1      42.732  34.922  28.896  1.00  0.00    -0.200 F 
ATOM    101  F   UNL A   1      42.478  35.357  26.222  1.00  0.00    -0.200 F 
ENDBRANCH  67  91
BRANCH  79 102
ATOM    102  C   UNL A   1      47.696  28.325  31.553  1.00  0.00     0.064 A 
ATOM    103  C   UNL A   1      46.157  27.625  31.759  1.00  0.00     0.173 A 
ATOM    104  C   UNL A   1      48.595  29.003  32.832  1.00  0.00     0.173 A 
ATOM    105  F   UNL A   1      45.487  27.114  30.721  1.00  0.00    -0.203 F 
ATOM    106  C   UNL A   1      45.417  27.631  33.378  1.00  0.00     0.198 A 
ATOM    107  C   UNL A   1      48.118  29.089  34.435  1.00  0.00     0.198 A 
ATOM    108  F   UNL A   1      49.822  29.464  32.526  1.00  0.00    -0.203 F 
ATOM    109  F   UNL A   1      44.141  27.135  33.367  1.00  0.00    -0.200 F 
ATOM    110  C   UNL A   1      46.537  28.477  34.871  1.00  0.00     0.200 A 
ATOM    111  F   UNL A   1      48.944  29.557  35.377  1.00  0.00    -0.200 F 
ATOM    112  F   UNL A   1      46.309  28.644  36.209  1.00  0.00    -0.200 F 
ENDBRANCH  79 102
ENDBRANCH  53  54
ENDBRANCH  46  48
ENDBRANCH  45  46
ENDBRANCH  44  45
ENDBRANCH  43  44
ENDBRANCH  42  43
ENDBRANCH  41  42
ENDBRANCH  40  41
ENDBRANCH  39  40
ENDBRANCH   1  39
TORSDOF 26
ENDMDL
MODEL 3
REMARK VINA RESULT:      -6.9      6.357     13.759
REMARK SMILES O=C(CSc1nnc2sc3ccccc3n12)N[C@H](Cc1c[nH]c2ccccc12)C(=O)OCCOCCOCCOCCOC(=O)c1ccc(-c2c3nc(c(-c4c(F)c(F)c(F)c(F)c4F)c4ccc([nH]4)c(-c4c(F)c(F)c(F)c(F)c4F)c4nc(c(-c5c(F)c(F)c(F)c(F)c5F)c5ccc2[nH]5)C=C4)C=C3)cc1
REMARK SMILES IDX 36 1 35 2 34 3 33 4 32 5 31 6 29 7 30 8 18 9 17 10 1 11 2 12
REMARK SMILES IDX 3 14 4 15 5 16 6 17 16 18 7 19 8 20 15 21 9 22 10 23 14 24
REMARK SMILES IDX 11 25 13 26 12 27 19 28 20 29 21 30 28 31 22 32 23 33 27 34
REMARK SMILES IDX 24 36 26 37 25 38 37 39 38 40 39 41 40 42 41 43 42 44 43 45
REMARK SMILES IDX 44 46 45 47 46 48 47 49 108 50 48 51 107 52 49 53 50 54
REMARK SMILES IDX 51 55 101 56 52 57 106 58 100 59 102 60 53 61 105 62 99 63
REMARK SMILES IDX 98 64 54 66 86 67 66 68 85 69 67 70 70 71 84 72 103 73 68 74
REMARK SMILES IDX 69 75 83 77 104 78 71 79 55 80 56 81 64 82 57 83 58 84 62 85
REMARK SMILES IDX 65 86 59 87 60 88 63 89 61 90 87 91 88 92 96 93 89 94 90 95
REMARK SMILES IDX 94 96 97 97 91 98 92 99 95 100 93 101 72 102 73 103 81 104
REMARK SMILES IDX 74 105 75 106 79 107 82 108 76 109 77 110 80 111 78 112
REMARK H PARENT 17 13 22 35 102 65 70 76
REMARK Flexibility Score: inf
ROOT
ATOM      1  C   UNL A   1      47.721  26.940  29.416  1.00  0.00     0.188 C 
ENDROOT
BRANCH   1   2
ATOM      2  C   UNL A   1      46.965  25.619  29.226  1.00  0.00     0.188 C 
BRANCH   2   3
ATOM      3  O   UNL A   1      46.336  25.571  27.993  1.00  0.00    -0.376 OA
BRANCH   3   4
ATOM      4  C   UNL A   1      46.405  24.225  27.528  1.00  0.00     0.202 C 
BRANCH   4   5
ATOM      5  C   UNL A   1      45.099  23.331  27.240  1.00  0.00     0.261 C 
BRANCH   5   6
ATOM      6  O   UNL A   1      44.658  22.922  25.879  1.00  0.00    -0.462 OA
BRANCH   6   7
ATOM      7  C   UNL A   1      43.342  22.896  25.559  1.00  0.00     0.329 C 
ATOM      8  O   UNL A   1      42.973  22.964  24.386  1.00  0.00    -0.250 OA
BRANCH   7   9
ATOM      9  C   UNL A   1      42.247  22.802  26.673  1.00  0.00     0.196 C 
BRANCH   9  10
ATOM     10  N   UNL A   1      41.248  22.081  25.813  1.00  0.00    -0.342 N 
ATOM     11  O   UNL A   1      40.434  20.761  27.503  1.00  0.00    -0.274 OA
ATOM     12  C   UNL A   1      40.278  21.270  26.397  1.00  0.00     0.231 C 
ATOM     13  H   UNL A   1      41.279  22.183  24.835  1.00  0.00     0.164 HD
BRANCH  12  14
ATOM     14  C   UNL A   1      38.998  21.075  25.598  1.00  0.00     0.178 C 
BRANCH  14  15
ATOM     15  S   UNL A   1      37.768  22.363  25.915  1.00  0.00    -0.076 SA
BRANCH  15  16
ATOM     16  C   UNL A   1      36.713  22.416  24.535  1.00  0.00     0.197 A 
ATOM     17  N   UNL A   1      37.053  22.570  23.253  1.00  0.00    -0.122 NA
ATOM     18  N   UNL A   1      35.385  22.684  24.720  1.00  0.00    -0.260 N 
ATOM     19  N   UNL A   1      36.019  23.138  22.400  1.00  0.00    -0.118 NA
ATOM     20  C   UNL A   1      34.916  23.276  23.124  1.00  0.00     0.217 A 
ATOM     21  C   UNL A   1      34.222  22.902  26.014  1.00  0.00     0.068 A 
ATOM     22  S   UNL A   1      32.638  24.332  23.293  1.00  0.00    -0.094 S 
ATOM     23  C   UNL A   1      32.703  23.683  25.555  1.00  0.00     0.055 A 
ATOM     24  C   UNL A   1      34.399  22.442  27.281  1.00  0.00     0.028 A 
ATOM     25  C   UNL A   1      31.593  23.571  26.337  1.00  0.00     0.021 A 
ATOM     26  C   UNL A   1      33.212  22.462  28.036  1.00  0.00     0.002 A 
ATOM     27  C   UNL A   1      31.896  22.939  27.576  1.00  0.00     0.002 A 
ENDBRANCH  15  16
ENDBRANCH  14  15
ENDBRANCH  12  14
ENDBRANCH   9  10
BRANCH   9  28
ATOM     28  C   UNL A   1      41.626  23.893  27.609  1.00  0.00     0.074 C 
BRANCH  28  29
ATOM     29  C   UNL A   1      41.655  25.576  27.558  1.00  0.00    -0.020 A 
ATOM     30  C   UNL A   1      42.929  26.110  27.752  1.00  0.00     0.087 A 
ATOM     31  C   UNL A   1      40.770  26.827  27.700  1.00  0.00     0.003 A 
ATOM     32  N   UNL A   1      42.881  27.438  28.049  1.00  0.00    -0.361 N 
ATOM     33  C   UNL A   1      41.592  27.867  28.170  1.00  0.00     0.046 A 
ATOM     34  C   UNL A   1      39.408  27.273  27.631  1.00  0.00     0.010 A 
ATOM     35  H   UNL A   1      43.673  28.013  28.162  1.00  0.00     0.166 HD
ATOM     36  C   UNL A   1      41.128  29.099  28.704  1.00  0.00     0.026 A 
ATOM     37  C   UNL A   1      38.900  28.408  28.308  1.00  0.00     0.001 A 
ATOM     38  C   UNL A   1      39.766  29.316  28.860  1.00  0.00     0.002 A 
ENDBRANCH  28  29
ENDBRANCH   9  28
ENDBRANCH   7   9
ENDBRANCH   6   7
ENDBRANCH   5   6
ENDBRANCH   4   5
ENDBRANCH   3   4
ENDBRANCH   2   3
ENDBRANCH   1   2
BRANCH   1  39
ATOM     39  O   UNL A   1      48.820  27.027  30.283  1.00  0.00    -0.377 OA
BRANCH  39  40
ATOM     40  C   UNL A   1      49.280  25.852  30.879  1.00  0.00     0.188 C 
BRANCH  40  41
ATOM     41  C   UNL A   1      49.085  25.692  32.383  1.00  0.00     0.188 C 
BRANCH  41  42
ATOM     42  O   UNL A   1      47.745  25.649  32.870  1.00  0.00    -0.376 OA
BRANCH  42  43
ATOM     43  C   UNL A   1      47.522  25.139  34.185  1.00  0.00     0.202 C 
BRANCH  43  44
ATOM     44  C   UNL A   1      46.072  25.294  34.616  1.00  0.00     0.261 C 
BRANCH  44  45
ATOM     45  O   UNL A   1      45.267  25.580  33.448  1.00  0.00    -0.460 OA
BRANCH  45  46
ATOM     46  C   UNL A   1      43.960  25.207  33.525  1.00  0.00     0.338 C 
ATOM     47  O   UNL A   1      43.559  24.098  33.841  1.00  0.00    -0.246 OA
BRANCH  46  48
ATOM     48  C   UNL A   1      43.070  26.422  33.529  1.00  0.00     0.060 A 
ATOM     49  C   UNL A   1      43.247  27.524  32.694  1.00  0.00     0.016 A 
ATOM     50  C   UNL A   1      42.223  26.569  34.643  1.00  0.00     0.016 A 
ATOM     51  C   UNL A   1      42.805  28.794  33.144  1.00  0.00     0.010 A 
ATOM     52  C   UNL A   1      41.732  27.825  35.042  1.00  0.00     0.010 A 
ATOM     53  C   UNL A   1      42.154  28.984  34.408  1.00  0.00    -0.014 A 
BRANCH  53  54
ATOM     54  C   UNL A   1      41.590  30.334  34.802  1.00  0.00     0.031 A 
ATOM     55  C   UNL A   1      40.540  30.588  33.766  1.00  0.00     0.074 A 
ATOM     56  C   UNL A   1      41.777  31.211  35.856  1.00  0.00     0.049 A 
ATOM     57  N   UNL A   1      40.651  31.380  32.755  1.00  0.00    -0.248 NA
ATOM     58  C   UNL A   1      39.441  29.607  33.622  1.00  0.00     0.031 C 
ATOM     59  C   UNL A   1      42.603  31.113  37.076  1.00  0.00     0.029 A 
ATOM     60  N   UNL A   1      41.221  32.490  36.049  1.00  0.00    -0.354 N 
ATOM     61  C   UNL A   1      39.515  31.168  31.979  1.00  0.00     0.074 A 
ATOM     62  C   UNL A   1      38.941  29.934  32.429  1.00  0.00     0.031 C 
ATOM     63  C   UNL A   1      42.341  32.135  37.942  1.00  0.00     0.029 A 
ATOM     64  C   UNL A   1      41.389  33.055  37.354  1.00  0.00     0.049 A 
ATOM     65  H   UNL A   1      40.745  32.967  35.332  1.00  0.00     0.167 HD
ATOM     66  C   UNL A   1      38.996  32.200  31.263  1.00  0.00     0.037 A 
ATOM     67  C   UNL A   1      40.833  34.205  37.888  1.00  0.00     0.037 A 
ATOM     68  C   UNL A   1      39.996  33.220  31.085  1.00  0.00     0.049 A 
ATOM     69  C   UNL A   1      40.408  35.048  36.750  1.00  0.00     0.074 A 
ATOM     70  C   UNL A   1      41.199  33.308  30.417  1.00  0.00     0.029 A 
ATOM     71  N   UNL A   1      40.025  34.185  32.057  1.00  0.00    -0.354 N 
ATOM     72  N   UNL A   1      41.274  35.586  35.942  1.00  0.00    -0.248 NA
ATOM     73  C   UNL A   1      39.088  34.748  36.212  1.00  0.00     0.031 C 
ATOM     74  C   UNL A   1      42.064  34.019  31.303  1.00  0.00     0.029 A 
ATOM     75  C   UNL A   1      41.323  34.458  32.395  1.00  0.00     0.049 A 
ATOM     76  H   UNL A   1      39.233  34.616  32.452  1.00  0.00     0.167 HD
ATOM     77  C   UNL A   1      40.809  35.218  34.696  1.00  0.00     0.074 A 
ATOM     78  C   UNL A   1      39.457  34.685  34.929  1.00  0.00     0.031 C 
ATOM     79  C   UNL A   1      41.672  35.057  33.653  1.00  0.00     0.037 A 
BRANCH  66  80
ATOM     80  C   UNL A   1      37.517  32.519  31.233  1.00  0.00     0.064 A 
ATOM     81  C   UNL A   1      36.938  32.900  30.006  1.00  0.00     0.173 A 
ATOM     82  C   UNL A   1      36.739  32.791  32.380  1.00  0.00     0.173 A 
ATOM     83  F   UNL A   1      37.602  32.723  28.854  1.00  0.00    -0.203 F 
ATOM     84  C   UNL A   1      35.708  33.562  29.944  1.00  0.00     0.198 A 
ATOM     85  C   UNL A   1      35.493  33.410  32.309  1.00  0.00     0.198 A 
ATOM     86  F   UNL A   1      37.188  32.584  33.622  1.00  0.00    -0.203 F 
ATOM     87  F   UNL A   1      35.255  34.014  28.766  1.00  0.00    -0.200 F 
ATOM     88  C   UNL A   1      34.988  33.818  31.095  1.00  0.00     0.200 A 
ATOM     89  F   UNL A   1      34.828  33.679  33.442  1.00  0.00    -0.200 F 
ATOM     90  F   UNL A   1      33.835  34.496  31.043  1.00  0.00    -0.200 F 
ENDBRANCH  66  80
BRANCH  67  91
ATOM     91  C   UNL A   1      40.225  34.491  39.247  1.00  0.00     0.064 A 
ATOM     92  C   UNL A   1      40.141  35.789  39.828  1.00  0.00     0.173 A 
ATOM     93  C   UNL A   1      39.374  33.534  39.817  1.00  0.00     0.173 A 
ATOM     94  F   UNL A   1      40.889  36.800  39.356  1.00  0.00    -0.203 F 
ATOM     95  C   UNL A   1      39.226  36.097  40.858  1.00  0.00     0.198 A 
ATOM     96  C   UNL A   1      38.452  33.846  40.824  1.00  0.00     0.198 A 
ATOM     97  F   UNL A   1      39.345  32.288  39.331  1.00  0.00    -0.203 F 
ATOM     98  F   UNL A   1      39.134  37.347  41.344  1.00  0.00    -0.200 F 
ATOM     99  C   UNL A   1      38.361  35.128  41.332  1.00  0.00     0.200 A 
ATOM    100  F   UNL A   1      37.598  32.903  41.247  1.00  0.00    -0.200 F 
ATOM    101  F   UNL A   1      37.420  35.431  42.240  1.00  0.00    -0.200 F 
ENDBRANCH  67  91
BRANCH  79 102
ATOM    102  C   UNL A   1      43.093  35.515  33.860  1.00  0.00     0.064 A 
ATOM    103  C   UNL A   1      43.569  37.150  33.861  1.00  0.00     0.173 A 
ATOM    104  C   UNL A   1      44.172  34.224  34.129  1.00  0.00     0.173 A 
ATOM    105  F   UNL A   1      42.685  38.126  33.633  1.00  0.00    -0.203 F 
ATOM    106  C   UNL A   1      45.286  37.547  34.112  1.00  0.00     0.198 A 
ATOM    107  C   UNL A   1      45.816  34.359  34.421  1.00  0.00     0.198 A 
ATOM    108  F   UNL A   1      43.638  32.990  34.160  1.00  0.00    -0.203 F 
ATOM    109  F   UNL A   1      45.533  38.887  33.979  1.00  0.00    -0.200 F 
ATOM    110  C   UNL A   1      46.539  35.953  34.412  1.00  0.00     0.200 A 
ATOM    111  F   UNL A   1      46.555  33.284  34.716  1.00  0.00    -0.200 F 
ATOM    112  F   UNL A   1      47.883  35.873  34.649  1.00  0.00    -0.200 F 
ENDBRANCH  79 102
ENDBRANCH  53  54
ENDBRANCH  46  48
ENDBRANCH  45  46
ENDBRANCH  44  45
ENDBRANCH  43  44
ENDBRANCH  42  43
ENDBRANCH  41  42
ENDBRANCH  40  41
ENDBRANCH  39  40
ENDBRANCH   1  39
TORSDOF 26
ENDMDL
