MODEL 1
REMARK VINA RESULT:     -12.3      0.000      0.000
REMARK SMILES O=C(OCCOCCOCCOCCOC(=O)c1ccc(-c2c3nc(c(-c4c(F)c(F)c(F)c(F)c4F)c4ccc([nH]4)c(-c4c(F)c(F)c(F)c(F)c4F)c4nc(c(-c5c(F)c(F)c(F)c(F)c5F)c5ccc2[nH]5)C=C4)C=C3)cc1)C1=Cc2cc(OC(F)(F)F)ccc2O[C@@H]1C(F)(F)F
REMARK SMILES IDX 9 1 8 2 7 3 6 4 5 5 4 6 3 7 2 8 1 9 81 10 82 11 95 12 83 13
REMARK SMILES IDX 94 14 84 15 93 16 85 17 92 18 91 19 96 20 97 21 98 22 99 23
REMARK SMILES IDX 86 24 87 25 88 26 89 27 90 28 10 29 11 30 12 31 13 32 14 33
REMARK SMILES IDX 15 34 16 35 17 36 18 37 19 38 80 39 20 40 79 41 21 42 22 43
REMARK SMILES IDX 23 44 73 45 24 46 78 47 72 48 74 49 25 50 77 51 71 52 70 53
REMARK SMILES IDX 26 55 58 56 38 57 57 58 39 59 42 60 56 61 75 62 40 63 41 64
REMARK SMILES IDX 55 66 76 67 43 68 27 69 28 70 36 71 29 72 30 73 34 74 37 75
REMARK SMILES IDX 31 76 32 77 35 78 33 79 59 80 60 81 68 82 61 83 62 84 66 85
REMARK SMILES IDX 69 86 63 87 64 88 67 89 65 90 44 91 45 92 53 93 46 94 47 95
REMARK SMILES IDX 51 96 54 97 48 98 49 99 52 100 50 101
REMARK H PARENT 74 54 42 65
REMARK Flexibility Score: inf
ROOT
ATOM      1  O   UNL A   1      32.988  34.990  30.756  1.00  0.00    -0.377 OA
ENDROOT
BRANCH   1   2
ATOM      2  C   UNL A   1      34.065  34.612  29.929  1.00  0.00     0.188 C 
BRANCH   2   3
ATOM      3  C   UNL A   1      33.731  34.413  28.440  1.00  0.00     0.188 C 
BRANCH   3   4
ATOM      4  O   UNL A   1      32.457  33.881  27.931  1.00  0.00    -0.376 OA
BRANCH   4   5
ATOM      5  C   UNL A   1      32.024  32.428  27.234  1.00  0.00     0.202 C 
BRANCH   5   6
ATOM      6  C   UNL A   1      33.299  30.672  26.982  1.00  0.00     0.261 C 
BRANCH   6   7
ATOM      7  O   UNL A   1      33.069  29.526  26.020  1.00  0.00    -0.460 OA
BRANCH   7   8
ATOM      8  C   UNL A   1      32.706  28.403  26.650  1.00  0.00     0.338 C 
ATOM      9  O   UNL A   1      32.777  28.154  27.828  1.00  0.00    -0.246 OA
BRANCH   8  10
ATOM     10  C   UNL A   1      32.711  27.529  25.487  1.00  0.00     0.087 C 
ATOM     11  C   UNL A   1      33.780  26.522  25.498  1.00  0.00     0.027 C 
ATOM     12  C   UNL A   1      30.839  27.134  25.653  1.00  0.00     0.316 C 
ATOM     13  C   UNL A   1      33.536  24.786  25.890  1.00  0.00     0.021 A 
ATOM     14  O   UNL A   1      30.557  25.289  26.229  1.00  0.00    -0.475 OA
ATOM     15  C   UNL A   1      34.602  23.930  25.852  1.00  0.00     0.058 A 
ATOM     16  C   UNL A   1      32.001  24.153  26.353  1.00  0.00     0.128 A 
ATOM     17  C   UNL A   1      34.340  22.577  26.160  1.00  0.00     0.130 A 
ATOM     18  C   UNL A   1      31.827  22.830  26.675  1.00  0.00     0.051 A 
ATOM     19  C   UNL A   1      33.030  22.063  26.549  1.00  0.00     0.050 A 
BRANCH  12  20
ATOM     20  C   UNL A   1      30.455  27.938  24.233  1.00  0.00     0.430 C 
ATOM     21  F   UNL A   1      31.207  27.696  23.144  1.00  0.00    -0.167 F 
ATOM     22  F   UNL A   1      29.207  27.509  23.872  1.00  0.00    -0.167 F 
ATOM     23  F   UNL A   1      30.324  29.282  24.347  1.00  0.00    -0.167 F 
ENDBRANCH  12  20
BRANCH  17  24
ATOM     24  O   UNL A   1      35.494  21.836  26.037  1.00  0.00    -0.406 OA
BRANCH  24  25
ATOM     25  C   UNL A   1      35.653  20.930  24.966  1.00  0.00     0.573 C 
ATOM     26  F   UNL A   1      36.466  19.913  25.316  1.00  0.00    -0.132 F 
ATOM     27  F   UNL A   1      34.463  20.443  24.561  1.00  0.00    -0.132 F 
ATOM     28  F   UNL A   1      36.219  21.589  23.929  1.00  0.00    -0.132 F 
ENDBRANCH  24  25
ENDBRANCH  17  24
ENDBRANCH   8  10
ENDBRANCH   7   8
ENDBRANCH   6   7
ENDBRANCH   5   6
ENDBRANCH   4   5
ENDBRANCH   3   4
ENDBRANCH   2   3
ENDBRANCH   1   2
BRANCH   1  29
ATOM     29  C   UNL A   1      33.097  36.326  31.182  1.00  0.00     0.188 C 
BRANCH  29  30
ATOM     30  C   UNL A   1      33.533  36.553  32.634  1.00  0.00     0.188 C 
BRANCH  30  31
ATOM     31  O   UNL A   1      34.848  36.319  33.107  1.00  0.00    -0.376 OA
BRANCH  31  32
ATOM     32  C   UNL A   1      35.283  35.041  33.529  1.00  0.00     0.202 C 
BRANCH  32  33
ATOM     33  C   UNL A   1      36.395  34.283  32.794  1.00  0.00     0.261 C 
BRANCH  33  34
ATOM     34  O   UNL A   1      36.584  32.916  33.176  1.00  0.00    -0.460 OA
BRANCH  34  35
ATOM     35  C   UNL A   1      35.900  32.026  32.430  1.00  0.00     0.338 C 
ATOM     36  O   UNL A   1      34.703  32.026  32.198  1.00  0.00    -0.246 OA
BRANCH  35  37
ATOM     37  C   UNL A   1      36.836  31.102  31.757  1.00  0.00     0.060 A 
ATOM     38  C   UNL A   1      37.876  30.566  32.533  1.00  0.00     0.016 A 
ATOM     39  C   UNL A   1      36.752  30.817  30.393  1.00  0.00     0.016 A 
ATOM     40  C   UNL A   1      38.889  29.831  31.937  1.00  0.00     0.010 A 
ATOM     41  C   UNL A   1      37.795  30.115  29.783  1.00  0.00     0.010 A 
ATOM     42  C   UNL A   1      38.899  29.693  30.547  1.00  0.00    -0.014 A 
BRANCH  42  43
ATOM     43  C   UNL A   1      40.202  29.409  29.906  1.00  0.00     0.031 A 
ATOM     44  C   UNL A   1      40.382  28.065  29.248  1.00  0.00     0.074 A 
ATOM     45  C   UNL A   1      41.148  30.354  29.803  1.00  0.00     0.049 A 
ATOM     46  N   UNL A   1      41.412  27.584  28.600  1.00  0.00    -0.248 NA
ATOM     47  C   UNL A   1      39.242  27.135  29.334  1.00  0.00     0.031 C 
ATOM     48  C   UNL A   1      41.043  31.714  30.329  1.00  0.00     0.029 A 
ATOM     49  N   UNL A   1      42.381  30.313  29.208  1.00  0.00    -0.354 N 
ATOM     50  C   UNL A   1      41.050  26.296  28.224  1.00  0.00     0.074 A 
ATOM     51  C   UNL A   1      39.724  26.054  28.744  1.00  0.00     0.031 C 
ATOM     52  C   UNL A   1      42.172  32.380  30.034  1.00  0.00     0.029 A 
ATOM     53  C   UNL A   1      43.089  31.480  29.333  1.00  0.00     0.049 A 
ATOM     54  H   UNL A   1      42.727  29.520  28.737  1.00  0.00     0.167 HD
ATOM     55  C   UNL A   1      41.762  25.397  27.504  1.00  0.00     0.037 A 
ATOM     56  C   UNL A   1      44.343  31.774  28.944  1.00  0.00     0.037 A 
ATOM     57  C   UNL A   1      43.080  25.652  26.987  1.00  0.00     0.049 A 
ATOM     58  C   UNL A   1      45.147  30.723  28.220  1.00  0.00     0.074 A 
ATOM     59  C   UNL A   1      43.885  24.822  26.230  1.00  0.00     0.029 A 
ATOM     60  N   UNL A   1      43.792  26.826  27.189  1.00  0.00    -0.354 N 
ATOM     61  N   UNL A   1      44.801  29.512  27.855  1.00  0.00    -0.248 NA
ATOM     62  C   UNL A   1      46.520  31.089  27.844  1.00  0.00     0.031 C 
ATOM     63  C   UNL A   1      45.117  25.458  26.049  1.00  0.00     0.029 A 
ATOM     64  C   UNL A   1      45.044  26.726  26.604  1.00  0.00     0.049 A 
ATOM     65  H   UNL A   1      43.457  27.615  27.674  1.00  0.00     0.167 HD
ATOM     66  C   UNL A   1      45.891  28.989  27.170  1.00  0.00     0.074 A 
ATOM     67  C   UNL A   1      46.904  30.024  27.158  1.00  0.00     0.031 C 
ATOM     68  C   UNL A   1      46.040  27.769  26.595  1.00  0.00     0.037 A 
BRANCH  55  69
ATOM     69  C   UNL A   1      41.156  24.038  27.287  1.00  0.00     0.064 A 
ATOM     70  C   UNL A   1      41.655  22.883  27.909  1.00  0.00     0.173 A 
ATOM     71  C   UNL A   1      40.038  23.895  26.449  1.00  0.00     0.173 A 
ATOM     72  F   UNL A   1      42.728  22.956  28.710  1.00  0.00    -0.203 F 
ATOM     73  C   UNL A   1      41.081  21.635  27.671  1.00  0.00     0.198 A 
ATOM     74  C   UNL A   1      39.443  22.654  26.246  1.00  0.00     0.198 A 
ATOM     75  F   UNL A   1      39.517  24.965  25.828  1.00  0.00    -0.203 F 
ATOM     76  F   UNL A   1      41.615  20.537  28.226  1.00  0.00    -0.200 F 
ATOM     77  C   UNL A   1      39.972  21.523  26.848  1.00  0.00     0.200 A 
ATOM     78  F   UNL A   1      38.359  22.553  25.465  1.00  0.00    -0.200 F 
ATOM     79  F   UNL A   1      39.416  20.324  26.626  1.00  0.00    -0.200 F 
ENDBRANCH  55  69
BRANCH  56  80
ATOM     80  C   UNL A   1      44.920  33.113  29.230  1.00  0.00     0.064 A 
ATOM     81  C   UNL A   1      45.694  33.339  30.378  1.00  0.00     0.173 A 
ATOM     82  C   UNL A   1      44.686  34.205  28.380  1.00  0.00     0.173 A 
ATOM     83  F   UNL A   1      45.930  32.334  31.234  1.00  0.00    -0.203 F 
ATOM     84  C   UNL A   1      46.184  34.608  30.679  1.00  0.00     0.198 A 
ATOM     85  C   UNL A   1      45.209  35.465  28.661  1.00  0.00     0.198 A 
ATOM     86  F   UNL A   1      43.956  34.044  27.266  1.00  0.00    -0.203 F 
ATOM     87  F   UNL A   1      46.866  34.807  31.815  1.00  0.00    -0.200 F 
ATOM     88  C   UNL A   1      45.945  35.668  29.818  1.00  0.00     0.200 A 
ATOM     89  F   UNL A   1      44.993  36.481  27.816  1.00  0.00    -0.200 F 
ATOM     90  F   UNL A   1      46.419  36.888  30.106  1.00  0.00    -0.200 F 
ENDBRANCH  56  80
BRANCH  68  91
ATOM     91  C   UNL A   1      47.318  27.509  25.845  1.00  0.00     0.064 A 
ATOM     92  C   UNL A   1      47.427  27.701  24.460  1.00  0.00     0.173 A 
ATOM     93  C   UNL A   1      48.463  27.075  26.535  1.00  0.00     0.173 A 
ATOM     94  F   UNL A   1      46.366  28.110  23.748  1.00  0.00    -0.203 F 
ATOM     95  C   UNL A   1      48.613  27.415  23.787  1.00  0.00     0.198 A 
ATOM     96  C   UNL A   1      49.660  26.837  25.866  1.00  0.00     0.198 A 
ATOM     97  F   UNL A   1      48.424  26.888  27.863  1.00  0.00    -0.203 F 
ATOM     98  F   UNL A   1      48.667  27.527  22.452  1.00  0.00    -0.200 F 
ATOM     99  C   UNL A   1      49.729  26.989  24.491  1.00  0.00     0.200 A 
ATOM    100  F   UNL A   1      50.743  26.450  26.554  1.00  0.00    -0.200 F 
ATOM    101  F   UNL A   1      50.870  26.716  23.842  1.00  0.00    -0.200 F 
ENDBRANCH  68  91
ENDBRANCH  42  43
ENDBRANCH  35  37
ENDBRANCH  34  35
ENDBRANCH  33  34
ENDBRANCH  32  33
ENDBRANCH  31  32
ENDBRANCH  30  31
ENDBRANCH  29  30
ENDBRANCH   1  29
TORSDOF 23
ENDMDL
MODEL 2
REMARK VINA RESULT:     -12.2      4.394      8.662
REMARK SMILES O=C(OCCOCCOCCOCCOC(=O)c1ccc(-c2c3nc(c(-c4c(F)c(F)c(F)c(F)c4F)c4ccc([nH]4)c(-c4c(F)c(F)c(F)c(F)c4F)c4nc(c(-c5c(F)c(F)c(F)c(F)c5F)c5ccc2[nH]5)C=C4)C=C3)cc1)C1=Cc2cc(OC(F)(F)F)ccc2O[C@@H]1C(F)(F)F
REMARK SMILES IDX 9 1 8 2 7 3 6 4 5 5 4 6 3 7 2 8 1 9 81 10 82 11 95 12 83 13
REMARK SMILES IDX 94 14 84 15 93 16 85 17 92 18 91 19 96 20 97 21 98 22 99 23
REMARK SMILES IDX 86 24 87 25 88 26 89 27 90 28 10 29 11 30 12 31 13 32 14 33
REMARK SMILES IDX 15 34 16 35 17 36 18 37 19 38 80 39 20 40 79 41 21 42 22 43
REMARK SMILES IDX 23 44 73 45 24 46 78 47 72 48 74 49 25 50 77 51 71 52 70 53
REMARK SMILES IDX 26 55 58 56 38 57 57 58 39 59 42 60 56 61 75 62 40 63 41 64
REMARK SMILES IDX 55 66 76 67 43 68 27 69 28 70 36 71 29 72 30 73 34 74 37 75
REMARK SMILES IDX 31 76 32 77 35 78 33 79 59 80 60 81 68 82 61 83 62 84 66 85
REMARK SMILES IDX 69 86 63 87 64 88 67 89 65 90 44 91 45 92 53 93 46 94 47 95
REMARK SMILES IDX 51 96 54 97 48 98 49 99 52 100 50 101
REMARK H PARENT 74 54 42 65
REMARK Flexibility Score: inf
ROOT
ATOM      1  O   UNL A   1      32.885  29.412  23.781  1.00  0.00    -0.377 OA
ENDROOT
BRANCH   1   2
ATOM      2  C   UNL A   1      32.737  28.469  22.744  1.00  0.00     0.188 C 
BRANCH   2   3
ATOM      3  C   UNL A   1      31.311  27.934  22.522  1.00  0.00     0.188 C 
BRANCH   3   4
ATOM      4  O   UNL A   1      30.290  27.806  23.574  1.00  0.00    -0.376 OA
BRANCH   4   5
ATOM      5  C   UNL A   1      29.864  26.566  24.605  1.00  0.00     0.202 C 
BRANCH   5   6
ATOM      6  C   UNL A   1      30.990  25.867  26.341  1.00  0.00     0.261 C 
BRANCH   6   7
ATOM      7  O   UNL A   1      31.928  24.681  26.385  1.00  0.00    -0.460 OA
BRANCH   7   8
ATOM      8  C   UNL A   1      31.441  23.627  25.720  1.00  0.00     0.338 C 
ATOM      9  O   UNL A   1      30.346  23.131  25.812  1.00  0.00    -0.246 OA
BRANCH   8  10
ATOM     10  C   UNL A   1      32.717  23.056  25.318  1.00  0.00     0.087 C 
ATOM     11  C   UNL A   1      33.001  21.742  25.909  1.00  0.00     0.027 C 
ATOM     12  C   UNL A   1      32.378  23.363  23.452  1.00  0.00     0.316 C 
ATOM     13  C   UNL A   1      32.856  20.181  25.031  1.00  0.00     0.021 A 
ATOM     14  O   UNL A   1      32.066  21.682  22.507  1.00  0.00    -0.475 OA
ATOM     15  C   UNL A   1      33.164  19.015  25.675  1.00  0.00     0.058 A 
ATOM     16  C   UNL A   1      32.307  20.089  23.399  1.00  0.00     0.128 A 
ATOM     17  C   UNL A   1      33.040  17.825  24.925  1.00  0.00     0.130 A 
ATOM     18  C   UNL A   1      32.175  18.891  22.744  1.00  0.00     0.051 A 
ATOM     19  C   UNL A   1      32.571  17.771  23.543  1.00  0.00     0.050 A 
BRANCH  12  20
ATOM     20  C   UNL A   1      33.594  24.510  23.331  1.00  0.00     0.430 C 
ATOM     21  F   UNL A   1      34.851  24.136  23.630  1.00  0.00    -0.167 F 
ATOM     22  F   UNL A   1      33.662  24.863  22.011  1.00  0.00    -0.167 F 
ATOM     23  F   UNL A   1      33.353  25.679  23.974  1.00  0.00    -0.167 F 
ENDBRANCH  12  20
BRANCH  17  24
ATOM     24  O   UNL A   1      33.423  16.746  25.690  1.00  0.00    -0.406 OA
BRANCH  24  25
ATOM     25  C   UNL A   1      34.411  15.851  25.223  1.00  0.00     0.573 C 
ATOM     26  F   UNL A   1      33.990  14.575  25.331  1.00  0.00    -0.132 F 
ATOM     27  F   UNL A   1      34.739  16.115  23.943  1.00  0.00    -0.132 F 
ATOM     28  F   UNL A   1      35.517  16.000  25.986  1.00  0.00    -0.132 F 
ENDBRANCH  24  25
ENDBRANCH  17  24
ENDBRANCH   8  10
ENDBRANCH   7   8
ENDBRANCH   6   7
ENDBRANCH   5   6
ENDBRANCH   4   5
ENDBRANCH   3   4
ENDBRANCH   2   3
ENDBRANCH   1   2
BRANCH   1  29
ATOM     29  C   UNL A   1      33.197  28.798  25.007  1.00  0.00     0.188 C 
BRANCH  29  30
ATOM     30  C   UNL A   1      33.287  29.713  26.234  1.00  0.00     0.188 C 
BRANCH  30  31
ATOM     31  O   UNL A   1      32.163  30.320  26.846  1.00  0.00    -0.376 OA
BRANCH  31  32
ATOM     32  C   UNL A   1      31.690  31.596  26.459  1.00  0.00     0.202 C 
BRANCH  32  33
ATOM     33  C   UNL A   1      31.914  32.839  27.329  1.00  0.00     0.261 C 
BRANCH  33  34
ATOM     34  O   UNL A   1      33.226  33.411  27.283  1.00  0.00    -0.460 OA
BRANCH  34  35
ATOM     35  C   UNL A   1      33.815  33.556  28.486  1.00  0.00     0.338 C 
ATOM     36  O   UNL A   1      33.335  34.064  29.485  1.00  0.00    -0.246 OA
BRANCH  35  37
ATOM     37  C   UNL A   1      35.111  32.847  28.506  1.00  0.00     0.060 A 
ATOM     38  C   UNL A   1      35.077  31.453  28.668  1.00  0.00     0.016 A 
ATOM     39  C   UNL A   1      36.332  33.522  28.443  1.00  0.00     0.016 A 
ATOM     40  C   UNL A   1      36.250  30.741  28.868  1.00  0.00     0.010 A 
ATOM     41  C   UNL A   1      37.511  32.813  28.688  1.00  0.00     0.010 A 
ATOM     42  C   UNL A   1      37.456  31.437  28.978  1.00  0.00    -0.014 A 
BRANCH  42  43
ATOM     43  C   UNL A   1      38.556  30.770  29.709  1.00  0.00     0.031 A 
ATOM     44  C   UNL A   1      38.709  31.075  31.177  1.00  0.00     0.074 A 
ATOM     45  C   UNL A   1      39.315  29.835  29.120  1.00  0.00     0.049 A 
ATOM     46  N   UNL A   1      39.571  30.604  32.041  1.00  0.00    -0.248 NA
ATOM     47  C   UNL A   1      37.758  32.044  31.748  1.00  0.00     0.031 C 
ATOM     48  C   UNL A   1      39.196  29.402  27.730  1.00  0.00     0.029 A 
ATOM     49  N   UNL A   1      40.333  29.071  29.629  1.00  0.00    -0.354 N 
ATOM     50  C   UNL A   1      39.278  31.237  33.244  1.00  0.00     0.074 A 
ATOM     51  C   UNL A   1      38.186  32.148  32.995  1.00  0.00     0.031 C 
ATOM     52  C   UNL A   1      40.110  28.447  27.493  1.00  0.00     0.029 A 
ATOM     53  C   UNL A   1      40.901  28.232  28.705  1.00  0.00     0.049 A 
ATOM     54  H   UNL A   1      40.628  29.120  30.567  1.00  0.00     0.167 HD
ATOM     55  C   UNL A   1      39.868  31.065  34.451  1.00  0.00     0.037 A 
ATOM     56  C   UNL A   1      41.955  27.403  28.827  1.00  0.00     0.037 A 
ATOM     57  C   UNL A   1      40.951  30.149  34.688  1.00  0.00     0.049 A 
ATOM     58  C   UNL A   1      42.649  27.297  30.161  1.00  0.00     0.074 A 
ATOM     59  C   UNL A   1      41.611  29.881  35.873  1.00  0.00     0.029 A 
ATOM     60  N   UNL A   1      41.544  29.360  33.712  1.00  0.00    -0.354 N 
ATOM     61  N   UNL A   1      42.365  27.884  31.299  1.00  0.00    -0.248 NA
ATOM     62  C   UNL A   1      43.811  26.399  30.228  1.00  0.00     0.031 C 
ATOM     63  C   UNL A   1      42.659  28.998  35.597  1.00  0.00     0.029 A 
ATOM     64  C   UNL A   1      42.590  28.635  34.261  1.00  0.00     0.049 A 
ATOM     65  H   UNL A   1      41.263  29.320  32.769  1.00  0.00     0.167 HD
ATOM     66  C   UNL A   1      43.279  27.396  32.224  1.00  0.00     0.074 A 
ATOM     67  C   UNL A   1      44.117  26.451  31.515  1.00  0.00     0.031 C 
ATOM     68  C   UNL A   1      43.410  27.693  33.542  1.00  0.00     0.037 A 
BRANCH  55  69
ATOM     69  C   UNL A   1      39.394  31.927  35.588  1.00  0.00     0.064 A 
ATOM     70  C   UNL A   1      38.439  31.487  36.520  1.00  0.00     0.173 A 
ATOM     71  C   UNL A   1      39.921  33.217  35.757  1.00  0.00     0.173 A 
ATOM     72  F   UNL A   1      37.890  30.269  36.401  1.00  0.00    -0.203 F 
ATOM     73  C   UNL A   1      38.008  32.318  37.551  1.00  0.00     0.198 A 
ATOM     74  C   UNL A   1      39.518  34.029  36.813  1.00  0.00     0.198 A 
ATOM     75  F   UNL A   1      40.838  33.691  34.899  1.00  0.00    -0.203 F 
ATOM     76  F   UNL A   1      37.048  31.900  38.389  1.00  0.00    -0.200 F 
ATOM     77  C   UNL A   1      38.552  33.584  37.702  1.00  0.00     0.200 A 
ATOM     78  F   UNL A   1      40.062  35.244  36.967  1.00  0.00    -0.200 F 
ATOM     79  F   UNL A   1      38.142  34.379  38.700  1.00  0.00    -0.200 F 
ENDBRANCH  55  69
BRANCH  56  80
ATOM     80  C   UNL A   1      42.422  26.612  27.658  1.00  0.00     0.064 A 
ATOM     81  C   UNL A   1      41.900  25.339  27.389  1.00  0.00     0.173 A 
ATOM     82  C   UNL A   1      43.423  27.098  26.803  1.00  0.00     0.173 A 
ATOM     83  F   UNL A   1      40.957  24.820  28.188  1.00  0.00    -0.203 F 
ATOM     84  C   UNL A   1      42.381  24.571  26.331  1.00  0.00     0.198 A 
ATOM     85  C   UNL A   1      43.876  26.346  25.721  1.00  0.00     0.198 A 
ATOM     86  F   UNL A   1      43.955  28.312  27.012  1.00  0.00    -0.203 F 
ATOM     87  F   UNL A   1      41.908  23.333  26.135  1.00  0.00    -0.200 F 
ATOM     88  C   UNL A   1      43.365  25.078  25.495  1.00  0.00     0.200 A 
ATOM     89  F   UNL A   1      44.811  26.848  24.905  1.00  0.00    -0.200 F 
ATOM     90  F   UNL A   1      43.826  24.340  24.475  1.00  0.00    -0.200 F 
ENDBRANCH  56  80
BRANCH  68  91
ATOM     91  C   UNL A   1      44.455  26.938  34.320  1.00  0.00     0.064 A 
ATOM     92  C   UNL A   1      45.756  27.427  34.498  1.00  0.00     0.173 A 
ATOM     93  C   UNL A   1      44.135  25.704  34.913  1.00  0.00     0.173 A 
ATOM     94  F   UNL A   1      46.121  28.597  33.951  1.00  0.00    -0.203 F 
ATOM     95  C   UNL A   1      46.712  26.687  35.191  1.00  0.00     0.198 A 
ATOM     96  C   UNL A   1      45.078  24.991  35.645  1.00  0.00     0.198 A 
ATOM     97  F   UNL A   1      42.900  25.192  34.788  1.00  0.00    -0.203 F 
ATOM     98  F   UNL A   1      47.972  27.137  35.277  1.00  0.00    -0.200 F 
ATOM     99  C   UNL A   1      46.371  25.473  35.768  1.00  0.00     0.200 A 
ATOM    100  F   UNL A   1      44.737  23.831  36.223  1.00  0.00    -0.200 F 
ATOM    101  F   UNL A   1      47.291  24.764  36.436  1.00  0.00    -0.200 F 
ENDBRANCH  68  91
ENDBRANCH  42  43
ENDBRANCH  35  37
ENDBRANCH  34  35
ENDBRANCH  33  34
ENDBRANCH  32  33
ENDBRANCH  31  32
ENDBRANCH  30  31
ENDBRANCH  29  30
ENDBRANCH   1  29
TORSDOF 23
ENDMDL
MODEL 3
REMARK VINA RESULT:     -12.1      4.332      7.207
REMARK SMILES O=C(OCCOCCOCCOCCOC(=O)c1ccc(-c2c3nc(c(-c4c(F)c(F)c(F)c(F)c4F)c4ccc([nH]4)c(-c4c(F)c(F)c(F)c(F)c4F)c4nc(c(-c5c(F)c(F)c(F)c(F)c5F)c5ccc2[nH]5)C=C4)C=C3)cc1)C1=Cc2cc(OC(F)(F)F)ccc2O[C@@H]1C(F)(F)F
REMARK SMILES IDX 9 1 8 2 7 3 6 4 5 5 4 6 3 7 2 8 1 9 81 10 82 11 95 12 83 13
REMARK SMILES IDX 94 14 84 15 93 16 85 17 92 18 91 19 96 20 97 21 98 22 99 23
REMARK SMILES IDX 86 24 87 25 88 26 89 27 90 28 10 29 11 30 12 31 13 32 14 33
REMARK SMILES IDX 15 34 16 35 17 36 18 37 19 38 80 39 20 40 79 41 21 42 22 43
REMARK SMILES IDX 23 44 73 45 24 46 78 47 72 48 74 49 25 50 77 51 71 52 70 53
REMARK SMILES IDX 26 55 58 56 38 57 57 58 39 59 42 60 56 61 75 62 40 63 41 64
REMARK SMILES IDX 55 66 76 67 43 68 27 69 28 70 36 71 29 72 30 73 34 74 37 75
REMARK SMILES IDX 31 76 32 77 35 78 33 79 59 80 60 81 68 82 61 83 62 84 66 85
REMARK SMILES IDX 69 86 63 87 64 88 67 89 65 90 44 91 45 92 53 93 46 94 47 95
REMARK SMILES IDX 51 96 54 97 48 98 49 99 52 100 50 101
REMARK H PARENT 74 54 42 65
REMARK Flexibility Score: inf
ROOT
ATOM      1  O   UNL A   1      29.892  30.153  23.000  1.00  0.00    -0.377 OA
ENDROOT
BRANCH   1   2
ATOM      2  C   UNL A   1      28.852  30.264  22.056  1.00  0.00     0.188 C 
BRANCH   2   3
ATOM      3  C   UNL A   1      27.647  29.329  22.270  1.00  0.00     0.188 C 
BRANCH   3   4
ATOM      4  O   UNL A   1      27.403  28.545  23.491  1.00  0.00    -0.376 OA
BRANCH   4   5
ATOM      5  C   UNL A   1      27.626  26.936  23.877  1.00  0.00     0.202 C 
BRANCH   5   6
ATOM      6  C   UNL A   1      29.527  25.949  24.303  1.00  0.00     0.261 C 
BRANCH   6   7
ATOM      7  O   UNL A   1      30.520  25.433  23.284  1.00  0.00    -0.460 OA
BRANCH   7   8
ATOM      8  C   UNL A   1      31.361  24.535  23.808  1.00  0.00     0.338 C 
ATOM      9  O   UNL A   1      31.108  23.635  24.571  1.00  0.00    -0.246 OA
BRANCH   8  10
ATOM     10  C   UNL A   1      32.591  25.279  23.582  1.00  0.00     0.087 C 
ATOM     11  C   UNL A   1      33.525  25.252  24.714  1.00  0.00     0.027 C 
ATOM     12  C   UNL A   1      32.906  24.434  21.886  1.00  0.00     0.316 C 
ATOM     13  C   UNL A   1      35.011  24.243  24.781  1.00  0.00     0.021 A 
ATOM     14  O   UNL A   1      34.428  23.214  21.979  1.00  0.00    -0.475 OA
ATOM     15  C   UNL A   1      35.821  24.310  25.880  1.00  0.00     0.058 A 
ATOM     16  C   UNL A   1      35.443  23.155  23.515  1.00  0.00     0.128 A 
ATOM     17  C   UNL A   1      36.978  23.499  25.864  1.00  0.00     0.130 A 
ATOM     18  C   UNL A   1      36.565  22.369  23.584  1.00  0.00     0.051 A 
ATOM     19  C   UNL A   1      37.324  22.585  24.780  1.00  0.00     0.050 A 
BRANCH  12  20
ATOM     20  C   UNL A   1      32.659  25.857  21.035  1.00  0.00     0.430 C 
ATOM     21  F   UNL A   1      33.469  26.900  21.292  1.00  0.00    -0.167 F 
ATOM     22  F   UNL A   1      32.903  25.568  19.719  1.00  0.00    -0.167 F 
ATOM     23  F   UNL A   1      31.384  26.320  21.040  1.00  0.00    -0.167 F 
ENDBRANCH  12  20
BRANCH  17  24
ATOM     24  O   UNL A   1      37.711  23.706  27.011  1.00  0.00    -0.406 OA
BRANCH  24  25
ATOM     25  C   UNL A   1      39.073  24.075  26.934  1.00  0.00     0.573 C 
ATOM     26  F   UNL A   1      39.850  22.993  26.728  1.00  0.00    -0.132 F 
ATOM     27  F   UNL A   1      39.277  24.976  25.953  1.00  0.00    -0.132 F 
ATOM     28  F   UNL A   1      39.430  24.636  28.111  1.00  0.00    -0.132 F 
ENDBRANCH  24  25
ENDBRANCH  17  24
ENDBRANCH   8  10
ENDBRANCH   7   8
ENDBRANCH   6   7
ENDBRANCH   5   6
ENDBRANCH   4   5
ENDBRANCH   3   4
ENDBRANCH   2   3
ENDBRANCH   1   2
BRANCH   1  29
ATOM     29  C   UNL A   1      30.713  29.039  22.748  1.00  0.00     0.188 C 
BRANCH  29  30
ATOM     30  C   UNL A   1      32.015  28.945  23.550  1.00  0.00     0.188 C 
BRANCH  30  31
ATOM     31  O   UNL A   1      32.099  28.395  24.853  1.00  0.00    -0.376 OA
BRANCH  31  32
ATOM     32  C   UNL A   1      31.403  28.949  25.953  1.00  0.00     0.202 C 
BRANCH  32  33
ATOM     33  C   UNL A   1      32.040  30.007  26.862  1.00  0.00     0.261 C 
BRANCH  33  34
ATOM     34  O   UNL A   1      33.386  30.380  26.547  1.00  0.00    -0.460 OA
BRANCH  34  35
ATOM     35  C   UNL A   1      33.892  31.358  27.323  1.00  0.00     0.338 C 
ATOM     36  O   UNL A   1      33.288  32.301  27.807  1.00  0.00    -0.246 OA
BRANCH  35  37
ATOM     37  C   UNL A   1      35.295  31.055  27.673  1.00  0.00     0.060 A 
ATOM     38  C   UNL A   1      35.670  29.703  27.705  1.00  0.00     0.016 A 
ATOM     39  C   UNL A   1      36.206  32.050  28.034  1.00  0.00     0.016 A 
ATOM     40  C   UNL A   1      36.914  29.331  28.189  1.00  0.00     0.010 A 
ATOM     41  C   UNL A   1      37.443  31.675  28.563  1.00  0.00     0.010 A 
ATOM     42  C   UNL A   1      37.760  30.312  28.712  1.00  0.00    -0.014 A 
BRANCH  42  43
ATOM     43  C   UNL A   1      38.786  29.872  29.683  1.00  0.00     0.031 A 
ATOM     44  C   UNL A   1      39.827  28.891  29.208  1.00  0.00     0.074 A 
ATOM     45  C   UNL A   1      38.865  30.417  30.906  1.00  0.00     0.049 A 
ATOM     46  N   UNL A   1      40.842  28.374  29.852  1.00  0.00    -0.248 NA
ATOM     47  C   UNL A   1      39.706  28.431  27.814  1.00  0.00     0.031 C 
ATOM     48  C   UNL A   1      37.962  31.436  31.436  1.00  0.00     0.029 A 
ATOM     49  N   UNL A   1      39.760  30.194  31.919  1.00  0.00    -0.354 N 
ATOM     50  C   UNL A   1      41.459  27.516  28.950  1.00  0.00     0.074 A 
ATOM     51  C   UNL A   1      40.690  27.552  27.728  1.00  0.00     0.031 C 
ATOM     52  C   UNL A   1      38.349  31.749  32.684  1.00  0.00     0.029 A 
ATOM     53  C   UNL A   1      39.501  30.926  33.049  1.00  0.00     0.049 A 
ATOM     54  H   UNL A   1      40.516  29.567  31.843  1.00  0.00     0.167 HD
ATOM     55  C   UNL A   1      42.574  26.768  29.127  1.00  0.00     0.037 A 
ATOM     56  C   UNL A   1      40.116  30.910  34.246  1.00  0.00     0.037 A 
ATOM     57  C   UNL A   1      43.334  26.745  30.348  1.00  0.00     0.049 A 
ATOM     58  C   UNL A   1      41.303  30.001  34.444  1.00  0.00     0.074 A 
ATOM     59  C   UNL A   1      44.489  26.040  30.631  1.00  0.00     0.029 A 
ATOM     60  N   UNL A   1      43.005  27.453  31.495  1.00  0.00    -0.354 N 
ATOM     61  N   UNL A   1      41.893  29.201  33.589  1.00  0.00    -0.248 NA
ATOM     62  C   UNL A   1      41.917  30.004  35.780  1.00  0.00     0.031 C 
ATOM     63  C   UNL A   1      44.808  26.250  31.976  1.00  0.00     0.029 A 
ATOM     64  C   UNL A   1      43.912  27.168  32.503  1.00  0.00     0.049 A 
ATOM     65  H   UNL A   1      42.240  28.067  31.581  1.00  0.00     0.167 HD
ATOM     66  C   UNL A   1      42.971  28.640  34.265  1.00  0.00     0.074 A 
ATOM     67  C   UNL A   1      42.959  29.207  35.598  1.00  0.00     0.031 C 
ATOM     68  C   UNL A   1      43.891  27.746  33.824  1.00  0.00     0.037 A 
BRANCH  55  69
ATOM     69  C   UNL A   1      43.000  25.871  27.998  1.00  0.00     0.064 A 
ATOM     70  C   UNL A   1      42.653  24.511  27.944  1.00  0.00     0.173 A 
ATOM     71  C   UNL A   1      43.760  26.391  26.938  1.00  0.00     0.173 A 
ATOM     72  F   UNL A   1      41.940  23.956  28.935  1.00  0.00    -0.203 F 
ATOM     73  C   UNL A   1      43.081  23.703  26.893  1.00  0.00     0.198 A 
ATOM     74  C   UNL A   1      44.150  25.589  25.869  1.00  0.00     0.198 A 
ATOM     75  F   UNL A   1      44.120  27.684  26.934  1.00  0.00    -0.203 F 
ATOM     76  F   UNL A   1      42.792  22.393  26.897  1.00  0.00    -0.200 F 
ATOM     77  C   UNL A   1      43.821  24.243  25.853  1.00  0.00     0.200 A 
ATOM     78  F   UNL A   1      44.848  26.121  24.857  1.00  0.00    -0.200 F 
ATOM     79  F   UNL A   1      44.224  23.467  24.838  1.00  0.00    -0.200 F 
ENDBRANCH  55  69
BRANCH  56  80
ATOM     80  C   UNL A   1      39.624  31.774  35.351  1.00  0.00     0.064 A 
ATOM     81  C   UNL A   1      38.650  31.317  36.249  1.00  0.00     0.173 A 
ATOM     82  C   UNL A   1      40.094  33.086  35.513  1.00  0.00     0.173 A 
ATOM     83  F   UNL A   1      38.153  30.078  36.125  1.00  0.00    -0.203 F 
ATOM     84  C   UNL A   1      38.143  32.147  37.247  1.00  0.00     0.198 A 
ATOM     85  C   UNL A   1      39.616  33.903  36.535  1.00  0.00     0.198 A 
ATOM     86  F   UNL A   1      41.029  33.573  34.684  1.00  0.00    -0.203 F 
ATOM     87  F   UNL A   1      37.168  31.705  38.052  1.00  0.00    -0.200 F 
ATOM     88  C   UNL A   1      38.631  33.438  37.392  1.00  0.00     0.200 A 
ATOM     89  F   UNL A   1      40.104  35.141  36.684  1.00  0.00    -0.200 F 
ATOM     90  F   UNL A   1      38.145  34.235  38.354  1.00  0.00    -0.200 F 
ENDBRANCH  56  80
BRANCH  68  91
ATOM     91  C   UNL A   1      45.004  27.377  34.768  1.00  0.00     0.064 A 
ATOM     92  C   UNL A   1      46.200  28.105  34.839  1.00  0.00     0.173 A 
ATOM     93  C   UNL A   1      44.858  26.277  35.630  1.00  0.00     0.173 A 
ATOM     94  F   UNL A   1      46.397  29.162  34.036  1.00  0.00    -0.203 F 
ATOM     95  C   UNL A   1      47.228  27.715  35.695  1.00  0.00     0.198 A 
ATOM     96  C   UNL A   1      45.868  25.920  36.519  1.00  0.00     0.198 A 
ATOM     97  F   UNL A   1      43.730  25.551  35.618  1.00  0.00    -0.203 F 
ATOM     98  F   UNL A   1      48.393  28.378  35.685  1.00  0.00    -0.200 F 
ATOM     99  C   UNL A   1      47.058  26.627  36.538  1.00  0.00     0.200 A 
ATOM    100  F   UNL A   1      45.689  24.884  37.350  1.00  0.00    -0.200 F 
ATOM    101  F   UNL A   1      48.047  26.255  37.362  1.00  0.00    -0.200 F 
ENDBRANCH  68  91
ENDBRANCH  42  43
ENDBRANCH  35  37
ENDBRANCH  34  35
ENDBRANCH  33  34
ENDBRANCH  32  33
ENDBRANCH  31  32
ENDBRANCH  30  31
ENDBRANCH  29  30
ENDBRANCH   1  29
TORSDOF 23
ENDMDL
