MODEL 1
REMARK VINA RESULT:     -10.3      0.000      0.000
REMARK SMILES CCn1cc(C)c(C(=O)OCCOCCOCCOCCOC(=O)c2ccc(-c3c4nc(c(-c5c(F)c(F)c(F)c(F)c5F)c5ccc([nH]5)c(-c5c(F)c(F)c(F)c(F)c5F)c5nc(c(-c6c(F)c(F)c(F)c(F)c6F)c6ccc3[nH]6)C=C5)C=C4)cc2)c1CC(=O)NCc1cccc(C)c1
REMARK SMILES IDX 15 1 14 2 13 3 12 4 11 5 10 6 8 7 9 8 7 9 3 10 4 11 88 12
REMARK SMILES IDX 5 13 6 14 2 15 1 16 89 17 90 18 91 19 92 20 93 22 94 23
REMARK SMILES IDX 95 24 100 25 96 26 98 27 97 28 99 29 16 30 17 31 18 32 19 33
REMARK SMILES IDX 20 34 21 35 22 36 23 37 24 38 25 39 26 40 87 41 27 42 86 43
REMARK SMILES IDX 28 44 29 45 30 46 80 47 31 48 85 49 79 50 81 51 32 52 84 53
REMARK SMILES IDX 78 54 77 55 33 57 65 58 45 59 64 60 46 61 49 62 63 63 82 64
REMARK SMILES IDX 47 65 48 66 62 68 83 69 50 70 34 71 35 72 43 73 36 74 37 75
REMARK SMILES IDX 41 76 44 77 38 78 39 79 42 80 40 81 66 82 67 83 75 84 68 85
REMARK SMILES IDX 69 86 73 87 76 88 70 89 71 90 74 91 72 92 51 93 52 94 60 95
REMARK SMILES IDX 53 96 54 97 58 98 61 99 55 100 56 101 59 102 57 103
REMARK H PARENT 92 21 81 56 49 67
REMARK Flexibility Score: inf
ROOT
ATOM      1  C   UNL A   1      34.328  32.335  27.665  1.00  0.00     0.188 C 
ENDROOT
BRANCH   1   2
ATOM      2  C   UNL A   1      34.012  30.855  27.403  1.00  0.00     0.188 C 
BRANCH   2   3
ATOM      3  O   UNL A   1      32.626  30.654  27.207  1.00  0.00    -0.376 OA
BRANCH   3   4
ATOM      4  C   UNL A   1      32.144  29.635  26.358  1.00  0.00     0.202 C 
BRANCH   4   5
ATOM      5  C   UNL A   1      31.320  29.944  25.093  1.00  0.00     0.261 C 
BRANCH   5   6
ATOM      6  O   UNL A   1      31.712  29.329  23.863  1.00  0.00    -0.460 OA
BRANCH   6   7
ATOM      7  C   UNL A   1      30.837  28.477  23.281  1.00  0.00     0.340 C 
ATOM      8  O   UNL A   1      30.220  28.741  22.249  1.00  0.00    -0.246 OA
BRANCH   7   9
ATOM      9  C   UNL A   1      30.793  27.153  23.924  1.00  0.00     0.084 A 
ATOM     10  N   UNL A   1      31.339  25.345  25.106  1.00  0.00    -0.350 N 
ATOM     11  C   UNL A   1      29.977  25.339  25.003  1.00  0.00     0.090 A 
ATOM     12  C   UNL A   1      31.849  26.269  24.204  1.00  0.00     0.042 A 
ATOM     13  C   UNL A   1      29.591  26.452  24.292  1.00  0.00    -0.019 A 
ATOM     14  C   UNL A   1      28.188  26.807  23.944  1.00  0.00     0.047 C 
BRANCH  10  15
ATOM     15  C   UNL A   1      32.117  24.595  26.084  1.00  0.00     0.118 C 
ATOM     16  C   UNL A   1      31.386  23.497  26.841  1.00  0.00     0.027 C 
ENDBRANCH  10  15
BRANCH  12  17
ATOM     17  C   UNL A   1      33.300  26.275  23.791  1.00  0.00     0.154 C 
BRANCH  17  18
ATOM     18  C   UNL A   1      33.503  26.017  22.297  1.00  0.00     0.226 C 
ATOM     19  O   UNL A   1      34.055  26.867  21.587  1.00  0.00    -0.275 OA
ATOM     20  N   UNL A   1      33.156  24.847  21.689  1.00  0.00    -0.352 N 
ATOM     21  H   UNL A   1      33.231  24.870  20.708  1.00  0.00     0.163 HD
BRANCH  20  22
ATOM     22  C   UNL A   1      32.699  23.577  22.217  1.00  0.00     0.151 C 
BRANCH  22  23
ATOM     23  C   UNL A   1      33.700  22.846  23.084  1.00  0.00    -0.029 A 
ATOM     24  C   UNL A   1      35.054  23.197  23.117  1.00  0.00     0.005 A 
ATOM     25  C   UNL A   1      33.266  21.832  23.956  1.00  0.00     0.009 A 
ATOM     26  C   UNL A   1      35.963  22.489  23.905  1.00  0.00     0.001 A 
ATOM     27  C   UNL A   1      34.169  21.125  24.767  1.00  0.00    -0.051 A 
ATOM     28  C   UNL A   1      35.527  21.447  24.715  1.00  0.00     0.003 A 
ATOM     29  C   UNL A   1      33.708  20.025  25.678  1.00  0.00     0.044 C 
ENDBRANCH  22  23
ENDBRANCH  20  22
ENDBRANCH  17  18
ENDBRANCH  12  17
ENDBRANCH   7   9
ENDBRANCH   6   7
ENDBRANCH   5   6
ENDBRANCH   4   5
ENDBRANCH   3   4
ENDBRANCH   2   3
ENDBRANCH   1   2
BRANCH   1  30
ATOM     30  O   UNL A   1      33.360  33.100  28.386  1.00  0.00    -0.377 OA
BRANCH  30  31
ATOM     31  C   UNL A   1      33.543  34.504  28.323  1.00  0.00     0.188 C 
BRANCH  31  32
ATOM     32  C   UNL A   1      33.626  35.192  29.704  1.00  0.00     0.188 C 
BRANCH  32  33
ATOM     33  O   UNL A   1      33.354  34.499  30.925  1.00  0.00    -0.376 OA
BRANCH  33  34
ATOM     34  C   UNL A   1      34.370  33.883  31.704  1.00  0.00     0.202 C 
BRANCH  34  35
ATOM     35  C   UNL A   1      34.743  32.441  31.416  1.00  0.00     0.261 C 
BRANCH  35  36
ATOM     36  O   UNL A   1      35.367  31.818  32.523  1.00  0.00    -0.460 OA
BRANCH  36  37
ATOM     37  C   UNL A   1      36.688  32.046  32.606  1.00  0.00     0.338 C 
ATOM     38  O   UNL A   1      37.261  32.890  33.289  1.00  0.00    -0.246 OA
BRANCH  37  39
ATOM     39  C   UNL A   1      37.365  31.249  31.584  1.00  0.00     0.060 A 
ATOM     40  C   UNL A   1      37.182  29.873  31.708  1.00  0.00     0.016 A 
ATOM     41  C   UNL A   1      38.443  31.808  30.878  1.00  0.00     0.016 A 
ATOM     42  C   UNL A   1      38.256  29.072  31.432  1.00  0.00     0.010 A 
ATOM     43  C   UNL A   1      39.520  31.005  30.606  1.00  0.00     0.010 A 
ATOM     44  C   UNL A   1      39.445  29.673  30.996  1.00  0.00    -0.014 A 
BRANCH  44  45
ATOM     45  C   UNL A   1      40.597  28.818  30.876  1.00  0.00     0.031 A 
ATOM     46  C   UNL A   1      41.277  28.631  32.168  1.00  0.00     0.074 A 
ATOM     47  C   UNL A   1      40.978  28.253  29.719  1.00  0.00     0.049 A 
ATOM     48  N   UNL A   1      42.419  29.115  32.520  1.00  0.00    -0.248 NA
ATOM     49  C   UNL A   1      40.508  28.014  33.257  1.00  0.00     0.031 C 
ATOM     50  C   UNL A   1      40.263  28.178  28.445  1.00  0.00     0.029 A 
ATOM     51  N   UNL A   1      42.107  27.539  29.481  1.00  0.00    -0.354 N 
ATOM     52  C   UNL A   1      42.597  28.710  33.834  1.00  0.00     0.074 A 
ATOM     53  C   UNL A   1      41.328  28.207  34.289  1.00  0.00     0.031 C 
ATOM     54  C   UNL A   1      40.877  27.270  27.648  1.00  0.00     0.029 A 
ATOM     55  C   UNL A   1      42.087  26.804  28.308  1.00  0.00     0.049 A 
ATOM     56  H   UNL A   1      42.877  27.543  30.094  1.00  0.00     0.167 HD
ATOM     57  C   UNL A   1      43.846  28.583  34.352  1.00  0.00     0.037 A 
ATOM     58  C   UNL A   1      42.974  25.833  27.975  1.00  0.00     0.037 A 
ATOM     59  C   UNL A   1      44.813  29.320  33.580  1.00  0.00     0.049 A 
ATOM     60  C   UNL A   1      44.192  26.039  28.807  1.00  0.00     0.074 A 
ATOM     61  C   UNL A   1      44.980  30.655  33.263  1.00  0.00     0.029 A 
ATOM     62  N   UNL A   1      45.584  28.625  32.679  1.00  0.00    -0.354 N 
ATOM     63  N   UNL A   1      45.014  27.039  28.644  1.00  0.00    -0.248 NA
ATOM     64  C   UNL A   1      44.241  25.404  30.118  1.00  0.00     0.031 C 
ATOM     65  C   UNL A   1      45.453  30.664  31.918  1.00  0.00     0.029 A 
ATOM     66  C   UNL A   1      45.601  29.340  31.509  1.00  0.00     0.049 A 
ATOM     67  H   UNL A   1      46.041  27.768  32.845  1.00  0.00     0.167 HD
ATOM     68  C   UNL A   1      45.352  27.433  29.931  1.00  0.00     0.074 A 
ATOM     69  C   UNL A   1      44.920  26.336  30.793  1.00  0.00     0.031 C 
ATOM     70  C   UNL A   1      45.676  28.731  30.203  1.00  0.00     0.037 A 
BRANCH  57  71
ATOM     71  C   UNL A   1      44.225  27.486  35.307  1.00  0.00     0.064 A 
ATOM     72  C   UNL A   1      43.989  26.150  34.936  1.00  0.00     0.173 A 
ATOM     73  C   UNL A   1      44.527  27.699  36.670  1.00  0.00     0.173 A 
ATOM     74  F   UNL A   1      43.672  25.839  33.670  1.00  0.00    -0.203 F 
ATOM     75  C   UNL A   1      43.979  25.119  35.877  1.00  0.00     0.198 A 
ATOM     76  C   UNL A   1      44.574  26.661  37.594  1.00  0.00     0.198 A 
ATOM     77  F   UNL A   1      44.670  28.923  37.192  1.00  0.00    -0.203 F 
ATOM     78  F   UNL A   1      43.619  23.883  35.504  1.00  0.00    -0.200 F 
ATOM     79  C   UNL A   1      44.266  25.376  37.206  1.00  0.00     0.200 A 
ATOM     80  F   UNL A   1      44.834  26.937  38.880  1.00  0.00    -0.200 F 
ATOM     81  F   UNL A   1      44.194  24.401  38.120  1.00  0.00    -0.200 F 
ENDBRANCH  57  71
BRANCH  58  82
ATOM     82  C   UNL A   1      42.733  24.581  27.221  1.00  0.00     0.064 A 
ATOM     83  C   UNL A   1      43.246  24.407  25.925  1.00  0.00     0.173 A 
ATOM     84  C   UNL A   1      42.240  23.425  27.858  1.00  0.00     0.173 A 
ATOM     85  F   UNL A   1      43.777  25.447  25.264  1.00  0.00    -0.203 F 
ATOM     86  C   UNL A   1      43.287  23.149  25.314  1.00  0.00     0.198 A 
ATOM     87  C   UNL A   1      42.274  22.173  27.245  1.00  0.00     0.198 A 
ATOM     88  F   UNL A   1      41.803  23.469  29.125  1.00  0.00    -0.203 F 
ATOM     89  F   UNL A   1      43.845  23.012  24.103  1.00  0.00    -0.200 F 
ATOM     90  C   UNL A   1      42.811  22.032  25.979  1.00  0.00     0.200 A 
ATOM     91  F   UNL A   1      41.845  21.094  27.915  1.00  0.00    -0.200 F 
ATOM     92  F   UNL A   1      42.909  20.817  25.422  1.00  0.00    -0.200 F 
ENDBRANCH  58  82
BRANCH  70  93
ATOM     93  C   UNL A   1      45.900  29.646  29.031  1.00  0.00     0.064 A 
ATOM     94  C   UNL A   1      47.142  29.811  28.390  1.00  0.00     0.173 A 
ATOM     95  C   UNL A   1      44.792  30.283  28.461  1.00  0.00     0.173 A 
ATOM     96  F   UNL A   1      48.227  29.149  28.810  1.00  0.00    -0.203 F 
ATOM     97  C   UNL A   1      47.273  30.628  27.269  1.00  0.00     0.198 A 
ATOM     98  C   UNL A   1      44.919  31.066  27.317  1.00  0.00     0.198 A 
ATOM     99  F   UNL A   1      43.572  30.114  28.993  1.00  0.00    -0.203 F 
ATOM    100  F   UNL A   1      48.473  30.789  26.691  1.00  0.00    -0.200 F 
ATOM    101  C   UNL A   1      46.160  31.250  26.730  1.00  0.00     0.200 A 
ATOM    102  F   UNL A   1      43.831  31.626  26.771  1.00  0.00    -0.200 F 
ATOM    103  F   UNL A   1      46.279  32.008  25.631  1.00  0.00    -0.200 F 
ENDBRANCH  70  93
ENDBRANCH  44  45
ENDBRANCH  37  39
ENDBRANCH  36  37
ENDBRANCH  35  36
ENDBRANCH  34  35
ENDBRANCH  33  34
ENDBRANCH  32  33
ENDBRANCH  31  32
ENDBRANCH  30  31
ENDBRANCH   1  30
TORSDOF 25
ENDMDL
MODEL 2
REMARK VINA RESULT:     -10.2      4.051      9.861
REMARK SMILES CCn1cc(C)c(C(=O)OCCOCCOCCOCCOC(=O)c2ccc(-c3c4nc(c(-c5c(F)c(F)c(F)c(F)c5F)c5ccc([nH]5)c(-c5c(F)c(F)c(F)c(F)c5F)c5nc(c(-c6c(F)c(F)c(F)c(F)c6F)c6ccc3[nH]6)C=C5)C=C4)cc2)c1CC(=O)NCc1cccc(C)c1
REMARK SMILES IDX 15 1 14 2 13 3 12 4 11 5 10 6 8 7 9 8 7 9 3 10 4 11 88 12
REMARK SMILES IDX 5 13 6 14 2 15 1 16 89 17 90 18 91 19 92 20 93 22 94 23
REMARK SMILES IDX 95 24 100 25 96 26 98 27 97 28 99 29 16 30 17 31 18 32 19 33
REMARK SMILES IDX 20 34 21 35 22 36 23 37 24 38 25 39 26 40 87 41 27 42 86 43
REMARK SMILES IDX 28 44 29 45 30 46 80 47 31 48 85 49 79 50 81 51 32 52 84 53
REMARK SMILES IDX 78 54 77 55 33 57 65 58 45 59 64 60 46 61 49 62 63 63 82 64
REMARK SMILES IDX 47 65 48 66 62 68 83 69 50 70 34 71 35 72 43 73 36 74 37 75
REMARK SMILES IDX 41 76 44 77 38 78 39 79 42 80 40 81 66 82 67 83 75 84 68 85
REMARK SMILES IDX 69 86 73 87 76 88 70 89 71 90 74 91 72 92 51 93 52 94 60 95
REMARK SMILES IDX 53 96 54 97 58 98 61 99 55 100 56 101 59 102 57 103
REMARK H PARENT 92 21 81 56 49 67
REMARK Flexibility Score: inf
ROOT
ATOM      1  C   UNL A   1      40.434  19.502  26.213  1.00  0.00     0.188 C 
ENDROOT
BRANCH   1   2
ATOM      2  C   UNL A   1      39.297  20.429  25.757  1.00  0.00     0.188 C 
BRANCH   2   3
ATOM      3  O   UNL A   1      39.566  21.776  26.092  1.00  0.00    -0.376 OA
BRANCH   3   4
ATOM      4  C   UNL A   1      38.543  22.746  26.120  1.00  0.00     0.202 C 
BRANCH   4   5
ATOM      5  C   UNL A   1      37.279  22.629  25.245  1.00  0.00     0.261 C 
BRANCH   5   6
ATOM      6  O   UNL A   1      36.566  23.826  24.922  1.00  0.00    -0.460 OA
BRANCH   6   7
ATOM      7  C   UNL A   1      35.327  23.977  25.442  1.00  0.00     0.340 C 
ATOM      8  O   UNL A   1      34.840  25.073  25.723  1.00  0.00    -0.246 OA
BRANCH   7   9
ATOM      9  C   UNL A   1      34.564  22.719  25.513  1.00  0.00     0.084 A 
ATOM     10  N   UNL A   1      33.736  20.705  25.039  1.00  0.00    -0.350 N 
ATOM     11  C   UNL A   1      33.564  20.884  26.382  1.00  0.00     0.090 A 
ATOM     12  C   UNL A   1      34.062  21.928  24.466  1.00  0.00     0.042 A 
ATOM     13  C   UNL A   1      34.079  22.114  26.725  1.00  0.00    -0.019 A 
ATOM     14  C   UNL A   1      34.072  22.698  28.095  1.00  0.00     0.047 C 
BRANCH  10  15
ATOM     15  C   UNL A   1      33.702  19.425  24.344  1.00  0.00     0.118 C 
ATOM     16  C   UNL A   1      32.423  18.611  24.475  1.00  0.00     0.027 C 
ENDBRANCH  10  15
BRANCH  12  17
ATOM     17  C   UNL A   1      33.961  22.173  22.981  1.00  0.00     0.154 C 
BRANCH  17  18
ATOM     18  C   UNL A   1      32.521  22.342  22.493  1.00  0.00     0.226 C 
ATOM     19  O   UNL A   1      31.839  21.350  22.207  1.00  0.00    -0.275 OA
ATOM     20  N   UNL A   1      31.901  23.553  22.409  1.00  0.00    -0.352 N 
ATOM     21  H   UNL A   1      31.024  23.523  21.964  1.00  0.00     0.163 HD
BRANCH  20  22
ATOM     22  C   UNL A   1      32.293  24.878  22.850  1.00  0.00     0.151 C 
BRANCH  22  23
ATOM     23  C   UNL A   1      31.151  25.846  23.061  1.00  0.00    -0.029 A 
ATOM     24  C   UNL A   1      30.031  25.519  23.834  1.00  0.00     0.005 A 
ATOM     25  C   UNL A   1      31.230  27.150  22.544  1.00  0.00     0.009 A 
ATOM     26  C   UNL A   1      28.976  26.421  23.992  1.00  0.00     0.001 A 
ATOM     27  C   UNL A   1      30.183  28.072  22.712  1.00  0.00    -0.051 A 
ATOM     28  C   UNL A   1      29.044  27.687  23.421  1.00  0.00     0.003 A 
ATOM     29  C   UNL A   1      30.259  29.457  22.137  1.00  0.00     0.044 C 
ENDBRANCH  22  23
ENDBRANCH  20  22
ENDBRANCH  17  18
ENDBRANCH  12  17
ENDBRANCH   7   9
ENDBRANCH   6   7
ENDBRANCH   5   6
ENDBRANCH   4   5
ENDBRANCH   3   4
ENDBRANCH   2   3
ENDBRANCH   1   2
BRANCH   1  30
ATOM     30  O   UNL A   1      41.575  19.390  25.361  1.00  0.00    -0.377 OA
BRANCH  30  31
ATOM     31  C   UNL A   1      42.593  18.527  25.840  1.00  0.00     0.188 C 
BRANCH  31  32
ATOM     32  C   UNL A   1      43.999  18.838  25.279  1.00  0.00     0.188 C 
BRANCH  32  33
ATOM     33  O   UNL A   1      44.443  20.170  25.013  1.00  0.00    -0.376 OA
BRANCH  33  34
ATOM     34  C   UNL A   1      43.945  21.303  25.712  1.00  0.00     0.202 C 
BRANCH  34  35
ATOM     35  C   UNL A   1      43.933  22.649  25.013  1.00  0.00     0.261 C 
BRANCH  35  36
ATOM     36  O   UNL A   1      44.442  23.683  25.835  1.00  0.00    -0.460 OA
BRANCH  36  37
ATOM     37  C   UNL A   1      44.161  24.921  25.394  1.00  0.00     0.338 C 
ATOM     38  O   UNL A   1      44.781  25.578  24.563  1.00  0.00    -0.246 OA
BRANCH  37  39
ATOM     39  C   UNL A   1      43.086  25.477  26.215  1.00  0.00     0.060 A 
ATOM     40  C   UNL A   1      42.274  26.398  25.557  1.00  0.00     0.016 A 
ATOM     41  C   UNL A   1      43.193  25.427  27.614  1.00  0.00     0.016 A 
ATOM     42  C   UNL A   1      41.849  27.482  26.275  1.00  0.00     0.010 A 
ATOM     43  C   UNL A   1      42.772  26.516  28.331  1.00  0.00     0.010 A 
ATOM     44  C   UNL A   1      42.211  27.574  27.626  1.00  0.00    -0.014 A 
BRANCH  44  45
ATOM     45  C   UNL A   1      41.889  28.804  28.301  1.00  0.00     0.031 A 
ATOM     46  C   UNL A   1      42.948  29.813  28.135  1.00  0.00     0.074 A 
ATOM     47  C   UNL A   1      40.746  28.995  28.979  1.00  0.00     0.049 A 
ATOM     48  N   UNL A   1      43.768  30.231  29.037  1.00  0.00    -0.248 NA
ATOM     49  C   UNL A   1      43.263  30.248  26.767  1.00  0.00     0.031 C 
ATOM     50  C   UNL A   1      39.541  28.166  29.017  1.00  0.00     0.029 A 
ATOM     51  N   UNL A   1      40.409  30.064  29.744  1.00  0.00    -0.354 N 
ATOM     52  C   UNL A   1      44.602  31.127  28.385  1.00  0.00     0.074 A 
ATOM     53  C   UNL A   1      44.371  30.957  26.974  1.00  0.00     0.031 C 
ATOM     54  C   UNL A   1      38.535  28.877  29.582  1.00  0.00     0.029 A 
ATOM     55  C   UNL A   1      39.062  30.149  30.052  1.00  0.00     0.049 A 
ATOM     56  H   UNL A   1      41.069  30.726  30.053  1.00  0.00     0.167 HD
ATOM     57  C   UNL A   1      45.223  32.118  29.075  1.00  0.00     0.037 A 
ATOM     58  C   UNL A   1      38.445  31.235  30.582  1.00  0.00     0.037 A 
ATOM     59  C   UNL A   1      45.271  31.826  30.485  1.00  0.00     0.049 A 
ATOM     60  C   UNL A   1      39.497  32.082  31.209  1.00  0.00     0.074 A 
ATOM     61  C   UNL A   1      45.836  30.817  31.242  1.00  0.00     0.029 A 
ATOM     62  N   UNL A   1      44.343  32.429  31.300  1.00  0.00    -0.354 N 
ATOM     63  N   UNL A   1      40.140  31.747  32.293  1.00  0.00    -0.248 NA
ATOM     64  C   UNL A   1      40.164  33.074  30.374  1.00  0.00     0.031 C 
ATOM     65  C   UNL A   1      44.900  30.567  32.289  1.00  0.00     0.029 A 
ATOM     66  C   UNL A   1      43.848  31.469  32.145  1.00  0.00     0.049 A 
ATOM     67  H   UNL A   1      44.082  33.378  31.281  1.00  0.00     0.167 HD
ATOM     68  C   UNL A   1      41.452  32.134  32.061  1.00  0.00     0.074 A 
ATOM     69  C   UNL A   1      41.389  33.025  30.906  1.00  0.00     0.031 C 
ATOM     70  C   UNL A   1      42.492  31.464  32.639  1.00  0.00     0.037 A 
BRANCH  57  71
ATOM     71  C   UNL A   1      45.421  33.500  28.518  1.00  0.00     0.064 A 
ATOM     72  C   UNL A   1      44.300  34.214  28.056  1.00  0.00     0.173 A 
ATOM     73  C   UNL A   1      46.679  34.026  28.147  1.00  0.00     0.173 A 
ATOM     74  F   UNL A   1      43.059  33.788  28.332  1.00  0.00    -0.203 F 
ATOM     75  C   UNL A   1      44.433  35.324  27.220  1.00  0.00     0.198 A 
ATOM     76  C   UNL A   1      46.807  35.166  27.362  1.00  0.00     0.198 A 
ATOM     77  F   UNL A   1      47.829  33.399  28.420  1.00  0.00    -0.203 F 
ATOM     78  F   UNL A   1      43.340  35.894  26.695  1.00  0.00    -0.200 F 
ATOM     79  C   UNL A   1      45.686  35.796  26.869  1.00  0.00     0.200 A 
ATOM     80  F   UNL A   1      48.030  35.593  27.019  1.00  0.00    -0.200 F 
ATOM     81  F   UNL A   1      45.814  36.820  26.017  1.00  0.00    -0.200 F 
ENDBRANCH  57  71
BRANCH  58  82
ATOM     82  C   UNL A   1      37.074  31.736  30.325  1.00  0.00     0.064 A 
ATOM     83  C   UNL A   1      36.129  31.818  31.361  1.00  0.00     0.173 A 
ATOM     84  C   UNL A   1      36.750  32.405  29.129  1.00  0.00     0.173 A 
ATOM     85  F   UNL A   1      36.378  31.247  32.549  1.00  0.00    -0.203 F 
ATOM     86  C   UNL A   1      34.944  32.548  31.218  1.00  0.00     0.198 A 
ATOM     87  C   UNL A   1      35.565  33.126  28.985  1.00  0.00     0.198 A 
ATOM     88  F   UNL A   1      37.619  32.456  28.110  1.00  0.00    -0.203 F 
ATOM     89  F   UNL A   1      34.097  32.658  32.251  1.00  0.00    -0.200 F 
ATOM     90  C   UNL A   1      34.669  33.211  30.033  1.00  0.00     0.200 A 
ATOM     91  F   UNL A   1      35.329  33.794  27.846  1.00  0.00    -0.200 F 
ATOM     92  F   UNL A   1      33.567  33.963  29.917  1.00  0.00    -0.200 F 
ENDBRANCH  58  82
BRANCH  70  93
ATOM     93  C   UNL A   1      42.158  30.473  33.719  1.00  0.00     0.064 A 
ATOM     94  C   UNL A   1      41.776  29.142  33.471  1.00  0.00     0.173 A 
ATOM     95  C   UNL A   1      42.350  30.849  35.053  1.00  0.00     0.173 A 
ATOM     96  F   UNL A   1      41.676  28.675  32.221  1.00  0.00    -0.203 F 
ATOM     97  C   UNL A   1      41.538  28.252  34.517  1.00  0.00     0.198 A 
ATOM     98  C   UNL A   1      42.151  29.947  36.094  1.00  0.00     0.198 A 
ATOM     99  F   UNL A   1      42.773  32.089  35.348  1.00  0.00    -0.203 F 
ATOM    100  F   UNL A   1      41.149  26.995  34.255  1.00  0.00    -0.200 F 
ATOM    101  C   UNL A   1      41.731  28.654  35.828  1.00  0.00     0.200 A 
ATOM    102  F   UNL A   1      42.387  30.326  37.358  1.00  0.00    -0.200 F 
ATOM    103  F   UNL A   1      41.536  27.789  36.833  1.00  0.00    -0.200 F 
ENDBRANCH  70  93
ENDBRANCH  44  45
ENDBRANCH  37  39
ENDBRANCH  36  37
ENDBRANCH  35  36
ENDBRANCH  34  35
ENDBRANCH  33  34
ENDBRANCH  32  33
ENDBRANCH  31  32
ENDBRANCH  30  31
ENDBRANCH   1  30
TORSDOF 25
ENDMDL
MODEL 3
REMARK VINA RESULT:      -9.9      1.355      2.282
REMARK SMILES CCn1cc(C)c(C(=O)OCCOCCOCCOCCOC(=O)c2ccc(-c3c4nc(c(-c5c(F)c(F)c(F)c(F)c5F)c5ccc([nH]5)c(-c5c(F)c(F)c(F)c(F)c5F)c5nc(c(-c6c(F)c(F)c(F)c(F)c6F)c6ccc3[nH]6)C=C5)C=C4)cc2)c1CC(=O)NCc1cccc(C)c1
REMARK SMILES IDX 15 1 14 2 13 3 12 4 11 5 10 6 8 7 9 8 7 9 3 10 4 11 88 12
REMARK SMILES IDX 5 13 6 14 2 15 1 16 89 17 90 18 91 19 92 20 93 22 94 23
REMARK SMILES IDX 95 24 100 25 96 26 98 27 97 28 99 29 16 30 17 31 18 32 19 33
REMARK SMILES IDX 20 34 21 35 22 36 23 37 24 38 25 39 26 40 87 41 27 42 86 43
REMARK SMILES IDX 28 44 29 45 30 46 80 47 31 48 85 49 79 50 81 51 32 52 84 53
REMARK SMILES IDX 78 54 77 55 33 57 65 58 45 59 64 60 46 61 49 62 63 63 82 64
REMARK SMILES IDX 47 65 48 66 62 68 83 69 50 70 34 71 35 72 43 73 36 74 37 75
REMARK SMILES IDX 41 76 44 77 38 78 39 79 42 80 40 81 66 82 67 83 75 84 68 85
REMARK SMILES IDX 69 86 73 87 76 88 70 89 71 90 74 91 72 92 51 93 52 94 60 95
REMARK SMILES IDX 53 96 54 97 58 98 61 99 55 100 56 101 59 102 57 103
REMARK H PARENT 92 21 81 56 49 67
REMARK Flexibility Score: inf
ROOT
ATOM      1  C   UNL A   1      35.825  33.106  28.888  1.00  0.00     0.188 C 
ENDROOT
BRANCH   1   2
ATOM      2  C   UNL A   1      36.251  31.751  28.303  1.00  0.00     0.188 C 
BRANCH   2   3
ATOM      3  O   UNL A   1      35.212  30.798  28.409  1.00  0.00    -0.376 OA
BRANCH   3   4
ATOM      4  C   UNL A   1      34.661  30.181  27.266  1.00  0.00     0.202 C 
BRANCH   4   5
ATOM      5  C   UNL A   1      33.164  30.295  26.915  1.00  0.00     0.261 C 
BRANCH   5   6
ATOM      6  O   UNL A   1      32.776  30.133  25.548  1.00  0.00    -0.460 OA
BRANCH   6   7
ATOM      7  C   UNL A   1      31.454  30.180  25.263  1.00  0.00     0.340 C 
ATOM      8  O   UNL A   1      30.753  31.171  25.465  1.00  0.00    -0.246 OA
BRANCH   7   9
ATOM      9  C   UNL A   1      30.964  28.980  24.563  1.00  0.00     0.084 A 
ATOM     10  N   UNL A   1      30.394  26.879  24.090  1.00  0.00    -0.350 N 
ATOM     11  C   UNL A   1      29.698  27.669  23.221  1.00  0.00     0.090 A 
ATOM     12  C   UNL A   1      31.382  27.645  24.694  1.00  0.00     0.042 A 
ATOM     13  C   UNL A   1      30.007  28.984  23.488  1.00  0.00    -0.019 A 
ATOM     14  C   UNL A   1      29.471  30.161  22.750  1.00  0.00     0.047 C 
BRANCH  10  15
ATOM     15  C   UNL A   1      30.075  25.495  24.417  1.00  0.00     0.118 C 
ATOM     16  C   UNL A   1      29.917  25.162  25.893  1.00  0.00     0.027 C 
ENDBRANCH  10  15
BRANCH  12  17
ATOM     17  C   UNL A   1      32.551  27.025  25.419  1.00  0.00     0.154 C 
BRANCH  17  18
ATOM     18  C   UNL A   1      33.735  26.716  24.500  1.00  0.00     0.226 C 
ATOM     19  O   UNL A   1      34.237  27.610  23.808  1.00  0.00    -0.275 OA
ATOM     20  N   UNL A   1      34.328  25.491  24.438  1.00  0.00    -0.352 N 
ATOM     21  H   UNL A   1      34.994  25.405  23.718  1.00  0.00     0.163 HD
BRANCH  20  22
ATOM     22  C   UNL A   1      34.163  24.290  25.234  1.00  0.00     0.151 C 
BRANCH  22  23
ATOM     23  C   UNL A   1      33.517  23.128  24.513  1.00  0.00    -0.029 A 
ATOM     24  C   UNL A   1      33.008  23.247  23.215  1.00  0.00     0.005 A 
ATOM     25  C   UNL A   1      33.488  21.857  25.113  1.00  0.00     0.009 A 
ATOM     26  C   UNL A   1      32.391  22.166  22.581  1.00  0.00     0.001 A 
ATOM     27  C   UNL A   1      32.886  20.758  24.477  1.00  0.00    -0.051 A 
ATOM     28  C   UNL A   1      32.316  20.931  23.214  1.00  0.00     0.003 A 
ATOM     29  C   UNL A   1      32.834  19.408  25.130  1.00  0.00     0.044 C 
ENDBRANCH  22  23
ENDBRANCH  20  22
ENDBRANCH  17  18
ENDBRANCH  12  17
ENDBRANCH   7   9
ENDBRANCH   6   7
ENDBRANCH   5   6
ENDBRANCH   4   5
ENDBRANCH   3   4
ENDBRANCH   2   3
ENDBRANCH   1   2
BRANCH   1  30
ATOM     30  O   UNL A   1      34.725  33.115  29.801  1.00  0.00    -0.377 OA
BRANCH  30  31
ATOM     31  C   UNL A   1      34.097  34.375  29.963  1.00  0.00     0.188 C 
BRANCH  31  32
ATOM     32  C   UNL A   1      34.078  34.886  31.422  1.00  0.00     0.188 C 
BRANCH  32  33
ATOM     33  O   UNL A   1      33.467  34.152  32.485  1.00  0.00    -0.376 OA
BRANCH  33  34
ATOM     34  C   UNL A   1      34.155  33.155  33.229  1.00  0.00     0.202 C 
BRANCH  34  35
ATOM     35  C   UNL A   1      35.656  33.284  33.414  1.00  0.00     0.261 C 
BRANCH  35  36
ATOM     36  O   UNL A   1      36.375  32.368  32.610  1.00  0.00    -0.460 OA
BRANCH  36  37
ATOM     37  C   UNL A   1      37.677  32.669  32.467  1.00  0.00     0.338 C 
ATOM     38  O   UNL A   1      38.280  33.624  32.947  1.00  0.00    -0.246 OA
BRANCH  37  39
ATOM     39  C   UNL A   1      38.256  31.777  31.463  1.00  0.00     0.060 A 
ATOM     40  C   UNL A   1      37.790  30.465  31.519  1.00  0.00     0.016 A 
ATOM     41  C   UNL A   1      39.476  32.122  30.860  1.00  0.00     0.016 A 
ATOM     42  C   UNL A   1      38.698  29.469  31.287  1.00  0.00     0.010 A 
ATOM     43  C   UNL A   1      40.386  31.123  30.632  1.00  0.00     0.010 A 
ATOM     44  C   UNL A   1      40.013  29.825  30.961  1.00  0.00    -0.014 A 
BRANCH  44  45
ATOM     45  C   UNL A   1      40.975  28.755  30.888  1.00  0.00     0.031 A 
ATOM     46  C   UNL A   1      41.509  28.408  32.216  1.00  0.00     0.074 A 
ATOM     47  C   UNL A   1      41.316  28.148  29.741  1.00  0.00     0.049 A 
ATOM     48  N   UNL A   1      42.696  28.642  32.658  1.00  0.00    -0.248 NA
ATOM     49  C   UNL A   1      40.555  27.939  33.230  1.00  0.00     0.031 C 
ATOM     50  C   UNL A   1      40.694  28.246  28.420  1.00  0.00     0.029 A 
ATOM     51  N   UNL A   1      42.292  27.224  29.554  1.00  0.00    -0.354 N 
ATOM     52  C   UNL A   1      42.695  28.183  33.967  1.00  0.00     0.074 A 
ATOM     53  C   UNL A   1      41.321  27.940  34.319  1.00  0.00     0.031 C 
ATOM     54  C   UNL A   1      41.168  27.248  27.635  1.00  0.00     0.029 A 
ATOM     55  C   UNL A   1      42.208  26.532  28.357  1.00  0.00     0.049 A 
ATOM     56  H   UNL A   1      43.001  27.058  30.216  1.00  0.00     0.167 HD
ATOM     57  C   UNL A   1      43.852  27.794  34.562  1.00  0.00     0.037 A 
ATOM     58  C   UNL A   1      42.903  25.408  28.050  1.00  0.00     0.037 A 
ATOM     59  C   UNL A   1      45.001  28.334  33.881  1.00  0.00     0.049 A 
ATOM     60  C   UNL A   1      44.074  25.345  28.968  1.00  0.00     0.074 A 
ATOM     61  C   UNL A   1      45.456  29.613  33.622  1.00  0.00     0.029 A 
ATOM     62  N   UNL A   1      45.678  27.515  33.010  1.00  0.00    -0.354 N 
ATOM     63  N   UNL A   1      45.091  26.159  28.894  1.00  0.00    -0.248 NA
ATOM     64  C   UNL A   1      43.900  24.687  30.257  1.00  0.00     0.031 C 
ATOM     65  C   UNL A   1      46.017  29.553  32.312  1.00  0.00     0.029 A 
ATOM     66  C   UNL A   1      45.923  28.235  31.869  1.00  0.00     0.049 A 
ATOM     67  H   UNL A   1      45.940  26.580  33.176  1.00  0.00     0.167 HD
ATOM     68  C   UNL A   1      45.408  26.451  30.213  1.00  0.00     0.074 A 
ATOM     69  C   UNL A   1      44.703  25.447  31.006  1.00  0.00     0.031 C 
ATOM     70  C   UNL A   1      45.967  27.649  30.551  1.00  0.00     0.037 A 
BRANCH  57  71
ATOM     71  C   UNL A   1      43.933  26.623  35.501  1.00  0.00     0.064 A 
ATOM     72  C   UNL A   1      44.485  26.815  36.781  1.00  0.00     0.173 A 
ATOM     73  C   UNL A   1      43.772  25.279  35.098  1.00  0.00     0.173 A 
ATOM     74  F   UNL A   1      44.701  28.051  37.252  1.00  0.00    -0.203 F 
ATOM     75  C   UNL A   1      44.914  25.740  37.561  1.00  0.00     0.198 A 
ATOM     76  C   UNL A   1      44.148  24.209  35.903  1.00  0.00     0.198 A 
ATOM     77  F   UNL A   1      43.361  24.941  33.869  1.00  0.00    -0.203 F 
ATOM     78  F   UNL A   1      45.555  25.972  38.714  1.00  0.00    -0.200 F 
ATOM     79  C   UNL A   1      44.751  24.438  37.119  1.00  0.00     0.200 A 
ATOM     80  F   UNL A   1      43.998  22.958  35.445  1.00  0.00    -0.200 F 
ATOM     81  F   UNL A   1      45.220  23.411  37.837  1.00  0.00    -0.200 F 
ENDBRANCH  57  71
BRANCH  58  82
ATOM     82  C   UNL A   1      42.469  24.247  27.240  1.00  0.00     0.064 A 
ATOM     83  C   UNL A   1      43.362  23.596  26.373  1.00  0.00     0.173 A 
ATOM     84  C   UNL A   1      41.258  23.578  27.506  1.00  0.00     0.173 A 
ATOM     85  F   UNL A   1      44.557  24.142  26.101  1.00  0.00    -0.203 F 
ATOM     86  C   UNL A   1      43.073  22.340  25.828  1.00  0.00     0.198 A 
ATOM     87  C   UNL A   1      40.968  22.330  26.956  1.00  0.00     0.198 A 
ATOM     88  F   UNL A   1      40.374  24.075  28.383  1.00  0.00    -0.203 F 
ATOM     89  F   UNL A   1      43.979  21.721  25.057  1.00  0.00    -0.200 F 
ATOM     90  C   UNL A   1      41.881  21.704  26.129  1.00  0.00     0.200 A 
ATOM     91  F   UNL A   1      39.827  21.708  27.286  1.00  0.00    -0.200 F 
ATOM     92  F   UNL A   1      41.631  20.474  25.659  1.00  0.00    -0.200 F 
ENDBRANCH  58  82
BRANCH  70  93
ATOM     93  C   UNL A   1      46.455  28.523  29.428  1.00  0.00     0.064 A 
ATOM     94  C   UNL A   1      45.636  29.423  28.722  1.00  0.00     0.173 A 
ATOM     95  C   UNL A   1      47.824  28.535  29.138  1.00  0.00     0.173 A 
ATOM     96  F   UNL A   1      44.336  29.548  29.016  1.00  0.00    -0.203 F 
ATOM     97  C   UNL A   1      46.160  30.251  27.731  1.00  0.00     0.198 A 
ATOM     98  C   UNL A   1      48.351  29.392  28.176  1.00  0.00     0.198 A 
ATOM     99  F   UNL A   1      48.663  27.741  29.821  1.00  0.00    -0.203 F 
ATOM    100  F   UNL A   1      45.353  31.083  27.054  1.00  0.00    -0.200 F 
ATOM    101  C   UNL A   1      47.518  30.238  27.463  1.00  0.00     0.200 A 
ATOM    102  F   UNL A   1      49.672  29.412  27.955  1.00  0.00    -0.200 F 
ATOM    103  F   UNL A   1      48.028  31.059  26.533  1.00  0.00    -0.200 F 
ENDBRANCH  70  93
ENDBRANCH  44  45
ENDBRANCH  37  39
ENDBRANCH  36  37
ENDBRANCH  35  36
ENDBRANCH  34  35
ENDBRANCH  33  34
ENDBRANCH  32  33
ENDBRANCH  31  32
ENDBRANCH  30  31
ENDBRANCH   1  30
TORSDOF 25
ENDMDL
