MODEL 1
REMARK VINA RESULT:     -10.0      0.000      0.000
REMARK SMILES CN(CC(C)(C)O)C(=O)N1CCCC[C@H]1CC(=O)OCCOCCOCCOCCOC(=O)c1ccc(-c2c3nc(c(-c4c(F)c(F)c(F)c(F)c4F)c4ccc([nH]4)c(-c4c(F)c(F)c(F)c(F)c4F)c4nc(c(-c5c(F)c(F)c(F)c(F)c5F)c5ccc2[nH]5)C=C4)C=C3)cc1
REMARK SMILES IDX 23 1 22 2 21 3 20 4 19 5 17 6 18 7 16 8 15 9 10 10 11 11
REMARK SMILES IDX 12 12 14 13 13 14 8 15 9 16 2 17 1 18 3 19 4 20 5 21 6 22
REMARK SMILES IDX 7 23 24 25 25 26 26 27 27 28 28 29 29 30 30 31 31 32 32 33
REMARK SMILES IDX 33 34 34 35 35 36 96 37 36 38 95 39 37 40 38 41 39 42 89 43
REMARK SMILES IDX 40 44 94 45 88 46 90 47 41 48 93 49 87 50 86 51 42 53 74 54
REMARK SMILES IDX 54 55 73 56 55 57 58 58 72 59 91 60 56 61 57 62 71 64 92 65
REMARK SMILES IDX 59 66 43 67 44 68 52 69 45 70 46 71 50 72 53 73 47 74 48 75
REMARK SMILES IDX 51 76 49 77 75 78 76 79 84 80 77 81 78 82 82 83 85 84 79 85
REMARK SMILES IDX 80 86 83 87 81 88 60 89 61 90 69 91 62 92 63 93 67 94 70 95
REMARK SMILES IDX 64 96 65 97 68 98 66 99
REMARK H PARENT 7 24 90 52 58 63
REMARK Flexibility Score: inf
ROOT
ATOM      1  C   UNL A   1      33.278  30.308  26.563  1.00  0.00     0.188 C 
ENDROOT
BRANCH   1   2
ATOM      2  O   UNL A   1      32.336  29.432  27.171  1.00  0.00    -0.376 OA
BRANCH   2   3
ATOM      3  C   UNL A   1      32.585  28.028  27.050  1.00  0.00     0.202 C 
BRANCH   3   4
ATOM      4  C   UNL A   1      33.356  27.544  25.801  1.00  0.00     0.261 C 
BRANCH   4   5
ATOM      5  O   UNL A   1      33.467  26.102  25.686  1.00  0.00    -0.463 OA
BRANCH   5   6
ATOM      6  C   UNL A   1      32.358  25.367  25.935  1.00  0.00     0.307 C 
ATOM      7  O   UNL A   1      31.288  25.532  25.356  1.00  0.00    -0.252 OA
BRANCH   6   8
ATOM      8  C   UNL A   1      32.599  24.140  26.801  1.00  0.00     0.147 C 
BRANCH   8   9
ATOM      9  C   UNL A   1      33.134  22.760  26.351  1.00  0.00     0.098 C 
ATOM     10  N   UNL A   1      32.857  22.263  24.994  1.00  0.00    -0.321 N 
ATOM     11  C   UNL A   1      33.782  22.764  23.953  1.00  0.00     0.121 C 
ATOM     12  C   UNL A   1      35.262  22.651  24.324  1.00  0.00     0.022 C 
ATOM     13  C   UNL A   1      34.618  22.552  26.714  1.00  0.00     0.026 C 
ATOM     14  C   UNL A   1      35.543  23.215  25.709  1.00  0.00     0.004 C 
BRANCH  10  15
ATOM     15  C   UNL A   1      32.167  21.091  24.675  1.00  0.00     0.320 C 
ATOM     16  O   UNL A   1      31.326  20.655  25.473  1.00  0.00    -0.248 OA
BRANCH  15  17
ATOM     17  N   UNL A   1      32.434  20.358  23.515  1.00  0.00    -0.325 N 
ATOM     18  C   UNL A   1      32.037  21.017  22.264  1.00  0.00     0.148 C 
BRANCH  17  19
ATOM     19  C   UNL A   1      32.617  18.898  23.384  1.00  0.00     0.155 C 
BRANCH  19  20
ATOM     20  C   UNL A   1      33.574  18.194  24.392  1.00  0.00     0.077 C 
ATOM     21  C   UNL A   1      32.837  17.580  25.579  1.00  0.00     0.043 C 
ATOM     22  C   UNL A   1      34.362  17.102  23.654  1.00  0.00     0.043 C 
BRANCH  20  23
ATOM     23  O   UNL A   1      34.565  19.102  24.886  1.00  0.00    -0.389 OA
ATOM     24  H   UNL A   1      34.521  19.932  24.386  1.00  0.00     0.211 HD
ENDBRANCH  20  23
ENDBRANCH  19  20
ENDBRANCH  17  19
ENDBRANCH  15  17
ENDBRANCH  10  15
ENDBRANCH   8   9
ENDBRANCH   6   8
ENDBRANCH   5   6
ENDBRANCH   4   5
ENDBRANCH   3   4
ENDBRANCH   2   3
ENDBRANCH   1   2
BRANCH   1  25
ATOM     25  C   UNL A   1      34.393  30.863  27.459  1.00  0.00     0.188 C 
BRANCH  25  26
ATOM     26  O   UNL A   1      33.933  31.807  28.410  1.00  0.00    -0.377 OA
BRANCH  26  27
ATOM     27  C   UNL A   1      33.640  33.121  27.956  1.00  0.00     0.188 C 
BRANCH  27  28
ATOM     28  C   UNL A   1      34.724  34.150  28.289  1.00  0.00     0.188 C 
BRANCH  28  29
ATOM     29  O   UNL A   1      34.470  35.075  29.352  1.00  0.00    -0.376 OA
BRANCH  29  30
ATOM     30  C   UNL A   1      34.005  34.580  30.605  1.00  0.00     0.202 C 
BRANCH  30  31
ATOM     31  C   UNL A   1      35.085  34.093  31.563  1.00  0.00     0.261 C 
BRANCH  31  32
ATOM     32  O   UNL A   1      35.227  32.675  31.478  1.00  0.00    -0.460 OA
BRANCH  32  33
ATOM     33  C   UNL A   1      35.993  32.112  32.431  1.00  0.00     0.338 C 
ATOM     34  O   UNL A   1      35.851  32.149  33.642  1.00  0.00    -0.246 OA
BRANCH  33  35
ATOM     35  C   UNL A   1      36.969  31.261  31.747  1.00  0.00     0.060 A 
ATOM     36  C   UNL A   1      37.895  30.554  32.523  1.00  0.00     0.016 A 
ATOM     37  C   UNL A   1      36.974  31.186  30.351  1.00  0.00     0.016 A 
ATOM     38  C   UNL A   1      38.873  29.799  31.899  1.00  0.00     0.010 A 
ATOM     39  C   UNL A   1      37.964  30.448  29.724  1.00  0.00     0.010 A 
ATOM     40  C   UNL A   1      38.939  29.801  30.502  1.00  0.00    -0.014 A 
BRANCH  40  41
ATOM     41  C   UNL A   1      40.178  29.362  29.850  1.00  0.00     0.031 A 
ATOM     42  C   UNL A   1      41.272  30.375  29.709  1.00  0.00     0.074 A 
ATOM     43  C   UNL A   1      40.290  28.103  29.408  1.00  0.00     0.049 A 
ATOM     44  N   UNL A   1      42.422  30.279  29.102  1.00  0.00    -0.248 NA
ATOM     45  C   UNL A   1      41.025  31.691  30.327  1.00  0.00     0.031 C 
ATOM     46  C   UNL A   1      39.275  27.062  29.562  1.00  0.00     0.029 A 
ATOM     47  N   UNL A   1      41.306  27.494  28.730  1.00  0.00    -0.354 N 
ATOM     48  C   UNL A   1      43.026  31.521  29.254  1.00  0.00     0.074 A 
ATOM     49  C   UNL A   1      42.105  32.367  29.973  1.00  0.00     0.031 C 
ATOM     50  C   UNL A   1      39.719  25.935  28.980  1.00  0.00     0.029 A 
ATOM     51  C   UNL A   1      41.026  26.197  28.384  1.00  0.00     0.049 A 
ATOM     52  H   UNL A   1      42.156  27.941  28.510  1.00  0.00     0.167 HD
ATOM     53  C   UNL A   1      44.250  31.907  28.828  1.00  0.00     0.037 A 
ATOM     54  C   UNL A   1      41.753  25.342  27.644  1.00  0.00     0.037 A 
ATOM     55  C   UNL A   1      45.129  31.033  28.098  1.00  0.00     0.049 A 
ATOM     56  C   UNL A   1      43.079  25.820  27.111  1.00  0.00     0.074 A 
ATOM     57  C   UNL A   1      46.395  31.285  27.611  1.00  0.00     0.029 A 
ATOM     58  N   UNL A   1      44.807  29.727  27.741  1.00  0.00    -0.354 N 
ATOM     59  N   UNL A   1      43.666  26.984  27.272  1.00  0.00    -0.248 NA
ATOM     60  C   UNL A   1      43.843  24.871  26.295  1.00  0.00     0.031 C 
ATOM     61  C   UNL A   1      46.815  30.153  26.903  1.00  0.00     0.029 A 
ATOM     62  C   UNL A   1      45.842  29.170  27.011  1.00  0.00     0.049 A 
ATOM     63  H   UNL A   1      43.968  29.269  27.972  1.00  0.00     0.167 HD
ATOM     64  C   UNL A   1      44.884  26.895  26.615  1.00  0.00     0.074 A 
ATOM     65  C   UNL A   1      44.950  25.559  26.056  1.00  0.00     0.031 C 
ATOM     66  C   UNL A   1      45.865  27.825  26.486  1.00  0.00     0.037 A 
BRANCH  53  67
ATOM     67  C   UNL A   1      44.663  33.326  29.098  1.00  0.00     0.064 A 
ATOM     68  C   UNL A   1      44.296  34.384  28.251  1.00  0.00     0.173 A 
ATOM     69  C   UNL A   1      45.461  33.632  30.210  1.00  0.00     0.173 A 
ATOM     70  F   UNL A   1      43.550  34.149  27.160  1.00  0.00    -0.203 F 
ATOM     71  C   UNL A   1      44.747  35.682  28.481  1.00  0.00     0.198 A 
ATOM     72  C   UNL A   1      45.881  34.936  30.460  1.00  0.00     0.198 A 
ATOM     73  F   UNL A   1      45.847  32.662  31.054  1.00  0.00    -0.203 F 
ATOM     74  F   UNL A   1      44.443  36.660  27.617  1.00  0.00    -0.200 F 
ATOM     75  C   UNL A   1      45.534  35.958  29.588  1.00  0.00     0.200 A 
ATOM     76  F   UNL A   1      46.633  35.202  31.537  1.00  0.00    -0.200 F 
ATOM     77  F   UNL A   1      45.971  37.205  29.808  1.00  0.00    -0.200 F 
ENDBRANCH  53  67
BRANCH  54  78
ATOM     78  C   UNL A   1      41.253  23.967  27.390  1.00  0.00     0.064 A 
ATOM     79  C   UNL A   1      40.133  23.751  26.576  1.00  0.00     0.173 A 
ATOM     80  C   UNL A   1      41.892  22.841  27.931  1.00  0.00     0.173 A 
ATOM     81  F   UNL A   1      39.482  24.795  26.044  1.00  0.00    -0.203 F 
ATOM     82  C   UNL A   1      39.661  22.464  26.326  1.00  0.00     0.198 A 
ATOM     83  C   UNL A   1      41.437  21.553  27.658  1.00  0.00     0.198 A 
ATOM     84  F   UNL A   1      42.974  22.990  28.710  1.00  0.00    -0.203 F 
ATOM     85  F   UNL A   1      38.566  22.289  25.574  1.00  0.00    -0.200 F 
ATOM     86  C   UNL A   1      40.317  21.366  26.861  1.00  0.00     0.200 A 
ATOM     87  F   UNL A   1      42.084  20.493  28.160  1.00  0.00    -0.200 F 
ATOM     88  F   UNL A   1      39.867  20.127  26.613  1.00  0.00    -0.200 F 
ENDBRANCH  54  78
BRANCH  66  89
ATOM     89  C   UNL A   1      47.109  27.405  25.761  1.00  0.00     0.064 A 
ATOM     90  C   UNL A   1      47.287  27.650  24.392  1.00  0.00     0.173 A 
ATOM     91  C   UNL A   1      48.162  26.804  26.468  1.00  0.00     0.173 A 
ATOM     92  F   UNL A   1      46.303  28.209  23.673  1.00  0.00    -0.203 F 
ATOM     93  C   UNL A   1      48.466  27.284  23.752  1.00  0.00     0.198 A 
ATOM     94  C   UNL A   1      49.354  26.475  25.831  1.00  0.00     0.198 A 
ATOM     95  F   UNL A   1      48.043  26.559  27.782  1.00  0.00    -0.203 F 
ATOM     96  F   UNL A   1      48.597  27.479  22.432  1.00  0.00    -0.200 F 
ATOM     97  C   UNL A   1      49.502  26.708  24.472  1.00  0.00     0.200 A 
ATOM     98  F   UNL A   1      50.360  25.938  26.535  1.00  0.00    -0.200 F 
ATOM     99  F   UNL A   1      50.643  26.371  23.856  1.00  0.00    -0.200 F 
ENDBRANCH  66  89
ENDBRANCH  40  41
ENDBRANCH  33  35
ENDBRANCH  32  33
ENDBRANCH  31  32
ENDBRANCH  30  31
ENDBRANCH  29  30
ENDBRANCH  28  29
ENDBRANCH  27  28
ENDBRANCH  26  27
ENDBRANCH  25  26
ENDBRANCH   1  25
TORSDOF 26
ENDMDL
MODEL 2
REMARK VINA RESULT:      -9.9      3.442      9.116
REMARK SMILES CN(CC(C)(C)O)C(=O)N1CCCC[C@H]1CC(=O)OCCOCCOCCOCCOC(=O)c1ccc(-c2c3nc(c(-c4c(F)c(F)c(F)c(F)c4F)c4ccc([nH]4)c(-c4c(F)c(F)c(F)c(F)c4F)c4nc(c(-c5c(F)c(F)c(F)c(F)c5F)c5ccc2[nH]5)C=C4)C=C3)cc1
REMARK SMILES IDX 23 1 22 2 21 3 20 4 19 5 17 6 18 7 16 8 15 9 10 10 11 11
REMARK SMILES IDX 12 12 14 13 13 14 8 15 9 16 2 17 1 18 3 19 4 20 5 21 6 22
REMARK SMILES IDX 7 23 24 25 25 26 26 27 27 28 28 29 29 30 30 31 31 32 32 33
REMARK SMILES IDX 33 34 34 35 35 36 96 37 36 38 95 39 37 40 38 41 39 42 89 43
REMARK SMILES IDX 40 44 94 45 88 46 90 47 41 48 93 49 87 50 86 51 42 53 74 54
REMARK SMILES IDX 54 55 73 56 55 57 58 58 72 59 91 60 56 61 57 62 71 64 92 65
REMARK SMILES IDX 59 66 43 67 44 68 52 69 45 70 46 71 50 72 53 73 47 74 48 75
REMARK SMILES IDX 51 76 49 77 75 78 76 79 84 80 77 81 78 82 82 83 85 84 79 85
REMARK SMILES IDX 80 86 83 87 81 88 60 89 61 90 69 91 62 92 63 93 67 94 70 95
REMARK SMILES IDX 64 96 65 97 68 98 66 99
REMARK H PARENT 7 24 90 52 58 63
REMARK Flexibility Score: inf
ROOT
ATOM      1  C   UNL A   1      34.045  22.975  27.093  1.00  0.00     0.188 C 
ENDROOT
BRANCH   1   2
ATOM      2  O   UNL A   1      32.713  23.477  27.090  1.00  0.00    -0.376 OA
BRANCH   2   3
ATOM      3  C   UNL A   1      31.737  22.719  26.370  1.00  0.00     0.202 C 
BRANCH   3   4
ATOM      4  C   UNL A   1      30.315  23.313  26.250  1.00  0.00     0.261 C 
BRANCH   4   5
ATOM      5  O   UNL A   1      30.155  24.616  26.868  1.00  0.00    -0.463 OA
BRANCH   5   6
ATOM      6  C   UNL A   1      30.253  25.704  26.068  1.00  0.00     0.307 C 
ATOM      7  O   UNL A   1      29.449  25.970  25.180  1.00  0.00    -0.252 OA
BRANCH   6   8
ATOM      8  C   UNL A   1      31.288  26.723  26.519  1.00  0.00     0.147 C 
BRANCH   8   9
ATOM      9  C   UNL A   1      32.318  27.471  25.640  1.00  0.00     0.098 C 
ATOM     10  N   UNL A   1      31.942  28.715  24.949  1.00  0.00    -0.321 N 
ATOM     11  C   UNL A   1      32.034  29.934  25.783  1.00  0.00     0.121 C 
ATOM     12  C   UNL A   1      33.350  30.070  26.552  1.00  0.00     0.022 C 
ATOM     13  C   UNL A   1      33.687  27.626  26.331  1.00  0.00     0.026 C 
ATOM     14  C   UNL A   1      33.701  28.793  27.302  1.00  0.00     0.004 C 
BRANCH  10  15
ATOM     15  C   UNL A   1      31.961  28.925  23.569  1.00  0.00     0.320 C 
ATOM     16  O   UNL A   1      33.001  29.343  23.040  1.00  0.00    -0.248 OA
BRANCH  15  17
ATOM     17  N   UNL A   1      30.830  28.739  22.768  1.00  0.00    -0.325 N 
ATOM     18  C   UNL A   1      30.597  27.353  22.344  1.00  0.00     0.148 C 
BRANCH  17  19
ATOM     19  C   UNL A   1      30.129  29.740  21.938  1.00  0.00     0.155 C 
BRANCH  19  20
ATOM     20  C   UNL A   1      28.703  30.181  22.385  1.00  0.00     0.077 C 
ATOM     21  C   UNL A   1      27.833  29.009  22.832  1.00  0.00     0.043 C 
ATOM     22  C   UNL A   1      28.829  31.195  23.532  1.00  0.00     0.043 C 
BRANCH  20  23
ATOM     23  O   UNL A   1      28.025  30.882  21.337  1.00  0.00    -0.389 OA
ATOM     24  H   UNL A   1      27.534  31.629  21.713  1.00  0.00     0.211 HD
ENDBRANCH  20  23
ENDBRANCH  19  20
ENDBRANCH  17  19
ENDBRANCH  15  17
ENDBRANCH  10  15
ENDBRANCH   8   9
ENDBRANCH   6   8
ENDBRANCH   5   6
ENDBRANCH   4   5
ENDBRANCH   3   4
ENDBRANCH   2   3
ENDBRANCH   1   2
BRANCH   1  25
ATOM     25  C   UNL A   1      34.216  21.455  26.973  1.00  0.00     0.188 C 
BRANCH  25  26
ATOM     26  O   UNL A   1      35.072  21.068  25.912  1.00  0.00    -0.377 OA
BRANCH  26  27
ATOM     27  C   UNL A   1      35.879  22.069  25.308  1.00  0.00     0.188 C 
BRANCH  27  28
ATOM     28  C   UNL A   1      36.976  21.516  24.394  1.00  0.00     0.188 C 
BRANCH  28  29
ATOM     29  O   UNL A   1      38.068  20.816  25.001  1.00  0.00    -0.376 OA
BRANCH  29  30
ATOM     30  C   UNL A   1      39.011  21.546  25.781  1.00  0.00     0.202 C 
BRANCH  30  31
ATOM     31  C   UNL A   1      39.971  20.705  26.612  1.00  0.00     0.261 C 
BRANCH  31  32
ATOM     32  O   UNL A   1      40.562  19.682  25.811  1.00  0.00    -0.460 OA
BRANCH  32  33
ATOM     33  C   UNL A   1      41.839  19.378  26.110  1.00  0.00     0.338 C 
ATOM     34  O   UNL A   1      42.397  18.294  26.058  1.00  0.00    -0.246 OA
BRANCH  33  35
ATOM     35  C   UNL A   1      42.534  20.645  26.350  1.00  0.00     0.060 A 
ATOM     36  C   UNL A   1      42.642  21.105  27.668  1.00  0.00     0.016 A 
ATOM     37  C   UNL A   1      43.051  21.374  25.276  1.00  0.00     0.016 A 
ATOM     38  C   UNL A   1      43.231  22.333  27.916  1.00  0.00     0.010 A 
ATOM     39  C   UNL A   1      43.621  22.613  25.518  1.00  0.00     0.010 A 
ATOM     40  C   UNL A   1      43.660  23.107  26.833  1.00  0.00    -0.014 A 
BRANCH  40  41
ATOM     41  C   UNL A   1      43.896  24.541  27.036  1.00  0.00     0.031 A 
ATOM     42  C   UNL A   1      45.287  25.044  26.798  1.00  0.00     0.074 A 
ATOM     43  C   UNL A   1      42.890  25.335  27.422  1.00  0.00     0.049 A 
ATOM     44  N   UNL A   1      45.785  26.235  26.986  1.00  0.00    -0.248 NA
ATOM     45  C   UNL A   1      46.259  24.058  26.291  1.00  0.00     0.031 C 
ATOM     46  C   UNL A   1      41.507  24.908  27.621  1.00  0.00     0.029 A 
ATOM     47  N   UNL A   1      42.885  26.667  27.725  1.00  0.00    -0.354 N 
ATOM     48  C   UNL A   1      47.125  26.136  26.635  1.00  0.00     0.074 A 
ATOM     49  C   UNL A   1      47.376  24.765  26.260  1.00  0.00     0.031 C 
ATOM     50  C   UNL A   1      40.782  25.963  28.028  1.00  0.00     0.029 A 
ATOM     51  C   UNL A   1      41.663  27.121  28.152  1.00  0.00     0.049 A 
ATOM     52  H   UNL A   1      43.679  27.244  27.647  1.00  0.00     0.167 HD
ATOM     53  C   UNL A   1      48.056  27.117  26.626  1.00  0.00     0.037 A 
ATOM     54  C   UNL A   1      41.325  28.337  28.611  1.00  0.00     0.037 A 
ATOM     55  C   UNL A   1      47.764  28.467  27.025  1.00  0.00     0.049 A 
ATOM     56  C   UNL A   1      42.399  29.394  28.668  1.00  0.00     0.074 A 
ATOM     57  C   UNL A   1      48.603  29.563  27.060  1.00  0.00     0.029 A 
ATOM     58  N   UNL A   1      46.519  28.893  27.477  1.00  0.00    -0.354 N 
ATOM     59  N   UNL A   1      43.661  29.313  28.314  1.00  0.00    -0.248 NA
ATOM     60  C   UNL A   1      42.003  30.707  29.188  1.00  0.00     0.031 C 
ATOM     61  C   UNL A   1      47.883  30.637  27.594  1.00  0.00     0.029 A 
ATOM     62  C   UNL A   1      46.575  30.231  27.822  1.00  0.00     0.049 A 
ATOM     63  H   UNL A   1      45.717  28.327  27.542  1.00  0.00     0.167 HD
ATOM     64  C   UNL A   1      44.202  30.573  28.527  1.00  0.00     0.074 A 
ATOM     65  C   UNL A   1      43.125  31.398  29.040  1.00  0.00     0.031 C 
ATOM     66  C   UNL A   1      45.468  31.015  28.317  1.00  0.00     0.037 A 
BRANCH  53  67
ATOM     67  C   UNL A   1      49.455  26.742  26.226  1.00  0.00     0.064 A 
ATOM     68  C   UNL A   1      50.385  26.236  27.149  1.00  0.00     0.173 A 
ATOM     69  C   UNL A   1      49.882  26.914  24.901  1.00  0.00     0.173 A 
ATOM     70  F   UNL A   1      50.039  26.070  28.435  1.00  0.00    -0.203 F 
ATOM     71  C   UNL A   1      51.698  25.961  26.771  1.00  0.00     0.198 A 
ATOM     72  C   UNL A   1      51.185  26.602  24.517  1.00  0.00     0.198 A 
ATOM     73  F   UNL A   1      49.040  27.397  23.975  1.00  0.00    -0.203 F 
ATOM     74  F   UNL A   1      52.585  25.549  27.688  1.00  0.00    -0.200 F 
ATOM     75  C   UNL A   1      52.095  26.139  25.455  1.00  0.00     0.200 A 
ATOM     76  F   UNL A   1      51.563  26.765  23.242  1.00  0.00    -0.200 F 
ATOM     77  F   UNL A   1      53.358  25.876  25.093  1.00  0.00    -0.200 F 
ENDBRANCH  53  67
BRANCH  54  78
ATOM     78  C   UNL A   1      39.926  28.614  29.025  1.00  0.00     0.064 A 
ATOM     79  C   UNL A   1      38.996  29.122  28.109  1.00  0.00     0.173 A 
ATOM     80  C   UNL A   1      39.481  28.356  30.330  1.00  0.00     0.173 A 
ATOM     81  F   UNL A   1      39.375  29.395  26.852  1.00  0.00    -0.203 F 
ATOM     82  C   UNL A   1      37.679  29.378  28.485  1.00  0.00     0.198 A 
ATOM     83  C   UNL A   1      38.157  28.584  30.699  1.00  0.00     0.198 A 
ATOM     84  F   UNL A   1      40.327  27.859  31.245  1.00  0.00    -0.203 F 
ATOM     85  F   UNL A   1      36.820  29.900  27.599  1.00  0.00    -0.200 F 
ATOM     86  C   UNL A   1      37.258  29.103  29.778  1.00  0.00     0.200 A 
ATOM     87  F   UNL A   1      37.749  28.299  31.942  1.00  0.00    -0.200 F 
ATOM     88  F   UNL A   1      35.989  29.341  30.137  1.00  0.00    -0.200 F 
ENDBRANCH  54  78
BRANCH  66  89
ATOM     89  C   UNL A   1      45.735  32.465  28.587  1.00  0.00     0.064 A 
ATOM     90  C   UNL A   1      46.211  32.912  29.828  1.00  0.00     0.173 A 
ATOM     91  C   UNL A   1      45.569  33.411  27.563  1.00  0.00     0.173 A 
ATOM     92  F   UNL A   1      46.371  32.048  30.841  1.00  0.00    -0.203 F 
ATOM     93  C   UNL A   1      46.486  34.259  30.041  1.00  0.00     0.198 A 
ATOM     94  C   UNL A   1      45.883  34.750  27.769  1.00  0.00     0.198 A 
ATOM     95  F   UNL A   1      45.126  33.031  26.355  1.00  0.00    -0.203 F 
ATOM     96  F   UNL A   1      46.891  34.675  31.249  1.00  0.00    -0.200 F 
ATOM     97  C   UNL A   1      46.334  35.174  29.010  1.00  0.00     0.200 A 
ATOM     98  F   UNL A   1      45.754  35.628  26.764  1.00  0.00    -0.200 F 
ATOM     99  F   UNL A   1      46.615  36.468  29.213  1.00  0.00    -0.200 F 
ENDBRANCH  66  89
ENDBRANCH  40  41
ENDBRANCH  33  35
ENDBRANCH  32  33
ENDBRANCH  31  32
ENDBRANCH  30  31
ENDBRANCH  29  30
ENDBRANCH  28  29
ENDBRANCH  27  28
ENDBRANCH  26  27
ENDBRANCH  25  26
ENDBRANCH   1  25
TORSDOF 26
ENDMDL
MODEL 3
REMARK VINA RESULT:      -9.9      3.504      9.340
REMARK SMILES CN(CC(C)(C)O)C(=O)N1CCCC[C@H]1CC(=O)OCCOCCOCCOCCOC(=O)c1ccc(-c2c3nc(c(-c4c(F)c(F)c(F)c(F)c4F)c4ccc([nH]4)c(-c4c(F)c(F)c(F)c(F)c4F)c4nc(c(-c5c(F)c(F)c(F)c(F)c5F)c5ccc2[nH]5)C=C4)C=C3)cc1
REMARK SMILES IDX 23 1 22 2 21 3 20 4 19 5 17 6 18 7 16 8 15 9 10 10 11 11
REMARK SMILES IDX 12 12 14 13 13 14 8 15 9 16 2 17 1 18 3 19 4 20 5 21 6 22
REMARK SMILES IDX 7 23 24 25 25 26 26 27 27 28 28 29 29 30 30 31 31 32 32 33
REMARK SMILES IDX 33 34 34 35 35 36 96 37 36 38 95 39 37 40 38 41 39 42 89 43
REMARK SMILES IDX 40 44 94 45 88 46 90 47 41 48 93 49 87 50 86 51 42 53 74 54
REMARK SMILES IDX 54 55 73 56 55 57 58 58 72 59 91 60 56 61 57 62 71 64 92 65
REMARK SMILES IDX 59 66 43 67 44 68 52 69 45 70 46 71 50 72 53 73 47 74 48 75
REMARK SMILES IDX 51 76 49 77 75 78 76 79 84 80 77 81 78 82 82 83 85 84 79 85
REMARK SMILES IDX 80 86 83 87 81 88 60 89 61 90 69 91 62 92 63 93 67 94 70 95
REMARK SMILES IDX 64 96 65 97 68 98 66 99
REMARK H PARENT 7 24 90 52 58 63
REMARK Flexibility Score: inf
ROOT
ATOM      1  C   UNL A   1      33.803  21.717  27.092  1.00  0.00     0.188 C 
ENDROOT
BRANCH   1   2
ATOM      2  O   UNL A   1      32.842  22.766  27.116  1.00  0.00    -0.376 OA
BRANCH   2   3
ATOM      3  C   UNL A   1      31.838  22.748  26.097  1.00  0.00     0.202 C 
BRANCH   3   4
ATOM      4  C   UNL A   1      30.389  23.087  26.515  1.00  0.00     0.261 C 
BRANCH   4   5
ATOM      5  O   UNL A   1      30.196  24.457  26.953  1.00  0.00    -0.463 OA
BRANCH   5   6
ATOM      6  C   UNL A   1      30.369  25.437  26.035  1.00  0.00     0.307 C 
ATOM      7  O   UNL A   1      29.590  25.648  25.109  1.00  0.00    -0.252 OA
BRANCH   6   8
ATOM      8  C   UNL A   1      31.462  26.436  26.382  1.00  0.00     0.147 C 
BRANCH   8   9
ATOM      9  C   UNL A   1      32.273  27.321  25.406  1.00  0.00     0.098 C 
ATOM     10  N   UNL A   1      31.690  28.563  24.871  1.00  0.00    -0.321 N 
ATOM     11  C   UNL A   1      31.816  29.737  25.762  1.00  0.00     0.121 C 
ATOM     12  C   UNL A   1      33.224  29.949  26.324  1.00  0.00     0.022 C 
ATOM     13  C   UNL A   1      33.718  27.562  25.884  1.00  0.00     0.026 C 
ATOM     14  C   UNL A   1      33.794  28.670  26.919  1.00  0.00     0.004 C 
BRANCH  10  15
ATOM     15  C   UNL A   1      31.468  28.849  23.522  1.00  0.00     0.320 C 
ATOM     16  O   UNL A   1      32.441  28.933  22.759  1.00  0.00    -0.248 OA
BRANCH  15  17
ATOM     17  N   UNL A   1      30.192  29.107  23.013  1.00  0.00    -0.325 N 
ATOM     18  C   UNL A   1      29.243  27.995  23.138  1.00  0.00     0.148 C 
BRANCH  17  19
ATOM     19  C   UNL A   1      29.803  30.107  21.997  1.00  0.00     0.155 C 
BRANCH  19  20
ATOM     20  C   UNL A   1      28.388  30.748  22.116  1.00  0.00     0.077 C 
ATOM     21  C   UNL A   1      28.116  31.332  23.500  1.00  0.00     0.043 C 
ATOM     22  C   UNL A   1      28.247  31.851  21.057  1.00  0.00     0.043 C 
BRANCH  20  23
ATOM     23  O   UNL A   1      27.362  29.799  21.808  1.00  0.00    -0.389 OA
ATOM     24  H   UNL A   1      26.836  30.123  21.060  1.00  0.00     0.211 HD
ENDBRANCH  20  23
ENDBRANCH  19  20
ENDBRANCH  17  19
ENDBRANCH  15  17
ENDBRANCH  10  15
ENDBRANCH   8   9
ENDBRANCH   6   8
ENDBRANCH   5   6
ENDBRANCH   4   5
ENDBRANCH   3   4
ENDBRANCH   2   3
ENDBRANCH   1   2
BRANCH   1  25
ATOM     25  C   UNL A   1      33.847  20.842  25.831  1.00  0.00     0.188 C 
BRANCH  25  26
ATOM     26  O   UNL A   1      34.766  21.305  24.857  1.00  0.00    -0.377 OA
BRANCH  26  27
ATOM     27  C   UNL A   1      35.547  22.450  25.169  1.00  0.00     0.188 C 
BRANCH  27  28
ATOM     28  C   UNL A   1      36.895  22.500  24.445  1.00  0.00     0.188 C 
BRANCH  28  29
ATOM     29  O   UNL A   1      38.011  21.843  25.055  1.00  0.00    -0.376 OA
BRANCH  29  30
ATOM     30  C   UNL A   1      38.756  22.529  26.058  1.00  0.00     0.202 C 
BRANCH  30  31
ATOM     31  C   UNL A   1      39.818  21.703  26.771  1.00  0.00     0.261 C 
BRANCH  31  32
ATOM     32  O   UNL A   1      40.054  20.481  26.075  1.00  0.00    -0.460 OA
BRANCH  32  33
ATOM     33  C   UNL A   1      41.305  19.994  26.167  1.00  0.00     0.338 C 
ATOM     34  O   UNL A   1      41.702  18.863  25.941  1.00  0.00    -0.246 OA
BRANCH  33  35
ATOM     35  C   UNL A   1      42.189  21.134  26.422  1.00  0.00     0.060 A 
ATOM     36  C   UNL A   1      42.544  21.418  27.747  1.00  0.00     0.016 A 
ATOM     37  C   UNL A   1      42.639  21.922  25.359  1.00  0.00     0.016 A 
ATOM     38  C   UNL A   1      43.318  22.530  28.022  1.00  0.00     0.010 A 
ATOM     39  C   UNL A   1      43.396  23.049  25.634  1.00  0.00     0.010 A 
ATOM     40  C   UNL A   1      43.687  23.374  26.969  1.00  0.00    -0.014 A 
BRANCH  40  41
ATOM     41  C   UNL A   1      44.137  24.737  27.277  1.00  0.00     0.031 A 
ATOM     42  C   UNL A   1      43.102  25.705  27.762  1.00  0.00     0.074 A 
ATOM     43  C   UNL A   1      45.424  25.067  27.114  1.00  0.00     0.049 A 
ATOM     44  N   UNL A   1      43.209  26.979  28.019  1.00  0.00    -0.248 NA
ATOM     45  C   UNL A   1      41.748  25.159  27.971  1.00  0.00     0.031 C 
ATOM     46  C   UNL A   1      46.483  24.153  26.691  1.00  0.00     0.029 A 
ATOM     47  N   UNL A   1      46.053  26.269  27.277  1.00  0.00    -0.354 N 
ATOM     48  C   UNL A   1      41.939  27.387  28.405  1.00  0.00     0.074 A 
ATOM     49  C   UNL A   1      41.067  26.240  28.313  1.00  0.00     0.031 C 
ATOM     50  C   UNL A   1      47.639  24.834  26.616  1.00  0.00     0.029 A 
ATOM     51  C   UNL A   1      47.383  26.233  26.948  1.00  0.00     0.049 A 
ATOM     52  H   UNL A   1      45.597  27.080  27.598  1.00  0.00     0.167 HD
ATOM     53  C   UNL A   1      41.548  28.618  28.806  1.00  0.00     0.037 A 
ATOM     54  C   UNL A   1      48.272  27.240  26.903  1.00  0.00     0.037 A 
ATOM     55  C   UNL A   1      42.450  29.737  28.866  1.00  0.00     0.049 A 
ATOM     56  C   UNL A   1      47.795  28.620  27.276  1.00  0.00     0.074 A 
ATOM     57  C   UNL A   1      42.196  31.035  29.258  1.00  0.00     0.029 A 
ATOM     58  N   UNL A   1      43.791  29.676  28.502  1.00  0.00    -0.354 N 
ATOM     59  N   UNL A   1      46.602  29.007  27.666  1.00  0.00    -0.248 NA
ATOM     60  C   UNL A   1      48.783  29.701  27.204  1.00  0.00     0.031 C 
ATOM     61  C   UNL A   1      43.368  31.776  29.070  1.00  0.00     0.029 A 
ATOM     62  C   UNL A   1      44.372  30.924  28.632  1.00  0.00     0.049 A 
ATOM     63  H   UNL A   1      44.257  28.865  28.197  1.00  0.00     0.167 HD
ATOM     64  C   UNL A   1      46.703  30.366  27.926  1.00  0.00     0.074 A 
ATOM     65  C   UNL A   1      48.080  30.733  27.650  1.00  0.00     0.031 C 
ATOM     66  C   UNL A   1      45.754  31.236  28.357  1.00  0.00     0.037 A 
BRANCH  53  67
ATOM     67  C   UNL A   1      40.098  28.808  29.149  1.00  0.00     0.064 A 
ATOM     68  C   UNL A   1      39.607  28.611  30.451  1.00  0.00     0.173 A 
ATOM     69  C   UNL A   1      39.176  29.168  28.156  1.00  0.00     0.173 A 
ATOM     70  F   UNL A   1      40.439  28.245  31.439  1.00  0.00    -0.203 F 
ATOM     71  C   UNL A   1      38.247  28.723  30.733  1.00  0.00     0.198 A 
ATOM     72  C   UNL A   1      37.822  29.317  28.448  1.00  0.00     0.198 A 
ATOM     73  F   UNL A   1      39.584  29.366  26.893  1.00  0.00    -0.203 F 
ATOM     74  F   UNL A   1      37.796  28.458  31.967  1.00  0.00    -0.200 F 
ATOM     75  C   UNL A   1      37.357  29.081  29.733  1.00  0.00     0.200 A 
ATOM     76  F   UNL A   1      36.965  29.673  27.482  1.00  0.00    -0.200 F 
ATOM     77  F   UNL A   1      36.049  29.187  30.004  1.00  0.00    -0.200 F 
ENDBRANCH  53  67
BRANCH  54  78
ATOM     78  C   UNL A   1      49.680  26.973  26.514  1.00  0.00     0.064 A 
ATOM     79  C   UNL A   1      50.100  27.136  25.187  1.00  0.00     0.173 A 
ATOM     80  C   UNL A   1      50.641  26.576  27.457  1.00  0.00     0.173 A 
ATOM     81  F   UNL A   1      49.218  27.504  24.247  1.00  0.00    -0.203 F 
ATOM     82  C   UNL A   1      51.421  26.895  24.814  1.00  0.00     0.198 A 
ATOM     83  C   UNL A   1      51.967  26.364  27.089  1.00  0.00     0.198 A 
ATOM     84  F   UNL A   1      50.295  26.416  28.743  1.00  0.00    -0.203 F 
ATOM     85  F   UNL A   1      51.785  27.021  23.531  1.00  0.00    -0.200 F 
ATOM     86  C   UNL A   1      52.355  26.516  25.766  1.00  0.00     0.200 A 
ATOM     87  F   UNL A   1      52.871  26.016  28.015  1.00  0.00    -0.200 F 
ATOM     88  F   UNL A   1      53.627  26.293  25.408  1.00  0.00    -0.200 F 
ENDBRANCH  54  78
BRANCH  66  89
ATOM     89  C   UNL A   1      46.191  32.648  28.609  1.00  0.00     0.064 A 
ATOM     90  C   UNL A   1      46.723  33.050  29.842  1.00  0.00     0.173 A 
ATOM     91  C   UNL A   1      46.132  33.595  27.574  1.00  0.00     0.173 A 
ATOM     92  F   UNL A   1      46.786  32.185  30.865  1.00  0.00    -0.203 F 
ATOM     93  C   UNL A   1      47.155  34.358  30.038  1.00  0.00     0.198 A 
ATOM     94  C   UNL A   1      46.601  34.890  27.763  1.00  0.00     0.198 A 
ATOM     95  F   UNL A   1      45.641  33.255  26.372  1.00  0.00    -0.203 F 
ATOM     96  F   UNL A   1      47.612  34.737  31.240  1.00  0.00    -0.200 F 
ATOM     97  C   UNL A   1      47.105  35.273  28.997  1.00  0.00     0.200 A 
ATOM     98  F   UNL A   1      46.571  35.765  26.748  1.00  0.00    -0.200 F 
ATOM     99  F   UNL A   1      47.537  36.527  29.183  1.00  0.00    -0.200 F 
ENDBRANCH  66  89
ENDBRANCH  40  41
ENDBRANCH  33  35
ENDBRANCH  32  33
ENDBRANCH  31  32
ENDBRANCH  30  31
ENDBRANCH  29  30
ENDBRANCH  28  29
ENDBRANCH  27  28
ENDBRANCH  26  27
ENDBRANCH  25  26
ENDBRANCH   1  25
TORSDOF 26
ENDMDL
