MODEL 1
REMARK VINA RESULT:      -8.9      0.000      0.000
REMARK SMILES Cc1ccc(F)cc1S(=O)(=O)Nc1cc(C(=O)OCCOCCOCCOCCOC(=O)c2ccc(-c3c4nc(c(-c5c(F)c(F)c(F)c(F)c5F)c5ccc([nH]5)c(-c5c(F)c(F)c(F)c(F)c5F)c5nc(c(-c6c(F)c(F)c(F)c(F)c6F)c6ccc3[nH]6)C=C5)C=C4)cc2)ccc1N(C)Cc1ccccc1
REMARK SMILES IDX 23 1 22 2 21 3 20 4 19 5 18 6 16 7 17 8 15 9 13 10 14 11
REMARK SMILES IDX 98 12 97 13 96 14 12 15 9 17 10 18 11 19 8 20 1 21 2 22 3 23
REMARK SMILES IDX 4 24 7 25 5 26 6 27 99 28 100 29 101 30 102 31 103 32 107 33
REMARK SMILES IDX 104 34 106 35 105 36 24 37 25 38 26 39 27 40 28 41 29 42
REMARK SMILES IDX 30 43 31 44 32 45 33 46 34 47 95 48 35 49 94 50 36 51 37 52
REMARK SMILES IDX 38 53 88 54 39 55 93 56 87 57 89 58 40 59 92 60 86 61 85 62
REMARK SMILES IDX 41 64 73 65 53 66 72 67 54 68 57 69 71 70 90 71 55 72 56 73
REMARK SMILES IDX 70 75 91 76 58 77 42 78 43 79 51 80 44 81 45 82 49 83 52 84
REMARK SMILES IDX 46 85 47 86 50 87 48 88 74 89 75 90 83 91 76 92 77 93 81 94
REMARK SMILES IDX 84 95 78 96 79 97 82 98 80 99 59 100 60 101 68 102 61 103
REMARK SMILES IDX 62 104 66 105 69 106 63 107 64 108 67 109 65 110
REMARK H PARENT 12 16 89 63 57 74
REMARK Flexibility Score: inf
ROOT
ATOM      1  C   UNL A   1      49.396  20.327  34.648  1.00  0.00     0.188 C 
ENDROOT
BRANCH   1   2
ATOM      2  C   UNL A   1      48.692  21.555  35.279  1.00  0.00     0.188 C 
BRANCH   2   3
ATOM      3  O   UNL A   1      47.382  21.795  34.806  1.00  0.00    -0.376 OA
BRANCH   3   4
ATOM      4  C   UNL A   1      46.544  20.676  34.562  1.00  0.00     0.202 C 
BRANCH   4   5
ATOM      5  C   UNL A   1      45.646  20.053  35.666  1.00  0.00     0.261 C 
BRANCH   5   6
ATOM      6  O   UNL A   1      46.268  19.190  36.654  1.00  0.00    -0.460 OA
BRANCH   6   7
ATOM      7  C   UNL A   1      46.429  19.754  37.873  1.00  0.00     0.338 C 
ATOM      8  O   UNL A   1      46.142  20.922  38.092  1.00  0.00    -0.246 OA
BRANCH   7   9
ATOM      9  C   UNL A   1      46.717  18.796  39.010  1.00  0.00     0.062 A 
ATOM     10  C   UNL A   1      45.597  17.434  40.732  1.00  0.00     0.073 A 
ATOM     11  C   UNL A   1      45.637  18.024  39.440  1.00  0.00     0.044 A 
ATOM     12  C   UNL A   1      46.695  17.367  41.599  1.00  0.00     0.061 A 
ATOM     13  C   UNL A   1      47.853  17.999  41.034  1.00  0.00     0.029 A 
ATOM     14  C   UNL A   1      47.862  18.738  39.792  1.00  0.00     0.018 A 
BRANCH  10  15
ATOM     15  N   UNL A   1      44.297  17.377  41.320  1.00  0.00    -0.277 N 
ATOM     16  H   UNL A   1      43.992  17.926  42.078  1.00  0.00     0.180 HD
BRANCH  15  17
ATOM     17  S   UNL A   1      43.335  16.190  40.493  1.00  0.00     0.262 S 
ATOM     18  O   UNL A   1      44.207  15.458  39.597  1.00  0.00    -0.201 OA
ATOM     19  O   UNL A   1      42.289  16.954  39.861  1.00  0.00    -0.201 OA
BRANCH  17  20
ATOM     20  C   UNL A   1      42.623  15.018  41.726  1.00  0.00     0.093 A 
ATOM     21  C   UNL A   1      41.476  13.489  40.051  1.00  0.00     0.046 C 
ATOM     22  C   UNL A   1      41.954  13.838  41.411  1.00  0.00    -0.030 A 
ATOM     23  C   UNL A   1      41.635  12.901  42.433  1.00  0.00     0.008 A 
ATOM     24  C   UNL A   1      41.914  13.134  43.774  1.00  0.00     0.039 A 
ATOM     25  C   UNL A   1      42.756  15.254  43.092  1.00  0.00     0.061 A 
ATOM     26  C   UNL A   1      42.443  14.350  44.100  1.00  0.00     0.124 A 
ATOM     27  F   UNL A   1      42.637  14.688  45.384  1.00  0.00    -0.207 F 
ENDBRANCH  17  20
ENDBRANCH  15  17
ENDBRANCH  10  15
BRANCH  12  28
ATOM     28  N   UNL A   1      46.593  16.907  42.949  1.00  0.00    -0.369 N 
ATOM     29  C   UNL A   1      46.316  17.963  43.938  1.00  0.00     0.144 C 
BRANCH  28  30
ATOM     30  C   UNL A   1      47.145  15.593  43.602  1.00  0.00     0.151 C 
BRANCH  30  31
ATOM     31  C   UNL A   1      46.375  14.503  44.466  1.00  0.00    -0.029 A 
ATOM     32  C   UNL A   1      45.873  13.222  44.125  1.00  0.00     0.005 A 
ATOM     33  C   UNL A   1      45.980  14.904  45.762  1.00  0.00     0.005 A 
ATOM     34  C   UNL A   1      45.429  12.287  45.094  1.00  0.00     0.000 A 
ATOM     35  C   UNL A   1      45.423  14.017  46.709  1.00  0.00     0.000 A 
ATOM     36  C   UNL A   1      45.246  12.677  46.406  1.00  0.00     0.000 A 
ENDBRANCH  30  31
ENDBRANCH  28  30
ENDBRANCH  12  28
ENDBRANCH   7   9
ENDBRANCH   6   7
ENDBRANCH   5   6
ENDBRANCH   4   5
ENDBRANCH   3   4
ENDBRANCH   2   3
ENDBRANCH   1   2
BRANCH   1  37
ATOM     37  O   UNL A   1      49.952  20.414  33.343  1.00  0.00    -0.377 OA
BRANCH  37  38
ATOM     38  C   UNL A   1      51.338  20.701  33.254  1.00  0.00     0.188 C 
BRANCH  38  39
ATOM     39  C   UNL A   1      51.788  22.180  33.093  1.00  0.00     0.188 C 
BRANCH  39  40
ATOM     40  O   UNL A   1      52.323  22.789  34.266  1.00  0.00    -0.376 OA
BRANCH  40  41
ATOM     41  C   UNL A   1      53.714  23.106  34.316  1.00  0.00     0.202 C 
BRANCH  41  42
ATOM     42  C   UNL A   1      54.160  24.551  34.005  1.00  0.00     0.261 C 
BRANCH  42  43
ATOM     43  O   UNL A   1      53.645  25.051  32.783  1.00  0.00    -0.460 OA
BRANCH  43  44
ATOM     44  C   UNL A   1      52.851  26.114  32.958  1.00  0.00     0.338 C 
ATOM     45  O   UNL A   1      52.077  26.325  33.879  1.00  0.00    -0.246 OA
BRANCH  44  46
ATOM     46  C   UNL A   1      53.080  27.045  31.831  1.00  0.00     0.060 A 
ATOM     47  C   UNL A   1      52.372  28.257  32.010  1.00  0.00     0.016 A 
ATOM     48  C   UNL A   1      53.041  26.324  30.650  1.00  0.00     0.016 A 
ATOM     49  C   UNL A   1      51.220  28.423  31.307  1.00  0.00     0.010 A 
ATOM     50  C   UNL A   1      51.855  26.422  30.000  1.00  0.00     0.010 A 
ATOM     51  C   UNL A   1      50.931  27.394  30.438  1.00  0.00    -0.014 A 
BRANCH  51  52
ATOM     52  C   UNL A   1      49.612  27.206  29.932  1.00  0.00     0.031 A 
ATOM     53  C   UNL A   1      48.781  26.372  30.788  1.00  0.00     0.074 A 
ATOM     54  C   UNL A   1      49.288  28.048  28.930  1.00  0.00     0.049 A 
ATOM     55  N   UNL A   1      47.651  25.885  30.451  1.00  0.00    -0.248 NA
ATOM     56  C   UNL A   1      49.217  25.940  32.123  1.00  0.00     0.031 C 
ATOM     57  C   UNL A   1      47.992  28.569  28.541  1.00  0.00     0.029 A 
ATOM     58  N   UNL A   1      50.156  28.483  27.916  1.00  0.00    -0.354 N 
ATOM     59  C   UNL A   1      47.046  25.505  31.624  1.00  0.00     0.074 A 
ATOM     60  C   UNL A   1      48.098  25.394  32.598  1.00  0.00     0.031 C 
ATOM     61  C   UNL A   1      48.069  29.027  27.275  1.00  0.00     0.029 A 
ATOM     62  C   UNL A   1      49.376  28.645  26.757  1.00  0.00     0.049 A 
ATOM     63  H   UNL A   1      51.124  28.646  28.000  1.00  0.00     0.167 HD
ATOM     64  C   UNL A   1      45.688  25.573  31.668  1.00  0.00     0.037 A 
ATOM     65  C   UNL A   1      49.552  27.772  25.717  1.00  0.00     0.037 A 
ATOM     66  C   UNL A   1      45.184  25.984  30.358  1.00  0.00     0.049 A 
ATOM     67  C   UNL A   1      48.351  26.863  25.551  1.00  0.00     0.074 A 
ATOM     68  C   UNL A   1      44.859  27.229  29.841  1.00  0.00     0.029 A 
ATOM     69  N   UNL A   1      45.429  25.160  29.264  1.00  0.00    -0.354 N 
ATOM     70  N   UNL A   1      47.591  26.457  26.534  1.00  0.00    -0.248 NA
ATOM     71  C   UNL A   1      47.885  26.404  24.247  1.00  0.00     0.031 C 
ATOM     72  C   UNL A   1      44.949  27.154  28.425  1.00  0.00     0.029 A 
ATOM     73  C   UNL A   1      45.339  25.870  28.083  1.00  0.00     0.049 A 
ATOM     74  H   UNL A   1      45.637  24.199  29.325  1.00  0.00     0.167 HD
ATOM     75  C   UNL A   1      46.542  25.733  26.024  1.00  0.00     0.074 A 
ATOM     76  C   UNL A   1      46.777  25.725  24.591  1.00  0.00     0.031 C 
ATOM     77  C   UNL A   1      45.549  25.209  26.806  1.00  0.00     0.037 A 
BRANCH  64  78
ATOM     78  C   UNL A   1      44.890  25.602  32.940  1.00  0.00     0.064 A 
ATOM     79  C   UNL A   1      44.177  24.458  33.355  1.00  0.00     0.173 A 
ATOM     80  C   UNL A   1      44.772  26.719  33.789  1.00  0.00     0.173 A 
ATOM     81  F   UNL A   1      44.227  23.312  32.665  1.00  0.00    -0.203 F 
ATOM     82  C   UNL A   1      43.378  24.446  34.498  1.00  0.00     0.198 A 
ATOM     83  C   UNL A   1      43.934  26.721  34.908  1.00  0.00     0.198 A 
ATOM     84  F   UNL A   1      45.500  27.826  33.596  1.00  0.00    -0.203 F 
ATOM     85  F   UNL A   1      42.739  23.321  34.846  1.00  0.00    -0.200 F 
ATOM     86  C   UNL A   1      43.242  25.583  35.266  1.00  0.00     0.200 A 
ATOM     87  F   UNL A   1      43.812  27.834  35.646  1.00  0.00    -0.200 F 
ATOM     88  F   UNL A   1      42.466  25.573  36.358  1.00  0.00    -0.200 F 
ENDBRANCH  64  78
BRANCH  65  89
ATOM     89  C   UNL A   1      50.980  27.344  25.573  1.00  0.00     0.064 A 
ATOM     90  C   UNL A   1      51.905  28.278  25.056  1.00  0.00     0.173 A 
ATOM     91  C   UNL A   1      51.500  26.258  26.288  1.00  0.00     0.173 A 
ATOM     92  F   UNL A   1      51.466  29.323  24.334  1.00  0.00    -0.203 F 
ATOM     93  C   UNL A   1      53.261  28.213  25.372  1.00  0.00     0.198 A 
ATOM     94  C   UNL A   1      52.863  26.193  26.596  1.00  0.00     0.198 A 
ATOM     95  F   UNL A   1      50.686  25.315  26.782  1.00  0.00    -0.203 F 
ATOM     96  F   UNL A   1      54.096  29.179  24.959  1.00  0.00    -0.200 F 
ATOM     97  C   UNL A   1      53.732  27.189  26.176  1.00  0.00     0.200 A 
ATOM     98  F   UNL A   1      53.323  25.206  27.379  1.00  0.00    -0.200 F 
ATOM     99  F   UNL A   1      55.013  27.178  26.576  1.00  0.00    -0.200 F 
ENDBRANCH  65  89
BRANCH  77 100
ATOM    100  C   UNL A   1      44.609  24.086  26.416  1.00  0.00     0.064 A 
ATOM    101  C   UNL A   1      45.036  22.795  26.064  1.00  0.00     0.173 A 
ATOM    102  C   UNL A   1      43.203  24.235  26.555  1.00  0.00     0.173 A 
ATOM    103  F   UNL A   1      46.333  22.465  26.035  1.00  0.00    -0.203 F 
ATOM    104  C   UNL A   1      44.133  21.765  25.790  1.00  0.00     0.198 A 
ATOM    105  C   UNL A   1      42.313  23.181  26.370  1.00  0.00     0.198 A 
ATOM    106  F   UNL A   1      42.640  25.399  26.909  1.00  0.00    -0.203 F 
ATOM    107  F   UNL A   1      44.596  20.572  25.391  1.00  0.00    -0.200 F 
ATOM    108  C   UNL A   1      42.775  21.952  25.960  1.00  0.00     0.200 A 
ATOM    109  F   UNL A   1      41.008  23.364  26.615  1.00  0.00    -0.200 F 
ATOM    110  F   UNL A   1      41.919  20.944  25.749  1.00  0.00    -0.200 F 
ENDBRANCH  77 100
ENDBRANCH  51  52
ENDBRANCH  44  46
ENDBRANCH  43  44
ENDBRANCH  42  43
ENDBRANCH  41  42
ENDBRANCH  40  41
ENDBRANCH  39  40
ENDBRANCH  38  39
ENDBRANCH  37  38
ENDBRANCH   1  37
TORSDOF 26
ENDMDL
MODEL 2
REMARK VINA RESULT:      -8.7      8.539     13.789
REMARK SMILES Cc1ccc(F)cc1S(=O)(=O)Nc1cc(C(=O)OCCOCCOCCOCCOC(=O)c2ccc(-c3c4nc(c(-c5c(F)c(F)c(F)c(F)c5F)c5ccc([nH]5)c(-c5c(F)c(F)c(F)c(F)c5F)c5nc(c(-c6c(F)c(F)c(F)c(F)c6F)c6ccc3[nH]6)C=C5)C=C4)cc2)ccc1N(C)Cc1ccccc1
REMARK SMILES IDX 23 1 22 2 21 3 20 4 19 5 18 6 16 7 17 8 15 9 13 10 14 11
REMARK SMILES IDX 98 12 97 13 96 14 12 15 9 17 10 18 11 19 8 20 1 21 2 22 3 23
REMARK SMILES IDX 4 24 7 25 5 26 6 27 99 28 100 29 101 30 102 31 103 32 107 33
REMARK SMILES IDX 104 34 106 35 105 36 24 37 25 38 26 39 27 40 28 41 29 42
REMARK SMILES IDX 30 43 31 44 32 45 33 46 34 47 95 48 35 49 94 50 36 51 37 52
REMARK SMILES IDX 38 53 88 54 39 55 93 56 87 57 89 58 40 59 92 60 86 61 85 62
REMARK SMILES IDX 41 64 73 65 53 66 72 67 54 68 57 69 71 70 90 71 55 72 56 73
REMARK SMILES IDX 70 75 91 76 58 77 42 78 43 79 51 80 44 81 45 82 49 83 52 84
REMARK SMILES IDX 46 85 47 86 50 87 48 88 74 89 75 90 83 91 76 92 77 93 81 94
REMARK SMILES IDX 84 95 78 96 79 97 82 98 80 99 59 100 60 101 68 102 61 103
REMARK SMILES IDX 62 104 66 105 69 106 63 107 64 108 67 109 65 110
REMARK H PARENT 12 16 89 63 57 74
REMARK Flexibility Score: inf
ROOT
ATOM      1  C   UNL A   1      44.175  25.631  25.722  1.00  0.00     0.188 C 
ENDROOT
BRANCH   1   2
ATOM      2  C   UNL A   1      42.718  26.080  25.443  1.00  0.00     0.188 C 
BRANCH   2   3
ATOM      3  O   UNL A   1      41.754  25.052  25.534  1.00  0.00    -0.376 OA
BRANCH   3   4
ATOM      4  C   UNL A   1      41.720  24.269  26.717  1.00  0.00     0.202 C 
BRANCH   4   5
ATOM      5  C   UNL A   1      40.482  23.421  27.120  1.00  0.00     0.261 C 
BRANCH   5   6
ATOM      6  O   UNL A   1      39.507  23.095  26.094  1.00  0.00    -0.460 OA
BRANCH   6   7
ATOM      7  C   UNL A   1      38.251  23.527  26.352  1.00  0.00     0.338 C 
ATOM      8  O   UNL A   1      38.033  24.571  26.948  1.00  0.00    -0.246 OA
BRANCH   7   9
ATOM      9  C   UNL A   1      37.141  22.797  25.623  1.00  0.00     0.062 A 
ATOM     10  C   UNL A   1      34.805  23.059  24.883  1.00  0.00     0.073 A 
ATOM     11  C   UNL A   1      36.091  23.593  25.166  1.00  0.00     0.044 A 
ATOM     12  C   UNL A   1      34.523  21.689  24.810  1.00  0.00     0.061 A 
ATOM     13  C   UNL A   1      35.686  20.895  25.090  1.00  0.00     0.029 A 
ATOM     14  C   UNL A   1      36.955  21.425  25.533  1.00  0.00     0.018 A 
BRANCH  10  15
ATOM     15  N   UNL A   1      33.718  23.934  25.185  1.00  0.00    -0.277 N 
ATOM     16  H   UNL A   1      33.202  23.929  26.023  1.00  0.00     0.180 HD
BRANCH  15  17
ATOM     17  S   UNL A   1      33.445  25.009  23.847  1.00  0.00     0.262 S 
ATOM     18  O   UNL A   1      32.097  24.784  23.366  1.00  0.00    -0.201 OA
ATOM     19  O   UNL A   1      34.500  24.696  22.916  1.00  0.00    -0.201 OA
BRANCH  17  20
ATOM     20  C   UNL A   1      33.591  26.752  24.428  1.00  0.00     0.093 A 
ATOM     21  C   UNL A   1      33.713  27.821  22.126  1.00  0.00     0.046 C 
ATOM     22  C   UNL A   1      33.575  27.873  23.602  1.00  0.00    -0.030 A 
ATOM     23  C   UNL A   1      33.477  29.176  24.164  1.00  0.00     0.008 A 
ATOM     24  C   UNL A   1      33.455  29.398  25.535  1.00  0.00     0.039 A 
ATOM     25  C   UNL A   1      33.699  27.043  25.785  1.00  0.00     0.061 A 
ATOM     26  C   UNL A   1      33.612  28.312  26.347  1.00  0.00     0.124 A 
ATOM     27  F   UNL A   1      33.709  28.462  27.676  1.00  0.00    -0.207 F 
ENDBRANCH  17  20
ENDBRANCH  15  17
ENDBRANCH  10  15
BRANCH  12  28
ATOM     28  N   UNL A   1      33.196  21.174  24.674  1.00  0.00    -0.369 N 
ATOM     29  C   UNL A   1      32.221  21.733  25.627  1.00  0.00     0.144 C 
BRANCH  28  30
ATOM     30  C   UNL A   1      32.703  19.843  24.012  1.00  0.00     0.151 C 
BRANCH  30  31
ATOM     31  C   UNL A   1      32.971  18.341  24.460  1.00  0.00    -0.029 A 
ATOM     32  C   UNL A   1      32.595  17.631  25.628  1.00  0.00     0.005 A 
ATOM     33  C   UNL A   1      33.854  17.597  23.645  1.00  0.00     0.005 A 
ATOM     34  C   UNL A   1      32.713  16.223  25.745  1.00  0.00     0.000 A 
ATOM     35  C   UNL A   1      34.083  16.214  23.814  1.00  0.00     0.000 A 
ATOM     36  C   UNL A   1      33.426  15.503  24.805  1.00  0.00     0.000 A 
ENDBRANCH  30  31
ENDBRANCH  28  30
ENDBRANCH  12  28
ENDBRANCH   7   9
ENDBRANCH   6   7
ENDBRANCH   5   6
ENDBRANCH   4   5
ENDBRANCH   3   4
ENDBRANCH   2   3
ENDBRANCH   1   2
BRANCH   1  37
ATOM     37  O   UNL A   1      44.785  25.921  26.973  1.00  0.00    -0.377 OA
BRANCH  37  38
ATOM     38  C   UNL A   1      46.056  25.339  27.216  1.00  0.00     0.188 C 
BRANCH  38  39
ATOM     39  C   UNL A   1      47.246  25.723  26.293  1.00  0.00     0.188 C 
BRANCH  39  40
ATOM     40  O   UNL A   1      47.933  26.921  26.645  1.00  0.00    -0.376 OA
BRANCH  40  41
ATOM     41  C   UNL A   1      48.727  27.585  25.662  1.00  0.00     0.202 C 
BRANCH  41  42
ATOM     42  C   UNL A   1      49.887  28.491  26.129  1.00  0.00     0.261 C 
BRANCH  42  43
ATOM     43  O   UNL A   1      49.492  29.827  26.387  1.00  0.00    -0.460 OA
BRANCH  43  44
ATOM     44  C   UNL A   1      49.936  30.275  27.568  1.00  0.00     0.338 C 
ATOM     45  O   UNL A   1      50.540  29.649  28.425  1.00  0.00    -0.246 OA
BRANCH  44  46
ATOM     46  C   UNL A   1      49.591  31.710  27.670  1.00  0.00     0.060 A 
ATOM     47  C   UNL A   1      49.730  32.181  28.998  1.00  0.00     0.016 A 
ATOM     48  C   UNL A   1      48.461  31.946  26.908  1.00  0.00     0.016 A 
ATOM     49  C   UNL A   1      48.597  32.333  29.734  1.00  0.00     0.010 A 
ATOM     50  C   UNL A   1      47.321  32.005  27.641  1.00  0.00     0.010 A 
ATOM     51  C   UNL A   1      47.433  32.070  29.045  1.00  0.00    -0.014 A 
BRANCH  51  52
ATOM     52  C   UNL A   1      46.216  31.794  29.734  1.00  0.00     0.031 A 
ATOM     53  C   UNL A   1      45.876  30.378  29.754  1.00  0.00     0.074 A 
ATOM     54  C   UNL A   1      45.763  32.826  30.475  1.00  0.00     0.049 A 
ATOM     55  N   UNL A   1      44.745  29.910  30.113  1.00  0.00    -0.248 NA
ATOM     56  C   UNL A   1      46.801  29.343  29.275  1.00  0.00     0.031 C 
ATOM     57  C   UNL A   1      44.964  32.817  31.685  1.00  0.00     0.029 A 
ATOM     58  N   UNL A   1      45.841  34.182  30.120  1.00  0.00    -0.354 N 
ATOM     59  C   UNL A   1      44.956  28.573  30.349  1.00  0.00     0.074 A 
ATOM     60  C   UNL A   1      46.173  28.234  29.662  1.00  0.00     0.031 C 
ATOM     61  C   UNL A   1      44.408  34.033  31.849  1.00  0.00     0.029 A 
ATOM     62  C   UNL A   1      44.694  34.804  30.646  1.00  0.00     0.049 A 
ATOM     63  H   UNL A   1      46.559  34.615  29.605  1.00  0.00     0.167 HD
ATOM     64  C   UNL A   1      44.188  27.987  31.307  1.00  0.00     0.037 A 
ATOM     65  C   UNL A   1      43.727  35.243  29.781  1.00  0.00     0.037 A 
ATOM     66  C   UNL A   1      43.228  28.965  31.819  1.00  0.00     0.049 A 
ATOM     67  C   UNL A   1      42.468  34.407  29.891  1.00  0.00     0.074 A 
ATOM     68  C   UNL A   1      43.273  29.825  32.906  1.00  0.00     0.029 A 
ATOM     69  N   UNL A   1      42.291  29.498  30.939  1.00  0.00    -0.354 N 
ATOM     70  N   UNL A   1      42.450  33.134  30.193  1.00  0.00    -0.248 NA
ATOM     71  C   UNL A   1      41.132  34.971  29.734  1.00  0.00     0.031 C 
ATOM     72  C   UNL A   1      42.381  30.901  32.651  1.00  0.00     0.029 A 
ATOM     73  C   UNL A   1      41.804  30.702  31.408  1.00  0.00     0.049 A 
ATOM     74  H   UNL A   1      42.012  29.073  30.096  1.00  0.00     0.167 HD
ATOM     75  C   UNL A   1      41.148  32.716  30.305  1.00  0.00     0.074 A 
ATOM     76  C   UNL A   1      40.364  33.901  30.003  1.00  0.00     0.031 C 
ATOM     77  C   UNL A   1      40.804  31.439  30.655  1.00  0.00     0.037 A 
BRANCH  64  78
ATOM     78  C   UNL A   1      44.535  26.692  31.985  1.00  0.00     0.064 A 
ATOM     79  C   UNL A   1      44.276  25.465  31.340  1.00  0.00     0.173 A 
ATOM     80  C   UNL A   1      45.109  26.584  33.265  1.00  0.00     0.173 A 
ATOM     81  F   UNL A   1      43.765  25.415  30.103  1.00  0.00    -0.203 F 
ATOM     82  C   UNL A   1      44.528  24.232  31.944  1.00  0.00     0.198 A 
ATOM     83  C   UNL A   1      45.318  25.350  33.889  1.00  0.00     0.198 A 
ATOM     84  F   UNL A   1      45.535  27.662  33.936  1.00  0.00    -0.203 F 
ATOM     85  F   UNL A   1      44.273  23.103  31.271  1.00  0.00    -0.200 F 
ATOM     86  C   UNL A   1      45.033  24.175  33.225  1.00  0.00     0.200 A 
ATOM     87  F   UNL A   1      45.811  25.309  35.135  1.00  0.00    -0.200 F 
ATOM     88  F   UNL A   1      45.265  22.991  33.808  1.00  0.00    -0.200 F 
ENDBRANCH  64  78
BRANCH  65  89
ATOM     89  C   UNL A   1      44.306  35.758  28.499  1.00  0.00     0.064 A 
ATOM     90  C   UNL A   1      44.859  37.058  28.496  1.00  0.00     0.173 A 
ATOM     91  C   UNL A   1      44.691  34.897  27.464  1.00  0.00     0.173 A 
ATOM     92  F   UNL A   1      44.502  37.938  29.446  1.00  0.00    -0.203 F 
ATOM     93  C   UNL A   1      45.861  37.422  27.597  1.00  0.00     0.198 A 
ATOM     94  C   UNL A   1      45.691  35.270  26.561  1.00  0.00     0.198 A 
ATOM     95  F   UNL A   1      44.184  33.659  27.384  1.00  0.00    -0.203 F 
ATOM     96  F   UNL A   1      46.447  38.625  27.693  1.00  0.00    -0.200 F 
ATOM     97  C   UNL A   1      46.303  36.511  26.654  1.00  0.00     0.200 A 
ATOM     98  F   UNL A   1      46.127  34.389  25.648  1.00  0.00    -0.200 F 
ATOM     99  F   UNL A   1      47.341  36.812  25.858  1.00  0.00    -0.200 F 
ENDBRANCH  65  89
BRANCH  77 100
ATOM    100  C   UNL A   1      39.460  30.781  30.411  1.00  0.00     0.064 A 
ATOM    101  C   UNL A   1      38.332  30.982  31.222  1.00  0.00     0.173 A 
ATOM    102  C   UNL A   1      39.219  30.043  29.221  1.00  0.00     0.173 A 
ATOM    103  F   UNL A   1      38.370  31.776  32.299  1.00  0.00    -0.203 F 
ATOM    104  C   UNL A   1      37.090  30.422  30.916  1.00  0.00     0.198 A 
ATOM    105  C   UNL A   1      37.959  29.564  28.875  1.00  0.00     0.198 A 
ATOM    106  F   UNL A   1      40.188  29.787  28.331  1.00  0.00    -0.203 F 
ATOM    107  F   UNL A   1      36.065  30.589  31.763  1.00  0.00    -0.200 F 
ATOM    108  C   UNL A   1      36.898  29.729  29.736  1.00  0.00     0.200 A 
ATOM    109  F   UNL A   1      37.779  28.963  27.690  1.00  0.00    -0.200 F 
ATOM    110  F   UNL A   1      35.692  29.242  29.422  1.00  0.00    -0.200 F 
ENDBRANCH  77 100
ENDBRANCH  51  52
ENDBRANCH  44  46
ENDBRANCH  43  44
ENDBRANCH  42  43
ENDBRANCH  41  42
ENDBRANCH  40  41
ENDBRANCH  39  40
ENDBRANCH  38  39
ENDBRANCH  37  38
ENDBRANCH   1  37
TORSDOF 26
ENDMDL
MODEL 3
REMARK VINA RESULT:      -8.5      9.135     15.187
REMARK SMILES Cc1ccc(F)cc1S(=O)(=O)Nc1cc(C(=O)OCCOCCOCCOCCOC(=O)c2ccc(-c3c4nc(c(-c5c(F)c(F)c(F)c(F)c5F)c5ccc([nH]5)c(-c5c(F)c(F)c(F)c(F)c5F)c5nc(c(-c6c(F)c(F)c(F)c(F)c6F)c6ccc3[nH]6)C=C5)C=C4)cc2)ccc1N(C)Cc1ccccc1
REMARK SMILES IDX 23 1 22 2 21 3 20 4 19 5 18 6 16 7 17 8 15 9 13 10 14 11
REMARK SMILES IDX 98 12 97 13 96 14 12 15 9 17 10 18 11 19 8 20 1 21 2 22 3 23
REMARK SMILES IDX 4 24 7 25 5 26 6 27 99 28 100 29 101 30 102 31 103 32 107 33
REMARK SMILES IDX 104 34 106 35 105 36 24 37 25 38 26 39 27 40 28 41 29 42
REMARK SMILES IDX 30 43 31 44 32 45 33 46 34 47 95 48 35 49 94 50 36 51 37 52
REMARK SMILES IDX 38 53 88 54 39 55 93 56 87 57 89 58 40 59 92 60 86 61 85 62
REMARK SMILES IDX 41 64 73 65 53 66 72 67 54 68 57 69 71 70 90 71 55 72 56 73
REMARK SMILES IDX 70 75 91 76 58 77 42 78 43 79 51 80 44 81 45 82 49 83 52 84
REMARK SMILES IDX 46 85 47 86 50 87 48 88 74 89 75 90 83 91 76 92 77 93 81 94
REMARK SMILES IDX 84 95 78 96 79 97 82 98 80 99 59 100 60 101 68 102 61 103
REMARK SMILES IDX 62 104 66 105 69 106 63 107 64 108 67 109 65 110
REMARK H PARENT 12 16 89 63 57 74
REMARK Flexibility Score: inf
ROOT
ATOM      1  C   UNL A   1      42.623  23.847  26.965  1.00  0.00     0.188 C 
ENDROOT
BRANCH   1   2
ATOM      2  C   UNL A   1      42.458  23.350  25.506  1.00  0.00     0.188 C 
BRANCH   2   3
ATOM      3  O   UNL A   1      42.130  21.982  25.380  1.00  0.00    -0.376 OA
BRANCH   3   4
ATOM      4  C   UNL A   1      41.362  21.381  26.409  1.00  0.00     0.202 C 
BRANCH   4   5
ATOM      5  C   UNL A   1      39.870  20.989  26.215  1.00  0.00     0.261 C 
BRANCH   5   6
ATOM      6  O   UNL A   1      38.942  22.014  25.773  1.00  0.00    -0.460 OA
BRANCH   6   7
ATOM      7  C   UNL A   1      37.837  21.543  25.150  1.00  0.00     0.338 C 
ATOM      8  O   UNL A   1      37.748  20.384  24.774  1.00  0.00    -0.246 OA
BRANCH   7   9
ATOM      9  C   UNL A   1      36.620  22.444  25.195  1.00  0.00     0.062 A 
ATOM     10  C   UNL A   1      34.437  22.814  24.113  1.00  0.00     0.073 A 
ATOM     11  C   UNL A   1      35.482  21.957  24.554  1.00  0.00     0.044 A 
ATOM     12  C   UNL A   1      34.328  24.165  24.467  1.00  0.00     0.061 A 
ATOM     13  C   UNL A   1      35.421  24.582  25.300  1.00  0.00     0.029 A 
ATOM     14  C   UNL A   1      36.567  23.763  25.623  1.00  0.00     0.018 A 
BRANCH  10  15
ATOM     15  N   UNL A   1      33.801  22.403  22.903  1.00  0.00    -0.277 N 
ATOM     16  H   UNL A   1      34.140  22.580  21.995  1.00  0.00     0.180 HD
BRANCH  15  17
ATOM     17  S   UNL A   1      32.338  21.544  23.275  1.00  0.00     0.262 S 
ATOM     18  O   UNL A   1      31.660  21.262  22.025  1.00  0.00    -0.201 OA
ATOM     19  O   UNL A   1      31.634  22.411  24.185  1.00  0.00    -0.201 OA
BRANCH  17  20
ATOM     20  C   UNL A   1      32.762  19.950  24.098  1.00  0.00     0.093 A 
ATOM     21  C   UNL A   1      32.844  20.857  26.471  1.00  0.00     0.046 C 
ATOM     22  C   UNL A   1      32.831  19.757  25.476  1.00  0.00    -0.030 A 
ATOM     23  C   UNL A   1      32.953  18.444  26.011  1.00  0.00     0.008 A 
ATOM     24  C   UNL A   1      33.069  17.318  25.206  1.00  0.00     0.039 A 
ATOM     25  C   UNL A   1      33.014  18.805  23.347  1.00  0.00     0.061 A 
ATOM     26  C   UNL A   1      33.142  17.518  23.857  1.00  0.00     0.124 A 
ATOM     27  F   UNL A   1      33.363  16.489  23.026  1.00  0.00    -0.207 F 
ENDBRANCH  17  20
ENDBRANCH  15  17
ENDBRANCH  10  15
BRANCH  12  28
ATOM     28  N   UNL A   1      33.358  25.044  23.893  1.00  0.00    -0.369 N 
ATOM     29  C   UNL A   1      33.702  25.545  22.551  1.00  0.00     0.144 C 
BRANCH  28  30
ATOM     30  C   UNL A   1      32.242  25.894  24.590  1.00  0.00     0.151 C 
BRANCH  30  31
ATOM     31  C   UNL A   1      32.390  27.194  25.494  1.00  0.00    -0.029 A 
ATOM     32  C   UNL A   1      33.210  28.341  25.356  1.00  0.00     0.005 A 
ATOM     33  C   UNL A   1      31.706  27.172  26.730  1.00  0.00     0.005 A 
ATOM     34  C   UNL A   1      33.028  29.515  26.130  1.00  0.00     0.000 A 
ATOM     35  C   UNL A   1      31.610  28.295  27.581  1.00  0.00     0.000 A 
ATOM     36  C   UNL A   1      32.186  29.504  27.225  1.00  0.00     0.000 A 
ENDBRANCH  30  31
ENDBRANCH  28  30
ENDBRANCH  12  28
ENDBRANCH   7   9
ENDBRANCH   6   7
ENDBRANCH   5   6
ENDBRANCH   4   5
ENDBRANCH   3   4
ENDBRANCH   2   3
ENDBRANCH   1   2
BRANCH   1  37
ATOM     37  O   UNL A   1      42.580  25.237  27.256  1.00  0.00    -0.377 OA
BRANCH  37  38
ATOM     38  C   UNL A   1      41.308  25.791  27.555  1.00  0.00     0.188 C 
BRANCH  38  39
ATOM     39  C   UNL A   1      41.168  27.335  27.658  1.00  0.00     0.188 C 
BRANCH  39  40
ATOM     40  O   UNL A   1      40.810  28.000  26.448  1.00  0.00    -0.376 OA
BRANCH  40  41
ATOM     41  C   UNL A   1      41.835  28.381  25.531  1.00  0.00     0.202 C 
BRANCH  41  42
ATOM     42  C   UNL A   1      43.289  28.487  26.040  1.00  0.00     0.261 C 
BRANCH  42  43
ATOM     43  O   UNL A   1      43.609  29.758  26.577  1.00  0.00    -0.460 OA
BRANCH  43  44
ATOM     44  C   UNL A   1      44.757  29.751  27.264  1.00  0.00     0.338 C 
ATOM     45  O   UNL A   1      45.349  28.786  27.722  1.00  0.00    -0.246 OA
BRANCH  44  46
ATOM     46  C   UNL A   1      45.235  31.148  27.368  1.00  0.00     0.060 A 
ATOM     47  C   UNL A   1      46.416  31.234  28.143  1.00  0.00     0.016 A 
ATOM     48  C   UNL A   1      44.143  31.972  27.576  1.00  0.00     0.016 A 
ATOM     49  C   UNL A   1      46.297  31.669  29.426  1.00  0.00     0.010 A 
ATOM     50  C   UNL A   1      43.978  32.328  28.874  1.00  0.00     0.010 A 
ATOM     51  C   UNL A   1      45.020  32.046  29.781  1.00  0.00    -0.014 A 
BRANCH  51  52
ATOM     52  C   UNL A   1      44.635  32.143  31.150  1.00  0.00     0.031 A 
ATOM     53  C   UNL A   1      43.933  30.963  31.635  1.00  0.00     0.074 A 
ATOM     54  C   UNL A   1      45.230  33.156  31.813  1.00  0.00     0.049 A 
ATOM     55  N   UNL A   1      43.305  30.898  32.743  1.00  0.00    -0.248 NA
ATOM     56  C   UNL A   1      43.815  29.738  30.834  1.00  0.00     0.031 C 
ATOM     57  C   UNL A   1      45.563  33.273  33.220  1.00  0.00     0.029 A 
ATOM     58  N   UNL A   1      45.514  34.424  31.282  1.00  0.00    -0.354 N 
ATOM     59  C   UNL A   1      43.127  29.557  32.990  1.00  0.00     0.074 A 
ATOM     60  C   UNL A   1      43.295  28.894  31.725  1.00  0.00     0.031 C 
ATOM     61  C   UNL A   1      45.759  34.574  33.514  1.00  0.00     0.029 A 
ATOM     62  C   UNL A   1      45.378  35.345  32.337  1.00  0.00     0.049 A 
ATOM     63  H   UNL A   1      45.762  34.630  30.351  1.00  0.00     0.167 HD
ATOM     64  C   UNL A   1      43.101  29.168  34.292  1.00  0.00     0.037 A 
ATOM     65  C   UNL A   1      44.328  36.223  32.314  1.00  0.00     0.037 A 
ATOM     66  C   UNL A   1      43.199  30.348  35.150  1.00  0.00     0.049 A 
ATOM     67  C   UNL A   1      43.316  35.900  33.396  1.00  0.00     0.074 A 
ATOM     68  C   UNL A   1      44.285  30.973  35.745  1.00  0.00     0.029 A 
ATOM     69  N   UNL A   1      42.190  31.304  35.081  1.00  0.00    -0.354 N 
ATOM     70  N   UNL A   1      43.063  34.695  33.835  1.00  0.00    -0.248 NA
ATOM     71  C   UNL A   1      42.569  36.931  34.108  1.00  0.00     0.031 C 
ATOM     72  C   UNL A   1      43.930  32.326  35.996  1.00  0.00     0.029 A 
ATOM     73  C   UNL A   1      42.637  32.526  35.546  1.00  0.00     0.049 A 
ATOM     74  H   UNL A   1      41.280  31.133  34.746  1.00  0.00     0.167 HD
ATOM     75  C   UNL A   1      42.175  34.772  34.879  1.00  0.00     0.074 A 
ATOM     76  C   UNL A   1      41.893  36.191  35.004  1.00  0.00     0.031 C 
ATOM     77  C   UNL A   1      41.748  33.675  35.576  1.00  0.00     0.037 A 
BRANCH  64  78
ATOM     78  C   UNL A   1      43.329  27.755  34.751  1.00  0.00     0.064 A 
ATOM     79  C   UNL A   1      42.257  26.839  34.778  1.00  0.00     0.173 A 
ATOM     80  C   UNL A   1      44.565  27.242  35.186  1.00  0.00     0.173 A 
ATOM     81  F   UNL A   1      41.032  27.179  34.358  1.00  0.00    -0.203 F 
ATOM     82  C   UNL A   1      42.399  25.532  35.244  1.00  0.00     0.198 A 
ATOM     83  C   UNL A   1      44.697  25.947  35.697  1.00  0.00     0.198 A 
ATOM     84  F   UNL A   1      45.694  27.953  35.085  1.00  0.00    -0.203 F 
ATOM     85  F   UNL A   1      41.345  24.706  35.230  1.00  0.00    -0.200 F 
ATOM     86  C   UNL A   1      43.616  25.090  35.720  1.00  0.00     0.200 A 
ATOM     87  F   UNL A   1      45.887  25.531  36.156  1.00  0.00    -0.200 F 
ATOM     88  F   UNL A   1      43.749  23.838  36.177  1.00  0.00    -0.200 F 
ENDBRANCH  64  78
BRANCH  65  89
ATOM     89  C   UNL A   1      43.987  36.662  30.924  1.00  0.00     0.064 A 
ATOM     90  C   UNL A   1      44.810  37.635  30.314  1.00  0.00     0.173 A 
ATOM     91  C   UNL A   1      43.184  35.884  30.080  1.00  0.00     0.173 A 
ATOM     92  F   UNL A   1      45.577  38.432  31.076  1.00  0.00    -0.203 F 
ATOM     93  C   UNL A   1      44.938  37.717  28.928  1.00  0.00     0.198 A 
ATOM     94  C   UNL A   1      43.312  35.975  28.690  1.00  0.00     0.198 A 
ATOM     95  F   UNL A   1      42.355  34.962  30.588  1.00  0.00    -0.203 F 
ATOM     96  F   UNL A   1      45.813  38.574  28.383  1.00  0.00    -0.200 F 
ATOM     97  C   UNL A   1      44.216  36.857  28.119  1.00  0.00     0.200 A 
ATOM     98  F   UNL A   1      42.618  35.141  27.901  1.00  0.00    -0.200 F 
ATOM     99  F   UNL A   1      44.414  36.852  26.791  1.00  0.00    -0.200 F 
ENDBRANCH  65  89
BRANCH  77 100
ATOM    100  C   UNL A   1      40.502  33.597  36.435  1.00  0.00     0.064 A 
ATOM    101  C   UNL A   1      39.197  33.547  35.919  1.00  0.00     0.173 A 
ATOM    102  C   UNL A   1      40.600  33.392  37.837  1.00  0.00     0.173 A 
ATOM    103  F   UNL A   1      38.958  33.580  34.602  1.00  0.00    -0.203 F 
ATOM    104  C   UNL A   1      38.080  33.393  36.742  1.00  0.00     0.198 A 
ATOM    105  C   UNL A   1      39.490  33.147  38.641  1.00  0.00     0.198 A 
ATOM    106  F   UNL A   1      41.777  33.387  38.478  1.00  0.00    -0.203 F 
ATOM    107  F   UNL A   1      36.854  33.422  36.201  1.00  0.00    -0.200 F 
ATOM    108  C   UNL A   1      38.226  33.175  38.099  1.00  0.00     0.200 A 
ATOM    109  F   UNL A   1      39.661  32.862  39.940  1.00  0.00    -0.200 F 
ATOM    110  F   UNL A   1      37.153  32.972  38.874  1.00  0.00    -0.200 F 
ENDBRANCH  77 100
ENDBRANCH  51  52
ENDBRANCH  44  46
ENDBRANCH  43  44
ENDBRANCH  42  43
ENDBRANCH  41  42
ENDBRANCH  40  41
ENDBRANCH  39  40
ENDBRANCH  38  39
ENDBRANCH  37  38
ENDBRANCH   1  37
TORSDOF 26
ENDMDL
