MODEL 1
REMARK VINA RESULT:     -11.1      0.000      0.000
REMARK SMILES Cc1ccc(Cl)c(OCC(=O)Nc2sccc2C(=O)OCCOCCOCCOCCOC(=O)c2ccc(-c3c4nc(c(-c5c(F)c(F)c(F)c(F)c5F)c5ccc([nH]5)c(-c5c(F)c(F)c(F)c(F)c5F)c5nc(c(-c6c(F)c(F)c(F)c(F)c6F)c6ccc3[nH]6)C=C5)C=C4)cc2)c1
REMARK SMILES IDX 25 1 24 2 23 3 22 4 21 5 20 6 18 7 19 8 17 9 13 10 14 11
REMARK SMILES IDX 15 12 16 13 12 14 10 15 11 16 9 18 8 19 7 20 1 21 2 22 3 23
REMARK SMILES IDX 98 24 4 25 5 26 6 27 26 28 27 29 28 30 29 31 30 32 31 33
REMARK SMILES IDX 32 34 33 35 34 36 35 37 36 38 97 39 37 40 96 41 38 42 39 43
REMARK SMILES IDX 40 44 90 45 41 46 95 47 89 48 91 49 42 50 94 51 88 52 87 53
REMARK SMILES IDX 43 55 75 56 55 57 74 58 56 59 59 60 73 61 92 62 57 63 58 64
REMARK SMILES IDX 72 66 93 67 60 68 44 69 45 70 53 71 46 72 47 73 51 74 54 75
REMARK SMILES IDX 48 76 49 77 52 78 50 79 76 80 77 81 85 82 78 83 79 84 83 85
REMARK SMILES IDX 86 86 80 87 81 88 84 89 82 90 61 91 62 92 70 93 63 94 64 95
REMARK SMILES IDX 68 96 71 97 65 98 66 99 69 100 67 101
REMARK H PARENT 12 17 91 54 59 65
REMARK Flexibility Score: inf
ROOT
ATOM      1  C   UNL A   1      39.931  20.197  26.130  1.00  0.00     0.188 C 
ENDROOT
BRANCH   1   2
ATOM      2  C   UNL A   1      40.353  21.584  26.630  1.00  0.00     0.188 C 
BRANCH   2   3
ATOM      3  O   UNL A   1      39.467  22.590  26.161  1.00  0.00    -0.376 OA
BRANCH   3   4
ATOM      4  C   UNL A   1      38.163  22.186  25.799  1.00  0.00     0.202 C 
BRANCH   4   5
ATOM      5  C   UNL A   1      37.118  23.289  25.807  1.00  0.00     0.261 C 
BRANCH   5   6
ATOM      6  O   UNL A   1      35.836  22.972  25.276  1.00  0.00    -0.460 OA
BRANCH   6   7
ATOM      7  C   UNL A   1      34.894  22.466  26.115  1.00  0.00     0.341 C 
ATOM      8  O   UNL A   1      34.533  22.979  27.159  1.00  0.00    -0.246 OA
BRANCH   7   9
ATOM      9  C   UNL A   1      34.265  21.306  25.508  1.00  0.00     0.094 A 
ATOM     10  C   UNL A   1      32.929  20.969  25.588  1.00  0.00     0.110 A 
ATOM     11  S   UNL A   1      32.625  19.367  25.074  1.00  0.00    -0.126 S 
ATOM     12  C   UNL A   1      34.250  19.128  24.625  1.00  0.00     0.068 A 
ATOM     13  C   UNL A   1      35.016  20.242  24.886  1.00  0.00     0.029 A 
BRANCH  10  14
ATOM     14  N   UNL A   1      31.783  21.544  26.077  1.00  0.00    -0.314 N 
ATOM     15  C   UNL A   1      31.193  22.754  25.872  1.00  0.00     0.262 C 
ATOM     16  O   UNL A   1      30.366  23.094  26.729  1.00  0.00    -0.271 OA
ATOM     17  H   UNL A   1      31.289  20.964  26.702  1.00  0.00     0.170 HD
BRANCH  15  18
ATOM     18  C   UNL A   1      31.326  23.542  24.535  1.00  0.00     0.329 C 
BRANCH  18  19
ATOM     19  O   UNL A   1      30.628  24.691  24.103  1.00  0.00    -0.482 OA
BRANCH  19  20
ATOM     20  C   UNL A   1      30.908  25.965  24.511  1.00  0.00     0.138 A 
ATOM     21  C   UNL A   1      31.549  27.984  27.664  1.00  0.00     0.044 C 
ATOM     22  C   UNL A   1      31.478  27.614  26.211  1.00  0.00    -0.047 A 
ATOM     23  C   UNL A   1      32.147  28.384  25.255  1.00  0.00     0.005 A 
ATOM     24  C   UNL A   1      30.834  26.426  25.822  1.00  0.00     0.051 A 
ATOM     25  C   UNL A   1      32.103  28.012  23.914  1.00  0.00     0.025 A 
ATOM     26  C   UNL A   1      31.464  26.826  23.541  1.00  0.00     0.083 A 
ATOM     27  Cl  UNL A   1      31.490  26.398  21.862  1.00  0.00    -0.080 Cl
ENDBRANCH  19  20
ENDBRANCH  18  19
ENDBRANCH  15  18
ENDBRANCH  10  14
ENDBRANCH   7   9
ENDBRANCH   6   7
ENDBRANCH   5   6
ENDBRANCH   4   5
ENDBRANCH   3   4
ENDBRANCH   2   3
ENDBRANCH   1   2
BRANCH   1  28
ATOM     28  O   UNL A   1      40.939  19.525  25.377  1.00  0.00    -0.377 OA
BRANCH  28  29
ATOM     29  C   UNL A   1      42.084  19.139  26.131  1.00  0.00     0.188 C 
BRANCH  29  30
ATOM     30  C   UNL A   1      43.463  19.576  25.581  1.00  0.00     0.188 C 
BRANCH  30  31
ATOM     31  O   UNL A   1      43.982  20.892  25.731  1.00  0.00    -0.376 OA
BRANCH  31  32
ATOM     32  C   UNL A   1      44.832  21.449  24.746  1.00  0.00     0.202 C 
BRANCH  32  33
ATOM     33  C   UNL A   1      44.297  22.632  23.932  1.00  0.00     0.261 C 
BRANCH  33  34
ATOM     34  O   UNL A   1      43.460  23.529  24.675  1.00  0.00    -0.460 OA
BRANCH  34  35
ATOM     35  C   UNL A   1      44.053  24.693  25.031  1.00  0.00     0.338 C 
ATOM     36  O   UNL A   1      45.140  25.114  24.673  1.00  0.00    -0.246 OA
BRANCH  35  37
ATOM     37  C   UNL A   1      43.125  25.506  25.844  1.00  0.00     0.060 A 
ATOM     38  C   UNL A   1      43.285  26.897  25.815  1.00  0.00     0.016 A 
ATOM     39  C   UNL A   1      42.172  24.919  26.680  1.00  0.00     0.016 A 
ATOM     40  C   UNL A   1      42.545  27.706  26.672  1.00  0.00     0.010 A 
ATOM     41  C   UNL A   1      41.446  25.727  27.561  1.00  0.00     0.010 A 
ATOM     42  C   UNL A   1      41.671  27.115  27.595  1.00  0.00    -0.014 A 
BRANCH  42  43
ATOM     43  C   UNL A   1      41.229  27.908  28.766  1.00  0.00     0.031 A 
ATOM     44  C   UNL A   1      42.033  27.795  30.033  1.00  0.00     0.074 A 
ATOM     45  C   UNL A   1      40.174  28.737  28.705  1.00  0.00     0.049 A 
ATOM     46  N   UNL A   1      41.846  28.366  31.194  1.00  0.00    -0.248 NA
ATOM     47  C   UNL A   1      43.212  26.915  29.977  1.00  0.00     0.031 C 
ATOM     48  C   UNL A   1      39.353  28.977  27.522  1.00  0.00     0.029 A 
ATOM     49  N   UNL A   1      39.618  29.533  29.674  1.00  0.00    -0.354 N 
ATOM     50  C   UNL A   1      42.876  27.909  32.005  1.00  0.00     0.074 A 
ATOM     51  C   UNL A   1      43.675  27.001  31.214  1.00  0.00     0.031 C 
ATOM     52  C   UNL A   1      38.395  29.868  27.833  1.00  0.00     0.029 A 
ATOM     53  C   UNL A   1      38.516  30.230  29.246  1.00  0.00     0.049 A 
ATOM     54  H   UNL A   1      39.975  29.599  30.589  1.00  0.00     0.167 HD
ATOM     55  C   UNL A   1      43.135  28.217  33.297  1.00  0.00     0.037 A 
ATOM     56  C   UNL A   1      37.693  31.049  29.930  1.00  0.00     0.037 A 
ATOM     57  C   UNL A   1      42.339  29.113  34.091  1.00  0.00     0.049 A 
ATOM     58  C   UNL A   1      37.946  31.301  31.395  1.00  0.00     0.074 A 
ATOM     59  C   UNL A   1      42.526  29.505  35.403  1.00  0.00     0.029 A 
ATOM     60  N   UNL A   1      41.191  29.748  33.641  1.00  0.00    -0.354 N 
ATOM     61  N   UNL A   1      38.931  30.883  32.152  1.00  0.00    -0.248 NA
ATOM     62  C   UNL A   1      36.962  32.134  32.102  1.00  0.00     0.031 C 
ATOM     63  C   UNL A   1      41.462  30.338  35.765  1.00  0.00     0.029 A 
ATOM     64  C   UNL A   1      40.639  30.503  34.662  1.00  0.00     0.049 A 
ATOM     65  H   UNL A   1      40.823  29.672  32.731  1.00  0.00     0.167 HD
ATOM     66  C   UNL A   1      38.702  31.421  33.412  1.00  0.00     0.074 A 
ATOM     67  C   UNL A   1      37.487  32.203  33.317  1.00  0.00     0.031 C 
ATOM     68  C   UNL A   1      39.433  31.283  34.546  1.00  0.00     0.037 A 
BRANCH  55  69
ATOM     69  C   UNL A   1      44.305  27.535  33.939  1.00  0.00     0.064 A 
ATOM     70  C   UNL A   1      44.196  26.253  34.498  1.00  0.00     0.173 A 
ATOM     71  C   UNL A   1      45.549  28.179  34.004  1.00  0.00     0.173 A 
ATOM     72  F   UNL A   1      43.022  25.605  34.481  1.00  0.00    -0.203 F 
ATOM     73  C   UNL A   1      45.284  25.654  35.129  1.00  0.00     0.198 A 
ATOM     74  C   UNL A   1      46.641  27.566  34.611  1.00  0.00     0.198 A 
ATOM     75  F   UNL A   1      45.702  29.407  33.486  1.00  0.00    -0.203 F 
ATOM     76  F   UNL A   1      45.145  24.453  35.705  1.00  0.00    -0.200 F 
ATOM     77  C   UNL A   1      46.506  26.309  35.181  1.00  0.00     0.200 A 
ATOM     78  F   UNL A   1      47.822  28.199  34.656  1.00  0.00    -0.200 F 
ATOM     79  F   UNL A   1      47.551  25.734  35.791  1.00  0.00    -0.200 F 
ENDBRANCH  55  69
BRANCH  56  80
ATOM     80  C   UNL A   1      36.543  31.690  29.243  1.00  0.00     0.064 A 
ATOM     81  C   UNL A   1      36.528  33.070  29.003  1.00  0.00     0.173 A 
ATOM     82  C   UNL A   1      35.427  30.944  28.837  1.00  0.00     0.173 A 
ATOM     83  F   UNL A   1      37.559  33.830  29.401  1.00  0.00    -0.203 F 
ATOM     84  C   UNL A   1      35.436  33.683  28.391  1.00  0.00     0.198 A 
ATOM     85  C   UNL A   1      34.345  31.554  28.205  1.00  0.00     0.198 A 
ATOM     86  F   UNL A   1      35.388  29.622  29.055  1.00  0.00    -0.203 F 
ATOM     87  F   UNL A   1      35.430  35.011  28.211  1.00  0.00    -0.200 F 
ATOM     88  C   UNL A   1      34.348  32.923  27.987  1.00  0.00     0.200 A 
ATOM     89  F   UNL A   1      33.298  30.816  27.812  1.00  0.00    -0.200 F 
ATOM     90  F   UNL A   1      33.298  33.513  27.400  1.00  0.00    -0.200 F 
ENDBRANCH  56  80
BRANCH  68  91
ATOM     91  C   UNL A   1      38.963  32.019  35.767  1.00  0.00     0.064 A 
ATOM     92  C   UNL A   1      38.206  31.385  36.762  1.00  0.00     0.173 A 
ATOM     93  C   UNL A   1      39.322  33.362  35.966  1.00  0.00     0.173 A 
ATOM     94  F   UNL A   1      37.826  30.108  36.611  1.00  0.00    -0.203 F 
ATOM     95  C   UNL A   1      37.808  32.075  37.904  1.00  0.00     0.198 A 
ATOM     96  C   UNL A   1      38.946  34.039  37.122  1.00  0.00     0.198 A 
ATOM     97  F   UNL A   1      40.053  34.010  35.047  1.00  0.00    -0.203 F 
ATOM     98  F   UNL A   1      37.052  31.461  38.825  1.00  0.00    -0.200 F 
ATOM     99  C   UNL A   1      38.184  33.397  38.087  1.00  0.00     0.200 A 
ATOM    100  F   UNL A   1      39.320  35.313  37.302  1.00  0.00    -0.200 F 
ATOM    101  F   UNL A   1      37.808  34.057  39.192  1.00  0.00    -0.200 F 
ENDBRANCH  68  91
ENDBRANCH  42  43
ENDBRANCH  35  37
ENDBRANCH  34  35
ENDBRANCH  33  34
ENDBRANCH  32  33
ENDBRANCH  31  32
ENDBRANCH  30  31
ENDBRANCH  29  30
ENDBRANCH  28  29
ENDBRANCH   1  28
TORSDOF 24
ENDMDL
MODEL 2
REMARK VINA RESULT:     -10.7      1.498      7.638
REMARK SMILES Cc1ccc(Cl)c(OCC(=O)Nc2sccc2C(=O)OCCOCCOCCOCCOC(=O)c2ccc(-c3c4nc(c(-c5c(F)c(F)c(F)c(F)c5F)c5ccc([nH]5)c(-c5c(F)c(F)c(F)c(F)c5F)c5nc(c(-c6c(F)c(F)c(F)c(F)c6F)c6ccc3[nH]6)C=C5)C=C4)cc2)c1
REMARK SMILES IDX 25 1 24 2 23 3 22 4 21 5 20 6 18 7 19 8 17 9 13 10 14 11
REMARK SMILES IDX 15 12 16 13 12 14 10 15 11 16 9 18 8 19 7 20 1 21 2 22 3 23
REMARK SMILES IDX 98 24 4 25 5 26 6 27 26 28 27 29 28 30 29 31 30 32 31 33
REMARK SMILES IDX 32 34 33 35 34 36 35 37 36 38 97 39 37 40 96 41 38 42 39 43
REMARK SMILES IDX 40 44 90 45 41 46 95 47 89 48 91 49 42 50 94 51 88 52 87 53
REMARK SMILES IDX 43 55 75 56 55 57 74 58 56 59 59 60 73 61 92 62 57 63 58 64
REMARK SMILES IDX 72 66 93 67 60 68 44 69 45 70 53 71 46 72 47 73 51 74 54 75
REMARK SMILES IDX 48 76 49 77 52 78 50 79 76 80 77 81 85 82 78 83 79 84 83 85
REMARK SMILES IDX 86 86 80 87 81 88 84 89 82 90 61 91 62 92 70 93 63 94 64 95
REMARK SMILES IDX 68 96 71 97 65 98 66 99 69 100 67 101
REMARK H PARENT 12 17 91 54 59 65
REMARK Flexibility Score: inf
ROOT
ATOM      1  C   UNL A   1      39.986  19.951  26.198  1.00  0.00     0.188 C 
ENDROOT
BRANCH   1   2
ATOM      2  C   UNL A   1      39.871  21.463  26.436  1.00  0.00     0.188 C 
BRANCH   2   3
ATOM      3  O   UNL A   1      38.770  22.011  25.725  1.00  0.00    -0.376 OA
BRANCH   3   4
ATOM      4  C   UNL A   1      37.884  21.103  25.105  1.00  0.00     0.202 C 
BRANCH   4   5
ATOM      5  C   UNL A   1      36.472  21.623  24.890  1.00  0.00     0.261 C 
BRANCH   5   6
ATOM      6  O   UNL A   1      36.283  23.032  24.955  1.00  0.00    -0.460 OA
BRANCH   6   7
ATOM      7  C   UNL A   1      35.543  23.632  23.985  1.00  0.00     0.341 C 
ATOM      8  O   UNL A   1      35.539  23.319  22.808  1.00  0.00    -0.246 OA
BRANCH   7   9
ATOM      9  C   UNL A   1      34.637  24.596  24.582  1.00  0.00     0.094 A 
ATOM     10  C   UNL A   1      33.852  24.394  25.698  1.00  0.00     0.110 A 
ATOM     11  S   UNL A   1      32.653  25.600  25.886  1.00  0.00    -0.126 S 
ATOM     12  C   UNL A   1      33.231  26.480  24.548  1.00  0.00     0.068 A 
ATOM     13  C   UNL A   1      34.303  25.853  23.953  1.00  0.00     0.029 A 
BRANCH  10  14
ATOM     14  N   UNL A   1      33.702  23.414  26.648  1.00  0.00    -0.314 N 
ATOM     15  C   UNL A   1      32.873  22.338  26.746  1.00  0.00     0.262 C 
ATOM     16  O   UNL A   1      32.747  21.866  27.884  1.00  0.00    -0.271 OA
ATOM     17  H   UNL A   1      34.315  23.511  27.412  1.00  0.00     0.170 HD
BRANCH  15  18
ATOM     18  C   UNL A   1      32.331  21.574  25.501  1.00  0.00     0.329 C 
BRANCH  18  19
ATOM     19  O   UNL A   1      31.894  20.236  25.395  1.00  0.00    -0.482 OA
BRANCH  19  20
ATOM     20  C   UNL A   1      32.586  19.245  24.755  1.00  0.00     0.138 A 
ATOM     21  C   UNL A   1      34.058  15.798  25.371  1.00  0.00     0.044 C 
ATOM     22  C   UNL A   1      33.571  17.020  24.647  1.00  0.00    -0.047 A 
ATOM     23  C   UNL A   1      33.368  16.985  23.265  1.00  0.00     0.005 A 
ATOM     24  C   UNL A   1      33.208  18.167  25.376  1.00  0.00     0.051 A 
ATOM     25  C   UNL A   1      32.883  18.114  22.609  1.00  0.00     0.025 A 
ATOM     26  C   UNL A   1      32.521  19.246  23.346  1.00  0.00     0.083 A 
ATOM     27  Cl  UNL A   1      31.878  20.596  22.472  1.00  0.00    -0.080 Cl
ENDBRANCH  19  20
ENDBRANCH  18  19
ENDBRANCH  15  18
ENDBRANCH  10  14
ENDBRANCH   7   9
ENDBRANCH   6   7
ENDBRANCH   5   6
ENDBRANCH   4   5
ENDBRANCH   3   4
ENDBRANCH   2   3
ENDBRANCH   1   2
BRANCH   1  28
ATOM     28  O   UNL A   1      41.086  19.582  25.368  1.00  0.00    -0.377 OA
BRANCH  28  29
ATOM     29  C   UNL A   1      42.247  19.160  26.074  1.00  0.00     0.188 C 
BRANCH  29  30
ATOM     30  C   UNL A   1      43.580  19.860  25.712  1.00  0.00     0.188 C 
BRANCH  30  31
ATOM     31  O   UNL A   1      43.832  21.237  25.965  1.00  0.00    -0.376 OA
BRANCH  31  32
ATOM     32  C   UNL A   1      44.804  21.942  25.217  1.00  0.00     0.202 C 
BRANCH  32  33
ATOM     33  C   UNL A   1      44.307  22.945  24.171  1.00  0.00     0.261 C 
BRANCH  33  34
ATOM     34  O   UNL A   1      43.443  23.964  24.695  1.00  0.00    -0.460 OA
BRANCH  34  35
ATOM     35  C   UNL A   1      44.077  25.090  25.099  1.00  0.00     0.338 C 
ATOM     36  O   UNL A   1      45.160  25.509  24.727  1.00  0.00    -0.246 OA
BRANCH  35  37
ATOM     37  C   UNL A   1      43.201  25.869  25.998  1.00  0.00     0.060 A 
ATOM     38  C   UNL A   1      43.511  27.220  26.197  1.00  0.00     0.016 A 
ATOM     39  C   UNL A   1      42.147  25.273  26.696  1.00  0.00     0.016 A 
ATOM     40  C   UNL A   1      42.817  27.966  27.145  1.00  0.00     0.010 A 
ATOM     41  C   UNL A   1      41.467  26.014  27.668  1.00  0.00     0.010 A 
ATOM     42  C   UNL A   1      41.838  27.345  27.931  1.00  0.00    -0.014 A 
BRANCH  42  43
ATOM     43  C   UNL A   1      41.422  27.994  29.196  1.00  0.00     0.031 A 
ATOM     44  C   UNL A   1      40.171  28.830  29.175  1.00  0.00     0.074 A 
ATOM     45  C   UNL A   1      42.102  27.820  30.341  1.00  0.00     0.049 A 
ATOM     46  N   UNL A   1      39.608  29.513  30.138  1.00  0.00    -0.248 NA
ATOM     47  C   UNL A   1      39.459  28.902  27.889  1.00  0.00     0.031 C 
ATOM     48  C   UNL A   1      43.291  26.989  30.501  1.00  0.00     0.029 A 
ATOM     49  N   UNL A   1      41.878  28.339  31.591  1.00  0.00    -0.354 N 
ATOM     50  C   UNL A   1      38.484  30.100  29.572  1.00  0.00     0.074 A 
ATOM     51  C   UNL A   1      38.452  29.710  28.181  1.00  0.00     0.031 C 
ATOM     52  C   UNL A   1      43.693  27.051  31.783  1.00  0.00     0.029 A 
ATOM     53  C   UNL A   1      42.810  27.954  32.521  1.00  0.00     0.049 A 
ATOM     54  H   UNL A   1      41.119  28.930  31.801  1.00  0.00     0.167 HD
ATOM     55  C   UNL A   1      37.559  30.895  30.158  1.00  0.00     0.037 A 
ATOM     56  C   UNL A   1      42.939  28.312  33.813  1.00  0.00     0.037 A 
ATOM     57  C   UNL A   1      37.592  31.292  31.539  1.00  0.00     0.049 A 
ATOM     58  C   UNL A   1      41.951  29.277  34.419  1.00  0.00     0.074 A 
ATOM     59  C   UNL A   1      36.693  32.080  32.234  1.00  0.00     0.029 A 
ATOM     60  N   UNL A   1      38.590  30.936  32.434  1.00  0.00    -0.354 N 
ATOM     61  N   UNL A   1      40.879  29.812  33.886  1.00  0.00    -0.248 NA
ATOM     62  C   UNL A   1      42.198  29.692  35.808  1.00  0.00     0.031 C 
ATOM     63  C   UNL A   1      37.175  32.243  33.537  1.00  0.00     0.029 A 
ATOM     64  C   UNL A   1      38.348  31.517  33.667  1.00  0.00     0.049 A 
ATOM     65  H   UNL A   1      39.358  30.356  32.222  1.00  0.00     0.167 HD
ATOM     66  C   UNL A   1      40.313  30.604  34.877  1.00  0.00     0.074 A 
ATOM     67  C   UNL A   1      41.154  30.474  36.047  1.00  0.00     0.031 C 
ATOM     68  C   UNL A   1      39.193  31.368  34.824  1.00  0.00     0.037 A 
BRANCH  55  69
ATOM     69  C   UNL A   1      36.462  31.423  29.284  1.00  0.00     0.064 A 
ATOM     70  C   UNL A   1      36.422  32.766  28.880  1.00  0.00     0.173 A 
ATOM     71  C   UNL A   1      35.432  30.574  28.854  1.00  0.00     0.173 A 
ATOM     72  F   UNL A   1      37.372  33.621  29.284  1.00  0.00    -0.203 F 
ATOM     73  C   UNL A   1      35.371  33.247  28.103  1.00  0.00     0.198 A 
ATOM     74  C   UNL A   1      34.398  31.052  28.055  1.00  0.00     0.198 A 
ATOM     75  F   UNL A   1      35.425  29.283  29.216  1.00  0.00    -0.203 F 
ATOM     76  F   UNL A   1      35.322  34.545  27.775  1.00  0.00    -0.200 F 
ATOM     77  C   UNL A   1      34.363  32.389  27.689  1.00  0.00     0.200 A 
ATOM     78  F   UNL A   1      33.427  30.221  27.651  1.00  0.00    -0.200 F 
ATOM     79  F   UNL A   1      33.350  32.854  26.944  1.00  0.00    -0.200 F 
ENDBRANCH  55  69
BRANCH  56  80
ATOM     80  C   UNL A   1      44.052  27.764  34.629  1.00  0.00     0.064 A 
ATOM     81  C   UNL A   1      45.265  28.457  34.746  1.00  0.00     0.173 A 
ATOM     82  C   UNL A   1      43.939  26.529  35.284  1.00  0.00     0.173 A 
ATOM     83  F   UNL A   1      45.431  29.627  34.112  1.00  0.00    -0.203 F 
ATOM     84  C   UNL A   1      46.326  27.931  35.481  1.00  0.00     0.198 A 
ATOM     85  C   UNL A   1      44.993  26.015  36.038  1.00  0.00     0.198 A 
ATOM     86  F   UNL A   1      42.804  25.823  35.193  1.00  0.00    -0.203 F 
ATOM     87  F   UNL A   1      47.489  28.594  35.543  1.00  0.00    -0.200 F 
ATOM     88  C   UNL A   1      46.187  26.714  36.131  1.00  0.00     0.200 A 
ATOM     89  F   UNL A   1      44.853  24.841  36.668  1.00  0.00    -0.200 F 
ATOM     90  F   UNL A   1      47.208  26.208  36.837  1.00  0.00    -0.200 F 
ENDBRANCH  56  80
BRANCH  68  91
ATOM     91  C   UNL A   1      38.791  32.095  36.074  1.00  0.00     0.064 A 
ATOM     92  C   UNL A   1      38.075  31.458  37.097  1.00  0.00     0.173 A 
ATOM     93  C   UNL A   1      39.177  33.430  36.272  1.00  0.00     0.173 A 
ATOM     94  F   UNL A   1      37.671  30.187  36.949  1.00  0.00    -0.203 F 
ATOM     95  C   UNL A   1      37.740  32.138  38.265  1.00  0.00     0.198 A 
ATOM     96  C   UNL A   1      38.865  34.098  37.453  1.00  0.00     0.198 A 
ATOM     97  F   UNL A   1      39.871  34.080  35.327  1.00  0.00    -0.203 F 
ATOM     98  F   UNL A   1      37.021  31.523  39.214  1.00  0.00    -0.200 F 
ATOM     99  C   UNL A   1      38.142  33.453  38.446  1.00  0.00     0.200 A 
ATOM    100  F   UNL A   1      39.264  35.364  37.630  1.00  0.00    -0.200 F 
ATOM    101  F   UNL A   1      37.828  34.104  39.575  1.00  0.00    -0.200 F 
ENDBRANCH  68  91
ENDBRANCH  42  43
ENDBRANCH  35  37
ENDBRANCH  34  35
ENDBRANCH  33  34
ENDBRANCH  32  33
ENDBRANCH  31  32
ENDBRANCH  30  31
ENDBRANCH  29  30
ENDBRANCH  28  29
ENDBRANCH   1  28
TORSDOF 24
ENDMDL
MODEL 3
REMARK VINA RESULT:     -10.5      1.455      2.382
REMARK SMILES Cc1ccc(Cl)c(OCC(=O)Nc2sccc2C(=O)OCCOCCOCCOCCOC(=O)c2ccc(-c3c4nc(c(-c5c(F)c(F)c(F)c(F)c5F)c5ccc([nH]5)c(-c5c(F)c(F)c(F)c(F)c5F)c5nc(c(-c6c(F)c(F)c(F)c(F)c6F)c6ccc3[nH]6)C=C5)C=C4)cc2)c1
REMARK SMILES IDX 25 1 24 2 23 3 22 4 21 5 20 6 18 7 19 8 17 9 13 10 14 11
REMARK SMILES IDX 15 12 16 13 12 14 10 15 11 16 9 18 8 19 7 20 1 21 2 22 3 23
REMARK SMILES IDX 98 24 4 25 5 26 6 27 26 28 27 29 28 30 29 31 30 32 31 33
REMARK SMILES IDX 32 34 33 35 34 36 35 37 36 38 97 39 37 40 96 41 38 42 39 43
REMARK SMILES IDX 40 44 90 45 41 46 95 47 89 48 91 49 42 50 94 51 88 52 87 53
REMARK SMILES IDX 43 55 75 56 55 57 74 58 56 59 59 60 73 61 92 62 57 63 58 64
REMARK SMILES IDX 72 66 93 67 60 68 44 69 45 70 53 71 46 72 47 73 51 74 54 75
REMARK SMILES IDX 48 76 49 77 52 78 50 79 76 80 77 81 85 82 78 83 79 84 83 85
REMARK SMILES IDX 86 86 80 87 81 88 84 89 82 90 61 91 62 92 70 93 63 94 64 95
REMARK SMILES IDX 68 96 71 97 65 98 66 99 69 100 67 101
REMARK H PARENT 12 17 91 54 59 65
REMARK Flexibility Score: inf
ROOT
ATOM      1  C   UNL A   1      41.823  19.343  26.174  1.00  0.00     0.188 C 
ENDROOT
BRANCH   1   2
ATOM      2  C   UNL A   1      41.750  20.648  26.977  1.00  0.00     0.188 C 
BRANCH   2   3
ATOM      3  O   UNL A   1      40.432  21.178  26.977  1.00  0.00    -0.376 OA
BRANCH   3   4
ATOM      4  C   UNL A   1      39.698  21.086  25.774  1.00  0.00     0.202 C 
BRANCH   4   5
ATOM      5  C   UNL A   1      38.374  21.833  25.765  1.00  0.00     0.261 C 
BRANCH   5   6
ATOM      6  O   UNL A   1      37.414  21.437  24.792  1.00  0.00    -0.460 OA
BRANCH   6   7
ATOM      7  C   UNL A   1      36.599  22.388  24.263  1.00  0.00     0.341 C 
ATOM      8  O   UNL A   1      36.970  23.428  23.751  1.00  0.00    -0.246 OA
BRANCH   7   9
ATOM      9  C   UNL A   1      35.228  21.910  24.251  1.00  0.00     0.094 A 
ATOM     10  C   UNL A   1      34.175  22.473  23.560  1.00  0.00     0.110 A 
ATOM     11  S   UNL A   1      32.657  21.872  24.072  1.00  0.00    -0.126 S 
ATOM     12  C   UNL A   1      33.379  20.764  25.145  1.00  0.00     0.068 A 
ATOM     13  C   UNL A   1      34.753  20.868  25.131  1.00  0.00     0.029 A 
BRANCH  10  14
ATOM     14  N   UNL A   1      34.008  23.476  22.638  1.00  0.00    -0.314 N 
ATOM     15  C   UNL A   1      33.637  24.782  22.747  1.00  0.00     0.262 C 
ATOM     16  O   UNL A   1      33.242  25.310  21.699  1.00  0.00    -0.271 OA
ATOM     17  H   UNL A   1      34.194  23.193  21.713  1.00  0.00     0.170 HD
BRANCH  15  18
ATOM     18  C   UNL A   1      33.935  25.641  24.012  1.00  0.00     0.329 C 
BRANCH  18  19
ATOM     19  O   UNL A   1      33.034  26.189  24.951  1.00  0.00    -0.482 OA
BRANCH  19  20
ATOM     20  C   UNL A   1      31.829  26.749  24.631  1.00  0.00     0.138 A 
ATOM     21  C   UNL A   1      30.307  29.395  22.369  1.00  0.00     0.044 C 
ATOM     22  C   UNL A   1      30.416  28.229  23.309  1.00  0.00    -0.047 A 
ATOM     23  C   UNL A   1      29.323  27.380  23.507  1.00  0.00     0.005 A 
ATOM     24  C   UNL A   1      31.653  27.921  23.903  1.00  0.00     0.051 A 
ATOM     25  C   UNL A   1      29.445  26.283  24.355  1.00  0.00     0.025 A 
ATOM     26  C   UNL A   1      30.683  25.985  24.935  1.00  0.00     0.083 A 
ATOM     27  Cl  UNL A   1      30.776  24.576  25.939  1.00  0.00    -0.080 Cl
ENDBRANCH  19  20
ENDBRANCH  18  19
ENDBRANCH  15  18
ENDBRANCH  10  14
ENDBRANCH   7   9
ENDBRANCH   6   7
ENDBRANCH   5   6
ENDBRANCH   4   5
ENDBRANCH   3   4
ENDBRANCH   2   3
ENDBRANCH   1   2
BRANCH   1  28
ATOM     28  O   UNL A   1      42.746  19.386  25.088  1.00  0.00    -0.377 OA
BRANCH  28  29
ATOM     29  C   UNL A   1      44.030  18.844  25.378  1.00  0.00     0.188 C 
BRANCH  29  30
ATOM     30  C   UNL A   1      45.235  19.453  24.620  1.00  0.00     0.188 C 
BRANCH  30  31
ATOM     31  O   UNL A   1      45.493  20.851  24.558  1.00  0.00    -0.376 OA
BRANCH  31  32
ATOM     32  C   UNL A   1      44.817  21.669  23.621  1.00  0.00     0.202 C 
BRANCH  32  33
ATOM     33  C   UNL A   1      44.255  23.004  24.119  1.00  0.00     0.261 C 
BRANCH  33  34
ATOM     34  O   UNL A   1      43.916  23.019  25.513  1.00  0.00    -0.460 OA
BRANCH  34  35
ATOM     35  C   UNL A   1      44.623  23.901  26.258  1.00  0.00     0.338 C 
ATOM     36  O   UNL A   1      45.835  24.014  26.326  1.00  0.00    -0.246 OA
BRANCH  35  37
ATOM     37  C   UNL A   1      43.707  24.855  26.916  1.00  0.00     0.060 A 
ATOM     38  C   UNL A   1      44.075  26.207  26.926  1.00  0.00     0.016 A 
ATOM     39  C   UNL A   1      42.554  24.429  27.581  1.00  0.00     0.016 A 
ATOM     40  C   UNL A   1      43.333  27.129  27.658  1.00  0.00     0.010 A 
ATOM     41  C   UNL A   1      41.823  25.350  28.339  1.00  0.00     0.010 A 
ATOM     42  C   UNL A   1      42.244  26.690  28.422  1.00  0.00    -0.014 A 
BRANCH  42  43
ATOM     43  C   UNL A   1      41.740  27.558  29.511  1.00  0.00     0.031 A 
ATOM     44  C   UNL A   1      42.488  27.546  30.818  1.00  0.00     0.074 A 
ATOM     45  C   UNL A   1      40.680  28.364  29.345  1.00  0.00     0.049 A 
ATOM     46  N   UNL A   1      42.243  28.197  31.925  1.00  0.00    -0.248 NA
ATOM     47  C   UNL A   1      43.679  26.682  30.877  1.00  0.00     0.031 C 
ATOM     48  C   UNL A   1      39.911  28.507  28.112  1.00  0.00     0.029 A 
ATOM     49  N   UNL A   1      40.072  29.220  30.228  1.00  0.00    -0.354 N 
ATOM     50  C   UNL A   1      43.240  27.814  32.812  1.00  0.00     0.074 A 
ATOM     51  C   UNL A   1      44.084  26.863  32.123  1.00  0.00     0.031 C 
ATOM     52  C   UNL A   1      38.929  29.404  28.317  1.00  0.00     0.029 A 
ATOM     53  C   UNL A   1      38.983  29.868  29.704  1.00  0.00     0.049 A 
ATOM     54  H   UNL A   1      40.387  29.356  31.151  1.00  0.00     0.167 HD
ATOM     55  C   UNL A   1      43.437  28.217  34.088  1.00  0.00     0.037 A 
ATOM     56  C   UNL A   1      38.121  30.722  30.290  1.00  0.00     0.037 A 
ATOM     57  C   UNL A   1      42.596  29.156  34.780  1.00  0.00     0.049 A 
ATOM     58  C   UNL A   1      38.304  31.081  31.743  1.00  0.00     0.074 A 
ATOM     59  C   UNL A   1      42.720  29.643  36.067  1.00  0.00     0.029 A 
ATOM     60  N   UNL A   1      41.462  29.740  34.235  1.00  0.00    -0.354 N 
ATOM     61  N   UNL A   1      39.259  30.733  32.571  1.00  0.00    -0.248 NA
ATOM     62  C   UNL A   1      37.280  31.949  32.344  1.00  0.00     0.031 C 
ATOM     63  C   UNL A   1      41.632  30.484  36.321  1.00  0.00     0.029 A 
ATOM     64  C   UNL A   1      40.857  30.558  35.174  1.00  0.00     0.049 A 
ATOM     65  H   UNL A   1      41.136  29.594  33.317  1.00  0.00     0.167 HD
ATOM     66  C   UNL A   1      38.967  31.356  33.777  1.00  0.00     0.074 A 
ATOM     67  C   UNL A   1      37.749  32.111  33.573  1.00  0.00     0.031 C 
ATOM     68  C   UNL A   1      39.649  31.310  34.949  1.00  0.00     0.037 A 
BRANCH  55  69
ATOM     69  C   UNL A   1      44.585  27.600  34.829  1.00  0.00     0.064 A 
ATOM     70  C   UNL A   1      45.852  28.201  34.862  1.00  0.00     0.173 A 
ATOM     71  C   UNL A   1      44.415  26.383  35.505  1.00  0.00     0.173 A 
ATOM     72  F   UNL A   1      46.069  29.354  34.211  1.00  0.00    -0.203 F 
ATOM     73  C   UNL A   1      46.917  27.589  35.519  1.00  0.00     0.198 A 
ATOM     74  C   UNL A   1      45.474  25.788  36.184  1.00  0.00     0.198 A 
ATOM     75  F   UNL A   1      43.224  25.768  35.501  1.00  0.00    -0.203 F 
ATOM     76  F   UNL A   1      48.131  28.152  35.492  1.00  0.00    -0.200 F 
ATOM     77  C   UNL A   1      46.725  26.386  36.183  1.00  0.00     0.200 A 
ATOM     78  F   UNL A   1      45.287  24.628  36.829  1.00  0.00    -0.200 F 
ATOM     79  F   UNL A   1      47.752  25.796  36.812  1.00  0.00    -0.200 F 
ENDBRANCH  55  69
BRANCH  56  80
ATOM     80  C   UNL A   1      36.995  31.295  29.509  1.00  0.00     0.064 A 
ATOM     81  C   UNL A   1      35.906  30.499  29.128  1.00  0.00     0.173 A 
ATOM     82  C   UNL A   1      36.995  32.638  29.105  1.00  0.00     0.173 A 
ATOM     83  F   UNL A   1      35.876  29.201  29.465  1.00  0.00    -0.203 F 
ATOM     84  C   UNL A   1      34.864  31.022  28.365  1.00  0.00     0.198 A 
ATOM     85  C   UNL A   1      35.941  33.166  28.362  1.00  0.00     0.198 A 
ATOM     86  F   UNL A   1      38.020  33.438  29.434  1.00  0.00    -0.203 F 
ATOM     87  F   UNL A   1      33.855  30.229  27.980  1.00  0.00    -0.200 F 
ATOM     88  C   UNL A   1      34.879  32.356  27.988  1.00  0.00     0.200 A 
ATOM     89  F   UNL A   1      35.958  34.457  28.003  1.00  0.00    -0.200 F 
ATOM     90  F   UNL A   1      33.878  32.859  27.253  1.00  0.00    -0.200 F 
ENDBRANCH  56  80
BRANCH  68  91
ATOM     91  C   UNL A   1      39.116  32.125  36.092  1.00  0.00     0.064 A 
ATOM     92  C   UNL A   1      38.226  31.582  37.029  1.00  0.00     0.173 A 
ATOM     93  C   UNL A   1      39.546  33.448  36.279  1.00  0.00     0.173 A 
ATOM     94  F   UNL A   1      37.775  30.327  36.886  1.00  0.00    -0.203 F 
ATOM     95  C   UNL A   1      37.769  32.343  38.103  1.00  0.00     0.198 A 
ATOM     96  C   UNL A   1      39.108  34.195  37.368  1.00  0.00     0.198 A 
ATOM     97  F   UNL A   1      40.403  34.009  35.414  1.00  0.00    -0.203 F 
ATOM     98  F   UNL A   1      36.888  31.818  38.966  1.00  0.00    -0.200 F 
ATOM     99  C   UNL A   1      38.215  33.644  38.276  1.00  0.00     0.200 A 
ATOM    100  F   UNL A   1      39.550  35.449  37.540  1.00  0.00    -0.200 F 
ATOM    101  F   UNL A   1      37.782  34.372  39.315  1.00  0.00    -0.200 F 
ENDBRANCH  68  91
ENDBRANCH  42  43
ENDBRANCH  35  37
ENDBRANCH  34  35
ENDBRANCH  33  34
ENDBRANCH  32  33
ENDBRANCH  31  32
ENDBRANCH  30  31
ENDBRANCH  29  30
ENDBRANCH  28  29
ENDBRANCH   1  28
TORSDOF 24
ENDMDL
