MODEL 1
REMARK VINA RESULT:      -9.0      0.000      0.000
REMARK SMILES O=C(OCCOCCOCCOCCOC(=O)[C@H](c1c[nH]c2ccc(Br)cc12)[N@H+]1CCC[C@H](c2nc3ccccc3s2)C1)c1ccc(-c2c3nc(c(-c4c(F)c(F)c(F)c(F)c4F)c4ccc([nH]4)c(-c4c(F)c(F)c(F)c(F)c4F)c4nc(c(-c5c(F)c(F)c(F)c(F)c5F)c5ccc2[nH]5)C=C4)C=C3)cc1
REMARK SMILES IDX 9 1 8 2 7 3 6 4 5 5 4 6 3 7 2 8 1 9 44 10 45 11 106 12 46 13
REMARK SMILES IDX 105 14 47 15 48 16 49 17 99 18 50 19 104 20 98 21 100 22
REMARK SMILES IDX 51 23 103 24 97 25 96 26 52 28 84 29 64 30 83 31 65 32 68 33
REMARK SMILES IDX 82 34 101 35 66 36 67 37 81 39 102 40 69 41 53 42 54 43
REMARK SMILES IDX 62 44 55 45 56 46 60 47 63 48 57 49 58 50 61 51 59 52 85 53
REMARK SMILES IDX 86 54 94 55 87 56 88 57 92 58 95 59 89 60 90 61 93 62 91 63
REMARK SMILES IDX 70 64 71 65 79 66 72 67 73 68 77 69 80 70 74 71 75 72 78 73
REMARK SMILES IDX 76 74 10 75 11 76 12 77 13 78 14 79 15 80 16 81 17 82 18 83
REMARK SMILES IDX 29 84 30 85 43 86 31 88 33 89 32 90 34 91 35 92 42 93 36 94
REMARK SMILES IDX 41 95 37 96 40 97 38 98 39 99 19 100 20 101 28 102 21 103
REMARK SMILES IDX 22 104 27 105 23 107 25 108 24 109 26 110
REMARK H PARENT 100 27 68 38 29 87 21 106
REMARK Flexibility Score: inf
ROOT
ATOM      1  O   UNL A   1      49.748  28.943  21.539  1.00  0.00    -0.377 OA
ENDROOT
BRANCH   1   2
ATOM      2  C   UNL A   1      51.119  28.696  21.346  1.00  0.00     0.188 C 
BRANCH   2   3
ATOM      3  C   UNL A   1      51.974  29.132  22.521  1.00  0.00     0.188 C 
BRANCH   3   4
ATOM      4  O   UNL A   1      51.284  29.170  23.761  1.00  0.00    -0.376 OA
BRANCH   4   5
ATOM      5  C   UNL A   1      51.493  28.111  24.685  1.00  0.00     0.202 C 
BRANCH   5   6
ATOM      6  C   UNL A   1      52.826  28.149  25.423  1.00  0.00     0.261 C 
BRANCH   6   7
ATOM      7  O   UNL A   1      53.234  26.941  26.091  1.00  0.00    -0.460 OA
BRANCH   7   8
ATOM      8  C   UNL A   1      53.030  26.442  27.327  1.00  0.00     0.338 C 
ATOM      9  O   UNL A   1      53.984  25.892  27.880  1.00  0.00    -0.246 OA
BRANCH   8  10
ATOM     10  C   UNL A   1      51.756  26.525  28.106  1.00  0.00     0.060 A 
ATOM     11  C   UNL A   1      50.588  25.811  27.853  1.00  0.00     0.016 A 
ATOM     12  C   UNL A   1      51.766  27.383  29.223  1.00  0.00     0.016 A 
ATOM     13  C   UNL A   1      49.464  25.938  28.649  1.00  0.00     0.010 A 
ATOM     14  C   UNL A   1      50.622  27.569  30.004  1.00  0.00     0.010 A 
ATOM     15  C   UNL A   1      49.456  26.875  29.674  1.00  0.00    -0.014 A 
BRANCH  15  16
ATOM     16  C   UNL A   1      48.124  27.341  30.088  1.00  0.00     0.031 A 
ATOM     17  C   UNL A   1      47.543  26.695  31.313  1.00  0.00     0.074 A 
ATOM     18  C   UNL A   1      47.601  28.453  29.549  1.00  0.00     0.049 A 
ATOM     19  N   UNL A   1      46.394  26.890  31.896  1.00  0.00    -0.248 NA
ATOM     20  C   UNL A   1      48.396  25.701  31.995  1.00  0.00     0.031 C 
ATOM     21  C   UNL A   1      48.232  29.258  28.500  1.00  0.00     0.029 A 
ATOM     22  N   UNL A   1      46.454  29.132  29.850  1.00  0.00    -0.354 N 
ATOM     23  C   UNL A   1      46.367  26.007  32.969  1.00  0.00     0.074 A 
ATOM     24  C   UNL A   1      47.612  25.281  32.972  1.00  0.00     0.031 C 
ATOM     25  C   UNL A   1      47.468  30.337  28.260  1.00  0.00     0.029 A 
ATOM     26  C   UNL A   1      46.263  30.248  29.076  1.00  0.00     0.049 A 
ATOM     27  H   UNL A   1      45.826  28.846  30.552  1.00  0.00     0.167 HD
ATOM     28  C   UNL A   1      45.369  25.818  33.860  1.00  0.00     0.037 A 
ATOM     29  C   UNL A   1      45.200  31.069  29.021  1.00  0.00     0.037 A 
ATOM     30  C   UNL A   1      44.155  26.586  33.827  1.00  0.00     0.049 A 
ATOM     31  C   UNL A   1      44.048  30.765  29.943  1.00  0.00     0.074 A 
ATOM     32  C   UNL A   1      43.022  26.458  34.602  1.00  0.00     0.029 A 
ATOM     33  N   UNL A   1      43.935  27.645  32.952  1.00  0.00    -0.354 N 
ATOM     34  N   UNL A   1      43.957  29.848  30.879  1.00  0.00    -0.248 NA
ATOM     35  C   UNL A   1      42.848  31.592  29.793  1.00  0.00     0.031 C 
ATOM     36  C   UNL A   1      42.092  27.405  34.157  1.00  0.00     0.029 A 
ATOM     37  C   UNL A   1      42.673  28.170  33.154  1.00  0.00     0.049 A 
ATOM     38  H   UNL A   1      44.583  27.973  32.287  1.00  0.00     0.167 HD
ATOM     39  C   UNL A   1      42.703  30.003  31.451  1.00  0.00     0.074 A 
ATOM     40  C   UNL A   1      42.078  31.118  30.762  1.00  0.00     0.031 C 
ATOM     41  C   UNL A   1      42.113  29.297  32.448  1.00  0.00     0.037 A 
BRANCH  28  42
ATOM     42  C   UNL A   1      45.522  24.683  34.830  1.00  0.00     0.064 A 
ATOM     43  C   UNL A   1      45.141  23.367  34.522  1.00  0.00     0.173 A 
ATOM     44  C   UNL A   1      45.994  24.939  36.126  1.00  0.00     0.173 A 
ATOM     45  F   UNL A   1      44.645  23.072  33.311  1.00  0.00    -0.203 F 
ATOM     46  C   UNL A   1      45.194  22.362  35.487  1.00  0.00     0.198 A 
ATOM     47  C   UNL A   1      46.075  23.926  37.077  1.00  0.00     0.198 A 
ATOM     48  F   UNL A   1      46.355  26.181  36.480  1.00  0.00    -0.203 F 
ATOM     49  F   UNL A   1      44.754  21.130  35.193  1.00  0.00    -0.200 F 
ATOM     50  C   UNL A   1      45.664  22.640  36.761  1.00  0.00     0.200 A 
ATOM     51  F   UNL A   1      46.531  24.200  38.308  1.00  0.00    -0.200 F 
ATOM     52  F   UNL A   1      45.703  21.675  37.691  1.00  0.00    -0.200 F 
ENDBRANCH  28  42
BRANCH  29  53
ATOM     53  C   UNL A   1      45.150  32.184  28.036  1.00  0.00     0.064 A 
ATOM     54  C   UNL A   1      45.750  33.423  28.302  1.00  0.00     0.173 A 
ATOM     55  C   UNL A   1      44.477  32.042  26.811  1.00  0.00     0.173 A 
ATOM     56  F   UNL A   1      46.392  33.621  29.462  1.00  0.00    -0.203 F 
ATOM     57  C   UNL A   1      45.660  34.479  27.395  1.00  0.00     0.198 A 
ATOM     58  C   UNL A   1      44.416  33.087  25.890  1.00  0.00     0.198 A 
ATOM     59  F   UNL A   1      43.879  30.883  26.501  1.00  0.00    -0.203 F 
ATOM     60  F   UNL A   1      46.197  35.668  27.699  1.00  0.00    -0.200 F 
ATOM     61  C   UNL A   1      44.998  34.309  26.188  1.00  0.00     0.200 A 
ATOM     62  F   UNL A   1      43.788  32.911  24.720  1.00  0.00    -0.200 F 
ATOM     63  F   UNL A   1      44.910  35.324  25.319  1.00  0.00    -0.200 F 
ENDBRANCH  29  53
BRANCH  41  64
ATOM     64  C   UNL A   1      40.758  29.760  32.888  1.00  0.00     0.064 A 
ATOM     65  C   UNL A   1      40.596  30.813  33.798  1.00  0.00     0.173 A 
ATOM     66  C   UNL A   1      39.609  29.164  32.350  1.00  0.00     0.173 A 
ATOM     67  F   UNL A   1      41.668  31.404  34.347  1.00  0.00    -0.203 F 
ATOM     68  C   UNL A   1      39.325  31.229  34.183  1.00  0.00     0.198 A 
ATOM     69  C   UNL A   1      38.342  29.609  32.706  1.00  0.00     0.198 A 
ATOM     70  F   UNL A   1      39.716  28.160  31.466  1.00  0.00    -0.203 F 
ATOM     71  F   UNL A   1      39.189  32.195  35.101  1.00  0.00    -0.200 F 
ATOM     72  C   UNL A   1      38.200  30.633  33.631  1.00  0.00     0.200 A 
ATOM     73  F   UNL A   1      37.257  29.047  32.156  1.00  0.00    -0.200 F 
ATOM     74  F   UNL A   1      36.978  31.042  33.995  1.00  0.00    -0.200 F 
ENDBRANCH  41  64
ENDBRANCH  15  16
ENDBRANCH   8  10
ENDBRANCH   7   8
ENDBRANCH   6   7
ENDBRANCH   5   6
ENDBRANCH   4   5
ENDBRANCH   3   4
ENDBRANCH   2   3
ENDBRANCH   1   2
BRANCH   1  75
ATOM     75  C   UNL A   1      48.883  27.830  21.721  1.00  0.00     0.188 C 
BRANCH  75  76
ATOM     76  C   UNL A   1      48.267  27.392  23.077  1.00  0.00     0.188 C 
BRANCH  76  77
ATOM     77  O   UNL A   1      48.199  25.992  23.281  1.00  0.00    -0.376 OA
BRANCH  77  78
ATOM     78  C   UNL A   1      47.896  25.555  24.596  1.00  0.00     0.202 C 
BRANCH  78  79
ATOM     79  C   UNL A   1      46.409  25.557  24.983  1.00  0.00     0.261 C 
BRANCH  79  80
ATOM     80  O   UNL A   1      45.652  24.354  24.747  1.00  0.00    -0.459 OA
BRANCH  80  81
ATOM     81  C   UNL A   1      44.450  24.207  25.380  1.00  0.00     0.370 C 
ATOM     82  O   UNL A   1      43.455  24.869  25.080  1.00  0.00    -0.245 OA
BRANCH  81  83
ATOM     83  C   UNL A   1      44.529  23.037  26.435  1.00  0.00     0.328 C 
BRANCH  83  84
ATOM     84  N   UNL A   1      44.288  23.598  27.766  1.00  0.00    -0.319 N 
ATOM     85  C   UNL A   1      44.110  22.659  28.862  1.00  0.00     0.263 C 
ATOM     86  C   UNL A   1      45.283  24.634  28.116  1.00  0.00     0.274 C 
ATOM     87  H   UNL A   1      43.367  24.022  27.660  1.00  0.00     0.349 HD
ATOM     88  C   UNL A   1      43.531  23.431  30.051  1.00  0.00     0.062 C 
ATOM     89  C   UNL A   1      44.716  25.544  29.221  1.00  0.00     0.104 C 
ATOM     90  C   UNL A   1      44.373  24.654  30.428  1.00  0.00     0.022 C 
BRANCH  89  91
ATOM     91  C   UNL A   1      43.543  26.351  28.683  1.00  0.00     0.103 A 
ATOM     92  N   UNL A   1      42.288  26.054  28.935  1.00  0.00    -0.241 NA
ATOM     93  S   UNL A   1      43.749  27.690  27.627  1.00  0.00    -0.118 S 
ATOM     94  C   UNL A   1      41.431  27.000  28.428  1.00  0.00     0.082 A 
ATOM     95  C   UNL A   1      42.044  27.982  27.654  1.00  0.00     0.055 A 
ATOM     96  C   UNL A   1      40.035  27.047  28.628  1.00  0.00     0.030 A 
ATOM     97  C   UNL A   1      41.296  29.003  27.047  1.00  0.00     0.021 A 
ATOM     98  C   UNL A   1      39.285  28.073  28.048  1.00  0.00     0.002 A 
ATOM     99  C   UNL A   1      39.911  29.033  27.262  1.00  0.00     0.002 A 
ENDBRANCH  89  91
ENDBRANCH  83  84
BRANCH  83 100
ATOM    100  C   UNL A   1      43.518  21.936  26.093  1.00  0.00     0.046 A 
ATOM    101  C   UNL A   1      43.797  20.642  25.685  1.00  0.00     0.094 A 
ATOM    102  C   UNL A   1      42.073  22.019  26.169  1.00  0.00     0.010 A 
ATOM    103  N   UNL A   1      42.626  19.949  25.551  1.00  0.00    -0.361 N 
ATOM    104  C   UNL A   1      41.557  20.758  25.853  1.00  0.00     0.046 A 
ATOM    105  C   UNL A   1      41.157  23.037  26.520  1.00  0.00     0.026 A 
ATOM    106  H   UNL A   1      42.559  19.006  25.277  1.00  0.00     0.166 HD
ATOM    107  C   UNL A   1      40.187  20.462  25.870  1.00  0.00     0.028 A 
ATOM    108  C   UNL A   1      39.785  22.751  26.541  1.00  0.00     0.018 A 
ATOM    109  C   UNL A   1      39.303  21.485  26.222  1.00  0.00     0.018 A 
ATOM    110  Br  UNL A   1      38.559  24.109  27.027  1.00  0.00    -0.051 Br
ENDBRANCH  83 100
ENDBRANCH  81  83
ENDBRANCH  80  81
ENDBRANCH  79  80
ENDBRANCH  78  79
ENDBRANCH  77  78
ENDBRANCH  76  77
ENDBRANCH  75  76
ENDBRANCH   1  75
TORSDOF 23
ENDMDL
MODEL 2
REMARK VINA RESULT:      -8.5      1.279      2.516
REMARK SMILES O=C(OCCOCCOCCOCCOC(=O)[C@H](c1c[nH]c2ccc(Br)cc12)[N@H+]1CCC[C@H](c2nc3ccccc3s2)C1)c1ccc(-c2c3nc(c(-c4c(F)c(F)c(F)c(F)c4F)c4ccc([nH]4)c(-c4c(F)c(F)c(F)c(F)c4F)c4nc(c(-c5c(F)c(F)c(F)c(F)c5F)c5ccc2[nH]5)C=C4)C=C3)cc1
REMARK SMILES IDX 9 1 8 2 7 3 6 4 5 5 4 6 3 7 2 8 1 9 44 10 45 11 106 12 46 13
REMARK SMILES IDX 105 14 47 15 48 16 49 17 99 18 50 19 104 20 98 21 100 22
REMARK SMILES IDX 51 23 103 24 97 25 96 26 52 28 84 29 64 30 83 31 65 32 68 33
REMARK SMILES IDX 82 34 101 35 66 36 67 37 81 39 102 40 69 41 53 42 54 43
REMARK SMILES IDX 62 44 55 45 56 46 60 47 63 48 57 49 58 50 61 51 59 52 85 53
REMARK SMILES IDX 86 54 94 55 87 56 88 57 92 58 95 59 89 60 90 61 93 62 91 63
REMARK SMILES IDX 70 64 71 65 79 66 72 67 73 68 77 69 80 70 74 71 75 72 78 73
REMARK SMILES IDX 76 74 10 75 11 76 12 77 13 78 14 79 15 80 16 81 17 82 18 83
REMARK SMILES IDX 29 84 30 85 43 86 31 88 33 89 32 90 34 91 35 92 42 93 36 94
REMARK SMILES IDX 41 95 37 96 40 97 38 98 39 99 19 100 20 101 28 102 21 103
REMARK SMILES IDX 22 104 27 105 23 107 25 108 24 109 26 110
REMARK H PARENT 100 27 68 38 29 87 21 106
REMARK Flexibility Score: inf
ROOT
ATOM      1  O   UNL A   1      50.520  29.175  21.626  1.00  0.00    -0.377 OA
ENDROOT
BRANCH   1   2
ATOM      2  C   UNL A   1      51.924  29.098  21.629  1.00  0.00     0.188 C 
BRANCH   2   3
ATOM      3  C   UNL A   1      52.545  29.584  22.925  1.00  0.00     0.188 C 
BRANCH   3   4
ATOM      4  O   UNL A   1      51.632  29.681  24.008  1.00  0.00    -0.376 OA
BRANCH   4   5
ATOM      5  C   UNL A   1      51.787  28.793  25.106  1.00  0.00     0.202 C 
BRANCH   5   6
ATOM      6  C   UNL A   1      52.717  27.612  24.858  1.00  0.00     0.261 C 
BRANCH   6   7
ATOM      7  O   UNL A   1      52.435  26.400  25.581  1.00  0.00    -0.460 OA
BRANCH   7   8
ATOM      8  C   UNL A   1      52.313  26.098  26.889  1.00  0.00     0.338 C 
ATOM      9  O   UNL A   1      53.320  25.695  27.473  1.00  0.00    -0.246 OA
BRANCH   8  10
ATOM     10  C   UNL A   1      51.070  26.242  27.709  1.00  0.00     0.060 A 
ATOM     11  C   UNL A   1      49.844  25.631  27.459  1.00  0.00     0.016 A 
ATOM     12  C   UNL A   1      51.175  27.044  28.862  1.00  0.00     0.016 A 
ATOM     13  C   UNL A   1      48.755  25.807  28.294  1.00  0.00     0.010 A 
ATOM     14  C   UNL A   1      50.071  27.281  29.684  1.00  0.00     0.010 A 
ATOM     15  C   UNL A   1      48.846  26.694  29.358  1.00  0.00    -0.014 A 
BRANCH  15  16
ATOM     16  C   UNL A   1      47.565  27.240  29.832  1.00  0.00     0.031 A 
ATOM     17  C   UNL A   1      46.995  26.621  31.076  1.00  0.00     0.074 A 
ATOM     18  C   UNL A   1      47.094  28.389  29.324  1.00  0.00     0.049 A 
ATOM     19  N   UNL A   1      45.886  26.883  31.708  1.00  0.00    -0.248 NA
ATOM     20  C   UNL A   1      47.810  25.567  31.713  1.00  0.00     0.031 C 
ATOM     21  C   UNL A   1      47.732  29.163  28.256  1.00  0.00     0.029 A 
ATOM     22  N   UNL A   1      46.006  29.137  29.678  1.00  0.00    -0.354 N 
ATOM     23  C   UNL A   1      45.847  25.993  32.774  1.00  0.00     0.074 A 
ATOM     24  C   UNL A   1      47.041  25.188  32.719  1.00  0.00     0.031 C 
ATOM     25  C   UNL A   1      47.030  30.291  28.056  1.00  0.00     0.029 A 
ATOM     26  C   UNL A   1      45.857  30.272  28.921  1.00  0.00     0.049 A 
ATOM     27  H   UNL A   1      45.391  28.885  30.404  1.00  0.00     0.167 HD
ATOM     28  C   UNL A   1      44.877  25.859  33.705  1.00  0.00     0.037 A 
ATOM     29  C   UNL A   1      44.848  31.160  28.918  1.00  0.00     0.037 A 
ATOM     30  C   UNL A   1      43.716  26.704  33.730  1.00  0.00     0.049 A 
ATOM     31  C   UNL A   1      43.718  30.922  29.886  1.00  0.00     0.074 A 
ATOM     32  C   UNL A   1      42.610  26.641  34.550  1.00  0.00     0.029 A 
ATOM     33  N   UNL A   1      43.528  27.784  32.873  1.00  0.00    -0.354 N 
ATOM     34  N   UNL A   1      43.607  30.002  30.818  1.00  0.00    -0.248 NA
ATOM     35  C   UNL A   1      42.569  31.825  29.793  1.00  0.00     0.031 C 
ATOM     36  C   UNL A   1      41.725  27.650  34.152  1.00  0.00     0.029 A 
ATOM     37  C   UNL A   1      42.313  28.387  33.132  1.00  0.00     0.049 A 
ATOM     38  H   UNL A   1      44.168  28.076  32.183  1.00  0.00     0.167 HD
ATOM     39  C   UNL A   1      42.390  30.232  31.443  1.00  0.00     0.074 A 
ATOM     40  C   UNL A   1      41.811  31.392  30.790  1.00  0.00     0.031 C 
ATOM     41  C   UNL A   1      41.797  29.555  32.459  1.00  0.00     0.037 A 
BRANCH  28  42
ATOM     42  C   UNL A   1      44.996  24.706  34.659  1.00  0.00     0.064 A 
ATOM     43  C   UNL A   1      45.534  24.842  35.948  1.00  0.00     0.173 A 
ATOM     44  C   UNL A   1      44.629  23.419  34.237  1.00  0.00     0.173 A 
ATOM     45  F   UNL A   1      45.940  26.042  36.389  1.00  0.00    -0.203 F 
ATOM     46  C   UNL A   1      45.733  23.728  36.762  1.00  0.00     0.198 A 
ATOM     47  C   UNL A   1      44.799  22.313  35.065  1.00  0.00     0.198 A 
ATOM     48  F   UNL A   1      44.126  23.228  33.008  1.00  0.00    -0.203 F 
ATOM     49  F   UNL A   1      46.318  23.871  37.960  1.00  0.00    -0.200 F 
ATOM     50  C   UNL A   1      45.361  22.466  36.323  1.00  0.00     0.200 A 
ATOM     51  F   UNL A   1      44.438  21.095  34.636  1.00  0.00    -0.200 F 
ATOM     52  F   UNL A   1      45.564  21.395  37.103  1.00  0.00    -0.200 F 
ENDBRANCH  28  42
BRANCH  29  53
ATOM     53  C   UNL A   1      44.829  32.286  27.945  1.00  0.00     0.064 A 
ATOM     54  C   UNL A   1      44.170  32.177  26.712  1.00  0.00     0.173 A 
ATOM     55  C   UNL A   1      45.493  33.494  28.217  1.00  0.00     0.173 A 
ATOM     56  F   UNL A   1      43.534  31.041  26.391  1.00  0.00    -0.203 F 
ATOM     57  C   UNL A   1      44.195  33.219  25.785  1.00  0.00     0.198 A 
ATOM     58  C   UNL A   1      45.489  34.547  27.304  1.00  0.00     0.198 A 
ATOM     59  F   UNL A   1      46.145  33.657  29.377  1.00  0.00    -0.203 F 
ATOM     60  F   UNL A   1      43.602  33.066  24.593  1.00  0.00    -0.200 F 
ATOM     61  C   UNL A   1      44.850  34.404  26.083  1.00  0.00     0.200 A 
ATOM     62  F   UNL A   1      46.111  35.695  27.605  1.00  0.00    -0.200 F 
ATOM     63  F   UNL A   1      44.875  35.403  25.190  1.00  0.00    -0.200 F 
ENDBRANCH  29  53
BRANCH  41  64
ATOM     64  C   UNL A   1      40.495  30.100  32.960  1.00  0.00     0.064 A 
ATOM     65  C   UNL A   1      39.264  29.604  32.512  1.00  0.00     0.173 A 
ATOM     66  C   UNL A   1      40.491  31.106  33.937  1.00  0.00     0.173 A 
ATOM     67  F   UNL A   1      39.222  28.651  31.568  1.00  0.00    -0.203 F 
ATOM     68  C   UNL A   1      38.069  30.124  33.000  1.00  0.00     0.198 A 
ATOM     69  C   UNL A   1      39.296  31.594  34.452  1.00  0.00     0.198 A 
ATOM     70  F   UNL A   1      41.646  31.604  34.404  1.00  0.00    -0.203 F 
ATOM     71  F   UNL A   1      36.902  29.681  32.515  1.00  0.00    -0.200 F 
ATOM     72  C   UNL A   1      38.087  31.112  33.975  1.00  0.00     0.200 A 
ATOM     73  F   UNL A   1      39.314  32.533  35.407  1.00  0.00    -0.200 F 
ATOM     74  F   UNL A   1      36.935  31.603  34.451  1.00  0.00    -0.200 F 
ENDBRANCH  41  64
ENDBRANCH  15  16
ENDBRANCH   8  10
ENDBRANCH   7   8
ENDBRANCH   6   7
ENDBRANCH   5   6
ENDBRANCH   4   5
ENDBRANCH   3   4
ENDBRANCH   2   3
ENDBRANCH   1   2
BRANCH   1  75
ATOM     75  C   UNL A   1      49.780  27.980  21.842  1.00  0.00     0.188 C 
BRANCH  75  76
ATOM     76  C   UNL A   1      48.852  27.715  23.058  1.00  0.00     0.188 C 
BRANCH  76  77
ATOM     77  O   UNL A   1      48.112  26.509  22.996  1.00  0.00    -0.376 OA
BRANCH  77  78
ATOM     78  C   UNL A   1      48.021  25.756  24.194  1.00  0.00     0.202 C 
BRANCH  78  79
ATOM     79  C   UNL A   1      46.895  26.154  25.161  1.00  0.00     0.261 C 
BRANCH  79  80
ATOM     80  O   UNL A   1      45.544  26.142  24.660  1.00  0.00    -0.459 OA
BRANCH  80  81
ATOM     81  C   UNL A   1      44.666  25.233  25.180  1.00  0.00     0.370 C 
ATOM     82  O   UNL A   1      43.466  25.232  24.900  1.00  0.00    -0.245 OA
BRANCH  81  83
ATOM     83  C   UNL A   1      45.434  24.183  26.072  1.00  0.00     0.328 C 
BRANCH  83  84
ATOM     84  N   UNL A   1      44.769  24.110  27.374  1.00  0.00    -0.319 N 
ATOM     85  C   UNL A   1      45.332  23.200  28.360  1.00  0.00     0.263 C 
ATOM     86  C   UNL A   1      44.552  25.450  27.959  1.00  0.00     0.274 C 
ATOM     87  H   UNL A   1      43.873  23.683  27.138  1.00  0.00     0.349 HD
ATOM     88  C   UNL A   1      44.301  23.023  29.477  1.00  0.00     0.062 C 
ATOM     89  C   UNL A   1      43.425  25.382  29.006  1.00  0.00     0.104 C 
ATOM     90  C   UNL A   1      43.841  24.357  30.074  1.00  0.00     0.022 C 
BRANCH  89  91
ATOM     91  C   UNL A   1      42.097  25.076  28.326  1.00  0.00     0.103 A 
ATOM     92  N   UNL A   1      41.886  23.992  27.613  1.00  0.00    -0.241 NA
ATOM     93  S   UNL A   1      40.767  26.162  28.363  1.00  0.00    -0.118 S 
ATOM     94  C   UNL A   1      40.577  23.901  27.205  1.00  0.00     0.082 A 
ATOM     95  C   UNL A   1      39.797  25.015  27.506  1.00  0.00     0.055 A 
ATOM     96  C   UNL A   1      39.993  22.807  26.533  1.00  0.00     0.030 A 
ATOM     97  C   UNL A   1      38.446  25.080  27.131  1.00  0.00     0.021 A 
ATOM     98  C   UNL A   1      38.643  22.853  26.176  1.00  0.00     0.002 A 
ATOM     99  C   UNL A   1      37.885  23.981  26.467  1.00  0.00     0.002 A 
ENDBRANCH  89  91
ENDBRANCH  83  84
BRANCH  83 100
ATOM    100  C   UNL A   1      45.473  22.816  25.379  1.00  0.00     0.046 A 
ATOM    101  C   UNL A   1      46.429  22.358  24.486  1.00  0.00     0.094 A 
ATOM    102  C   UNL A   1      44.543  21.718  25.552  1.00  0.00     0.010 A 
ATOM    103  N   UNL A   1      46.149  21.063  24.151  1.00  0.00    -0.361 N 
ATOM    104  C   UNL A   1      45.012  20.639  24.796  1.00  0.00     0.046 A 
ATOM    105  C   UNL A   1      43.369  21.527  26.316  1.00  0.00     0.026 A 
ATOM    106  H   UNL A   1      46.685  20.513  23.535  1.00  0.00     0.166 HD
ATOM    107  C   UNL A   1      44.377  19.390  24.763  1.00  0.00     0.028 A 
ATOM    108  C   UNL A   1      42.728  20.281  26.291  1.00  0.00     0.018 A 
ATOM    109  C   UNL A   1      43.221  19.226  25.529  1.00  0.00     0.018 A 
ATOM    110  Br  UNL A   1      41.165  20.019  27.328  1.00  0.00    -0.051 Br
ENDBRANCH  83 100
ENDBRANCH  81  83
ENDBRANCH  80  81
ENDBRANCH  79  80
ENDBRANCH  78  79
ENDBRANCH  77  78
ENDBRANCH  76  77
ENDBRANCH  75  76
ENDBRANCH   1  75
TORSDOF 23
ENDMDL
MODEL 3
REMARK VINA RESULT:      -7.9      4.024      8.800
REMARK SMILES O=C(OCCOCCOCCOCCOC(=O)[C@H](c1c[nH]c2ccc(Br)cc12)[N@H+]1CCC[C@H](c2nc3ccccc3s2)C1)c1ccc(-c2c3nc(c(-c4c(F)c(F)c(F)c(F)c4F)c4ccc([nH]4)c(-c4c(F)c(F)c(F)c(F)c4F)c4nc(c(-c5c(F)c(F)c(F)c(F)c5F)c5ccc2[nH]5)C=C4)C=C3)cc1
REMARK SMILES IDX 9 1 8 2 7 3 6 4 5 5 4 6 3 7 2 8 1 9 44 10 45 11 106 12 46 13
REMARK SMILES IDX 105 14 47 15 48 16 49 17 99 18 50 19 104 20 98 21 100 22
REMARK SMILES IDX 51 23 103 24 97 25 96 26 52 28 84 29 64 30 83 31 65 32 68 33
REMARK SMILES IDX 82 34 101 35 66 36 67 37 81 39 102 40 69 41 53 42 54 43
REMARK SMILES IDX 62 44 55 45 56 46 60 47 63 48 57 49 58 50 61 51 59 52 85 53
REMARK SMILES IDX 86 54 94 55 87 56 88 57 92 58 95 59 89 60 90 61 93 62 91 63
REMARK SMILES IDX 70 64 71 65 79 66 72 67 73 68 77 69 80 70 74 71 75 72 78 73
REMARK SMILES IDX 76 74 10 75 11 76 12 77 13 78 14 79 15 80 16 81 17 82 18 83
REMARK SMILES IDX 29 84 30 85 43 86 31 88 33 89 32 90 34 91 35 92 42 93 36 94
REMARK SMILES IDX 41 95 37 96 40 97 38 98 39 99 19 100 20 101 28 102 21 103
REMARK SMILES IDX 22 104 27 105 23 107 25 108 24 109 26 110
REMARK H PARENT 100 27 68 38 29 87 21 106
REMARK Flexibility Score: inf
ROOT
ATOM      1  O   UNL A   1      46.718  35.720  26.645  1.00  0.00    -0.377 OA
ENDROOT
BRANCH   1   2
ATOM      2  C   UNL A   1      46.650  36.973  26.010  1.00  0.00     0.188 C 
BRANCH   2   3
ATOM      3  C   UNL A   1      46.286  38.101  26.957  1.00  0.00     0.188 C 
BRANCH   3   4
ATOM      4  O   UNL A   1      46.217  39.378  26.342  1.00  0.00    -0.376 OA
BRANCH   4   5
ATOM      5  C   UNL A   1      45.226  40.293  26.791  1.00  0.00     0.202 C 
BRANCH   5   6
ATOM      6  C   UNL A   1      43.852  40.125  26.154  1.00  0.00     0.261 C 
BRANCH   6   7
ATOM      7  O   UNL A   1      42.719  40.126  27.041  1.00  0.00    -0.460 OA
BRANCH   7   8
ATOM      8  C   UNL A   1      42.368  39.383  28.111  1.00  0.00     0.338 C 
ATOM      9  O   UNL A   1      41.488  39.832  28.847  1.00  0.00    -0.246 OA
BRANCH   8  10
ATOM     10  C   UNL A   1      42.928  38.044  28.469  1.00  0.00     0.060 A 
ATOM     11  C   UNL A   1      42.870  36.893  27.687  1.00  0.00     0.016 A 
ATOM     12  C   UNL A   1      43.608  37.962  29.700  1.00  0.00     0.016 A 
ATOM     13  C   UNL A   1      43.442  35.701  28.096  1.00  0.00     0.010 A 
ATOM     14  C   UNL A   1      44.140  36.754  30.155  1.00  0.00     0.010 A 
ATOM     15  C   UNL A   1      44.005  35.612  29.362  1.00  0.00    -0.014 A 
BRANCH  15  16
ATOM     16  C   UNL A   1      44.073  34.255  29.925  1.00  0.00     0.031 A 
ATOM     17  C   UNL A   1      42.760  33.593  30.231  1.00  0.00     0.074 A 
ATOM     18  C   UNL A   1      45.230  33.574  29.905  1.00  0.00     0.049 A 
ATOM     19  N   UNL A   1      42.514  32.420  30.743  1.00  0.00    -0.248 NA
ATOM     20  C   UNL A   1      41.546  34.360  29.887  1.00  0.00     0.031 C 
ATOM     21  C   UNL A   1      46.504  34.094  29.404  1.00  0.00     0.029 A 
ATOM     22  N   UNL A   1      45.507  32.284  30.258  1.00  0.00    -0.354 N 
ATOM     23  C   UNL A   1      41.130  32.338  30.833  1.00  0.00     0.074 A 
ATOM     24  C   UNL A   1      40.581  33.566  30.315  1.00  0.00     0.031 C 
ATOM     25  C   UNL A   1      47.426  33.119  29.465  1.00  0.00     0.029 A 
ATOM     26  C   UNL A   1      46.825  31.943  30.083  1.00  0.00     0.049 A 
ATOM     27  H   UNL A   1      44.828  31.661  30.605  1.00  0.00     0.167 HD
ATOM     28  C   UNL A   1      40.392  31.318  31.325  1.00  0.00     0.037 A 
ATOM     29  C   UNL A   1      47.461  30.812  30.434  1.00  0.00     0.037 A 
ATOM     30  C   UNL A   1      40.987  30.103  31.807  1.00  0.00     0.049 A 
ATOM     31  C   UNL A   1      46.637  29.735  31.091  1.00  0.00     0.074 A 
ATOM     32  C   UNL A   1      40.387  29.019  32.411  1.00  0.00     0.029 A 
ATOM     33  N   UNL A   1      42.348  29.824  31.725  1.00  0.00    -0.354 N 
ATOM     34  N   UNL A   1      45.340  29.697  31.300  1.00  0.00    -0.248 NA
ATOM     35  C   UNL A   1      47.359  28.557  31.577  1.00  0.00     0.031 C 
ATOM     36  C   UNL A   1      41.394  28.106  32.746  1.00  0.00     0.029 A 
ATOM     37  C   UNL A   1      42.612  28.590  32.286  1.00  0.00     0.049 A 
ATOM     38  H   UNL A   1      43.024  30.420  31.326  1.00  0.00     0.167 HD
ATOM     39  C   UNL A   1      45.085  28.480  31.915  1.00  0.00     0.074 A 
ATOM     40  C   UNL A   1      46.365  27.805  32.028  1.00  0.00     0.031 C 
ATOM     41  C   UNL A   1      43.909  27.961  32.352  1.00  0.00     0.037 A 
BRANCH  28  42
ATOM     42  C   UNL A   1      38.914  31.545  31.461  1.00  0.00     0.064 A 
ATOM     43  C   UNL A   1      38.315  31.927  32.672  1.00  0.00     0.173 A 
ATOM     44  C   UNL A   1      38.073  31.298  30.366  1.00  0.00     0.173 A 
ATOM     45  F   UNL A   1      39.068  32.136  33.762  1.00  0.00    -0.203 F 
ATOM     46  C   UNL A   1      36.929  32.018  32.788  1.00  0.00     0.198 A 
ATOM     47  C   UNL A   1      36.691  31.422  30.476  1.00  0.00     0.198 A 
ATOM     48  F   UNL A   1      38.589  30.913  29.189  1.00  0.00    -0.203 F 
ATOM     49  F   UNL A   1      36.375  32.311  33.973  1.00  0.00    -0.200 F 
ATOM     50  C   UNL A   1      36.118  31.770  31.690  1.00  0.00     0.200 A 
ATOM     51  F   UNL A   1      35.911  31.181  29.413  1.00  0.00    -0.200 F 
ATOM     52  F   UNL A   1      34.785  31.847  31.806  1.00  0.00    -0.200 F 
ENDBRANCH  28  42
BRANCH  29  53
ATOM     53  C   UNL A   1      48.929  30.673  30.239  1.00  0.00     0.064 A 
ATOM     54  C   UNL A   1      49.460  29.993  29.134  1.00  0.00     0.173 A 
ATOM     55  C   UNL A   1      49.840  31.201  31.170  1.00  0.00     0.173 A 
ATOM     56  F   UNL A   1      48.639  29.454  28.222  1.00  0.00    -0.203 F 
ATOM     57  C   UNL A   1      50.837  29.826  28.981  1.00  0.00     0.198 A 
ATOM     58  C   UNL A   1      51.216  31.063  30.999  1.00  0.00     0.198 A 
ATOM     59  F   UNL A   1      49.394  31.858  32.250  1.00  0.00    -0.203 F 
ATOM     60  F   UNL A   1      51.313  29.125  27.943  1.00  0.00    -0.200 F 
ATOM     61  C   UNL A   1      51.713  30.365  29.910  1.00  0.00     0.200 A 
ATOM     62  F   UNL A   1      52.058  31.599  31.894  1.00  0.00    -0.200 F 
ATOM     63  F   UNL A   1      53.035  30.202  29.763  1.00  0.00    -0.200 F 
ENDBRANCH  29  53
BRANCH  41  64
ATOM     64  C   UNL A   1      43.957  26.576  32.922  1.00  0.00     0.064 A 
ATOM     65  C   UNL A   1      43.809  26.335  34.294  1.00  0.00     0.173 A 
ATOM     66  C   UNL A   1      44.110  25.476  32.066  1.00  0.00     0.173 A 
ATOM     67  F   UNL A   1      43.672  27.360  35.149  1.00  0.00    -0.203 F 
ATOM     68  C   UNL A   1      43.849  25.039  34.795  1.00  0.00     0.198 A 
ATOM     69  C   UNL A   1      44.110  24.179  32.566  1.00  0.00     0.198 A 
ATOM     70  F   UNL A   1      44.245  25.658  30.743  1.00  0.00    -0.203 F 
ATOM     71  F   UNL A   1      43.768  24.831  36.116  1.00  0.00    -0.200 F 
ATOM     72  C   UNL A   1      43.991  23.962  33.931  1.00  0.00     0.200 A 
ATOM     73  F   UNL A   1      44.226  23.141  31.728  1.00  0.00    -0.200 F 
ATOM     74  F   UNL A   1      44.020  22.714  34.414  1.00  0.00    -0.200 F 
ENDBRANCH  41  64
ENDBRANCH  15  16
ENDBRANCH   8  10
ENDBRANCH   7   8
ENDBRANCH   6   7
ENDBRANCH   5   6
ENDBRANCH   4   5
ENDBRANCH   3   4
ENDBRANCH   2   3
ENDBRANCH   1   2
BRANCH   1  75
ATOM     75  C   UNL A   1      46.530  34.553  25.854  1.00  0.00     0.188 C 
BRANCH  75  76
ATOM     76  C   UNL A   1      45.185  33.797  25.686  1.00  0.00     0.188 C 
BRANCH  76  77
ATOM     77  O   UNL A   1      45.045  32.637  26.486  1.00  0.00    -0.376 OA
BRANCH  77  78
ATOM     78  C   UNL A   1      46.085  31.677  26.403  1.00  0.00     0.202 C 
BRANCH  78  79
ATOM     79  C   UNL A   1      45.700  30.231  26.751  1.00  0.00     0.261 C 
BRANCH  79  80
ATOM     80  O   UNL A   1      46.346  29.170  26.021  1.00  0.00    -0.459 OA
BRANCH  80  81
ATOM     81  C   UNL A   1      45.634  28.033  25.759  1.00  0.00     0.370 C 
ATOM     82  O   UNL A   1      44.678  28.011  24.981  1.00  0.00    -0.245 OA
BRANCH  81  83
ATOM     83  C   UNL A   1      46.277  26.803  26.510  1.00  0.00     0.328 C 
BRANCH  83  84
ATOM     84  N   UNL A   1      45.405  25.642  26.324  1.00  0.00    -0.319 N 
ATOM     85  C   UNL A   1      45.465  24.963  25.039  1.00  0.00     0.263 C 
ATOM     86  C   UNL A   1      45.529  24.677  27.436  1.00  0.00     0.274 C 
ATOM     87  H   UNL A   1      44.476  26.063  26.331  1.00  0.00     0.349 HD
ATOM     88  C   UNL A   1      44.251  24.034  24.944  1.00  0.00     0.062 C 
ATOM     89  C   UNL A   1      44.274  23.786  27.493  1.00  0.00     0.104 C 
ATOM     90  C   UNL A   1      44.145  23.076  26.135  1.00  0.00     0.022 C 
BRANCH  89  91
ATOM     91  C   UNL A   1      43.060  24.618  27.883  1.00  0.00     0.103 A 
ATOM     92  N   UNL A   1      43.127  25.898  28.175  1.00  0.00    -0.241 NA
ATOM     93  S   UNL A   1      41.491  23.940  28.055  1.00  0.00    -0.118 S 
ATOM     94  C   UNL A   1      41.880  26.436  28.383  1.00  0.00     0.082 A 
ATOM     95  C   UNL A   1      40.840  25.510  28.376  1.00  0.00     0.055 A 
ATOM     96  C   UNL A   1      41.591  27.801  28.592  1.00  0.00     0.030 A 
ATOM     97  C   UNL A   1      39.512  25.905  28.600  1.00  0.00     0.021 A 
ATOM     98  C   UNL A   1      40.270  28.208  28.791  1.00  0.00     0.002 A 
ATOM     99  C   UNL A   1      39.246  27.267  28.802  1.00  0.00     0.002 A 
ENDBRANCH  89  91
ENDBRANCH  83  84
BRANCH  83 100
ATOM    100  C   UNL A   1      47.694  26.536  25.988  1.00  0.00     0.046 A 
ATOM    101  C   UNL A   1      48.116  26.553  24.668  1.00  0.00     0.094 A 
ATOM    102  C   UNL A   1      48.879  26.255  26.772  1.00  0.00     0.010 A 
ATOM    103  N   UNL A   1      49.465  26.339  24.623  1.00  0.00    -0.361 N 
ATOM    104  C   UNL A   1      49.962  26.167  25.893  1.00  0.00     0.046 A 
ATOM    105  C   UNL A   1      49.139  26.110  28.155  1.00  0.00     0.026 A 
ATOM    106  H   UNL A   1      50.003  26.311  23.799  1.00  0.00     0.166 HD
ATOM    107  C   UNL A   1      51.280  25.946  26.316  1.00  0.00     0.028 A 
ATOM    108  C   UNL A   1      50.453  25.890  28.588  1.00  0.00     0.018 A 
ATOM    109  C   UNL A   1      51.510  25.809  27.687  1.00  0.00     0.018 A 
ATOM    110  Br  UNL A   1      50.805  25.714  30.441  1.00  0.00    -0.051 Br
ENDBRANCH  83 100
ENDBRANCH  81  83
ENDBRANCH  80  81
ENDBRANCH  79  80
ENDBRANCH  78  79
ENDBRANCH  77  78
ENDBRANCH  76  77
ENDBRANCH  75  76
ENDBRANCH   1  75
TORSDOF 23
ENDMDL
