MODEL 1
REMARK VINA RESULT:      -9.6      0.000      0.000
REMARK SMILES CC(C)[N@@H+](C)Cc1cc2c(cc1Cl)C=C(C(=O)OCCOCCOCCOCCOC(=O)c1ccc(-c3c4nc(c(-c5c(F)c(F)c(F)c(F)c5F)c5ccc([nH]5)c(-c5c(F)c(F)c(F)c(F)c5F)c5nc(c(-c6c(F)c(F)c(F)c(F)c6F)c6ccc3[nH]6)C=C5)C=C4)cc1)[C@@H](C(F)(F)F)O2
REMARK SMILES IDX 23 1 22 2 21 3 20 4 19 5 18 6 16 7 17 8 15 9 7 10 8 11 12 12
REMARK SMILES IDX 9 13 11 14 13 15 10 16 101 17 14 18 96 19 6 20 4 21 5 22
REMARK SMILES IDX 2 24 1 25 3 26 97 27 98 28 99 29 100 30 24 31 25 32 26 33
REMARK SMILES IDX 27 34 28 35 29 36 30 37 31 38 32 39 33 40 34 41 95 42 35 43
REMARK SMILES IDX 94 44 36 45 37 46 38 47 88 48 39 49 93 50 87 51 89 52 40 53
REMARK SMILES IDX 92 54 86 55 85 56 41 58 73 59 53 60 72 61 54 62 57 63 71 64
REMARK SMILES IDX 90 65 55 66 56 67 70 69 91 70 58 71 42 72 43 73 51 74 44 75
REMARK SMILES IDX 45 76 49 77 52 78 46 79 47 80 50 81 48 82 74 83 75 84 83 85
REMARK SMILES IDX 76 86 77 87 81 88 84 89 78 90 79 91 82 92 80 93 59 94 60 95
REMARK SMILES IDX 68 96 61 97 62 98 66 99 69 100 63 101 64 102 67 103 65 104
REMARK H PARENT 4 23 89 57 57 68
REMARK Flexibility Score: inf
ROOT
ATOM      1  C   UNL A   1      34.345  25.961  24.923  1.00  0.00     0.188 C 
ENDROOT
BRANCH   1   2
ATOM      2  C   UNL A   1      34.504  26.850  26.170  1.00  0.00     0.188 C 
BRANCH   2   3
ATOM      3  O   UNL A   1      33.260  27.320  26.687  1.00  0.00    -0.376 OA
BRANCH   3   4
ATOM      4  C   UNL A   1      32.874  28.648  26.352  1.00  0.00     0.202 C 
BRANCH   4   5
ATOM      5  C   UNL A   1      31.562  28.812  25.570  1.00  0.00     0.261 C 
BRANCH   5   6
ATOM      6  O   UNL A   1      31.470  28.025  24.372  1.00  0.00    -0.460 OA
BRANCH   6   7
ATOM      7  C   UNL A   1      30.386  27.241  24.225  1.00  0.00     0.338 C 
ATOM      8  O   UNL A   1      29.229  27.602  24.110  1.00  0.00    -0.246 OA
BRANCH   7   9
ATOM      9  C   UNL A   1      30.857  25.849  24.069  1.00  0.00     0.087 C 
ATOM     10  C   UNL A   1      32.818  21.252  24.715  1.00  0.00     0.029 A 
ATOM     11  C   UNL A   1      32.418  22.030  23.615  1.00  0.00     0.058 A 
ATOM     12  C   UNL A   1      32.601  21.789  25.996  1.00  0.00     0.050 A 
ATOM     13  C   UNL A   1      31.816  23.278  23.776  1.00  0.00     0.128 A 
ATOM     14  C   UNL A   1      32.024  23.059  26.158  1.00  0.00     0.033 A 
ATOM     15  Cl  UNL A   1      33.055  20.963  27.446  1.00  0.00    -0.084 Cl
ATOM     16  C   UNL A   1      31.657  23.818  25.046  1.00  0.00     0.019 A 
ATOM     17  O   UNL A   1      31.446  23.903  22.624  1.00  0.00    -0.475 OA
ATOM     18  C   UNL A   1      31.187  25.186  25.186  1.00  0.00     0.027 C 
ATOM     19  C   UNL A   1      30.867  25.233  22.693  1.00  0.00     0.316 C 
BRANCH  10  20
ATOM     20  C   UNL A   1      33.537  19.937  24.478  1.00  0.00     0.300 C 
BRANCH  20  21
ATOM     21  N   UNL A   1      32.765  18.690  24.524  1.00  0.00    -0.332 N 
ATOM     22  C   UNL A   1      32.737  18.003  25.805  1.00  0.00     0.333 C 
ATOM     23  H   UNL A   1      31.844  19.115  24.418  1.00  0.00     0.348 HD
BRANCH  21  24
ATOM     24  C   UNL A   1      32.775  17.790  23.366  1.00  0.00     0.177 C 
ATOM     25  C   UNL A   1      32.383  18.523  22.078  1.00  0.00     0.075 C 
ATOM     26  C   UNL A   1      34.066  16.996  23.150  1.00  0.00     0.075 C 
ENDBRANCH  21  24
ENDBRANCH  20  21
ENDBRANCH  10  20
BRANCH  19  27
ATOM     27  C   UNL A   1      31.596  26.094  21.651  1.00  0.00     0.430 C 
ATOM     28  F   UNL A   1      30.940  27.261  21.440  1.00  0.00    -0.167 F 
ATOM     29  F   UNL A   1      32.850  26.421  22.034  1.00  0.00    -0.167 F 
ATOM     30  F   UNL A   1      31.690  25.460  20.459  1.00  0.00    -0.167 F 
ENDBRANCH  19  27
ENDBRANCH   7   9
ENDBRANCH   6   7
ENDBRANCH   5   6
ENDBRANCH   4   5
ENDBRANCH   3   4
ENDBRANCH   2   3
ENDBRANCH   1   2
BRANCH   1  31
ATOM     31  O   UNL A   1      35.046  24.732  25.034  1.00  0.00    -0.377 OA
BRANCH  31  32
ATOM     32  C   UNL A   1      35.326  24.027  23.825  1.00  0.00     0.188 C 
BRANCH  32  33
ATOM     33  C   UNL A   1      36.168  22.730  23.825  1.00  0.00     0.188 C 
BRANCH  33  34
ATOM     34  O   UNL A   1      36.795  22.458  25.077  1.00  0.00    -0.376 OA
BRANCH  34  35
ATOM     35  C   UNL A   1      36.777  21.109  25.521  1.00  0.00     0.202 C 
BRANCH  35  36
ATOM     36  C   UNL A   1      38.097  20.369  25.280  1.00  0.00     0.261 C 
BRANCH  36  37
ATOM     37  O   UNL A   1      39.278  21.169  25.442  1.00  0.00    -0.460 OA
BRANCH  37  38
ATOM     38  C   UNL A   1      39.939  21.081  26.617  1.00  0.00     0.338 C 
ATOM     39  O   UNL A   1      40.313  20.070  27.183  1.00  0.00    -0.246 OA
BRANCH  38  40
ATOM     40  C   UNL A   1      40.312  22.454  27.016  1.00  0.00     0.060 A 
ATOM     41  C   UNL A   1      41.294  22.662  27.988  1.00  0.00     0.016 A 
ATOM     42  C   UNL A   1      39.649  23.540  26.430  1.00  0.00     0.016 A 
ATOM     43  C   UNL A   1      41.643  23.963  28.346  1.00  0.00     0.010 A 
ATOM     44  C   UNL A   1      39.996  24.844  26.794  1.00  0.00     0.010 A 
ATOM     45  C   UNL A   1      41.016  25.062  27.731  1.00  0.00    -0.014 A 
BRANCH  45  46
ATOM     46  C   UNL A   1      41.588  26.416  27.919  1.00  0.00     0.031 A 
ATOM     47  C   UNL A   1      40.853  27.505  28.632  1.00  0.00     0.074 A 
ATOM     48  C   UNL A   1      42.824  26.634  27.432  1.00  0.00     0.049 A 
ATOM     49  N   UNL A   1      41.282  28.697  28.967  1.00  0.00    -0.248 NA
ATOM     50  C   UNL A   1      39.462  27.233  29.015  1.00  0.00     0.031 C 
ATOM     51  C   UNL A   1      43.616  25.648  26.695  1.00  0.00     0.029 A 
ATOM     52  N   UNL A   1      43.635  27.737  27.493  1.00  0.00    -0.354 N 
ATOM     53  C   UNL A   1      40.227  29.310  29.624  1.00  0.00     0.074 A 
ATOM     54  C   UNL A   1      39.118  28.376  29.598  1.00  0.00     0.031 C 
ATOM     55  C   UNL A   1      44.810  26.178  26.399  1.00  0.00     0.029 A 
ATOM     56  C   UNL A   1      44.861  27.545  26.907  1.00  0.00     0.049 A 
ATOM     57  H   UNL A   1      43.365  28.584  27.915  1.00  0.00     0.167 HD
ATOM     58  C   UNL A   1      40.201  30.532  30.209  1.00  0.00     0.037 A 
ATOM     59  C   UNL A   1      45.917  28.373  26.801  1.00  0.00     0.037 A 
ATOM     60  C   UNL A   1      41.306  31.459  30.211  1.00  0.00     0.049 A 
ATOM     61  C   UNL A   1      45.843  29.737  27.422  1.00  0.00     0.074 A 
ATOM     62  C   UNL A   1      41.386  32.705  30.812  1.00  0.00     0.029 A 
ATOM     63  N   UNL A   1      42.519  31.251  29.570  1.00  0.00    -0.354 N 
ATOM     64  N   UNL A   1      44.869  30.276  28.115  1.00  0.00    -0.248 NA
ATOM     65  C   UNL A   1      47.016  30.604  27.257  1.00  0.00     0.031 C 
ATOM     66  C   UNL A   1      42.623  33.271  30.492  1.00  0.00     0.029 A 
ATOM     67  C   UNL A   1      43.340  32.358  29.735  1.00  0.00     0.049 A 
ATOM     68  H   UNL A   1      42.763  30.438  29.071  1.00  0.00     0.167 HD
ATOM     69  C   UNL A   1      45.318  31.536  28.484  1.00  0.00     0.074 A 
ATOM     70  C   UNL A   1      46.658  31.675  27.953  1.00  0.00     0.031 C 
ATOM     71  C   UNL A   1      44.672  32.489  29.199  1.00  0.00     0.037 A 
BRANCH  58  72
ATOM     72  C   UNL A   1      38.945  30.947  30.920  1.00  0.00     0.064 A 
ATOM     73  C   UNL A   1      38.798  30.764  32.302  1.00  0.00     0.173 A 
ATOM     74  C   UNL A   1      37.925  31.627  30.236  1.00  0.00     0.173 A 
ATOM     75  F   UNL A   1      39.745  30.121  33.002  1.00  0.00    -0.203 F 
ATOM     76  C   UNL A   1      37.673  31.237  32.973  1.00  0.00     0.198 A 
ATOM     77  C   UNL A   1      36.812  32.120  30.914  1.00  0.00     0.198 A 
ATOM     78  F   UNL A   1      38.021  31.839  28.915  1.00  0.00    -0.203 F 
ATOM     79  F   UNL A   1      37.546  31.034  34.292  1.00  0.00    -0.200 F 
ATOM     80  C   UNL A   1      36.687  31.923  32.281  1.00  0.00     0.200 A 
ATOM     81  F   UNL A   1      35.869  32.798  30.246  1.00  0.00    -0.200 F 
ATOM     82  F   UNL A   1      35.615  32.398  32.932  1.00  0.00    -0.200 F 
ENDBRANCH  58  72
BRANCH  59  83
ATOM     83  C   UNL A   1      47.147  27.899  26.119  1.00  0.00     0.064 A 
ATOM     84  C   UNL A   1      48.242  27.434  26.859  1.00  0.00     0.173 A 
ATOM     85  C   UNL A   1      47.235  27.858  24.720  1.00  0.00     0.173 A 
ATOM     86  F   UNL A   1      48.206  27.467  28.199  1.00  0.00    -0.203 F 
ATOM     87  C   UNL A   1      49.383  26.951  26.225  1.00  0.00     0.198 A 
ATOM     88  C   UNL A   1      48.366  27.350  24.087  1.00  0.00     0.198 A 
ATOM     89  F   UNL A   1      46.208  28.283  23.970  1.00  0.00    -0.203 F 
ATOM     90  F   UNL A   1      50.427  26.537  26.955  1.00  0.00    -0.200 F 
ATOM     91  C   UNL A   1      49.442  26.901  24.840  1.00  0.00     0.200 A 
ATOM     92  F   UNL A   1      48.412  27.287  22.750  1.00  0.00    -0.200 F 
ATOM     93  F   UNL A   1      50.535  26.422  24.231  1.00  0.00    -0.200 F 
ENDBRANCH  59  83
BRANCH  71  94
ATOM     94  C   UNL A   1      45.407  33.770  29.464  1.00  0.00     0.064 A 
ATOM     95  C   UNL A   1      45.241  34.893  28.639  1.00  0.00     0.173 A 
ATOM     96  C   UNL A   1      46.235  33.900  30.590  1.00  0.00     0.173 A 
ATOM     97  F   UNL A   1      44.472  34.816  27.542  1.00  0.00    -0.203 F 
ATOM     98  C   UNL A   1      45.886  36.093  28.925  1.00  0.00     0.198 A 
ATOM     99  C   UNL A   1      46.856  35.109  30.887  1.00  0.00     0.198 A 
ATOM    100  F   UNL A   1      46.422  32.857  31.414  1.00  0.00    -0.203 F 
ATOM    101  F   UNL A   1      45.741  37.141  28.102  1.00  0.00    -0.200 F 
ATOM    102  C   UNL A   1      46.685  36.203  30.053  1.00  0.00     0.200 A 
ATOM    103  F   UNL A   1      47.616  35.218  31.986  1.00  0.00    -0.200 F 
ATOM    104  F   UNL A   1      47.293  37.364  30.335  1.00  0.00    -0.200 F 
ENDBRANCH  71  94
ENDBRANCH  45  46
ENDBRANCH  38  40
ENDBRANCH  37  38
ENDBRANCH  36  37
ENDBRANCH  35  36
ENDBRANCH  34  35
ENDBRANCH  33  34
ENDBRANCH  32  33
ENDBRANCH  31  32
ENDBRANCH   1  31
TORSDOF 24
ENDMDL
MODEL 2
REMARK VINA RESULT:      -9.1      3.565      8.891
REMARK SMILES CC(C)[N@@H+](C)Cc1cc2c(cc1Cl)C=C(C(=O)OCCOCCOCCOCCOC(=O)c1ccc(-c3c4nc(c(-c5c(F)c(F)c(F)c(F)c5F)c5ccc([nH]5)c(-c5c(F)c(F)c(F)c(F)c5F)c5nc(c(-c6c(F)c(F)c(F)c(F)c6F)c6ccc3[nH]6)C=C5)C=C4)cc1)[C@@H](C(F)(F)F)O2
REMARK SMILES IDX 23 1 22 2 21 3 20 4 19 5 18 6 16 7 17 8 15 9 7 10 8 11 12 12
REMARK SMILES IDX 9 13 11 14 13 15 10 16 101 17 14 18 96 19 6 20 4 21 5 22
REMARK SMILES IDX 2 24 1 25 3 26 97 27 98 28 99 29 100 30 24 31 25 32 26 33
REMARK SMILES IDX 27 34 28 35 29 36 30 37 31 38 32 39 33 40 34 41 95 42 35 43
REMARK SMILES IDX 94 44 36 45 37 46 38 47 88 48 39 49 93 50 87 51 89 52 40 53
REMARK SMILES IDX 92 54 86 55 85 56 41 58 73 59 53 60 72 61 54 62 57 63 71 64
REMARK SMILES IDX 90 65 55 66 56 67 70 69 91 70 58 71 42 72 43 73 51 74 44 75
REMARK SMILES IDX 45 76 49 77 52 78 46 79 47 80 50 81 48 82 74 83 75 84 83 85
REMARK SMILES IDX 76 86 77 87 81 88 84 89 78 90 79 91 82 92 80 93 59 94 60 95
REMARK SMILES IDX 68 96 61 97 62 98 66 99 69 100 63 101 64 102 67 103 65 104
REMARK H PARENT 4 23 89 57 57 68
REMARK Flexibility Score: inf
ROOT
ATOM      1  C   UNL A   1      40.986  21.308  26.128  1.00  0.00     0.188 C 
ENDROOT
BRANCH   1   2
ATOM      2  C   UNL A   1      39.604  21.914  26.435  1.00  0.00     0.188 C 
BRANCH   2   3
ATOM      3  O   UNL A   1      38.591  21.489  25.524  1.00  0.00    -0.376 OA
BRANCH   3   4
ATOM      4  C   UNL A   1      37.553  22.416  25.226  1.00  0.00     0.202 C 
BRANCH   4   5
ATOM      5  C   UNL A   1      36.114  21.960  25.511  1.00  0.00     0.261 C 
BRANCH   5   6
ATOM      6  O   UNL A   1      35.094  22.858  25.047  1.00  0.00    -0.460 OA
BRANCH   6   7
ATOM      7  C   UNL A   1      34.088  23.148  25.895  1.00  0.00     0.338 C 
ATOM      8  O   UNL A   1      33.877  22.643  26.982  1.00  0.00    -0.246 OA
BRANCH   7   9
ATOM      9  C   UNL A   1      33.357  24.308  25.345  1.00  0.00     0.087 C 
ATOM     10  C   UNL A   1      31.181  28.784  24.551  1.00  0.00     0.029 A 
ATOM     11  C   UNL A   1      31.109  27.510  23.959  1.00  0.00     0.058 A 
ATOM     12  C   UNL A   1      32.108  28.957  25.594  1.00  0.00     0.050 A 
ATOM     13  C   UNL A   1      31.927  26.459  24.373  1.00  0.00     0.128 A 
ATOM     14  C   UNL A   1      32.910  27.891  26.032  1.00  0.00     0.033 A 
ATOM     15  Cl  UNL A   1      32.301  30.457  26.432  1.00  0.00    -0.084 Cl
ATOM     16  C   UNL A   1      32.800  26.632  25.441  1.00  0.00     0.019 A 
ATOM     17  O   UNL A   1      31.776  25.293  23.686  1.00  0.00    -0.475 OA
ATOM     18  C   UNL A   1      33.518  25.484  25.968  1.00  0.00     0.027 C 
ATOM     19  C   UNL A   1      32.543  24.128  24.089  1.00  0.00     0.316 C 
BRANCH  10  20
ATOM     20  C   UNL A   1      30.213  29.867  24.112  1.00  0.00     0.300 C 
BRANCH  20  21
ATOM     21  N   UNL A   1      29.514  29.713  22.831  1.00  0.00    -0.332 N 
ATOM     22  C   UNL A   1      30.280  30.048  21.640  1.00  0.00     0.333 C 
ATOM     23  H   UNL A   1      29.457  28.695  22.846  1.00  0.00     0.348 HD
BRANCH  21  24
ATOM     24  C   UNL A   1      28.091  30.055  22.739  1.00  0.00     0.177 C 
ATOM     25  C   UNL A   1      27.200  28.867  23.118  1.00  0.00     0.075 C 
ATOM     26  C   UNL A   1      27.655  31.308  23.504  1.00  0.00     0.075 C 
ENDBRANCH  21  24
ENDBRANCH  20  21
ENDBRANCH  10  20
BRANCH  19  27
ATOM     27  C   UNL A   1      31.562  22.950  24.168  1.00  0.00     0.430 C 
ATOM     28  F   UNL A   1      30.837  22.995  25.313  1.00  0.00    -0.167 F 
ATOM     29  F   UNL A   1      30.673  22.946  23.150  1.00  0.00    -0.167 F 
ATOM     30  F   UNL A   1      32.208  21.761  24.144  1.00  0.00    -0.167 F 
ENDBRANCH  19  27
ENDBRANCH   7   9
ENDBRANCH   6   7
ENDBRANCH   5   6
ENDBRANCH   4   5
ENDBRANCH   3   4
ENDBRANCH   2   3
ENDBRANCH   1   2
BRANCH   1  31
ATOM     31  O   UNL A   1      42.032  22.265  26.205  1.00  0.00    -0.377 OA
BRANCH  31  32
ATOM     32  C   UNL A   1      43.370  21.769  26.249  1.00  0.00     0.188 C 
BRANCH  32  33
ATOM     33  C   UNL A   1      43.826  20.600  25.346  1.00  0.00     0.188 C 
BRANCH  33  34
ATOM     34  O   UNL A   1      44.692  21.004  24.287  1.00  0.00    -0.376 OA
BRANCH  34  35
ATOM     35  C   UNL A   1      44.500  22.313  23.768  1.00  0.00     0.202 C 
BRANCH  35  36
ATOM     36  C   UNL A   1      45.724  23.220  23.930  1.00  0.00     0.261 C 
BRANCH  36  37
ATOM     37  O   UNL A   1      45.498  24.411  24.699  1.00  0.00    -0.460 OA
BRANCH  37  38
ATOM     38  C   UNL A   1      46.056  24.481  25.927  1.00  0.00     0.338 C 
ATOM     39  O   UNL A   1      46.839  23.696  26.431  1.00  0.00    -0.246 OA
BRANCH  38  40
ATOM     40  C   UNL A   1      45.703  25.797  26.497  1.00  0.00     0.060 A 
ATOM     41  C   UNL A   1      45.933  26.063  27.850  1.00  0.00     0.016 A 
ATOM     42  C   UNL A   1      45.108  26.762  25.674  1.00  0.00     0.016 A 
ATOM     43  C   UNL A   1      45.605  27.314  28.370  1.00  0.00     0.010 A 
ATOM     44  C   UNL A   1      44.775  28.013  26.198  1.00  0.00     0.010 A 
ATOM     45  C   UNL A   1      45.050  28.306  27.542  1.00  0.00    -0.014 A 
BRANCH  45  46
ATOM     46  C   UNL A   1      44.968  29.698  28.041  1.00  0.00     0.031 A 
ATOM     47  C   UNL A   1      46.047  30.703  27.796  1.00  0.00     0.074 A 
ATOM     48  C   UNL A   1      43.860  30.043  28.724  1.00  0.00     0.049 A 
ATOM     49  N   UNL A   1      46.052  31.983  28.076  1.00  0.00    -0.248 NA
ATOM     50  C   UNL A   1      47.281  30.218  27.163  1.00  0.00     0.031 C 
ATOM     51  C   UNL A   1      42.760  29.130  29.043  1.00  0.00     0.029 A 
ATOM     52  N   UNL A   1      43.465  31.243  29.255  1.00  0.00    -0.354 N 
ATOM     53  C   UNL A   1      47.272  32.466  27.630  1.00  0.00     0.074 A 
ATOM     54  C   UNL A   1      48.005  31.329  27.105  1.00  0.00     0.031 C 
ATOM     55  C   UNL A   1      41.801  29.809  29.687  1.00  0.00     0.029 A 
ATOM     56  C   UNL A   1      42.226  31.197  29.844  1.00  0.00     0.049 A 
ATOM     57  H   UNL A   1      44.016  32.058  29.219  1.00  0.00     0.167 HD
ATOM     58  C   UNL A   1      47.723  33.744  27.644  1.00  0.00     0.037 A 
ATOM     59  C   UNL A   1      41.503  32.167  30.433  1.00  0.00     0.037 A 
ATOM     60  C   UNL A   1      46.991  34.861  28.188  1.00  0.00     0.049 A 
ATOM     61  C   UNL A   1      42.048  33.565  30.471  1.00  0.00     0.074 A 
ATOM     62  C   UNL A   1      47.351  36.198  28.212  1.00  0.00     0.029 A 
ATOM     63  N   UNL A   1      45.757  34.773  28.816  1.00  0.00    -0.354 N 
ATOM     64  N   UNL A   1      43.169  34.027  29.973  1.00  0.00    -0.248 NA
ATOM     65  C   UNL A   1      41.226  34.577  31.146  1.00  0.00     0.031 C 
ATOM     66  C   UNL A   1      46.363  36.909  28.899  1.00  0.00     0.029 A 
ATOM     67  C   UNL A   1      45.358  36.026  29.259  1.00  0.00     0.049 A 
ATOM     68  H   UNL A   1      45.240  33.943  28.932  1.00  0.00     0.167 HD
ATOM     69  C   UNL A   1      43.178  35.385  30.254  1.00  0.00     0.074 A 
ATOM     70  C   UNL A   1      41.943  35.676  30.953  1.00  0.00     0.031 C 
ATOM     71  C   UNL A   1      44.128  36.305  29.958  1.00  0.00     0.037 A 
BRANCH  58  72
ATOM     72  C   UNL A   1      49.069  34.023  27.039  1.00  0.00     0.064 A 
ATOM     73  C   UNL A   1      49.188  34.562  25.751  1.00  0.00     0.173 A 
ATOM     74  C   UNL A   1      50.242  33.851  27.790  1.00  0.00     0.173 A 
ATOM     75  F   UNL A   1      48.097  34.747  24.993  1.00  0.00    -0.203 F 
ATOM     76  C   UNL A   1      50.433  34.910  25.231  1.00  0.00     0.198 A 
ATOM     77  C   UNL A   1      51.483  34.221  27.277  1.00  0.00     0.198 A 
ATOM     78  F   UNL A   1      50.183  33.350  29.034  1.00  0.00    -0.203 F 
ATOM     79  F   UNL A   1      50.525  35.405  23.990  1.00  0.00    -0.200 F 
ATOM     80  C   UNL A   1      51.577  34.748  25.997  1.00  0.00     0.200 A 
ATOM     81  F   UNL A   1      52.586  34.082  28.026  1.00  0.00    -0.200 F 
ATOM     82  F   UNL A   1      52.772  35.105  25.504  1.00  0.00    -0.200 F 
ENDBRANCH  58  72
BRANCH  59  83
ATOM     83  C   UNL A   1      40.163  31.844  30.983  1.00  0.00     0.064 A 
ATOM     84  C   UNL A   1      40.027  31.313  32.272  1.00  0.00     0.173 A 
ATOM     85  C   UNL A   1      38.994  32.100  30.252  1.00  0.00     0.173 A 
ATOM     86  F   UNL A   1      41.119  31.040  33.002  1.00  0.00    -0.203 F 
ATOM     87  C   UNL A   1      38.770  31.045  32.808  1.00  0.00     0.198 A 
ATOM     88  C   UNL A   1      37.738  31.856  30.798  1.00  0.00     0.198 A 
ATOM     89  F   UNL A   1      39.075  32.618  29.016  1.00  0.00    -0.203 F 
ATOM     90  F   UNL A   1      38.667  30.513  34.033  1.00  0.00    -0.200 F 
ATOM     91  C   UNL A   1      37.627  31.324  32.075  1.00  0.00     0.200 A 
ATOM     92  F   UNL A   1      36.635  32.145  30.094  1.00  0.00    -0.200 F 
ATOM     93  F   UNL A   1      36.417  31.080  32.597  1.00  0.00    -0.200 F 
ENDBRANCH  59  83
BRANCH  71  94
ATOM     94  C   UNL A   1      43.872  37.723  30.377  1.00  0.00     0.064 A 
ATOM     95  C   UNL A   1      43.306  38.656  29.495  1.00  0.00     0.173 A 
ATOM     96  C   UNL A   1      44.133  38.137  31.693  1.00  0.00     0.173 A 
ATOM     97  F   UNL A   1      43.051  38.315  28.224  1.00  0.00    -0.203 F 
ATOM     98  C   UNL A   1      43.024  39.955  29.912  1.00  0.00     0.198 A 
ATOM     99  C   UNL A   1      43.824  39.428  32.112  1.00  0.00     0.198 A 
ATOM    100  F   UNL A   1      44.669  37.281  32.576  1.00  0.00    -0.203 F 
ATOM    101  F   UNL A   1      42.517  40.840  29.043  1.00  0.00    -0.200 F 
ATOM    102  C   UNL A   1      43.274  40.337  31.222  1.00  0.00     0.200 A 
ATOM    103  F   UNL A   1      44.053  39.790  33.382  1.00  0.00    -0.200 F 
ATOM    104  F   UNL A   1      42.988  41.582  31.625  1.00  0.00    -0.200 F 
ENDBRANCH  71  94
ENDBRANCH  45  46
ENDBRANCH  38  40
ENDBRANCH  37  38
ENDBRANCH  36  37
ENDBRANCH  35  36
ENDBRANCH  34  35
ENDBRANCH  33  34
ENDBRANCH  32  33
ENDBRANCH  31  32
ENDBRANCH   1  31
TORSDOF 24
ENDMDL
MODEL 3
REMARK VINA RESULT:      -9.0      5.596      9.794
REMARK SMILES CC(C)[N@@H+](C)Cc1cc2c(cc1Cl)C=C(C(=O)OCCOCCOCCOCCOC(=O)c1ccc(-c3c4nc(c(-c5c(F)c(F)c(F)c(F)c5F)c5ccc([nH]5)c(-c5c(F)c(F)c(F)c(F)c5F)c5nc(c(-c6c(F)c(F)c(F)c(F)c6F)c6ccc3[nH]6)C=C5)C=C4)cc1)[C@@H](C(F)(F)F)O2
REMARK SMILES IDX 23 1 22 2 21 3 20 4 19 5 18 6 16 7 17 8 15 9 7 10 8 11 12 12
REMARK SMILES IDX 9 13 11 14 13 15 10 16 101 17 14 18 96 19 6 20 4 21 5 22
REMARK SMILES IDX 2 24 1 25 3 26 97 27 98 28 99 29 100 30 24 31 25 32 26 33
REMARK SMILES IDX 27 34 28 35 29 36 30 37 31 38 32 39 33 40 34 41 95 42 35 43
REMARK SMILES IDX 94 44 36 45 37 46 38 47 88 48 39 49 93 50 87 51 89 52 40 53
REMARK SMILES IDX 92 54 86 55 85 56 41 58 73 59 53 60 72 61 54 62 57 63 71 64
REMARK SMILES IDX 90 65 55 66 56 67 70 69 91 70 58 71 42 72 43 73 51 74 44 75
REMARK SMILES IDX 45 76 49 77 52 78 46 79 47 80 50 81 48 82 74 83 75 84 83 85
REMARK SMILES IDX 76 86 77 87 81 88 84 89 78 90 79 91 82 92 80 93 59 94 60 95
REMARK SMILES IDX 68 96 61 97 62 98 66 99 69 100 63 101 64 102 67 103 65 104
REMARK H PARENT 4 23 89 57 57 68
REMARK Flexibility Score: inf
ROOT
ATOM      1  C   UNL A   1      40.642  20.973  26.170  1.00  0.00     0.188 C 
ENDROOT
BRANCH   1   2
ATOM      2  C   UNL A   1      39.328  21.697  26.521  1.00  0.00     0.188 C 
BRANCH   2   3
ATOM      3  O   UNL A   1      39.260  23.021  25.992  1.00  0.00    -0.376 OA
BRANCH   3   4
ATOM      4  C   UNL A   1      38.976  24.074  26.906  1.00  0.00     0.202 C 
BRANCH   4   5
ATOM      5  C   UNL A   1      40.180  24.748  27.583  1.00  0.00     0.261 C 
BRANCH   5   6
ATOM      6  O   UNL A   1      39.876  25.965  28.282  1.00  0.00    -0.460 OA
BRANCH   6   7
ATOM      7  C   UNL A   1      40.029  27.122  27.611  1.00  0.00     0.338 C 
ATOM      8  O   UNL A   1      40.458  27.263  26.479  1.00  0.00    -0.246 OA
BRANCH   7   9
ATOM      9  C   UNL A   1      39.438  28.199  28.431  1.00  0.00     0.087 C 
ATOM     10  C   UNL A   1      37.053  32.302  30.125  1.00  0.00     0.029 A 
ATOM     11  C   UNL A   1      37.968  31.378  30.658  1.00  0.00     0.058 A 
ATOM     12  C   UNL A   1      36.588  32.068  28.819  1.00  0.00     0.050 A 
ATOM     13  C   UNL A   1      38.395  30.264  29.935  1.00  0.00     0.128 A 
ATOM     14  C   UNL A   1      37.041  30.963  28.079  1.00  0.00     0.033 A 
ATOM     15  Cl  UNL A   1      35.475  33.122  28.020  1.00  0.00    -0.084 Cl
ATOM     16  C   UNL A   1      37.968  30.075  28.627  1.00  0.00     0.019 A 
ATOM     17  O   UNL A   1      39.254  29.435  30.590  1.00  0.00    -0.475 OA
ATOM     18  C   UNL A   1      38.553  29.008  27.832  1.00  0.00     0.027 C 
ATOM     19  C   UNL A   1      39.797  28.283  29.893  1.00  0.00     0.316 C 
BRANCH  10  20
ATOM     20  C   UNL A   1      36.684  33.536  30.928  1.00  0.00     0.300 C 
BRANCH  20  21
ATOM     21  N   UNL A   1      35.740  33.398  32.043  1.00  0.00    -0.332 N 
ATOM     22  C   UNL A   1      34.383  33.857  31.793  1.00  0.00     0.333 C 
ATOM     23  H   UNL A   1      35.694  32.380  32.036  1.00  0.00     0.348 HD
BRANCH  21  24
ATOM     24  C   UNL A   1      36.204  33.631  33.415  1.00  0.00     0.177 C 
ATOM     25  C   UNL A   1      37.492  34.461  33.443  1.00  0.00     0.075 C 
ATOM     26  C   UNL A   1      35.170  34.228  34.376  1.00  0.00     0.075 C 
ENDBRANCH  21  24
ENDBRANCH  20  21
ENDBRANCH  10  20
BRANCH  19  27
ATOM     27  C   UNL A   1      41.312  28.280  30.144  1.00  0.00     0.430 C 
ATOM     28  F   UNL A   1      41.619  28.949  31.282  1.00  0.00    -0.167 F 
ATOM     29  F   UNL A   1      41.812  27.032  30.286  1.00  0.00    -0.167 F 
ATOM     30  F   UNL A   1      41.987  28.872  29.131  1.00  0.00    -0.167 F 
ENDBRANCH  19  27
ENDBRANCH   7   9
ENDBRANCH   6   7
ENDBRANCH   5   6
ENDBRANCH   4   5
ENDBRANCH   3   4
ENDBRANCH   2   3
ENDBRANCH   1   2
BRANCH   1  31
ATOM     31  O   UNL A   1      41.674  21.869  25.786  1.00  0.00    -0.377 OA
BRANCH  31  32
ATOM     32  C   UNL A   1      43.005  21.544  26.188  1.00  0.00     0.188 C 
BRANCH  32  33
ATOM     33  C   UNL A   1      43.885  20.581  25.357  1.00  0.00     0.188 C 
BRANCH  33  34
ATOM     34  O   UNL A   1      44.961  21.233  24.684  1.00  0.00    -0.376 OA
BRANCH  34  35
ATOM     35  C   UNL A   1      44.759  22.592  24.323  1.00  0.00     0.202 C 
BRANCH  35  36
ATOM     36  C   UNL A   1      45.948  23.498  24.663  1.00  0.00     0.261 C 
BRANCH  36  37
ATOM     37  O   UNL A   1      45.659  24.903  24.665  1.00  0.00    -0.460 OA
BRANCH  37  38
ATOM     38  C   UNL A   1      46.693  25.757  24.827  1.00  0.00     0.338 C 
ATOM     39  O   UNL A   1      47.715  25.816  24.168  1.00  0.00    -0.246 OA
BRANCH  38  40
ATOM     40  C   UNL A   1      46.286  26.757  25.836  1.00  0.00     0.060 A 
ATOM     41  C   UNL A   1      44.933  27.036  26.043  1.00  0.00     0.016 A 
ATOM     42  C   UNL A   1      47.272  27.440  26.559  1.00  0.00     0.016 A 
ATOM     43  C   UNL A   1      44.564  27.974  27.007  1.00  0.00     0.010 A 
ATOM     44  C   UNL A   1      46.902  28.383  27.520  1.00  0.00     0.010 A 
ATOM     45  C   UNL A   1      45.544  28.632  27.771  1.00  0.00    -0.014 A 
BRANCH  45  46
ATOM     46  C   UNL A   1      45.128  29.407  28.963  1.00  0.00     0.031 A 
ATOM     47  C   UNL A   1      44.862  30.877  28.912  1.00  0.00     0.074 A 
ATOM     48  C   UNL A   1      44.978  28.728  30.116  1.00  0.00     0.049 A 
ATOM     49  N   UNL A   1      44.382  31.654  29.852  1.00  0.00    -0.248 NA
ATOM     50  C   UNL A   1      45.177  31.570  27.657  1.00  0.00     0.031 C 
ATOM     51  C   UNL A   1      45.240  27.296  30.281  1.00  0.00     0.029 A 
ATOM     52  N   UNL A   1      44.558  29.136  31.355  1.00  0.00    -0.354 N 
ATOM     53  C   UNL A   1      44.309  32.922  29.296  1.00  0.00     0.074 A 
ATOM     54  C   UNL A   1      44.842  32.821  27.951  1.00  0.00     0.031 C 
ATOM     55  C   UNL A   1      44.945  26.939  31.538  1.00  0.00     0.029 A 
ATOM     56  C   UNL A   1      44.493  28.117  32.272  1.00  0.00     0.049 A 
ATOM     57  H   UNL A   1      44.325  30.069  31.566  1.00  0.00     0.167 HD
ATOM     58  C   UNL A   1      43.823  34.055  29.858  1.00  0.00     0.037 A 
ATOM     59  C   UNL A   1      44.101  28.125  33.559  1.00  0.00     0.037 A 
ATOM     60  C   UNL A   1      43.314  34.145  31.204  1.00  0.00     0.049 A 
ATOM     61  C   UNL A   1      43.607  29.405  34.166  1.00  0.00     0.074 A 
ATOM     62  C   UNL A   1      42.765  35.243  31.847  1.00  0.00     0.029 A 
ATOM     63  N   UNL A   1      43.304  33.104  32.121  1.00  0.00    -0.354 N 
ATOM     64  N   UNL A   1      43.464  30.582  33.606  1.00  0.00    -0.248 NA
ATOM     65  C   UNL A   1      43.213  29.359  35.580  1.00  0.00     0.031 C 
ATOM     66  C   UNL A   1      42.472  34.881  33.165  1.00  0.00     0.029 A 
ATOM     67  C   UNL A   1      42.787  33.543  33.333  1.00  0.00     0.049 A 
ATOM     68  H   UNL A   1      43.617  32.188  31.940  1.00  0.00     0.167 HD
ATOM     69  C   UNL A   1      42.945  31.410  34.590  1.00  0.00     0.074 A 
ATOM     70  C   UNL A   1      42.783  30.598  35.778  1.00  0.00     0.031 C 
ATOM     71  C   UNL A   1      42.633  32.727  34.512  1.00  0.00     0.037 A 
BRANCH  58  72
ATOM     72  C   UNL A   1      43.795  35.301  29.019  1.00  0.00     0.064 A 
ATOM     73  C   UNL A   1      44.956  36.056  28.802  1.00  0.00     0.173 A 
ATOM     74  C   UNL A   1      42.627  35.684  28.342  1.00  0.00     0.173 A 
ATOM     75  F   UNL A   1      46.099  35.732  29.425  1.00  0.00    -0.203 F 
ATOM     76  C   UNL A   1      44.947  37.156  27.947  1.00  0.00     0.198 A 
ATOM     77  C   UNL A   1      42.627  36.770  27.469  1.00  0.00     0.198 A 
ATOM     78  F   UNL A   1      41.491  34.988  28.505  1.00  0.00    -0.203 F 
ATOM     79  F   UNL A   1      46.064  37.875  27.770  1.00  0.00    -0.200 F 
ATOM     80  C   UNL A   1      43.786  37.505  27.274  1.00  0.00     0.200 A 
ATOM     81  F   UNL A   1      41.509  37.094  26.806  1.00  0.00    -0.200 F 
ATOM     82  F   UNL A   1      43.785  38.550  26.434  1.00  0.00    -0.200 F 
ENDBRANCH  58  72
BRANCH  59  83
ATOM     83  C   UNL A   1      44.114  26.857  34.331  1.00  0.00     0.064 A 
ATOM     84  C   UNL A   1      45.304  26.372  34.889  1.00  0.00     0.173 A 
ATOM     85  C   UNL A   1      42.936  26.134  34.565  1.00  0.00     0.173 A 
ATOM     86  F   UNL A   1      46.456  27.025  34.680  1.00  0.00    -0.203 F 
ATOM     87  C   UNL A   1      45.315  25.204  35.648  1.00  0.00     0.198 A 
ATOM     88  C   UNL A   1      42.945  24.981  35.346  1.00  0.00     0.198 A 
ATOM     89  F   UNL A   1      41.771  26.566  34.059  1.00  0.00    -0.203 F 
ATOM     90  F   UNL A   1      46.470  24.746  36.149  1.00  0.00    -0.200 F 
ATOM     91  C   UNL A   1      44.135  24.515  35.883  1.00  0.00     0.200 A 
ATOM     92  F   UNL A   1      41.799  24.328  35.585  1.00  0.00    -0.200 F 
ATOM     93  F   UNL A   1      44.145  23.400  36.626  1.00  0.00    -0.200 F 
ENDBRANCH  59  83
BRANCH  71  94
ATOM     94  C   UNL A   1      42.072  33.379  35.741  1.00  0.00     0.064 A 
ATOM     95  C   UNL A   1      40.703  33.318  36.042  1.00  0.00     0.173 A 
ATOM     96  C   UNL A   1      42.919  34.015  36.662  1.00  0.00     0.173 A 
ATOM     97  F   UNL A   1      39.850  32.735  35.187  1.00  0.00    -0.203 F 
ATOM     98  C   UNL A   1      40.202  33.882  37.213  1.00  0.00     0.198 A 
ATOM     99  C   UNL A   1      42.418  34.553  37.844  1.00  0.00     0.198 A 
ATOM    100  F   UNL A   1      44.237  34.096  36.423  1.00  0.00    -0.203 F 
ATOM    101  F   UNL A   1      38.886  33.843  37.462  1.00  0.00    -0.200 F 
ATOM    102  C   UNL A   1      41.060  34.490  38.117  1.00  0.00     0.200 A 
ATOM    103  F   UNL A   1      43.251  35.127  38.723  1.00  0.00    -0.200 F 
ATOM    104  F   UNL A   1      40.578  35.017  39.250  1.00  0.00    -0.200 F 
ENDBRANCH  71  94
ENDBRANCH  45  46
ENDBRANCH  38  40
ENDBRANCH  37  38
ENDBRANCH  36  37
ENDBRANCH  35  36
ENDBRANCH  34  35
ENDBRANCH  33  34
ENDBRANCH  32  33
ENDBRANCH  31  32
ENDBRANCH   1  31
TORSDOF 24
ENDMDL
