MODEL 1
REMARK VINA RESULT:     -10.0      0.000      0.000
REMARK SMILES C[C@H]1C[C@H]([N@@H+]2CCOC[C@@H]2C(=O)OCCOCCOCCOCCOC(=O)c2ccc(-c3c4nc(c(-c5c(F)c(F)c(F)c(F)c5F)c5ccc([nH]5)c(-c5c(F)c(F)c(F)c(F)c5F)c5nc(c(-c6c(F)c(F)c(F)c(F)c6F)c6ccc3[nH]6)C=C5)C=C4)cc2)CS1
REMARK SMILES IDX 20 1 19 2 18 3 17 4 16 5 15 6 14 7 13 8 11 9 12 10 10 11
REMARK SMILES IDX 5 12 6 13 7 15 9 16 8 17 4 18 1 19 2 20 3 21 92 22 91 23
REMARK SMILES IDX 21 24 22 25 23 26 24 27 25 28 26 29 27 30 28 31 29 32 90 33
REMARK SMILES IDX 30 34 89 35 31 36 32 37 33 38 83 39 34 40 88 41 82 42 84 43
REMARK SMILES IDX 35 44 87 45 81 46 80 47 36 49 68 50 48 51 67 52 49 53 52 54
REMARK SMILES IDX 66 55 85 56 50 57 51 58 65 60 86 61 53 62 37 63 38 64 46 65
REMARK SMILES IDX 39 66 40 67 44 68 47 69 41 70 42 71 45 72 43 73 69 74 70 75
REMARK SMILES IDX 78 76 71 77 72 78 76 79 79 80 73 81 74 82 77 83 75 84 54 85
REMARK SMILES IDX 55 86 63 87 56 88 57 89 61 90 64 91 58 92 59 93 62 94 60 95
REMARK H PARENT 5 14 84 48 52 59
REMARK Flexibility Score: inf
ROOT
ATOM      1  C   UNL A   1      36.148  23.485  25.647  1.00  0.00     0.188 C 
ENDROOT
BRANCH   1   2
ATOM      2  O   UNL A   1      35.474  22.838  26.705  1.00  0.00    -0.377 OA
BRANCH   2   3
ATOM      3  C   UNL A   1      34.116  22.530  26.497  1.00  0.00     0.188 C 
BRANCH   3   4
ATOM      4  C   UNL A   1      33.072  22.595  27.618  1.00  0.00     0.188 C 
BRANCH   4   5
ATOM      5  O   UNL A   1      31.772  23.096  27.341  1.00  0.00    -0.376 OA
BRANCH   5   6
ATOM      6  C   UNL A   1      31.058  22.725  26.169  1.00  0.00     0.202 C 
BRANCH   6   7
ATOM      7  C   UNL A   1      30.983  23.662  24.965  1.00  0.00     0.261 C 
BRANCH   7   8
ATOM      8  O   UNL A   1      31.752  24.869  25.141  1.00  0.00    -0.459 OA
BRANCH   8   9
ATOM      9  C   UNL A   1      31.049  25.995  25.392  1.00  0.00     0.367 C 
ATOM     10  O   UNL A   1      30.586  26.260  26.500  1.00  0.00    -0.245 OA
BRANCH   9  11
ATOM     11  C   UNL A   1      30.978  26.997  24.245  1.00  0.00     0.321 C 
ATOM     12  N   UNL A   1      32.128  27.904  23.908  1.00  0.00    -0.316 N 
ATOM     13  C   UNL A   1      31.808  28.476  22.564  1.00  0.00     0.292 C 
ATOM     14  H   UNL A   1      32.929  27.276  23.983  1.00  0.00     0.349 HD
ATOM     15  C   UNL A   1      30.377  29.036  22.394  1.00  0.00     0.221 C 
ATOM     16  C   UNL A   1      29.590  27.632  24.107  1.00  0.00     0.237 C 
ATOM     17  O   UNL A   1      29.375  28.079  22.762  1.00  0.00    -0.369 OA
BRANCH  12  18
ATOM     18  C   UNL A   1      32.702  28.920  24.825  1.00  0.00     0.195 C 
ATOM     19  C   UNL A   1      32.905  31.498  27.266  1.00  0.00     0.019 C 
ATOM     20  C   UNL A   1      32.520  30.032  27.118  1.00  0.00     0.049 C 
ATOM     21  C   UNL A   1      31.799  29.690  25.810  1.00  0.00     0.080 C 
ATOM     22  S   UNL A   1      33.972  28.959  27.230  1.00  0.00    -0.152 SA
ATOM     23  C   UNL A   1      34.049  28.558  25.472  1.00  0.00     0.134 C 
ENDBRANCH  12  18
ENDBRANCH   9  11
ENDBRANCH   8   9
ENDBRANCH   7   8
ENDBRANCH   6   7
ENDBRANCH   5   6
ENDBRANCH   4   5
ENDBRANCH   3   4
ENDBRANCH   2   3
ENDBRANCH   1   2
BRANCH   1  24
ATOM     24  C   UNL A   1      37.100  22.528  24.937  1.00  0.00     0.188 C 
BRANCH  24  25
ATOM     25  O   UNL A   1      36.861  21.174  25.267  1.00  0.00    -0.376 OA
BRANCH  25  26
ATOM     26  C   UNL A   1      37.794  20.163  24.913  1.00  0.00     0.202 C 
BRANCH  26  27
ATOM     27  C   UNL A   1      39.010  19.670  25.741  1.00  0.00     0.261 C 
BRANCH  27  28
ATOM     28  O   UNL A   1      40.169  20.494  25.893  1.00  0.00    -0.460 OA
BRANCH  28  29
ATOM     29  C   UNL A   1      40.792  20.525  27.084  1.00  0.00     0.338 C 
ATOM     30  O   UNL A   1      41.233  19.583  27.718  1.00  0.00    -0.246 OA
BRANCH  29  31
ATOM     31  C   UNL A   1      40.985  21.952  27.428  1.00  0.00     0.060 A 
ATOM     32  C   UNL A   1      40.228  22.922  26.760  1.00  0.00     0.016 A 
ATOM     33  C   UNL A   1      41.891  22.327  28.425  1.00  0.00     0.016 A 
ATOM     34  C   UNL A   1      40.395  24.274  27.067  1.00  0.00     0.010 A 
ATOM     35  C   UNL A   1      42.080  23.683  28.711  1.00  0.00     0.010 A 
ATOM     36  C   UNL A   1      41.356  24.664  28.010  1.00  0.00    -0.014 A 
BRANCH  36  37
ATOM     37  C   UNL A   1      41.769  26.086  28.095  1.00  0.00     0.031 A 
ATOM     38  C   UNL A   1      43.114  26.462  27.532  1.00  0.00     0.074 A 
ATOM     39  C   UNL A   1      40.984  27.025  28.652  1.00  0.00     0.049 A 
ATOM     40  N   UNL A   1      43.734  27.614  27.549  1.00  0.00    -0.248 NA
ATOM     41  C   UNL A   1      43.857  25.386  26.858  1.00  0.00     0.031 C 
ATOM     42  C   UNL A   1      39.643  26.800  29.184  1.00  0.00     0.029 A 
ATOM     43  N   UNL A   1      41.216  28.361  28.870  1.00  0.00    -0.354 N 
ATOM     44  C   UNL A   1      44.940  27.397  26.894  1.00  0.00     0.074 A 
ATOM     45  C   UNL A   1      44.979  26.001  26.518  1.00  0.00     0.031 C 
ATOM     46  C   UNL A   1      39.178  27.956  29.691  1.00  0.00     0.029 A 
ATOM     47  C   UNL A   1      40.200  28.993  29.545  1.00  0.00     0.049 A 
ATOM     48  H   UNL A   1      42.032  28.822  28.569  1.00  0.00     0.167 HD
ATOM     49  C   UNL A   1      45.927  28.284  26.625  1.00  0.00     0.037 A 
ATOM     50  C   UNL A   1      40.123  30.254  30.014  1.00  0.00     0.037 A 
ATOM     51  C   UNL A   1      45.891  29.670  27.007  1.00  0.00     0.049 A 
ATOM     52  C   UNL A   1      41.275  31.204  29.781  1.00  0.00     0.074 A 
ATOM     53  C   UNL A   1      46.835  30.654  26.772  1.00  0.00     0.029 A 
ATOM     54  N   UNL A   1      44.860  30.265  27.718  1.00  0.00    -0.354 N 
ATOM     55  N   UNL A   1      42.401  31.002  29.140  1.00  0.00    -0.248 NA
ATOM     56  C   UNL A   1      41.144  32.559  30.339  1.00  0.00     0.031 C 
ATOM     57  C   UNL A   1      46.401  31.830  27.392  1.00  0.00     0.029 A 
ATOM     58  C   UNL A   1      45.158  31.595  27.958  1.00  0.00     0.049 A 
ATOM     59  H   UNL A   1      44.037  29.809  28.010  1.00  0.00     0.167 HD
ATOM     60  C   UNL A   1      43.092  32.207  29.185  1.00  0.00     0.074 A 
ATOM     61  C   UNL A   1      42.256  33.139  29.911  1.00  0.00     0.031 C 
ATOM     62  C   UNL A   1      44.307  32.516  28.670  1.00  0.00     0.037 A 
BRANCH  49  63
ATOM     63  C   UNL A   1      47.142  27.771  25.910  1.00  0.00     0.064 A 
ATOM     64  C   UNL A   1      48.260  27.288  26.605  1.00  0.00     0.173 A 
ATOM     65  C   UNL A   1      47.177  27.742  24.507  1.00  0.00     0.173 A 
ATOM     66  F   UNL A   1      48.283  27.310  27.946  1.00  0.00    -0.203 F 
ATOM     67  C   UNL A   1      49.381  26.821  25.923  1.00  0.00     0.198 A 
ATOM     68  C   UNL A   1      48.287  27.244  23.829  1.00  0.00     0.198 A 
ATOM     69  F   UNL A   1      46.133  28.190  23.794  1.00  0.00    -0.203 F 
ATOM     70  F   UNL A   1      50.458  26.412  26.607  1.00  0.00    -0.200 F 
ATOM     71  C   UNL A   1      49.389  26.792  24.537  1.00  0.00     0.200 A 
ATOM     72  F   UNL A   1      48.289  27.207  22.490  1.00  0.00    -0.200 F 
ATOM     73  F   UNL A   1      50.467  26.337  23.881  1.00  0.00    -0.200 F 
ENDBRANCH  49  63
BRANCH  50  74
ATOM     74  C   UNL A   1      38.922  30.698  30.772  1.00  0.00     0.064 A 
ATOM     75  C   UNL A   1      38.872  30.609  32.170  1.00  0.00     0.173 A 
ATOM     76  C   UNL A   1      37.787  31.190  30.111  1.00  0.00     0.173 A 
ATOM     77  F   UNL A   1      39.920  30.117  32.847  1.00  0.00    -0.203 F 
ATOM     78  C   UNL A   1      37.727  30.975  32.876  1.00  0.00     0.198 A 
ATOM     79  C   UNL A   1      36.653  31.584  30.820  1.00  0.00     0.198 A 
ATOM     80  F   UNL A   1      37.777  31.289  28.773  1.00  0.00    -0.203 F 
ATOM     81  F   UNL A   1      37.688  30.829  34.207  1.00  0.00    -0.200 F 
ATOM     82  C   UNL A   1      36.621  31.468  32.200  1.00  0.00     0.200 A 
ATOM     83  F   UNL A   1      35.590  32.068  30.163  1.00  0.00    -0.200 F 
ATOM     84  F   UNL A   1      35.520  31.819  32.879  1.00  0.00    -0.200 F 
ENDBRANCH  50  74
BRANCH  62  85
ATOM     85  C   UNL A   1      44.794  33.928  28.824  1.00  0.00     0.064 A 
ATOM     86  C   UNL A   1      45.611  34.317  29.895  1.00  0.00     0.173 A 
ATOM     87  C   UNL A   1      44.494  34.890  27.846  1.00  0.00     0.173 A 
ATOM     88  F   UNL A   1      45.919  33.439  30.862  1.00  0.00    -0.203 F 
ATOM     89  C   UNL A   1      46.093  35.620  29.993  1.00  0.00     0.198 A 
ATOM     90  C   UNL A   1      45.004  36.183  27.929  1.00  0.00     0.198 A 
ATOM     91  F   UNL A   1      43.724  34.569  26.795  1.00  0.00    -0.203 F 
ATOM     92  F   UNL A   1      46.838  35.980  31.046  1.00  0.00    -0.200 F 
ATOM     93  C   UNL A   1      45.797  36.548  29.006  1.00  0.00     0.200 A 
ATOM     94  F   UNL A   1      44.730  37.074  26.966  1.00  0.00    -0.200 F 
ATOM     95  F   UNL A   1      46.274  37.797  29.094  1.00  0.00    -0.200 F 
ENDBRANCH  62  85
ENDBRANCH  36  37
ENDBRANCH  29  31
ENDBRANCH  28  29
ENDBRANCH  27  28
ENDBRANCH  26  27
ENDBRANCH  25  26
ENDBRANCH  24  25
ENDBRANCH   1  24
TORSDOF 21
ENDMDL
MODEL 2
REMARK VINA RESULT:      -9.6      0.654      2.090
REMARK SMILES C[C@H]1C[C@H]([N@@H+]2CCOC[C@@H]2C(=O)OCCOCCOCCOCCOC(=O)c2ccc(-c3c4nc(c(-c5c(F)c(F)c(F)c(F)c5F)c5ccc([nH]5)c(-c5c(F)c(F)c(F)c(F)c5F)c5nc(c(-c6c(F)c(F)c(F)c(F)c6F)c6ccc3[nH]6)C=C5)C=C4)cc2)CS1
REMARK SMILES IDX 20 1 19 2 18 3 17 4 16 5 15 6 14 7 13 8 11 9 12 10 10 11
REMARK SMILES IDX 5 12 6 13 7 15 9 16 8 17 4 18 1 19 2 20 3 21 92 22 91 23
REMARK SMILES IDX 21 24 22 25 23 26 24 27 25 28 26 29 27 30 28 31 29 32 90 33
REMARK SMILES IDX 30 34 89 35 31 36 32 37 33 38 83 39 34 40 88 41 82 42 84 43
REMARK SMILES IDX 35 44 87 45 81 46 80 47 36 49 68 50 48 51 67 52 49 53 52 54
REMARK SMILES IDX 66 55 85 56 50 57 51 58 65 60 86 61 53 62 37 63 38 64 46 65
REMARK SMILES IDX 39 66 40 67 44 68 47 69 41 70 42 71 45 72 43 73 69 74 70 75
REMARK SMILES IDX 78 76 71 77 72 78 76 79 79 80 73 81 74 82 77 83 75 84 54 85
REMARK SMILES IDX 55 86 63 87 56 88 57 89 61 90 64 91 58 92 59 93 62 94 60 95
REMARK H PARENT 5 14 84 48 52 59
REMARK Flexibility Score: inf
ROOT
ATOM      1  C   UNL A   1      35.648  23.572  24.707  1.00  0.00     0.188 C 
ENDROOT
BRANCH   1   2
ATOM      2  O   UNL A   1      35.266  23.096  25.980  1.00  0.00    -0.377 OA
BRANCH   2   3
ATOM      3  C   UNL A   1      34.015  22.454  26.067  1.00  0.00     0.188 C 
BRANCH   3   4
ATOM      4  C   UNL A   1      33.267  22.276  27.394  1.00  0.00     0.188 C 
BRANCH   4   5
ATOM      5  O   UNL A   1      32.083  23.019  27.639  1.00  0.00    -0.376 OA
BRANCH   5   6
ATOM      6  C   UNL A   1      30.983  23.001  26.738  1.00  0.00     0.202 C 
BRANCH   6   7
ATOM      7  C   UNL A   1      30.500  24.283  26.063  1.00  0.00     0.261 C 
BRANCH   7   8
ATOM      8  O   UNL A   1      31.400  24.757  25.041  1.00  0.00    -0.459 OA
BRANCH   8   9
ATOM      9  C   UNL A   1      30.857  24.985  23.825  1.00  0.00     0.367 C 
ATOM     10  O   UNL A   1      30.328  24.102  23.153  1.00  0.00    -0.245 OA
BRANCH   9  11
ATOM     11  C   UNL A   1      30.816  26.444  23.386  1.00  0.00     0.321 C 
ATOM     12  N   UNL A   1      31.980  27.372  23.595  1.00  0.00    -0.316 N 
ATOM     13  C   UNL A   1      31.690  28.576  22.758  1.00  0.00     0.292 C 
ATOM     14  H   UNL A   1      32.774  26.787  23.334  1.00  0.00     0.349 HD
ATOM     15  C   UNL A   1      30.268  29.165  22.894  1.00  0.00     0.221 C 
ATOM     16  C   UNL A   1      29.436  27.079  23.590  1.00  0.00     0.237 C 
ATOM     17  O   UNL A   1      29.251  28.176  22.685  1.00  0.00    -0.369 OA
BRANCH  12  18
ATOM     18  C   UNL A   1      32.545  27.734  24.919  1.00  0.00     0.195 C 
ATOM     19  C   UNL A   1      34.762  29.042  27.372  1.00  0.00     0.019 C 
ATOM     20  C   UNL A   1      33.836  29.492  26.250  1.00  0.00     0.049 C 
ATOM     21  C   UNL A   1      33.832  28.578  25.021  1.00  0.00     0.080 C 
ATOM     22  S   UNL A   1      32.127  29.627  26.826  1.00  0.00    -0.152 SA
ATOM     23  C   UNL A   1      31.527  28.141  25.997  1.00  0.00     0.134 C 
ENDBRANCH  12  18
ENDBRANCH   9  11
ENDBRANCH   8   9
ENDBRANCH   7   8
ENDBRANCH   6   7
ENDBRANCH   5   6
ENDBRANCH   4   5
ENDBRANCH   3   4
ENDBRANCH   2   3
ENDBRANCH   1   2
BRANCH   1  24
ATOM     24  C   UNL A   1      36.596  22.595  24.019  1.00  0.00     0.188 C 
BRANCH  24  25
ATOM     25  O   UNL A   1      36.409  21.260  24.446  1.00  0.00    -0.376 OA
BRANCH  25  26
ATOM     26  C   UNL A   1      37.487  20.514  24.993  1.00  0.00     0.202 C 
BRANCH  26  27
ATOM     27  C   UNL A   1      38.583  21.017  25.969  1.00  0.00     0.261 C 
BRANCH  27  28
ATOM     28  O   UNL A   1      39.932  20.557  25.849  1.00  0.00    -0.460 OA
BRANCH  28  29
ATOM     29  C   UNL A   1      40.717  20.557  26.940  1.00  0.00     0.338 C 
ATOM     30  O   UNL A   1      41.266  19.603  27.462  1.00  0.00    -0.246 OA
BRANCH  29  31
ATOM     31  C   UNL A   1      40.923  21.974  27.318  1.00  0.00     0.060 A 
ATOM     32  C   UNL A   1      40.169  22.965  26.678  1.00  0.00     0.016 A 
ATOM     33  C   UNL A   1      41.837  22.317  28.319  1.00  0.00     0.016 A 
ATOM     34  C   UNL A   1      40.348  24.308  27.017  1.00  0.00     0.010 A 
ATOM     35  C   UNL A   1      42.038  23.665  28.637  1.00  0.00     0.010 A 
ATOM     36  C   UNL A   1      41.317  24.668  27.964  1.00  0.00    -0.014 A 
BRANCH  36  37
ATOM     37  C   UNL A   1      41.742  26.084  28.082  1.00  0.00     0.031 A 
ATOM     38  C   UNL A   1      43.089  26.463  27.528  1.00  0.00     0.074 A 
ATOM     39  C   UNL A   1      40.964  27.016  28.661  1.00  0.00     0.049 A 
ATOM     40  N   UNL A   1      43.719  27.608  27.570  1.00  0.00    -0.248 NA
ATOM     41  C   UNL A   1      43.824  25.396  26.829  1.00  0.00     0.031 C 
ATOM     42  C   UNL A   1      39.622  26.789  29.189  1.00  0.00     0.029 A 
ATOM     43  N   UNL A   1      41.207  28.345  28.909  1.00  0.00    -0.354 N 
ATOM     44  C   UNL A   1      44.923  27.397  26.911  1.00  0.00     0.074 A 
ATOM     45  C   UNL A   1      44.950  26.010  26.502  1.00  0.00     0.031 C 
ATOM     46  C   UNL A   1      39.166  27.937  29.722  1.00  0.00     0.029 A 
ATOM     47  C   UNL A   1      40.196  28.969  29.600  1.00  0.00     0.049 A 
ATOM     48  H   UNL A   1      42.026  28.806  28.620  1.00  0.00     0.167 HD
ATOM     49  C   UNL A   1      45.916  28.283  26.661  1.00  0.00     0.037 A 
ATOM     50  C   UNL A   1      40.129  30.220  30.098  1.00  0.00     0.037 A 
ATOM     51  C   UNL A   1      45.892  29.660  27.076  1.00  0.00     0.049 A 
ATOM     52  C   UNL A   1      41.289  31.165  29.886  1.00  0.00     0.074 A 
ATOM     53  C   UNL A   1      46.843  30.641  26.863  1.00  0.00     0.029 A 
ATOM     54  N   UNL A   1      44.865  30.246  27.801  1.00  0.00    -0.354 N 
ATOM     55  N   UNL A   1      42.413  30.969  29.240  1.00  0.00    -0.248 NA
ATOM     56  C   UNL A   1      41.168  32.508  30.475  1.00  0.00     0.031 C 
ATOM     57  C   UNL A   1      46.419  31.806  27.510  1.00  0.00     0.029 A 
ATOM     58  C   UNL A   1      45.174  31.568  28.071  1.00  0.00     0.049 A 
ATOM     59  H   UNL A   1      44.039  29.790  28.082  1.00  0.00     0.167 HD
ATOM     60  C   UNL A   1      43.113  32.168  29.313  1.00  0.00     0.074 A 
ATOM     61  C   UNL A   1      42.285  33.089  30.061  1.00  0.00     0.031 C 
ATOM     62  C   UNL A   1      44.331  32.479  28.804  1.00  0.00     0.037 A 
BRANCH  49  63
ATOM     63  C   UNL A   1      47.127  27.777  25.934  1.00  0.00     0.064 A 
ATOM     64  C   UNL A   1      47.209  27.790  24.534  1.00  0.00     0.173 A 
ATOM     65  C   UNL A   1      48.230  27.290  26.652  1.00  0.00     0.173 A 
ATOM     66  F   UNL A   1      46.176  28.230  23.802  1.00  0.00    -0.203 F 
ATOM     67  C   UNL A   1      48.340  27.311  23.878  1.00  0.00     0.198 A 
ATOM     68  C   UNL A   1      49.372  26.840  25.994  1.00  0.00     0.198 A 
ATOM     69  F   UNL A   1      48.204  27.255  27.993  1.00  0.00    -0.203 F 
ATOM     70  F   UNL A   1      48.376  27.286  22.539  1.00  0.00    -0.200 F 
ATOM     71  C   UNL A   1      49.422  26.843  24.609  1.00  0.00     0.200 A 
ATOM     72  F   UNL A   1      50.420  26.399  26.701  1.00  0.00    -0.200 F 
ATOM     73  F   UNL A   1      50.513  26.386  23.976  1.00  0.00    -0.200 F 
ENDBRANCH  49  63
BRANCH  50  74
ATOM     74  C   UNL A   1      38.932  30.655  30.866  1.00  0.00     0.064 A 
ATOM     75  C   UNL A   1      37.827  31.229  30.223  1.00  0.00     0.173 A 
ATOM     76  C   UNL A   1      38.882  30.536  32.263  1.00  0.00     0.173 A 
ATOM     77  F   UNL A   1      37.838  31.394  28.892  1.00  0.00    -0.203 F 
ATOM     78  C   UNL A   1      36.728  31.687  30.948  1.00  0.00     0.198 A 
ATOM     79  C   UNL A   1      37.769  30.966  32.985  1.00  0.00     0.198 A 
ATOM     80  F   UNL A   1      39.915  30.002  32.931  1.00  0.00    -0.203 F 
ATOM     81  F   UNL A   1      35.709  32.280  30.313  1.00  0.00    -0.200 F 
ATOM     82  C   UNL A   1      36.698  31.549  32.328  1.00  0.00     0.200 A 
ATOM     83  F   UNL A   1      37.742  30.822  34.317  1.00  0.00    -0.200 F 
ATOM     84  F   UNL A   1      35.640  31.988  33.024  1.00  0.00    -0.200 F 
ENDBRANCH  50  74
BRANCH  62  85
ATOM     85  C   UNL A   1      44.829  33.883  28.991  1.00  0.00     0.064 A 
ATOM     86  C   UNL A   1      44.502  34.910  28.094  1.00  0.00     0.173 A 
ATOM     87  C   UNL A   1      45.588  34.219  30.124  1.00  0.00     0.173 A 
ATOM     88  F   UNL A   1      43.788  34.640  26.991  1.00  0.00    -0.203 F 
ATOM     89  C   UNL A   1      44.934  36.216  28.312  1.00  0.00     0.198 A 
ATOM     90  C   UNL A   1      45.990  35.532  30.356  1.00  0.00     0.198 A 
ATOM     91  F   UNL A   1      45.921  33.276  31.019  1.00  0.00    -0.203 F 
ATOM     92  F   UNL A   1      44.644  37.174  27.421  1.00  0.00    -0.200 F 
ATOM     93  C   UNL A   1      45.668  36.527  29.447  1.00  0.00     0.200 A 
ATOM     94  F   UNL A   1      46.686  35.832  31.462  1.00  0.00    -0.200 F 
ATOM     95  F   UNL A   1      46.069  37.788  29.663  1.00  0.00    -0.200 F 
ENDBRANCH  62  85
ENDBRANCH  36  37
ENDBRANCH  29  31
ENDBRANCH  28  29
ENDBRANCH  27  28
ENDBRANCH  26  27
ENDBRANCH  25  26
ENDBRANCH  24  25
ENDBRANCH   1  24
TORSDOF 21
ENDMDL
MODEL 3
REMARK VINA RESULT:      -9.5      4.441      9.072
REMARK SMILES C[C@H]1C[C@H]([N@@H+]2CCOC[C@@H]2C(=O)OCCOCCOCCOCCOC(=O)c2ccc(-c3c4nc(c(-c5c(F)c(F)c(F)c(F)c5F)c5ccc([nH]5)c(-c5c(F)c(F)c(F)c(F)c5F)c5nc(c(-c6c(F)c(F)c(F)c(F)c6F)c6ccc3[nH]6)C=C5)C=C4)cc2)CS1
REMARK SMILES IDX 20 1 19 2 18 3 17 4 16 5 15 6 14 7 13 8 11 9 12 10 10 11
REMARK SMILES IDX 5 12 6 13 7 15 9 16 8 17 4 18 1 19 2 20 3 21 92 22 91 23
REMARK SMILES IDX 21 24 22 25 23 26 24 27 25 28 26 29 27 30 28 31 29 32 90 33
REMARK SMILES IDX 30 34 89 35 31 36 32 37 33 38 83 39 34 40 88 41 82 42 84 43
REMARK SMILES IDX 35 44 87 45 81 46 80 47 36 49 68 50 48 51 67 52 49 53 52 54
REMARK SMILES IDX 66 55 85 56 50 57 51 58 65 60 86 61 53 62 37 63 38 64 46 65
REMARK SMILES IDX 39 66 40 67 44 68 47 69 41 70 42 71 45 72 43 73 69 74 70 75
REMARK SMILES IDX 78 76 71 77 72 78 76 79 79 80 73 81 74 82 77 83 75 84 54 85
REMARK SMILES IDX 55 86 63 87 56 88 57 89 61 90 64 91 58 92 59 93 62 94 60 95
REMARK H PARENT 5 14 84 48 52 59
REMARK Flexibility Score: inf
ROOT
ATOM      1  C   UNL A   1      42.202  21.596  27.772  1.00  0.00     0.188 C 
ENDROOT
BRANCH   1   2
ATOM      2  O   UNL A   1      40.929  22.088  28.130  1.00  0.00    -0.377 OA
BRANCH   2   3
ATOM      3  C   UNL A   1      40.111  22.555  27.082  1.00  0.00     0.188 C 
BRANCH   3   4
ATOM      4  C   UNL A   1      39.357  21.612  26.139  1.00  0.00     0.188 C 
BRANCH   4   5
ATOM      5  O   UNL A   1      38.006  21.889  25.797  1.00  0.00    -0.376 OA
BRANCH   5   6
ATOM      6  C   UNL A   1      37.495  23.215  25.770  1.00  0.00     0.202 C 
BRANCH   6   7
ATOM      7  C   UNL A   1      36.488  23.647  24.705  1.00  0.00     0.261 C 
BRANCH   7   8
ATOM      8  O   UNL A   1      35.178  23.917  25.243  1.00  0.00    -0.459 OA
BRANCH   8   9
ATOM      9  C   UNL A   1      34.232  22.980  25.015  1.00  0.00     0.367 C 
ATOM     10  O   UNL A   1      34.500  21.834  24.659  1.00  0.00    -0.245 OA
BRANCH   9  11
ATOM     11  C   UNL A   1      32.804  23.388  25.358  1.00  0.00     0.321 C 
ATOM     12  N   UNL A   1      32.042  24.387  24.535  1.00  0.00    -0.316 N 
ATOM     13  C   UNL A   1      30.618  24.271  24.977  1.00  0.00     0.292 C 
ATOM     14  H   UNL A   1      32.272  24.105  23.582  1.00  0.00     0.349 HD
ATOM     15  C   UNL A   1      30.385  24.271  26.504  1.00  0.00     0.221 C 
ATOM     16  C   UNL A   1      32.568  23.478  26.870  1.00  0.00     0.237 C 
ATOM     17  O   UNL A   1      31.181  23.283  27.173  1.00  0.00    -0.369 OA
BRANCH  12  18
ATOM     18  C   UNL A   1      32.449  25.800  24.329  1.00  0.00     0.195 C 
ATOM     19  C   UNL A   1      34.104  28.651  22.995  1.00  0.00     0.019 C 
ATOM     20  C   UNL A   1      33.091  27.580  22.612  1.00  0.00     0.049 C 
ATOM     21  C   UNL A   1      33.393  26.187  23.172  1.00  0.00     0.080 C 
ATOM     22  S   UNL A   1      31.426  28.031  23.157  1.00  0.00    -0.152 SA
ATOM     23  C   UNL A   1      31.346  26.854  24.522  1.00  0.00     0.134 C 
ENDBRANCH  12  18
ENDBRANCH   9  11
ENDBRANCH   8   9
ENDBRANCH   7   8
ENDBRANCH   6   7
ENDBRANCH   5   6
ENDBRANCH   4   5
ENDBRANCH   3   4
ENDBRANCH   2   3
ENDBRANCH   1   2
BRANCH   1  24
ATOM     24  C   UNL A   1      42.864  22.495  26.732  1.00  0.00     0.188 C 
BRANCH  24  25
ATOM     25  O   UNL A   1      43.344  21.775  25.614  1.00  0.00    -0.376 OA
BRANCH  25  26
ATOM     26  C   UNL A   1      44.069  22.431  24.583  1.00  0.00     0.202 C 
BRANCH  26  27
ATOM     27  C   UNL A   1      44.694  23.849  24.625  1.00  0.00     0.261 C 
BRANCH  27  28
ATOM     28  O   UNL A   1      43.879  24.997  24.879  1.00  0.00    -0.460 OA
BRANCH  28  29
ATOM     29  C   UNL A   1      44.475  26.159  25.197  1.00  0.00     0.338 C 
ATOM     30  O   UNL A   1      45.414  26.692  24.635  1.00  0.00    -0.246 OA
BRANCH  29  31
ATOM     31  C   UNL A   1      43.676  26.765  26.287  1.00  0.00     0.060 A 
ATOM     32  C   UNL A   1      43.861  28.118  26.597  1.00  0.00     0.016 A 
ATOM     33  C   UNL A   1      42.731  26.003  26.982  1.00  0.00     0.016 A 
ATOM     34  C   UNL A   1      43.120  28.708  27.622  1.00  0.00     0.010 A 
ATOM     35  C   UNL A   1      42.011  26.588  28.030  1.00  0.00     0.010 A 
ATOM     36  C   UNL A   1      42.227  27.934  28.375  1.00  0.00    -0.014 A 
BRANCH  36  37
ATOM     37  C   UNL A   1      41.697  28.459  29.658  1.00  0.00     0.031 A 
ATOM     38  C   UNL A   1      40.412  29.242  29.620  1.00  0.00     0.074 A 
ATOM     39  C   UNL A   1      42.327  28.251  30.828  1.00  0.00     0.049 A 
ATOM     40  N   UNL A   1      39.784  29.864  30.583  1.00  0.00    -0.248 NA
ATOM     41  C   UNL A   1      39.748  29.332  28.309  1.00  0.00     0.031 C 
ATOM     42  C   UNL A   1      43.546  27.468  31.006  1.00  0.00     0.029 A 
ATOM     43  N   UNL A   1      42.024  28.700  32.090  1.00  0.00    -0.354 N 
ATOM     44  C   UNL A   1      38.657  30.423  29.994  1.00  0.00     0.074 A 
ATOM     45  C   UNL A   1      38.700  30.092  28.587  1.00  0.00     0.031 C 
ATOM     46  C   UNL A   1      43.903  27.510  32.302  1.00  0.00     0.029 A 
ATOM     47  C   UNL A   1      42.955  28.348  33.037  1.00  0.00     0.049 A 
ATOM     48  H   UNL A   1      41.217  29.223  32.297  1.00  0.00     0.167 HD
ATOM     49  C   UNL A   1      37.669  31.144  30.576  1.00  0.00     0.037 A 
ATOM     50  C   UNL A   1      43.041  28.689  34.338  1.00  0.00     0.037 A 
ATOM     51  C   UNL A   1      37.632  31.480  31.973  1.00  0.00     0.049 A 
ATOM     52  C   UNL A   1      41.975  29.570  34.946  1.00  0.00     0.074 A 
ATOM     53  C   UNL A   1      36.669  32.196  32.662  1.00  0.00     0.029 A 
ATOM     54  N   UNL A   1      38.609  31.132  32.893  1.00  0.00    -0.354 N 
ATOM     55  N   UNL A   1      40.899  30.074  34.392  1.00  0.00    -0.248 NA
ATOM     56  C   UNL A   1      42.137  29.929  36.364  1.00  0.00     0.031 C 
ATOM     57  C   UNL A   1      37.094  32.333  33.988  1.00  0.00     0.029 A 
ATOM     58  C   UNL A   1      38.288  31.647  34.138  1.00  0.00     0.049 A 
ATOM     59  H   UNL A   1      39.412  30.599  32.692  1.00  0.00     0.167 HD
ATOM     60  C   UNL A   1      40.240  30.775  35.395  1.00  0.00     0.074 A 
ATOM     61  C   UNL A   1      41.035  30.627  36.596  1.00  0.00     0.031 C 
ATOM     62  C   UNL A   1      39.082  31.476  35.330  1.00  0.00     0.037 A 
BRANCH  49  63
ATOM     63  C   UNL A   1      36.567  31.645  29.690  1.00  0.00     0.064 A 
ATOM     64  C   UNL A   1      36.458  32.998  29.337  1.00  0.00     0.173 A 
ATOM     65  C   UNL A   1      35.617  30.752  29.169  1.00  0.00     0.173 A 
ATOM     66  F   UNL A   1      37.330  33.894  29.821  1.00  0.00    -0.203 F 
ATOM     67  C   UNL A   1      35.424  33.444  28.518  1.00  0.00     0.198 A 
ATOM     68  C   UNL A   1      34.603  31.196  28.325  1.00  0.00     0.198 A 
ATOM     69  F   UNL A   1      35.675  29.447  29.475  1.00  0.00    -0.203 F 
ATOM     70  F   UNL A   1      35.310  34.748  28.234  1.00  0.00    -0.200 F 
ATOM     71  C   UNL A   1      34.502  32.542  28.007  1.00  0.00     0.200 A 
ATOM     72  F   UNL A   1      33.720  30.322  27.824  1.00  0.00    -0.200 F 
ATOM     73  F   UNL A   1      33.510  32.971  27.214  1.00  0.00    -0.200 F 
ENDBRANCH  49  63
BRANCH  50  74
ATOM     74  C   UNL A   1      44.188  28.218  35.160  1.00  0.00     0.064 A 
ATOM     75  C   UNL A   1      45.338  29.003  35.320  1.00  0.00     0.173 A 
ATOM     76  C   UNL A   1      44.171  26.957  35.777  1.00  0.00     0.173 A 
ATOM     77  F   UNL A   1      45.416  30.203  34.725  1.00  0.00    -0.203 F 
ATOM     78  C   UNL A   1      46.434  28.539  36.045  1.00  0.00     0.198 A 
ATOM     79  C   UNL A   1      45.256  26.506  36.528  1.00  0.00     0.198 A 
ATOM     80  F   UNL A   1      43.100  26.161  35.650  1.00  0.00    -0.203 F 
ATOM     81  F   UNL A   1      47.541  29.289  36.136  1.00  0.00    -0.200 F 
ATOM     82  C   UNL A   1      46.389  27.294  36.654  1.00  0.00     0.200 A 
ATOM     83  F   UNL A   1      45.204  25.306  37.121  1.00  0.00    -0.200 F 
ATOM     84  F   UNL A   1      47.443  26.848  37.352  1.00  0.00    -0.200 F 
ENDBRANCH  50  74
BRANCH  62  85
ATOM     85  C   UNL A   1      38.569  32.099  36.596  1.00  0.00     0.064 A 
ATOM     86  C   UNL A   1      37.783  31.381  37.509  1.00  0.00     0.173 A 
ATOM     87  C   UNL A   1      38.928  33.415  36.932  1.00  0.00     0.173 A 
ATOM     88  F   UNL A   1      37.404  30.125  37.231  1.00  0.00    -0.203 F 
ATOM     89  C   UNL A   1      37.359  31.963  38.701  1.00  0.00     0.198 A 
ATOM     90  C   UNL A   1      38.529  33.982  38.140  1.00  0.00     0.198 A 
ATOM     91  F   UNL A   1      39.685  34.143  36.099  1.00  0.00    -0.203 F 
ATOM     92  F   UNL A   1      36.576  31.272  39.540  1.00  0.00    -0.200 F 
ATOM     93  C   UNL A   1      37.740  33.258  39.020  1.00  0.00     0.200 A 
ATOM     94  F   UNL A   1      38.912  35.228  38.453  1.00  0.00    -0.200 F 
ATOM     95  F   UNL A   1      37.344  33.810  40.175  1.00  0.00    -0.200 F 
ENDBRANCH  62  85
ENDBRANCH  36  37
ENDBRANCH  29  31
ENDBRANCH  28  29
ENDBRANCH  27  28
ENDBRANCH  26  27
ENDBRANCH  25  26
ENDBRANCH  24  25
ENDBRANCH   1  24
TORSDOF 21
ENDMDL
