MODEL 1
REMARK VINA RESULT:      -9.2      0.000      0.000
REMARK SMILES COc1cc2c(c(OC)c1)[C@H](C)C[C@H](CC(=O)OCCOCCOCCOCCOC(=O)c1ccc(-c3c4nc(c(-c5c(F)c(F)c(F)c(F)c5F)c5ccc([nH]5)c(-c5c(F)c(F)c(F)c(F)c5F)c5nc(c(-c6c(F)c(F)c(F)c(F)c6F)c6ccc3[nH]6)C=C5)C=C4)cc1)C2
REMARK SMILES IDX 24 1 23 2 22 3 21 4 20 5 19 6 18 7 16 8 17 9 15 10 14 11
REMARK SMILES IDX 3 12 4 13 10 14 5 15 7 16 6 17 96 18 11 19 12 20 13 21 2 22
REMARK SMILES IDX 1 23 8 24 9 25 25 26 26 27 27 28 28 29 29 30 30 31 31 32
REMARK SMILES IDX 32 33 33 34 34 35 95 36 35 37 94 38 36 39 37 40 38 41 88 42
REMARK SMILES IDX 39 43 93 44 87 45 89 46 40 47 92 48 86 49 85 50 41 52 73 53
REMARK SMILES IDX 53 54 72 55 54 56 57 57 71 58 90 59 55 60 56 61 70 63 91 64
REMARK SMILES IDX 58 65 42 66 43 67 51 68 44 69 45 70 49 71 52 72 46 73 47 74
REMARK SMILES IDX 50 75 48 76 74 77 75 78 83 79 76 80 77 81 81 82 84 83 78 84
REMARK SMILES IDX 79 85 82 86 80 87 59 88 60 89 68 90 61 91 62 92 66 93 69 94
REMARK SMILES IDX 63 95 64 96 67 97 65 98
REMARK H PARENT 89 51 57 62
REMARK Flexibility Score: inf
ROOT
ATOM      1  O   UNL A   1      39.323  21.969  25.768  1.00  0.00    -0.377 OA
ENDROOT
BRANCH   1   2
ATOM      2  C   UNL A   1      37.913  22.077  25.831  1.00  0.00     0.188 C 
BRANCH   2   3
ATOM      3  C   UNL A   1      37.155  21.839  24.520  1.00  0.00     0.188 C 
BRANCH   3   4
ATOM      4  O   UNL A   1      35.752  21.664  24.546  1.00  0.00    -0.376 OA
BRANCH   4   5
ATOM      5  C   UNL A   1      35.119  21.062  25.666  1.00  0.00     0.202 C 
BRANCH   5   6
ATOM      6  C   UNL A   1      33.621  20.706  25.707  1.00  0.00     0.261 C 
BRANCH   6   7
ATOM      7  O   UNL A   1      32.739  21.701  26.256  1.00  0.00    -0.463 OA
BRANCH   7   8
ATOM      8  C   UNL A   1      31.932  22.339  25.381  1.00  0.00     0.306 C 
ATOM      9  O   UNL A   1      31.937  22.140  24.169  1.00  0.00    -0.252 OA
BRANCH   8  10
ATOM     10  C   UNL A   1      30.945  23.315  25.996  1.00  0.00     0.126 C 
BRANCH  10  11
ATOM     11  C   UNL A   1      31.068  24.839  25.832  1.00  0.00     0.005 C 
ATOM     12  C   UNL A   1      29.431  28.674  23.207  1.00  0.00     0.122 A 
ATOM     13  C   UNL A   1      29.449  27.310  23.462  1.00  0.00     0.050 A 
ATOM     14  C   UNL A   1      30.349  29.500  23.844  1.00  0.00     0.093 A 
ATOM     15  C   UNL A   1      30.427  26.744  24.301  1.00  0.00    -0.037 A 
ATOM     16  C   UNL A   1      31.326  28.953  24.691  1.00  0.00     0.126 A 
ATOM     17  C   UNL A   1      31.427  27.556  24.885  1.00  0.00     0.000 A 
ATOM     18  C   UNL A   1      30.392  25.252  24.515  1.00  0.00     0.040 C 
ATOM     19  C   UNL A   1      32.529  26.919  25.729  1.00  0.00     0.020 C 
ATOM     20  C   UNL A   1      33.944  27.307  25.277  1.00  0.00     0.013 C 
ATOM     21  C   UNL A   1      32.494  25.370  25.808  1.00  0.00     0.012 C 
BRANCH  12  22
ATOM     22  O   UNL A   1      28.447  29.131  22.373  1.00  0.00    -0.497 OA
ATOM     23  C   UNL A   1      28.792  30.350  21.715  1.00  0.00     0.278 C 
ENDBRANCH  12  22
BRANCH  16  24
ATOM     24  O   UNL A   1      32.192  29.884  25.205  1.00  0.00    -0.496 OA
ATOM     25  C   UNL A   1      31.695  30.599  26.333  1.00  0.00     0.278 C 
ENDBRANCH  16  24
ENDBRANCH  10  11
ENDBRANCH   8  10
ENDBRANCH   7   8
ENDBRANCH   6   7
ENDBRANCH   5   6
ENDBRANCH   4   5
ENDBRANCH   3   4
ENDBRANCH   2   3
ENDBRANCH   1   2
BRANCH   1  26
ATOM     26  C   UNL A   1      39.951  20.783  26.239  1.00  0.00     0.188 C 
BRANCH  26  27
ATOM     27  C   UNL A   1      40.924  20.834  27.433  1.00  0.00     0.188 C 
BRANCH  27  28
ATOM     28  O   UNL A   1      42.262  20.484  27.126  1.00  0.00    -0.376 OA
BRANCH  28  29
ATOM     29  C   UNL A   1      42.830  20.931  25.904  1.00  0.00     0.202 C 
BRANCH  29  30
ATOM     30  C   UNL A   1      43.756  22.158  25.942  1.00  0.00     0.261 C 
BRANCH  30  31
ATOM     31  O   UNL A   1      43.143  23.431  25.674  1.00  0.00    -0.460 OA
BRANCH  31  32
ATOM     32  C   UNL A   1      43.101  24.337  26.675  1.00  0.00     0.338 C 
ATOM     33  O   UNL A   1      42.342  24.365  27.619  1.00  0.00    -0.246 OA
BRANCH  32  34
ATOM     34  C   UNL A   1      44.280  25.217  26.528  1.00  0.00     0.060 A 
ATOM     35  C   UNL A   1      45.029  25.537  27.667  1.00  0.00     0.016 A 
ATOM     36  C   UNL A   1      44.620  25.748  25.282  1.00  0.00     0.016 A 
ATOM     37  C   UNL A   1      46.097  26.430  27.570  1.00  0.00     0.010 A 
ATOM     38  C   UNL A   1      45.681  26.652  25.189  1.00  0.00     0.010 A 
ATOM     39  C   UNL A   1      46.397  27.030  26.339  1.00  0.00    -0.014 A 
BRANCH  39  40
ATOM     40  C   UNL A   1      47.305  28.203  26.302  1.00  0.00     0.031 A 
ATOM     41  C   UNL A   1      46.719  29.567  26.552  1.00  0.00     0.074 A 
ATOM     42  C   UNL A   1      48.625  28.064  26.090  1.00  0.00     0.049 A 
ATOM     43  N   UNL A   1      47.296  30.741  26.526  1.00  0.00    -0.248 NA
ATOM     44  C   UNL A   1      45.283  29.610  26.874  1.00  0.00     0.031 C 
ATOM     45  C   UNL A   1      49.320  26.795  25.890  1.00  0.00     0.029 A 
ATOM     46  N   UNL A   1      49.617  29.010  26.006  1.00  0.00    -0.354 N 
ATOM     47  C   UNL A   1      46.295  31.659  26.822  1.00  0.00     0.074 A 
ATOM     48  C   UNL A   1      45.068  30.912  26.987  1.00  0.00     0.031 C 
ATOM     49  C   UNL A   1      50.628  27.042  25.694  1.00  0.00     0.029 A 
ATOM     50  C   UNL A   1      50.854  28.486  25.720  1.00  0.00     0.049 A 
ATOM     51  H   UNL A   1      49.456  29.972  26.137  1.00  0.00     0.167 HD
ATOM     52  C   UNL A   1      46.393  33.002  26.957  1.00  0.00     0.037 A 
ATOM     53  C   UNL A   1      52.026  29.108  25.482  1.00  0.00     0.037 A 
ATOM     54  C   UNL A   1      47.615  33.744  26.791  1.00  0.00     0.049 A 
ATOM     55  C   UNL A   1      52.088  30.616  25.548  1.00  0.00     0.074 A 
ATOM     56  C   UNL A   1      47.821  35.107  26.909  1.00  0.00     0.029 A 
ATOM     57  N   UNL A   1      48.840  33.182  26.463  1.00  0.00    -0.354 N 
ATOM     58  N   UNL A   1      51.144  31.475  25.844  1.00  0.00    -0.248 NA
ATOM     59  C   UNL A   1      53.387  31.238  25.251  1.00  0.00     0.031 C 
ATOM     60  C   UNL A   1      49.155  35.378  26.593  1.00  0.00     0.029 A 
ATOM     61  C   UNL A   1      49.800  34.175  26.349  1.00  0.00     0.049 A 
ATOM     62  H   UNL A   1      49.004  32.221  26.331  1.00  0.00     0.167 HD
ATOM     63  C   UNL A   1      51.740  32.731  25.809  1.00  0.00     0.074 A 
ATOM     64  C   UNL A   1      53.132  32.519  25.475  1.00  0.00     0.031 C 
ATOM     65  C   UNL A   1      51.187  33.949  26.032  1.00  0.00     0.037 A 
BRANCH  52  66
ATOM     66  C   UNL A   1      45.137  33.764  27.273  1.00  0.00     0.064 A 
ATOM     67  C   UNL A   1      44.771  34.072  28.592  1.00  0.00     0.173 A 
ATOM     68  C   UNL A   1      44.308  34.223  26.239  1.00  0.00     0.173 A 
ATOM     69  F   UNL A   1      45.521  33.643  29.620  1.00  0.00    -0.203 F 
ATOM     70  C   UNL A   1      43.609  34.790  28.864  1.00  0.00     0.198 A 
ATOM     71  C   UNL A   1      43.165  34.970  26.513  1.00  0.00     0.198 A 
ATOM     72  F   UNL A   1      44.611  33.958  24.960  1.00  0.00    -0.203 F 
ATOM     73  F   UNL A   1      43.254  35.030  30.134  1.00  0.00    -0.200 F 
ATOM     74  C   UNL A   1      42.813  35.246  27.825  1.00  0.00     0.200 A 
ATOM     75  F   UNL A   1      42.405  35.421  25.506  1.00  0.00    -0.200 F 
ATOM     76  F   UNL A   1      41.701  35.946  28.088  1.00  0.00    -0.200 F 
ENDBRANCH  52  66
BRANCH  53  77
ATOM     77  C   UNL A   1      53.241  28.319  25.139  1.00  0.00     0.064 A 
ATOM     78  C   UNL A   1      53.586  28.062  23.804  1.00  0.00     0.173 A 
ATOM     79  C   UNL A   1      54.056  27.767  26.139  1.00  0.00     0.173 A 
ATOM     80  F   UNL A   1      52.826  28.544  22.811  1.00  0.00    -0.203 F 
ATOM     81  C   UNL A   1      54.679  27.259  23.484  1.00  0.00     0.198 A 
ATOM     82  C   UNL A   1      55.169  26.993  25.817  1.00  0.00     0.198 A 
ATOM     83  F   UNL A   1      53.771  27.979  27.432  1.00  0.00    -0.203 F 
ATOM     84  F   UNL A   1      54.948  26.977  22.202  1.00  0.00    -0.200 F 
ATOM     85  C   UNL A   1      55.473  26.729  24.490  1.00  0.00     0.200 A 
ATOM     86  F   UNL A   1      55.940  26.495  26.793  1.00  0.00    -0.200 F 
ATOM     87  F   UNL A   1      56.523  25.955  24.183  1.00  0.00    -0.200 F 
ENDBRANCH  53  77
BRANCH  65  88
ATOM     88  C   UNL A   1      52.097  35.145  25.983  1.00  0.00     0.064 A 
ATOM     89  C   UNL A   1      52.822  35.574  27.104  1.00  0.00     0.173 A 
ATOM     90  C   UNL A   1      52.274  35.848  24.781  1.00  0.00     0.173 A 
ATOM     91  F   UNL A   1      52.683  34.945  28.281  1.00  0.00    -0.203 F 
ATOM     92  C   UNL A   1      53.663  36.683  27.032  1.00  0.00     0.198 A 
ATOM     93  C   UNL A   1      53.143  36.933  24.704  1.00  0.00     0.198 A 
ATOM     94  F   UNL A   1      51.614  35.475  23.674  1.00  0.00    -0.203 F 
ATOM     95  F   UNL A   1      54.300  37.111  28.131  1.00  0.00    -0.200 F 
ATOM     96  C   UNL A   1      53.829  37.357  25.831  1.00  0.00     0.200 A 
ATOM     97  F   UNL A   1      53.316  37.570  23.536  1.00  0.00    -0.200 F 
ATOM     98  F   UNL A   1      54.644  38.418  25.763  1.00  0.00    -0.200 F 
ENDBRANCH  65  88
ENDBRANCH  39  40
ENDBRANCH  32  34
ENDBRANCH  31  32
ENDBRANCH  30  31
ENDBRANCH  29  30
ENDBRANCH  28  29
ENDBRANCH  27  28
ENDBRANCH  26  27
ENDBRANCH   1  26
TORSDOF 23
ENDMDL
MODEL 2
REMARK VINA RESULT:      -9.0      4.990     10.186
REMARK SMILES COc1cc2c(c(OC)c1)[C@H](C)C[C@H](CC(=O)OCCOCCOCCOCCOC(=O)c1ccc(-c3c4nc(c(-c5c(F)c(F)c(F)c(F)c5F)c5ccc([nH]5)c(-c5c(F)c(F)c(F)c(F)c5F)c5nc(c(-c6c(F)c(F)c(F)c(F)c6F)c6ccc3[nH]6)C=C5)C=C4)cc1)C2
REMARK SMILES IDX 24 1 23 2 22 3 21 4 20 5 19 6 18 7 16 8 17 9 15 10 14 11
REMARK SMILES IDX 3 12 4 13 10 14 5 15 7 16 6 17 96 18 11 19 12 20 13 21 2 22
REMARK SMILES IDX 1 23 8 24 9 25 25 26 26 27 27 28 28 29 29 30 30 31 31 32
REMARK SMILES IDX 32 33 33 34 34 35 95 36 35 37 94 38 36 39 37 40 38 41 88 42
REMARK SMILES IDX 39 43 93 44 87 45 89 46 40 47 92 48 86 49 85 50 41 52 73 53
REMARK SMILES IDX 53 54 72 55 54 56 57 57 71 58 90 59 55 60 56 61 70 63 91 64
REMARK SMILES IDX 58 65 42 66 43 67 51 68 44 69 45 70 49 71 52 72 46 73 47 74
REMARK SMILES IDX 50 75 48 76 74 77 75 78 83 79 76 80 77 81 81 82 84 83 78 84
REMARK SMILES IDX 79 85 82 86 80 87 59 88 60 89 68 90 61 91 62 92 66 93 69 94
REMARK SMILES IDX 63 95 64 96 67 97 65 98
REMARK H PARENT 89 51 57 62
REMARK Flexibility Score: inf
ROOT
ATOM      1  O   UNL A   1      39.310  22.079  25.863  1.00  0.00    -0.377 OA
ENDROOT
BRANCH   1   2
ATOM      2  C   UNL A   1      37.988  21.591  25.733  1.00  0.00     0.188 C 
BRANCH   2   3
ATOM      3  C   UNL A   1      37.161  22.172  24.580  1.00  0.00     0.188 C 
BRANCH   3   4
ATOM      4  O   UNL A   1      35.783  21.872  24.489  1.00  0.00    -0.376 OA
BRANCH   4   5
ATOM      5  C   UNL A   1      35.241  20.746  25.166  1.00  0.00     0.202 C 
BRANCH   5   6
ATOM      6  C   UNL A   1      33.760  20.333  25.081  1.00  0.00     0.261 C 
BRANCH   6   7
ATOM      7  O   UNL A   1      32.807  21.231  25.677  1.00  0.00    -0.463 OA
BRANCH   7   8
ATOM      8  C   UNL A   1      32.100  22.009  24.829  1.00  0.00     0.306 C 
ATOM      9  O   UNL A   1      32.237  21.998  23.609  1.00  0.00    -0.252 OA
BRANCH   8  10
ATOM     10  C   UNL A   1      31.050  22.895  25.477  1.00  0.00     0.126 C 
BRANCH  10  11
ATOM     11  C   UNL A   1      31.153  24.428  25.499  1.00  0.00     0.005 C 
ATOM     12  C   UNL A   1      29.813  28.511  23.088  1.00  0.00     0.122 A 
ATOM     13  C   UNL A   1      29.832  27.127  23.194  1.00  0.00     0.050 A 
ATOM     14  C   UNL A   1      30.603  29.272  23.941  1.00  0.00     0.093 A 
ATOM     15  C   UNL A   1      30.691  26.484  24.104  1.00  0.00    -0.037 A 
ATOM     16  C   UNL A   1      31.459  28.646  24.861  1.00  0.00     0.126 A 
ATOM     17  C   UNL A   1      31.570  27.238  24.916  1.00  0.00     0.000 A 
ATOM     18  C   UNL A   1      30.667  24.977  24.148  1.00  0.00     0.040 C 
ATOM     19  C   UNL A   1      32.553  26.524  25.841  1.00  0.00     0.020 C 
ATOM     20  C   UNL A   1      34.007  26.977  25.651  1.00  0.00     0.013 C 
ATOM     21  C   UNL A   1      32.550  24.975  25.747  1.00  0.00     0.012 C 
BRANCH  12  22
ATOM     22  O   UNL A   1      28.951  29.046  22.170  1.00  0.00    -0.497 OA
ATOM     23  C   UNL A   1      29.385  30.307  21.661  1.00  0.00     0.278 C 
ENDBRANCH  12  22
BRANCH  16  24
ATOM     24  O   UNL A   1      32.213  29.525  25.597  1.00  0.00    -0.496 OA
ATOM     25  C   UNL A   1      31.771  29.707  26.938  1.00  0.00     0.278 C 
ENDBRANCH  16  24
ENDBRANCH  10  11
ENDBRANCH   8  10
ENDBRANCH   7   8
ENDBRANCH   6   7
ENDBRANCH   5   6
ENDBRANCH   4   5
ENDBRANCH   3   4
ENDBRANCH   2   3
ENDBRANCH   1   2
BRANCH   1  26
ATOM     26  C   UNL A   1      40.363  21.166  26.147  1.00  0.00     0.188 C 
BRANCH  26  27
ATOM     27  C   UNL A   1      40.986  21.103  27.554  1.00  0.00     0.188 C 
BRANCH  27  28
ATOM     28  O   UNL A   1      42.346  21.498  27.622  1.00  0.00    -0.376 OA
BRANCH  28  29
ATOM     29  C   UNL A   1      42.694  22.834  27.287  1.00  0.00     0.202 C 
BRANCH  29  30
ATOM     30  C   UNL A   1      42.019  23.975  28.066  1.00  0.00     0.261 C 
BRANCH  30  31
ATOM     31  O   UNL A   1      42.107  25.288  27.486  1.00  0.00    -0.460 OA
BRANCH  31  32
ATOM     32  C   UNL A   1      40.960  25.977  27.303  1.00  0.00     0.338 C 
ATOM     33  O   UNL A   1      39.986  25.642  26.666  1.00  0.00    -0.246 OA
BRANCH  32  34
ATOM     34  C   UNL A   1      41.014  27.168  28.177  1.00  0.00     0.060 A 
ATOM     35  C   UNL A   1      40.329  28.325  27.785  1.00  0.00     0.016 A 
ATOM     36  C   UNL A   1      41.760  27.152  29.357  1.00  0.00     0.016 A 
ATOM     37  C   UNL A   1      40.428  29.487  28.550  1.00  0.00     0.010 A 
ATOM     38  C   UNL A   1      41.870  28.320  30.115  1.00  0.00     0.010 A 
ATOM     39  C   UNL A   1      41.240  29.504  29.692  1.00  0.00    -0.014 A 
BRANCH  39  40
ATOM     40  C   UNL A   1      41.600  30.804  30.312  1.00  0.00     0.031 A 
ATOM     41  C   UNL A   1      42.767  31.566  29.744  1.00  0.00     0.074 A 
ATOM     42  C   UNL A   1      40.888  31.319  31.330  1.00  0.00     0.049 A 
ATOM     43  N   UNL A   1      43.300  32.694  30.140  1.00  0.00    -0.248 NA
ATOM     44  C   UNL A   1      43.423  30.972  28.567  1.00  0.00     0.031 C 
ATOM     45  C   UNL A   1      39.707  30.705  31.931  1.00  0.00     0.029 A 
ATOM     46  N   UNL A   1      41.063  32.481  32.040  1.00  0.00    -0.354 N 
ATOM     47  C   UNL A   1      44.353  32.939  29.267  1.00  0.00     0.074 A 
ATOM     48  C   UNL A   1      44.409  31.827  28.344  1.00  0.00     0.031 C 
ATOM     49  C   UNL A   1      39.268  31.493  32.929  1.00  0.00     0.029 A 
ATOM     50  C   UNL A   1      40.158  32.646  33.059  1.00  0.00     0.049 A 
ATOM     51  H   UNL A   1      41.771  33.134  31.837  1.00  0.00     0.167 HD
ATOM     52  C   UNL A   1      45.191  34.001  29.231  1.00  0.00     0.037 A 
ATOM     53  C   UNL A   1      40.077  33.606  34.001  1.00  0.00     0.037 A 
ATOM     54  C   UNL A   1      45.135  35.106  30.152  1.00  0.00     0.049 A 
ATOM     55  C   UNL A   1      41.082  34.734  33.994  1.00  0.00     0.074 A 
ATOM     56  C   UNL A   1      45.937  36.233  30.197  1.00  0.00     0.029 A 
ATOM     57  N   UNL A   1      44.228  35.218  31.195  1.00  0.00    -0.354 N 
ATOM     58  N   UNL A   1      42.063  34.968  33.157  1.00  0.00    -0.248 NA
ATOM     59  C   UNL A   1      40.960  35.735  35.065  1.00  0.00     0.031 C 
ATOM     60  C   UNL A   1      45.555  36.997  31.304  1.00  0.00     0.029 A 
ATOM     61  C   UNL A   1      44.468  36.383  31.906  1.00  0.00     0.049 A 
ATOM     62  H   UNL A   1      43.519  34.567  31.400  1.00  0.00     0.167 HD
ATOM     63  C   UNL A   1      42.648  36.159  33.574  1.00  0.00     0.074 A 
ATOM     64  C   UNL A   1      41.902  36.605  34.731  1.00  0.00     0.031 C 
ATOM     65  C   UNL A   1      43.707  36.824  33.047  1.00  0.00     0.037 A 
BRANCH  52  66
ATOM     66  C   UNL A   1      46.262  34.009  28.177  1.00  0.00     0.064 A 
ATOM     67  C   UNL A   1      46.033  34.528  26.893  1.00  0.00     0.173 A 
ATOM     68  C   UNL A   1      47.545  33.522  28.467  1.00  0.00     0.173 A 
ATOM     69  F   UNL A   1      44.818  34.992  26.558  1.00  0.00    -0.203 F 
ATOM     70  C   UNL A   1      47.041  34.538  25.933  1.00  0.00     0.198 A 
ATOM     71  C   UNL A   1      48.561  33.564  27.515  1.00  0.00     0.198 A 
ATOM     72  F   UNL A   1      47.819  33.015  29.678  1.00  0.00    -0.203 F 
ATOM     73  F   UNL A   1      46.786  34.994  24.700  1.00  0.00    -0.200 F 
ATOM     74  C   UNL A   1      48.306  34.064  26.248  1.00  0.00     0.200 A 
ATOM     75  F   UNL A   1      49.786  33.118  27.826  1.00  0.00    -0.200 F 
ATOM     76  F   UNL A   1      49.280  34.084  25.327  1.00  0.00    -0.200 F 
ENDBRANCH  52  66
BRANCH  53  77
ATOM     77  C   UNL A   1      39.022  33.545  35.050  1.00  0.00     0.064 A 
ATOM     78  C   UNL A   1      39.294  33.029  36.325  1.00  0.00     0.173 A 
ATOM     79  C   UNL A   1      37.708  33.959  34.784  1.00  0.00     0.173 A 
ATOM     80  F   UNL A   1      40.528  32.595  36.622  1.00  0.00    -0.203 F 
ATOM     81  C   UNL A   1      38.288  32.900  37.280  1.00  0.00     0.198 A 
ATOM     82  C   UNL A   1      36.711  33.862  35.752  1.00  0.00     0.198 A 
ATOM     83  F   UNL A   1      37.390  34.458  33.580  1.00  0.00    -0.203 F 
ATOM     84  F   UNL A   1      38.563  32.343  38.468  1.00  0.00    -0.200 F 
ATOM     85  C   UNL A   1      36.998  33.320  36.995  1.00  0.00     0.200 A 
ATOM     86  F   UNL A   1      35.469  34.282  35.475  1.00  0.00    -0.200 F 
ATOM     87  F   UNL A   1      36.030  33.195  37.914  1.00  0.00    -0.200 F 
ENDBRANCH  53  77
BRANCH  65  88
ATOM     88  C   UNL A   1      44.087  38.135  33.677  1.00  0.00     0.064 A 
ATOM     89  C   UNL A   1      43.684  39.365  33.136  1.00  0.00     0.173 A 
ATOM     90  C   UNL A   1      44.836  38.156  34.865  1.00  0.00     0.173 A 
ATOM     91  F   UNL A   1      42.976  39.403  31.997  1.00  0.00    -0.203 F 
ATOM     92  C   UNL A   1      44.046  40.567  33.742  1.00  0.00     0.198 A 
ATOM     93  C   UNL A   1      45.163  39.358  35.487  1.00  0.00     0.198 A 
ATOM     94  F   UNL A   1      45.239  37.009  35.433  1.00  0.00    -0.203 F 
ATOM     95  F   UNL A   1      43.700  41.730  33.174  1.00  0.00    -0.200 F 
ATOM     96  C   UNL A   1      44.778  40.563  34.919  1.00  0.00     0.200 A 
ATOM     97  F   UNL A   1      45.854  39.350  36.636  1.00  0.00    -0.200 F 
ATOM     98  F   UNL A   1      45.118  41.720  35.504  1.00  0.00    -0.200 F 
ENDBRANCH  65  88
ENDBRANCH  39  40
ENDBRANCH  32  34
ENDBRANCH  31  32
ENDBRANCH  30  31
ENDBRANCH  29  30
ENDBRANCH  28  29
ENDBRANCH  27  28
ENDBRANCH  26  27
ENDBRANCH   1  26
TORSDOF 23
ENDMDL
MODEL 3
REMARK VINA RESULT:      -9.0      5.060      8.268
REMARK SMILES COc1cc2c(c(OC)c1)[C@H](C)C[C@H](CC(=O)OCCOCCOCCOCCOC(=O)c1ccc(-c3c4nc(c(-c5c(F)c(F)c(F)c(F)c5F)c5ccc([nH]5)c(-c5c(F)c(F)c(F)c(F)c5F)c5nc(c(-c6c(F)c(F)c(F)c(F)c6F)c6ccc3[nH]6)C=C5)C=C4)cc1)C2
REMARK SMILES IDX 24 1 23 2 22 3 21 4 20 5 19 6 18 7 16 8 17 9 15 10 14 11
REMARK SMILES IDX 3 12 4 13 10 14 5 15 7 16 6 17 96 18 11 19 12 20 13 21 2 22
REMARK SMILES IDX 1 23 8 24 9 25 25 26 26 27 27 28 28 29 29 30 30 31 31 32
REMARK SMILES IDX 32 33 33 34 34 35 95 36 35 37 94 38 36 39 37 40 38 41 88 42
REMARK SMILES IDX 39 43 93 44 87 45 89 46 40 47 92 48 86 49 85 50 41 52 73 53
REMARK SMILES IDX 53 54 72 55 54 56 57 57 71 58 90 59 55 60 56 61 70 63 91 64
REMARK SMILES IDX 58 65 42 66 43 67 51 68 44 69 45 70 49 71 52 72 46 73 47 74
REMARK SMILES IDX 50 75 48 76 74 77 75 78 83 79 76 80 77 81 81 82 84 83 78 84
REMARK SMILES IDX 79 85 82 86 80 87 59 88 60 89 68 90 61 91 62 92 66 93 69 94
REMARK SMILES IDX 63 95 64 96 67 97 65 98
REMARK H PARENT 89 51 57 62
REMARK Flexibility Score: inf
ROOT
ATOM      1  O   UNL A   1      39.331  22.222  25.870  1.00  0.00    -0.377 OA
ENDROOT
BRANCH   1   2
ATOM      2  C   UNL A   1      37.989  21.788  25.753  1.00  0.00     0.188 C 
BRANCH   2   3
ATOM      3  C   UNL A   1      37.154  22.458  24.656  1.00  0.00     0.188 C 
BRANCH   3   4
ATOM      4  O   UNL A   1      35.769  22.185  24.567  1.00  0.00    -0.376 OA
BRANCH   4   5
ATOM      5  C   UNL A   1      35.224  21.012  25.157  1.00  0.00     0.202 C 
BRANCH   5   6
ATOM      6  C   UNL A   1      33.757  20.577  24.987  1.00  0.00     0.261 C 
BRANCH   6   7
ATOM      7  O   UNL A   1      32.760  21.438  25.566  1.00  0.00    -0.463 OA
BRANCH   7   8
ATOM      8  C   UNL A   1      32.112  22.265  24.718  1.00  0.00     0.306 C 
ATOM      9  O   UNL A   1      32.326  22.317  23.510  1.00  0.00    -0.252 OA
BRANCH   8  10
ATOM     10  C   UNL A   1      31.028  23.125  25.345  1.00  0.00     0.126 C 
BRANCH  10  11
ATOM     11  C   UNL A   1      31.110  24.659  25.401  1.00  0.00     0.005 C 
ATOM     12  C   UNL A   1      29.613  28.779  23.151  1.00  0.00     0.122 A 
ATOM     13  C   UNL A   1      29.656  27.393  23.221  1.00  0.00     0.050 A 
ATOM     14  C   UNL A   1      30.427  29.530  23.989  1.00  0.00     0.093 A 
ATOM     15  C   UNL A   1      30.562  26.741  24.079  1.00  0.00    -0.037 A 
ATOM     16  C   UNL A   1      31.330  28.895  24.856  1.00  0.00     0.126 A 
ATOM     17  C   UNL A   1      31.463  27.488  24.871  1.00  0.00     0.000 A 
ATOM     18  C   UNL A   1      30.561  25.233  24.085  1.00  0.00     0.040 C 
ATOM     19  C   UNL A   1      32.493  26.767  25.738  1.00  0.00     0.020 C 
ATOM     20  C   UNL A   1      33.932  27.246  25.499  1.00  0.00     0.013 C 
ATOM     21  C   UNL A   1      32.509  25.221  25.604  1.00  0.00     0.012 C 
BRANCH  12  22
ATOM     22  O   UNL A   1      28.706  29.323  22.283  1.00  0.00    -0.497 OA
ATOM     23  C   UNL A   1      29.198  30.482  21.611  1.00  0.00     0.278 C 
ENDBRANCH  12  22
BRANCH  16  24
ATOM     24  O   UNL A   1      32.101  29.767  25.582  1.00  0.00    -0.496 OA
ATOM     25  C   UNL A   1      31.404  30.905  26.078  1.00  0.00     0.278 C 
ENDBRANCH  16  24
ENDBRANCH  10  11
ENDBRANCH   8  10
ENDBRANCH   7   8
ENDBRANCH   6   7
ENDBRANCH   5   6
ENDBRANCH   4   5
ENDBRANCH   3   4
ENDBRANCH   2   3
ENDBRANCH   1   2
BRANCH   1  26
ATOM     26  C   UNL A   1      40.346  21.270  26.167  1.00  0.00     0.188 C 
BRANCH  26  27
ATOM     27  C   UNL A   1      40.955  21.192  27.580  1.00  0.00     0.188 C 
BRANCH  27  28
ATOM     28  O   UNL A   1      42.255  21.744  27.699  1.00  0.00    -0.376 OA
BRANCH  28  29
ATOM     29  C   UNL A   1      42.452  23.117  27.393  1.00  0.00     0.202 C 
BRANCH  29  30
ATOM     30  C   UNL A   1      41.690  24.161  28.226  1.00  0.00     0.261 C 
BRANCH  30  31
ATOM     31  O   UNL A   1      41.538  25.464  27.638  1.00  0.00    -0.460 OA
BRANCH  31  32
ATOM     32  C   UNL A   1      40.352  26.093  27.788  1.00  0.00     0.338 C 
ATOM     33  O   UNL A   1      39.254  25.691  27.473  1.00  0.00    -0.246 OA
BRANCH  32  34
ATOM     34  C   UNL A   1      40.595  27.314  28.587  1.00  0.00     0.060 A 
ATOM     35  C   UNL A   1      39.933  28.496  28.230  1.00  0.00     0.016 A 
ATOM     36  C   UNL A   1      41.492  27.298  29.656  1.00  0.00     0.016 A 
ATOM     37  C   UNL A   1      40.205  29.680  28.916  1.00  0.00     0.010 A 
ATOM     38  C   UNL A   1      41.773  28.488  30.333  1.00  0.00     0.010 A 
ATOM     39  C   UNL A   1      41.163  29.692  29.938  1.00  0.00    -0.014 A 
BRANCH  39  40
ATOM     40  C   UNL A   1      41.680  30.990  30.438  1.00  0.00     0.031 A 
ATOM     41  C   UNL A   1      41.050  31.581  31.670  1.00  0.00     0.074 A 
ATOM     42  C   UNL A   1      42.709  31.615  29.839  1.00  0.00     0.049 A 
ATOM     43  N   UNL A   1      41.294  32.719  32.269  1.00  0.00    -0.248 NA
ATOM     44  C   UNL A   1      39.998  30.777  32.314  1.00  0.00     0.031 C 
ATOM     45  C   UNL A   1      43.438  31.119  28.675  1.00  0.00     0.029 A 
ATOM     46  N   UNL A   1      43.316  32.811  30.134  1.00  0.00    -0.354 N 
ATOM     47  C   UNL A   1      40.425  32.768  33.352  1.00  0.00     0.074 A 
ATOM     48  C   UNL A   1      39.622  31.565  33.309  1.00  0.00     0.031 C 
ATOM     49  C   UNL A   1      44.390  32.011  28.346  1.00  0.00     0.029 A 
ATOM     50  C   UNL A   1      44.312  33.154  29.254  1.00  0.00     0.049 A 
ATOM     51  H   UNL A   1      43.061  33.369  30.904  1.00  0.00     0.167 HD
ATOM     52  C   UNL A   1      40.315  33.723  34.305  1.00  0.00     0.037 A 
ATOM     53  C   UNL A   1      45.056  34.276  29.179  1.00  0.00     0.037 A 
ATOM     54  C   UNL A   1      41.113  34.919  34.346  1.00  0.00     0.049 A 
ATOM     55  C   UNL A   1      44.850  35.368  30.201  1.00  0.00     0.074 A 
ATOM     56  C   UNL A   1      41.082  35.947  35.272  1.00  0.00     0.029 A 
ATOM     57  N   UNL A   1      42.086  35.250  33.414  1.00  0.00    -0.354 N 
ATOM     58  N   UNL A   1      44.039  35.401  31.231  1.00  0.00    -0.248 NA
ATOM     59  C   UNL A   1      45.669  36.580  30.050  1.00  0.00     0.031 C 
ATOM     60  C   UNL A   1      41.990  36.929  34.866  1.00  0.00     0.029 A 
ATOM     61  C   UNL A   1      42.642  36.480  33.728  1.00  0.00     0.049 A 
ATOM     62  H   UNL A   1      42.343  34.695  32.644  1.00  0.00     0.167 HD
ATOM     63  C   UNL A   1      44.279  36.612  31.871  1.00  0.00     0.074 A 
ATOM     64  C   UNL A   1      45.320  37.279  31.120  1.00  0.00     0.031 C 
ATOM     65  C   UNL A   1      43.691  37.126  32.981  1.00  0.00     0.037 A 
BRANCH  52  66
ATOM     66  C   UNL A   1      39.272  33.528  35.369  1.00  0.00     0.064 A 
ATOM     67  C   UNL A   1      39.595  33.023  36.638  1.00  0.00     0.173 A 
ATOM     68  C   UNL A   1      37.937  33.887  35.127  1.00  0.00     0.173 A 
ATOM     69  F   UNL A   1      40.853  32.649  36.917  1.00  0.00    -0.203 F 
ATOM     70  C   UNL A   1      38.616  32.861  37.615  1.00  0.00     0.198 A 
ATOM     71  C   UNL A   1      36.967  33.756  36.118  1.00  0.00     0.198 A 
ATOM     72  F   UNL A   1      37.574  34.376  33.933  1.00  0.00    -0.203 F 
ATOM     73  F   UNL A   1      38.939  32.331  38.803  1.00  0.00    -0.200 F 
ATOM     74  C   UNL A   1      37.306  33.237  37.358  1.00  0.00     0.200 A 
ATOM     75  F   UNL A   1      35.706  34.133  35.871  1.00  0.00    -0.200 F 
ATOM     76  F   UNL A   1      36.367  33.092  38.303  1.00  0.00    -0.200 F 
ENDBRANCH  52  66
BRANCH  53  77
ATOM     77  C   UNL A   1      46.056  34.445  28.089  1.00  0.00     0.064 A 
ATOM     78  C   UNL A   1      45.662  34.800  26.791  1.00  0.00     0.173 A 
ATOM     79  C   UNL A   1      47.422  34.210  28.312  1.00  0.00     0.173 A 
ATOM     80  F   UNL A   1      44.366  35.009  26.518  1.00  0.00    -0.203 F 
ATOM     81  C   UNL A   1      46.589  34.882  25.753  1.00  0.00     0.198 A 
ATOM     82  C   UNL A   1      48.352  34.327  27.281  1.00  0.00     0.198 A 
ATOM     83  F   UNL A   1      47.854  33.865  29.534  1.00  0.00    -0.203 F 
ATOM     84  F   UNL A   1      46.175  35.159  24.509  1.00  0.00    -0.200 F 
ATOM     85  C   UNL A   1      47.933  34.650  26.000  1.00  0.00     0.200 A 
ATOM     86  F   UNL A   1      49.652  34.115  27.528  1.00  0.00    -0.200 F 
ATOM     87  F   UNL A   1      48.824  34.727  25.002  1.00  0.00    -0.200 F 
ENDBRANCH  53  77
BRANCH  65  88
ATOM     88  C   UNL A   1      44.199  38.447  33.488  1.00  0.00     0.064 A 
ATOM     89  C   UNL A   1      45.189  38.534  34.477  1.00  0.00     0.173 A 
ATOM     90  C   UNL A   1      43.711  39.646  32.943  1.00  0.00     0.173 A 
ATOM     91  F   UNL A   1      45.682  37.420  35.039  1.00  0.00    -0.203 F 
ATOM     92  C   UNL A   1      45.646  39.771  34.927  1.00  0.00     0.198 A 
ATOM     93  C   UNL A   1      44.198  40.879  33.368  1.00  0.00     0.198 A 
ATOM     94  F   UNL A   1      42.772  39.623  31.985  1.00  0.00    -0.203 F 
ATOM     95  F   UNL A   1      46.549  39.829  35.915  1.00  0.00    -0.200 F 
ATOM     96  C   UNL A   1      45.157  40.942  34.367  1.00  0.00     0.200 A 
ATOM     97  F   UNL A   1      43.737  42.009  32.812  1.00  0.00    -0.200 F 
ATOM     98  F   UNL A   1      45.604  42.130  34.796  1.00  0.00    -0.200 F 
ENDBRANCH  65  88
ENDBRANCH  39  40
ENDBRANCH  32  34
ENDBRANCH  31  32
ENDBRANCH  30  31
ENDBRANCH  29  30
ENDBRANCH  28  29
ENDBRANCH  27  28
ENDBRANCH  26  27
ENDBRANCH   1  26
TORSDOF 23
ENDMDL
