MODEL 1
REMARK VINA RESULT:     -12.2      0.000      0.000
REMARK SMILES Cc1c(CC(=O)N[C@H](CO)C(=O)OCCOCCOCCOCCOC(=O)c2ccc(-c3c4nc(c(-c5c(F)c(F)c(F)c(F)c5F)c5ccc([nH]5)c(-c5c(F)c(F)c(F)c(F)c5F)c5nc(c(-c6c(F)c(F)c(F)c(F)c6F)c6ccc3[nH]6)C=C5)C=C4)cc2)cc(-c2ccc(S(C)(=O)=O)cc2)n1-c1ccc(F)cc1
REMARK SMILES IDX 17 1 16 2 15 3 14 4 13 5 11 6 12 7 8 8 7 9 5 10 6 11 4 13
REMARK SMILES IDX 3 14 1 15 2 16 103 17 91 18 92 19 104 20 105 21 110 22
REMARK SMILES IDX 106 23 109 24 107 25 108 26 93 27 94 28 102 29 95 30 101 31
REMARK SMILES IDX 96 32 97 33 98 34 99 35 100 36 9 37 10 38 18 40 19 41 20 42
REMARK SMILES IDX 21 43 22 44 23 45 24 46 25 47 26 48 27 49 28 50 29 51 90 52
REMARK SMILES IDX 30 53 89 54 31 55 32 56 33 57 83 58 34 59 88 60 82 61 84 62
REMARK SMILES IDX 35 63 87 64 81 65 80 66 36 68 68 69 48 70 67 71 49 72 52 73
REMARK SMILES IDX 66 74 85 75 50 76 51 77 65 79 86 80 53 81 37 82 38 83 46 84
REMARK SMILES IDX 39 85 40 86 44 87 47 88 41 89 42 90 45 91 43 92 69 93 70 94
REMARK SMILES IDX 78 95 71 96 72 97 76 98 79 99 73 100 74 101 77 102 75 103
REMARK SMILES IDX 54 104 55 105 63 106 56 107 57 108 61 109 64 110 58 111
REMARK SMILES IDX 59 112 62 113 60 114
REMARK H PARENT 7 12 10 39 84 67 52 78
REMARK Flexibility Score: inf
ROOT
ATOM      1  C   UNL A   1      44.925  36.607  37.174  1.00  0.00     0.188 C 
ENDROOT
BRANCH   1   2
ATOM      2  O   UNL A   1      46.144  35.915  36.200  1.00  0.00    -0.376 OA
BRANCH   2   3
ATOM      3  C   UNL A   1      47.208  34.634  36.564  1.00  0.00     0.202 C 
BRANCH   3   4
ATOM      4  C   UNL A   1      46.633  32.825  36.295  1.00  0.00     0.261 C 
BRANCH   4   5
ATOM      5  O   UNL A   1      48.262  31.558  35.743  1.00  0.00    -0.462 OA
BRANCH   5   6
ATOM      6  C   UNL A   1      48.917  31.012  34.443  1.00  0.00     0.331 C 
ATOM      7  O   UNL A   1      49.967  30.350  34.337  1.00  0.00    -0.250 OA
BRANCH   6   8
ATOM      8  C   UNL A   1      48.443  31.537  33.139  1.00  0.00     0.218 C 
BRANCH   8   9
ATOM      9  N   UNL A   1      49.069  32.806  32.814  1.00  0.00    -0.341 N 
ATOM     10  C   UNL A   1      48.513  33.987  32.381  1.00  0.00     0.225 C 
ATOM     11  O   UNL A   1      49.235  34.982  32.530  1.00  0.00    -0.275 OA
ATOM     12  H   UNL A   1      50.047  32.824  32.922  1.00  0.00     0.164 HD
BRANCH  10  13
ATOM     13  C   UNL A   1      47.101  34.156  31.738  1.00  0.00     0.137 C 
BRANCH  13  14
ATOM     14  C   UNL A   1      46.861  35.509  31.102  1.00  0.00    -0.017 A 
ATOM     15  C   UNL A   1      45.208  34.624  28.867  1.00  0.00     0.065 C 
ATOM     16  C   UNL A   1      45.839  35.699  29.701  1.00  0.00     0.024 A 
ATOM     17  N   UNL A   1      45.027  37.299  29.706  1.00  0.00    -0.314 N 
ATOM     18  C   UNL A   1      46.801  37.223  32.092  1.00  0.00     0.033 A 
ATOM     19  C   UNL A   1      45.594  38.377  31.138  1.00  0.00     0.053 A 
BRANCH  17  20
ATOM     20  C   UNL A   1      44.088  37.497  28.603  1.00  0.00     0.046 A 
ATOM     21  C   UNL A   1      44.293  38.515  27.653  1.00  0.00     0.029 A 
ATOM     22  C   UNL A   1      42.932  36.701  28.529  1.00  0.00     0.029 A 
ATOM     23  C   UNL A   1      43.259  38.854  26.769  1.00  0.00     0.041 A 
ATOM     24  C   UNL A   1      41.925  37.018  27.608  1.00  0.00     0.041 A 
ATOM     25  C   UNL A   1      42.083  38.110  26.761  1.00  0.00     0.123 A 
ATOM     26  F   UNL A   1      41.082  38.467  25.944  1.00  0.00    -0.207 F 
ENDBRANCH  17  20
BRANCH  19  27
ATOM     27  C   UNL A   1      45.025  40.173  31.500  1.00  0.00    -0.001 A 
ATOM     28  C   UNL A   1      46.246  41.618  31.844  1.00  0.00     0.011 A 
ATOM     29  C   UNL A   1      43.313  40.554  31.854  1.00  0.00     0.011 A 
ATOM     30  C   UNL A   1      45.646  43.139  32.697  1.00  0.00     0.021 A 
ATOM     31  C   UNL A   1      42.822  42.072  32.578  1.00  0.00     0.021 A 
ATOM     32  C   UNL A   1      43.945  43.310  32.977  1.00  0.00     0.067 A 
BRANCH  32  33
ATOM     33  S   UNL A   1      43.440  44.944  33.374  1.00  0.00     0.175 S 
ATOM     34  C   UNL A   1      44.914  45.587  34.130  1.00  0.00     0.163 C 
ATOM     35  O   UNL A   1      43.239  45.643  32.118  1.00  0.00    -0.224 OA
ATOM     36  O   UNL A   1      42.403  44.862  34.382  1.00  0.00    -0.224 OA
ENDBRANCH  32  33
ENDBRANCH  19  27
ENDBRANCH  13  14
ENDBRANCH  10  13
ENDBRANCH   8   9
BRANCH   8  37
ATOM     37  C   UNL A   1      46.938  31.369  32.948  1.00  0.00     0.193 C 
BRANCH  37  38
ATOM     38  O   UNL A   1      46.600  30.225  32.135  1.00  0.00    -0.394 OA
ATOM     39  H   UNL A   1      45.822  30.431  31.594  1.00  0.00     0.210 HD
ENDBRANCH  37  38
ENDBRANCH   8  37
ENDBRANCH   6   8
ENDBRANCH   5   6
ENDBRANCH   4   5
ENDBRANCH   3   4
ENDBRANCH   2   3
ENDBRANCH   1   2
BRANCH   1  40
ATOM     40  C   UNL A   1      43.031  36.470  37.086  1.00  0.00     0.188 C 
BRANCH  40  41
ATOM     41  O   UNL A   1      42.003  36.174  35.663  1.00  0.00    -0.377 OA
BRANCH  41  42
ATOM     42  C   UNL A   1      40.904  34.740  35.386  1.00  0.00     0.188 C 
BRANCH  42  43
ATOM     43  C   UNL A   1      39.157  34.765  36.093  1.00  0.00     0.188 C 
BRANCH  43  44
ATOM     44  O   UNL A   1      37.832  33.729  34.963  1.00  0.00    -0.376 OA
BRANCH  44  45
ATOM     45  C   UNL A   1      36.062  33.882  34.905  1.00  0.00     0.202 C 
BRANCH  45  46
ATOM     46  C   UNL A   1      35.026  34.458  33.477  1.00  0.00     0.261 C 
BRANCH  46  47
ATOM     47  O   UNL A   1      35.156  34.626  31.771  1.00  0.00    -0.460 OA
BRANCH  47  48
ATOM     48  C   UNL A   1      35.605  34.026  30.570  1.00  0.00     0.338 C 
ATOM     49  O   UNL A   1      35.247  34.430  29.461  1.00  0.00    -0.246 OA
BRANCH  48  50
ATOM     50  C   UNL A   1      36.618  32.740  30.493  1.00  0.00     0.060 A 
ATOM     51  C   UNL A   1      37.479  32.576  29.400  1.00  0.00     0.016 A 
ATOM     52  C   UNL A   1      36.689  31.573  31.283  1.00  0.00     0.016 A 
ATOM     53  C   UNL A   1      38.419  31.405  29.235  1.00  0.00     0.010 A 
ATOM     54  C   UNL A   1      37.613  30.317  31.046  1.00  0.00     0.010 A 
ATOM     55  C   UNL A   1      38.606  30.179  30.050  1.00  0.00    -0.014 A 
BRANCH  55  56
ATOM     56  C   UNL A   1      39.772  28.859  29.586  1.00  0.00     0.031 A 
ATOM     57  C   UNL A   1      40.433  28.737  30.931  1.00  0.00     0.074 A 
ATOM     58  C   UNL A   1      40.472  28.046  28.523  1.00  0.00     0.049 A 
ATOM     59  N   UNL A   1      41.092  29.809  31.267  1.00  0.00    -0.248 NA
ATOM     60  C   UNL A   1      40.075  27.912  32.095  1.00  0.00     0.031 C 
ATOM     61  C   UNL A   1      40.412  28.159  27.025  1.00  0.00     0.029 A 
ATOM     62  N   UNL A   1      41.530  26.903  28.493  1.00  0.00    -0.354 N 
ATOM     63  C   UNL A   1      41.472  29.725  32.580  1.00  0.00     0.074 A 
ATOM     64  C   UNL A   1      40.730  28.565  33.079  1.00  0.00     0.031 C 
ATOM     65  C   UNL A   1      41.095  27.188  26.304  1.00  0.00     0.029 A 
ATOM     66  C   UNL A   1      41.862  26.229  27.125  1.00  0.00     0.049 A 
ATOM     67  H   UNL A   1      41.979  26.612  29.319  1.00  0.00     0.167 HD
ATOM     68  C   UNL A   1      42.782  30.075  32.715  1.00  0.00     0.037 A 
ATOM     69  C   UNL A   1      42.770  25.150  26.692  1.00  0.00     0.037 A 
ATOM     70  C   UNL A   1      43.584  28.945  32.320  1.00  0.00     0.049 A 
ATOM     71  C   UNL A   1      43.909  25.246  27.593  1.00  0.00     0.074 A 
ATOM     72  C   UNL A   1      43.412  27.590  32.571  1.00  0.00     0.029 A 
ATOM     73  N   UNL A   1      44.262  29.041  31.129  1.00  0.00    -0.354 N 
ATOM     74  N   UNL A   1      44.812  26.165  27.501  1.00  0.00    -0.248 NA
ATOM     75  C   UNL A   1      43.993  24.329  28.707  1.00  0.00     0.031 C 
ATOM     76  C   UNL A   1      43.423  27.025  31.286  1.00  0.00     0.029 A 
ATOM     77  C   UNL A   1      44.248  27.821  30.512  1.00  0.00     0.049 A 
ATOM     78  H   UNL A   1      44.689  29.856  30.778  1.00  0.00     0.167 HD
ATOM     79  C   UNL A   1      45.019  26.387  28.823  1.00  0.00     0.074 A 
ATOM     80  C   UNL A   1      44.676  25.139  29.510  1.00  0.00     0.031 C 
ATOM     81  C   UNL A   1      44.864  27.666  29.241  1.00  0.00     0.037 A 
BRANCH  68  82
ATOM     82  C   UNL A   1      42.973  31.504  32.202  1.00  0.00     0.064 A 
ATOM     83  C   UNL A   1      43.410  32.474  33.107  1.00  0.00     0.173 A 
ATOM     84  C   UNL A   1      42.505  31.977  30.944  1.00  0.00     0.173 A 
ATOM     85  F   UNL A   1      43.912  32.104  34.294  1.00  0.00    -0.203 F 
ATOM     86  C   UNL A   1      43.307  33.837  32.809  1.00  0.00     0.198 A 
ATOM     87  C   UNL A   1      42.314  33.332  30.693  1.00  0.00     0.198 A 
ATOM     88  F   UNL A   1      42.210  31.131  29.941  1.00  0.00    -0.203 F 
ATOM     89  F   UNL A   1      43.746  34.743  33.692  1.00  0.00    -0.200 F 
ATOM     90  C   UNL A   1      42.719  34.263  31.627  1.00  0.00     0.200 A 
ATOM     91  F   UNL A   1      41.719  33.726  29.557  1.00  0.00    -0.200 F 
ATOM     92  F   UNL A   1      42.555  35.570  31.382  1.00  0.00    -0.200 F 
ENDBRANCH  68  82
BRANCH  69  93
ATOM     93  C   UNL A   1      43.326  23.958  25.621  1.00  0.00     0.064 A 
ATOM     94  C   UNL A   1      44.603  24.007  24.882  1.00  0.00     0.173 A 
ATOM     95  C   UNL A   1      42.931  22.619  25.804  1.00  0.00     0.173 A 
ATOM     96  F   UNL A   1      45.207  25.175  24.608  1.00  0.00    -0.203 F 
ATOM     97  C   UNL A   1      45.368  22.866  24.459  1.00  0.00     0.198 A 
ATOM     98  C   UNL A   1      43.702  21.479  25.375  1.00  0.00     0.198 A 
ATOM     99  F   UNL A   1      41.827  22.365  26.512  1.00  0.00    -0.203 F 
ATOM    100  F   UNL A   1      46.571  23.009  23.867  1.00  0.00    -0.200 F 
ATOM    101  C   UNL A   1      44.921  21.597  24.729  1.00  0.00     0.200 A 
ATOM    102  F   UNL A   1      43.276  20.241  25.678  1.00  0.00    -0.200 F 
ATOM    103  F   UNL A   1      45.662  20.515  24.420  1.00  0.00    -0.200 F 
ENDBRANCH  69  93
BRANCH  81 104
ATOM    104  C   UNL A   1      45.276  28.779  28.307  1.00  0.00     0.064 A 
ATOM    105  C   UNL A   1      46.589  29.076  27.885  1.00  0.00     0.173 A 
ATOM    106  C   UNL A   1      44.278  29.658  27.874  1.00  0.00     0.173 A 
ATOM    107  F   UNL A   1      47.596  28.219  28.087  1.00  0.00    -0.203 F 
ATOM    108  C   UNL A   1      46.895  30.260  27.206  1.00  0.00     0.198 A 
ATOM    109  C   UNL A   1      44.573  30.807  27.146  1.00  0.00     0.198 A 
ATOM    110  F   UNL A   1      42.991  29.385  28.136  1.00  0.00    -0.203 F 
ATOM    111  F   UNL A   1      48.165  30.543  26.879  1.00  0.00    -0.200 F 
ATOM    112  C   UNL A   1      45.885  31.136  26.856  1.00  0.00     0.200 A 
ATOM    113  F   UNL A   1      43.573  31.587  26.714  1.00  0.00    -0.200 F 
ATOM    114  F   UNL A   1      46.168  32.277  26.212  1.00  0.00    -0.200 F 
ENDBRANCH  81 104
ENDBRANCH  55  56
ENDBRANCH  48  50
ENDBRANCH  47  48
ENDBRANCH  46  47
ENDBRANCH  45  46
ENDBRANCH  44  45
ENDBRANCH  43  44
ENDBRANCH  42  43
ENDBRANCH  41  42
ENDBRANCH  40  41
ENDBRANCH   1  40
TORSDOF 28
ENDMDL
MODEL 2
REMARK VINA RESULT:     -12.1      4.756     10.648
REMARK SMILES Cc1c(CC(=O)N[C@H](CO)C(=O)OCCOCCOCCOCCOC(=O)c2ccc(-c3c4nc(c(-c5c(F)c(F)c(F)c(F)c5F)c5ccc([nH]5)c(-c5c(F)c(F)c(F)c(F)c5F)c5nc(c(-c6c(F)c(F)c(F)c(F)c6F)c6ccc3[nH]6)C=C5)C=C4)cc2)cc(-c2ccc(S(C)(=O)=O)cc2)n1-c1ccc(F)cc1
REMARK SMILES IDX 17 1 16 2 15 3 14 4 13 5 11 6 12 7 8 8 7 9 5 10 6 11 4 13
REMARK SMILES IDX 3 14 1 15 2 16 103 17 91 18 92 19 104 20 105 21 110 22
REMARK SMILES IDX 106 23 109 24 107 25 108 26 93 27 94 28 102 29 95 30 101 31
REMARK SMILES IDX 96 32 97 33 98 34 99 35 100 36 9 37 10 38 18 40 19 41 20 42
REMARK SMILES IDX 21 43 22 44 23 45 24 46 25 47 26 48 27 49 28 50 29 51 90 52
REMARK SMILES IDX 30 53 89 54 31 55 32 56 33 57 83 58 34 59 88 60 82 61 84 62
REMARK SMILES IDX 35 63 87 64 81 65 80 66 36 68 68 69 48 70 67 71 49 72 52 73
REMARK SMILES IDX 66 74 85 75 50 76 51 77 65 79 86 80 53 81 37 82 38 83 46 84
REMARK SMILES IDX 39 85 40 86 44 87 47 88 41 89 42 90 45 91 43 92 69 93 70 94
REMARK SMILES IDX 78 95 71 96 72 97 76 98 79 99 73 100 74 101 77 102 75 103
REMARK SMILES IDX 54 104 55 105 63 106 56 107 57 108 61 109 64 110 58 111
REMARK SMILES IDX 59 112 62 113 60 114
REMARK H PARENT 7 12 10 39 84 67 52 78
REMARK Flexibility Score: inf
ROOT
ATOM      1  C   UNL A   1      53.356  25.565  31.419  1.00  0.00     0.188 C 
ENDROOT
BRANCH   1   2
ATOM      2  O   UNL A   1      54.418  26.712  30.733  1.00  0.00    -0.376 OA
BRANCH   2   3
ATOM      3  C   UNL A   1      54.305  27.514  29.233  1.00  0.00     0.202 C 
BRANCH   3   4
ATOM      4  C   UNL A   1      53.938  26.501  27.648  1.00  0.00     0.261 C 
BRANCH   4   5
ATOM      5  O   UNL A   1      51.919  25.797  27.617  1.00  0.00    -0.462 OA
BRANCH   5   6
ATOM      6  C   UNL A   1      50.485  26.391  27.695  1.00  0.00     0.331 C 
ATOM      7  O   UNL A   1      49.908  26.862  28.693  1.00  0.00    -0.250 OA
BRANCH   6   8
ATOM      8  C   UNL A   1      49.556  26.146  26.565  1.00  0.00     0.218 C 
BRANCH   8   9
ATOM      9  N   UNL A   1      48.495  25.227  26.935  1.00  0.00    -0.341 N 
ATOM     10  C   UNL A   1      47.456  24.722  26.189  1.00  0.00     0.225 C 
ATOM     11  O   UNL A   1      46.932  23.703  26.659  1.00  0.00    -0.275 OA
ATOM     12  H   UNL A   1      48.526  24.915  27.868  1.00  0.00     0.164 HD
BRANCH  10  13
ATOM     13  C   UNL A   1      46.907  25.318  24.855  1.00  0.00     0.137 C 
BRANCH  13  14
ATOM     14  C   UNL A   1      46.088  26.580  25.023  1.00  0.00    -0.017 A 
ATOM     15  C   UNL A   1      43.595  25.339  25.892  1.00  0.00     0.065 C 
ATOM     16  C   UNL A   1      44.449  26.542  25.619  1.00  0.00     0.024 A 
ATOM     17  N   UNL A   1      44.060  28.034  26.536  1.00  0.00    -0.314 N 
ATOM     18  C   UNL A   1      46.834  28.349  25.510  1.00  0.00     0.033 A 
ATOM     19  C   UNL A   1      45.469  29.280  26.494  1.00  0.00     0.053 A 
BRANCH  17  20
ATOM     20  C   UNL A   1      42.727  28.036  27.137  1.00  0.00     0.046 A 
ATOM     21  C   UNL A   1      41.649  28.680  26.502  1.00  0.00     0.029 A 
ATOM     22  C   UNL A   1      42.538  27.444  28.397  1.00  0.00     0.029 A 
ATOM     23  C   UNL A   1      40.458  28.895  27.211  1.00  0.00     0.041 A 
ATOM     24  C   UNL A   1      41.326  27.623  29.078  1.00  0.00     0.041 A 
ATOM     25  C   UNL A   1      40.311  28.374  28.493  1.00  0.00     0.123 A 
ATOM     26  F   UNL A   1      39.188  28.621  29.181  1.00  0.00    -0.207 F 
ENDBRANCH  17  20
BRANCH  19  27
ATOM     27  C   UNL A   1      45.465  31.022  27.298  1.00  0.00    -0.001 A 
ATOM     28  C   UNL A   1      44.066  32.311  27.018  1.00  0.00     0.011 A 
ATOM     29  C   UNL A   1      46.921  31.677  28.106  1.00  0.00     0.011 A 
ATOM     30  C   UNL A   1      44.384  34.094  27.360  1.00  0.00     0.021 A 
ATOM     31  C   UNL A   1      47.096  33.379  28.484  1.00  0.00     0.021 A 
ATOM     32  C   UNL A   1      45.874  34.534  28.127  1.00  0.00     0.067 A 
BRANCH  32  33
ATOM     33  S   UNL A   1      45.887  36.154  28.801  1.00  0.00     0.175 S 
ATOM     34  C   UNL A   1      47.630  36.422  29.022  1.00  0.00     0.163 C 
ATOM     35  O   UNL A   1      45.424  37.052  27.760  1.00  0.00    -0.224 OA
ATOM     36  O   UNL A   1      45.259  36.103  30.106  1.00  0.00    -0.224 OA
ENDBRANCH  32  33
ENDBRANCH  19  27
ENDBRANCH  13  14
ENDBRANCH  10  13
ENDBRANCH   8   9
BRANCH   8  37
ATOM     37  C   UNL A   1      50.281  25.962  25.235  1.00  0.00     0.193 C 
BRANCH  37  38
ATOM     38  O   UNL A   1      49.967  26.995  24.277  1.00  0.00    -0.394 OA
ATOM     39  H   UNL A   1      49.770  26.590  23.417  1.00  0.00     0.210 HD
ENDBRANCH  37  38
ENDBRANCH   8  37
ENDBRANCH   6   8
ENDBRANCH   5   6
ENDBRANCH   4   5
ENDBRANCH   3   4
ENDBRANCH   2   3
ENDBRANCH   1   2
BRANCH   1  40
ATOM     40  C   UNL A   1      51.972  25.762  32.707  1.00  0.00     0.188 C 
BRANCH  40  41
ATOM     41  O   UNL A   1      50.238  25.395  32.541  1.00  0.00    -0.377 OA
BRANCH  41  42
ATOM     42  C   UNL A   1      48.966  25.505  33.849  1.00  0.00     0.188 C 
BRANCH  42  43
ATOM     43  C   UNL A   1      49.388  26.349  35.480  1.00  0.00     0.188 C 
BRANCH  43  44
ATOM     44  O   UNL A   1      49.439  25.063  37.045  1.00  0.00    -0.376 OA
BRANCH  44  45
ATOM     45  C   UNL A   1      48.083  24.408  37.990  1.00  0.00     0.202 C 
BRANCH  45  46
ATOM     46  C   UNL A   1      46.334  24.152  37.425  1.00  0.00     0.261 C 
BRANCH  46  47
ATOM     47  O   UNL A   1      45.476  23.228  36.257  1.00  0.00    -0.460 OA
BRANCH  47  48
ATOM     48  C   UNL A   1      44.557  23.270  35.181  1.00  0.00     0.338 C 
ATOM     49  O   UNL A   1      44.010  22.254  34.745  1.00  0.00    -0.246 OA
BRANCH  48  50
ATOM     50  C   UNL A   1      44.120  24.632  34.381  1.00  0.00     0.060 A 
ATOM     51  C   UNL A   1      43.171  25.506  34.927  1.00  0.00     0.016 A 
ATOM     52  C   UNL A   1      44.399  25.059  33.066  1.00  0.00     0.016 A 
ATOM     53  C   UNL A   1      42.689  26.763  34.243  1.00  0.00     0.010 A 
ATOM     54  C   UNL A   1      43.817  26.328  32.332  1.00  0.00     0.010 A 
ATOM     55  C   UNL A   1      42.983  27.318  32.898  1.00  0.00    -0.014 A 
BRANCH  55  56
ATOM     56  C   UNL A   1      42.200  28.838  32.270  1.00  0.00     0.031 A 
ATOM     57  C   UNL A   1      43.475  29.546  31.905  1.00  0.00     0.074 A 
ATOM     58  C   UNL A   1      40.988  29.731  32.149  1.00  0.00     0.049 A 
ATOM     59  N   UNL A   1      44.210  29.827  32.943  1.00  0.00    -0.248 NA
ATOM     60  C   UNL A   1      44.254  29.518  30.658  1.00  0.00     0.031 C 
ATOM     61  C   UNL A   1      39.618  29.588  32.751  1.00  0.00     0.029 A 
ATOM     62  N   UNL A   1      40.663  31.104  31.490  1.00  0.00    -0.354 N 
ATOM     63  C   UNL A   1      45.444  30.255  32.532  1.00  0.00     0.074 A 
ATOM     64  C   UNL A   1      45.453  29.954  31.099  1.00  0.00     0.031 C 
ATOM     65  C   UNL A   1      38.672  30.528  32.366  1.00  0.00     0.029 A 
ATOM     66  C   UNL A   1      39.180  31.595  31.480  1.00  0.00     0.049 A 
ATOM     67  H   UNL A   1      41.376  31.652  31.089  1.00  0.00     0.167 HD
ATOM     68  C   UNL A   1      45.801  31.381  33.213  1.00  0.00     0.037 A 
ATOM     69  C   UNL A   1      38.486  32.793  30.970  1.00  0.00     0.037 A 
ATOM     70  C   UNL A   1      45.117  32.497  32.611  1.00  0.00     0.049 A 
ATOM     71  C   UNL A   1      39.460  33.866  31.104  1.00  0.00     0.074 A 
ATOM     72  C   UNL A   1      44.877  32.790  31.274  1.00  0.00     0.029 A 
ATOM     73  N   UNL A   1      44.092  33.065  33.328  1.00  0.00    -0.354 N 
ATOM     74  N   UNL A   1      39.765  34.412  32.235  1.00  0.00    -0.248 NA
ATOM     75  C   UNL A   1      40.199  34.284  29.935  1.00  0.00     0.031 C 
ATOM     76  C   UNL A   1      43.482  32.943  31.228  1.00  0.00     0.029 A 
ATOM     77  C   UNL A   1      43.099  33.434  32.464  1.00  0.00     0.049 A 
ATOM     78  H   UNL A   1      44.077  33.188  34.305  1.00  0.00     0.167 HD
ATOM     79  C   UNL A   1      41.095  34.578  32.036  1.00  0.00     0.074 A 
ATOM     80  C   UNL A   1      41.286  34.688  30.586  1.00  0.00     0.031 C 
ATOM     81  C   UNL A   1      41.908  34.024  32.967  1.00  0.00     0.037 A 
BRANCH  68  82
ATOM     82  C   UNL A   1      45.823  31.073  34.711  1.00  0.00     0.064 A 
ATOM     83  C   UNL A   1      46.465  29.907  35.134  1.00  0.00     0.173 A 
ATOM     84  C   UNL A   1      45.032  31.748  35.683  1.00  0.00     0.173 A 
ATOM     85  F   UNL A   1      47.270  29.243  34.292  1.00  0.00    -0.203 F 
ATOM     86  C   UNL A   1      46.261  29.398  36.421  1.00  0.00     0.198 A 
ATOM     87  C   UNL A   1      44.755  31.185  36.924  1.00  0.00     0.198 A 
ATOM     88  F   UNL A   1      44.499  32.958  35.437  1.00  0.00    -0.203 F 
ATOM     89  F   UNL A   1      46.900  28.284  36.801  1.00  0.00    -0.200 F 
ATOM     90  C   UNL A   1      45.374  30.010  37.294  1.00  0.00     0.200 A 
ATOM     91  F   UNL A   1      43.874  31.775  37.747  1.00  0.00    -0.200 F 
ATOM     92  F   UNL A   1      45.126  29.473  38.497  1.00  0.00    -0.200 F 
ENDBRANCH  68  82
BRANCH  69  93
ATOM     93  C   UNL A   1      37.126  33.674  30.471  1.00  0.00     0.064 A 
ATOM     94  C   UNL A   1      36.556  33.661  29.109  1.00  0.00     0.173 A 
ATOM     95  C   UNL A   1      36.122  33.993  31.405  1.00  0.00     0.173 A 
ATOM     96  F   UNL A   1      37.309  33.352  28.041  1.00  0.00    -0.203 F 
ATOM     97  C   UNL A   1      35.175  33.882  28.778  1.00  0.00     0.198 A 
ATOM     98  C   UNL A   1      34.739  34.216  31.068  1.00  0.00     0.198 A 
ATOM     99  F   UNL A   1      36.429  33.991  32.706  1.00  0.00    -0.203 F 
ATOM    100  F   UNL A   1      34.729  33.761  27.512  1.00  0.00    -0.200 F 
ATOM    101  C   UNL A   1      34.261  34.139  29.769  1.00  0.00     0.200 A 
ATOM    102  F   UNL A   1      33.845  34.429  32.047  1.00  0.00    -0.200 F 
ATOM    103  F   UNL A   1      32.949  34.262  29.494  1.00  0.00    -0.200 F 
ENDBRANCH  69  93
BRANCH  81 104
ATOM    104  C   UNL A   1      41.446  34.016  34.405  1.00  0.00     0.064 A 
ATOM    105  C   UNL A   1      41.018  32.893  35.143  1.00  0.00     0.173 A 
ATOM    106  C   UNL A   1      41.352  35.251  35.057  1.00  0.00     0.173 A 
ATOM    107  F   UNL A   1      41.221  31.648  34.696  1.00  0.00    -0.203 F 
ATOM    108  C   UNL A   1      40.396  33.022  36.388  1.00  0.00     0.198 A 
ATOM    109  C   UNL A   1      40.788  35.375  36.323  1.00  0.00     0.198 A 
ATOM    110  F   UNL A   1      41.844  36.352  34.469  1.00  0.00    -0.203 F 
ATOM    111  F   UNL A   1      39.940  31.937  37.033  1.00  0.00    -0.200 F 
ATOM    112  C   UNL A   1      40.263  34.270  36.967  1.00  0.00     0.200 A 
ATOM    113  F   UNL A   1      40.770  36.574  36.921  1.00  0.00    -0.200 F 
ATOM    114  F   UNL A   1      39.662  34.406  38.158  1.00  0.00    -0.200 F 
ENDBRANCH  81 104
ENDBRANCH  55  56
ENDBRANCH  48  50
ENDBRANCH  47  48
ENDBRANCH  46  47
ENDBRANCH  45  46
ENDBRANCH  44  45
ENDBRANCH  43  44
ENDBRANCH  42  43
ENDBRANCH  41  42
ENDBRANCH  40  41
ENDBRANCH   1  40
TORSDOF 28
ENDMDL
MODEL 3
REMARK VINA RESULT:     -12.0      6.282     12.391
REMARK SMILES Cc1c(CC(=O)N[C@H](CO)C(=O)OCCOCCOCCOCCOC(=O)c2ccc(-c3c4nc(c(-c5c(F)c(F)c(F)c(F)c5F)c5ccc([nH]5)c(-c5c(F)c(F)c(F)c(F)c5F)c5nc(c(-c6c(F)c(F)c(F)c(F)c6F)c6ccc3[nH]6)C=C5)C=C4)cc2)cc(-c2ccc(S(C)(=O)=O)cc2)n1-c1ccc(F)cc1
REMARK SMILES IDX 17 1 16 2 15 3 14 4 13 5 11 6 12 7 8 8 7 9 5 10 6 11 4 13
REMARK SMILES IDX 3 14 1 15 2 16 103 17 91 18 92 19 104 20 105 21 110 22
REMARK SMILES IDX 106 23 109 24 107 25 108 26 93 27 94 28 102 29 95 30 101 31
REMARK SMILES IDX 96 32 97 33 98 34 99 35 100 36 9 37 10 38 18 40 19 41 20 42
REMARK SMILES IDX 21 43 22 44 23 45 24 46 25 47 26 48 27 49 28 50 29 51 90 52
REMARK SMILES IDX 30 53 89 54 31 55 32 56 33 57 83 58 34 59 88 60 82 61 84 62
REMARK SMILES IDX 35 63 87 64 81 65 80 66 36 68 68 69 48 70 67 71 49 72 52 73
REMARK SMILES IDX 66 74 85 75 50 76 51 77 65 79 86 80 53 81 37 82 38 83 46 84
REMARK SMILES IDX 39 85 40 86 44 87 47 88 41 89 42 90 45 91 43 92 69 93 70 94
REMARK SMILES IDX 78 95 71 96 72 97 76 98 79 99 73 100 74 101 77 102 75 103
REMARK SMILES IDX 54 104 55 105 63 106 56 107 57 108 61 109 64 110 58 111
REMARK SMILES IDX 59 112 62 113 60 114
REMARK H PARENT 7 12 10 39 84 67 52 78
REMARK Flexibility Score: inf
ROOT
ATOM      1  C   UNL A   1      34.790  35.711  32.564  1.00  0.00     0.188 C 
ENDROOT
BRANCH   1   2
ATOM      2  O   UNL A   1      35.443  34.975  33.959  1.00  0.00    -0.376 OA
BRANCH   2   3
ATOM      3  C   UNL A   1      36.380  33.557  34.083  1.00  0.00     0.202 C 
BRANCH   3   4
ATOM      4  C   UNL A   1      38.275  33.653  33.811  1.00  0.00     0.261 C 
BRANCH   4   5
ATOM      5  O   UNL A   1      39.142  35.274  34.902  1.00  0.00    -0.462 OA
BRANCH   5   6
ATOM      6  C   UNL A   1      39.625  35.568  36.350  1.00  0.00     0.331 C 
ATOM      7  O   UNL A   1      40.179  36.600  36.774  1.00  0.00    -0.250 OA
BRANCH   6   8
ATOM      8  C   UNL A   1      39.716  34.440  37.308  1.00  0.00     0.218 C 
BRANCH   8   9
ATOM      9  N   UNL A   1      39.106  34.772  38.584  1.00  0.00    -0.341 N 
ATOM     10  C   UNL A   1      38.518  33.961  39.526  1.00  0.00     0.225 C 
ATOM     11  O   UNL A   1      38.413  34.469  40.650  1.00  0.00    -0.275 OA
ATOM     12  H   UNL A   1      39.116  35.730  38.809  1.00  0.00     0.164 HD
BRANCH  10  13
ATOM     13  C   UNL A   1      37.990  32.511  39.290  1.00  0.00     0.137 C 
BRANCH  13  14
ATOM     14  C   UNL A   1      36.923  32.067  40.267  1.00  0.00    -0.017 A 
ATOM     15  C   UNL A   1      38.680  31.227  42.440  1.00  0.00     0.065 C 
ATOM     16  C   UNL A   1      37.320  31.499  41.868  1.00  0.00     0.024 A 
ATOM     17  N   UNL A   1      36.016  31.895  43.036  1.00  0.00    -0.314 N 
ATOM     18  C   UNL A   1      35.100  32.832  40.366  1.00  0.00     0.033 A 
ATOM     19  C   UNL A   1      34.533  32.692  42.199  1.00  0.00     0.053 A 
BRANCH  17  20
ATOM     20  C   UNL A   1      36.317  31.521  44.417  1.00  0.00     0.046 A 
ATOM     21  C   UNL A   1      37.058  32.377  45.253  1.00  0.00     0.029 A 
ATOM     22  C   UNL A   1      35.916  30.262  44.894  1.00  0.00     0.029 A 
ATOM     23  C   UNL A   1      37.556  31.893  46.471  1.00  0.00     0.041 A 
ATOM     24  C   UNL A   1      36.379  29.806  46.136  1.00  0.00     0.041 A 
ATOM     25  C   UNL A   1      37.220  30.612  46.896  1.00  0.00     0.123 A 
ATOM     26  F   UNL A   1      37.735  30.140  48.040  1.00  0.00    -0.207 F 
ENDBRANCH  17  20
BRANCH  19  27
ATOM     27  C   UNL A   1      32.903  33.232  43.055  1.00  0.00    -0.001 A 
ATOM     28  C   UNL A   1      31.309  33.702  42.087  1.00  0.00     0.011 A 
ATOM     29  C   UNL A   1      32.856  33.639  44.796  1.00  0.00     0.011 A 
ATOM     30  C   UNL A   1      30.000  34.705  42.914  1.00  0.00     0.021 A 
ATOM     31  C   UNL A   1      31.520  34.511  45.518  1.00  0.00     0.021 A 
ATOM     32  C   UNL A   1      30.150  35.018  44.611  1.00  0.00     0.067 A 
BRANCH  32  33
ATOM     33  S   UNL A   1      28.672  35.576  45.374  1.00  0.00     0.175 S 
ATOM     34  C   UNL A   1      28.550  37.226  44.726  1.00  0.00     0.163 C 
ATOM     35  O   UNL A   1      27.584  34.795  44.816  1.00  0.00    -0.224 OA
ATOM     36  O   UNL A   1      28.906  35.657  46.802  1.00  0.00    -0.224 OA
ENDBRANCH  32  33
ENDBRANCH  19  27
ENDBRANCH  13  14
ENDBRANCH  10  13
ENDBRANCH   8   9
BRANCH   8  37
ATOM     37  C   UNL A   1      41.077  33.752  37.282  1.00  0.00     0.193 C 
BRANCH  37  38
ATOM     38  O   UNL A   1      42.113  34.531  37.916  1.00  0.00    -0.394 OA
ATOM     39  H   UNL A   1      41.727  35.057  38.635  1.00  0.00     0.210 HD
ENDBRANCH  37  38
ENDBRANCH   8  37
ENDBRANCH   6   8
ENDBRANCH   5   6
ENDBRANCH   4   5
ENDBRANCH   3   4
ENDBRANCH   2   3
ENDBRANCH   1   2
BRANCH   1  40
ATOM     40  C   UNL A   1      33.587  37.170  32.370  1.00  0.00     0.188 C 
BRANCH  40  41
ATOM     41  O   UNL A   1      32.891  37.847  30.877  1.00  0.00    -0.377 OA
BRANCH  41  42
ATOM     42  C   UNL A   1      33.021  37.147  29.194  1.00  0.00     0.188 C 
BRANCH  42  43
ATOM     43  C   UNL A   1      33.947  35.526  28.936  1.00  0.00     0.188 C 
BRANCH  43  44
ATOM     44  O   UNL A   1      32.810  34.096  28.061  1.00  0.00    -0.376 OA
BRANCH  44  45
ATOM     45  C   UNL A   1      33.239  32.414  27.677  1.00  0.00     0.202 C 
BRANCH  45  46
ATOM     46  C   UNL A   1      34.902  31.607  27.848  1.00  0.00     0.261 C 
BRANCH  46  47
ATOM     47  O   UNL A   1      36.442  31.952  28.530  1.00  0.00    -0.460 OA
BRANCH  47  48
ATOM     48  C   UNL A   1      37.306  32.966  29.007  1.00  0.00     0.338 C 
ATOM     49  O   UNL A   1      37.080  34.164  28.818  1.00  0.00    -0.246 OA
BRANCH  48  50
ATOM     50  C   UNL A   1      38.693  32.694  29.837  1.00  0.00     0.060 A 
ATOM     51  C   UNL A   1      38.940  31.446  30.422  1.00  0.00     0.016 A 
ATOM     52  C   UNL A   1      39.701  33.584  30.266  1.00  0.00     0.016 A 
ATOM     53  C   UNL A   1      40.174  31.121  31.229  1.00  0.00     0.010 A 
ATOM     54  C   UNL A   1      40.938  33.249  31.185  1.00  0.00     0.010 A 
ATOM     55  C   UNL A   1      41.309  31.973  31.665  1.00  0.00    -0.014 A 
BRANCH  55  56
ATOM     56  C   UNL A   1      42.660  31.348  32.715  1.00  0.00     0.031 A 
ATOM     57  C   UNL A   1      43.624  31.062  31.598  1.00  0.00     0.074 A 
ATOM     58  C   UNL A   1      43.148  30.829  34.047  1.00  0.00     0.049 A 
ATOM     59  N   UNL A   1      43.210  30.116  30.805  1.00  0.00    -0.248 NA
ATOM     60  C   UNL A   1      44.622  31.932  30.957  1.00  0.00     0.031 C 
ATOM     61  C   UNL A   1      42.387  30.548  35.313  1.00  0.00     0.029 A 
ATOM     62  N   UNL A   1      44.499  30.318  34.629  1.00  0.00    -0.354 N 
ATOM     63  C   UNL A   1      44.008  30.062  29.693  1.00  0.00     0.074 A 
ATOM     64  C   UNL A   1      44.816  31.280  29.791  1.00  0.00     0.031 C 
ATOM     65  C   UNL A   1      43.140  30.173  36.417  1.00  0.00     0.029 A 
ATOM     66  C   UNL A   1      44.586  30.016  36.158  1.00  0.00     0.049 A 
ATOM     67  H   UNL A   1      45.282  30.187  34.046  1.00  0.00     0.167 HD
ATOM     68  C   UNL A   1      44.360  28.773  29.429  1.00  0.00     0.037 A 
ATOM     69  C   UNL A   1      45.648  29.536  37.064  1.00  0.00     0.037 A 
ATOM     70  C   UNL A   1      45.432  28.414  30.323  1.00  0.00     0.049 A 
ATOM     71  C   UNL A   1      46.457  28.648  36.242  1.00  0.00     0.074 A 
ATOM     72  C   UNL A   1      46.536  29.147  30.740  1.00  0.00     0.029 A 
ATOM     73  N   UNL A   1      45.137  27.536  31.336  1.00  0.00    -0.354 N 
ATOM     74  N   UNL A   1      46.085  27.458  35.901  1.00  0.00    -0.248 NA
ATOM     75  C   UNL A   1      47.699  29.146  35.695  1.00  0.00     0.031 C 
ATOM     76  C   UNL A   1      46.432  29.109  32.139  1.00  0.00     0.029 A 
ATOM     77  C   UNL A   1      45.829  27.905  32.457  1.00  0.00     0.049 A 
ATOM     78  H   UNL A   1      44.528  26.766  31.267  1.00  0.00     0.167 HD
ATOM     79  C   UNL A   1      46.570  27.443  34.635  1.00  0.00     0.074 A 
ATOM     80  C   UNL A   1      47.703  28.372  34.614  1.00  0.00     0.031 C 
ATOM     81  C   UNL A   1      45.671  27.164  33.660  1.00  0.00     0.037 A 
BRANCH  68  82
ATOM     82  C   UNL A   1      43.093  27.943  29.208  1.00  0.00     0.064 A 
ATOM     83  C   UNL A   1      42.820  27.493  27.914  1.00  0.00     0.173 A 
ATOM     84  C   UNL A   1      42.046  27.804  30.161  1.00  0.00     0.173 A 
ATOM     85  F   UNL A   1      43.773  27.543  26.973  1.00  0.00    -0.203 F 
ATOM     86  C   UNL A   1      41.552  27.013  27.571  1.00  0.00     0.198 A 
ATOM     87  C   UNL A   1      40.761  27.420  29.790  1.00  0.00     0.198 A 
ATOM     88  F   UNL A   1      42.247  28.055  31.467  1.00  0.00    -0.203 F 
ATOM     89  F   UNL A   1      41.323  26.577  26.325  1.00  0.00    -0.200 F 
ATOM     90  C   UNL A   1      40.515  27.021  28.494  1.00  0.00     0.200 A 
ATOM     91  F   UNL A   1      39.764  27.458  30.688  1.00  0.00    -0.200 F 
ATOM     92  F   UNL A   1      39.284  26.630  28.135  1.00  0.00    -0.200 F 
ENDBRANCH  68  82
BRANCH  69  93
ATOM     93  C   UNL A   1      46.370  29.293  38.579  1.00  0.00     0.064 A 
ATOM     94  C   UNL A   1      47.245  30.261  39.270  1.00  0.00     0.173 A 
ATOM     95  C   UNL A   1      45.742  28.458  39.524  1.00  0.00     0.173 A 
ATOM     96  F   UNL A   1      47.933  31.190  38.587  1.00  0.00    -0.203 F 
ATOM     97  C   UNL A   1      47.397  30.382  40.694  1.00  0.00     0.198 A 
ATOM     98  C   UNL A   1      45.901  28.583  40.951  1.00  0.00     0.198 A 
ATOM     99  F   UNL A   1      44.856  27.554  39.095  1.00  0.00    -0.203 F 
ATOM    100  F   UNL A   1      48.152  31.358  41.238  1.00  0.00    -0.200 F 
ATOM    101  C   UNL A   1      46.702  29.550  41.535  1.00  0.00     0.200 A 
ATOM    102  F   UNL A   1      45.187  27.790  41.767  1.00  0.00    -0.200 F 
ATOM    103  F   UNL A   1      46.760  29.702  42.872  1.00  0.00    -0.200 F 
ENDBRANCH  69  93
BRANCH  81 104
ATOM    104  C   UNL A   1      44.569  26.177  33.963  1.00  0.00     0.064 A 
ATOM    105  C   UNL A   1      43.248  26.487  34.346  1.00  0.00     0.173 A 
ATOM    106  C   UNL A   1      44.901  24.818  33.944  1.00  0.00     0.173 A 
ATOM    107  F   UNL A   1      42.764  27.729  34.235  1.00  0.00    -0.203 F 
ATOM    108  C   UNL A   1      42.371  25.509  34.825  1.00  0.00     0.198 A 
ATOM    109  C   UNL A   1      44.008  23.836  34.363  1.00  0.00     0.198 A 
ATOM    110  F   UNL A   1      46.100  24.432  33.482  1.00  0.00    -0.203 F 
ATOM    111  F   UNL A   1      41.142  25.849  35.245  1.00  0.00    -0.200 F 
ATOM    112  C   UNL A   1      42.763  24.184  34.853  1.00  0.00     0.200 A 
ATOM    113  F   UNL A   1      44.360  22.546  34.276  1.00  0.00    -0.200 F 
ATOM    114  F   UNL A   1      41.933  23.239  35.316  1.00  0.00    -0.200 F 
ENDBRANCH  81 104
ENDBRANCH  55  56
ENDBRANCH  48  50
ENDBRANCH  47  48
ENDBRANCH  46  47
ENDBRANCH  45  46
ENDBRANCH  44  45
ENDBRANCH  43  44
ENDBRANCH  42  43
ENDBRANCH  41  42
ENDBRANCH  40  41
ENDBRANCH   1  40
TORSDOF 28
ENDMDL
