MODEL 1
REMARK VINA RESULT:      -9.6      0.000      0.000
REMARK SMILES O=C(CNC(=O)[C@@H](CC1=c2ccccc2=NC1)N1C(=O)N=C2C=CC=C[C@H]2C1=O)OCCOCCOCCOCCOC(=O)c1ccc(-c2c3nc(c(-c4c(F)c(F)c(F)c(F)c4F)c4ccc([nH]4)c(-c4c(F)c(F)c(F)c(F)c4F)c4nc(c(-c5c(F)c(F)c(F)c(F)c5F)c5ccc2[nH]5)C=C4)C=C3)cc1
REMARK SMILES IDX 35 1 34 2 33 3 32 4 31 5 30 6 2 7 1 8 3 9 4 10 5 11 6 13
REMARK SMILES IDX 7 14 8 15 9 16 10 17 17 18 11 19 15 20 16 21 12 22 14 23
REMARK SMILES IDX 13 24 18 25 19 26 28 27 21 28 20 29 27 30 29 31 22 32 26 33
REMARK SMILES IDX 23 34 25 35 24 36 36 37 37 38 38 39 39 40 40 41 41 42 42 43
REMARK SMILES IDX 43 44 44 45 45 46 46 47 107 48 47 49 106 50 48 51 49 52
REMARK SMILES IDX 50 53 100 54 51 55 105 56 99 57 101 58 52 59 104 60 98 61
REMARK SMILES IDX 97 62 53 64 85 65 65 66 84 67 66 68 69 69 83 70 102 71 67 72
REMARK SMILES IDX 68 73 82 75 103 76 70 77 54 78 55 79 63 80 56 81 57 82 61 83
REMARK SMILES IDX 64 84 58 85 59 86 62 87 60 88 86 89 87 90 95 91 88 92 89 93
REMARK SMILES IDX 93 94 96 95 90 96 91 97 94 98 92 99 71 100 72 101 80 102
REMARK SMILES IDX 73 103 74 104 78 105 81 106 75 107 76 108 79 109 77 110
REMARK H PARENT 4 12 101 63 69 74
REMARK Flexibility Score: inf
ROOT
ATOM      1  C   UNL A   1      41.690  26.806  28.823  1.00  0.00     0.188 C 
ENDROOT
BRANCH   1   2
ATOM      2  C   UNL A   1      42.728  24.863  28.421  1.00  0.00     0.188 C 
BRANCH   2   3
ATOM      3  O   UNL A   1      42.037  23.509  28.059  1.00  0.00    -0.376 OA
BRANCH   3   4
ATOM      4  C   UNL A   1      40.883  23.433  27.204  1.00  0.00     0.202 C 
BRANCH   4   5
ATOM      5  C   UNL A   1      40.898  22.205  26.323  1.00  0.00     0.261 C 
BRANCH   5   6
ATOM      6  O   UNL A   1      39.865  21.282  26.707  1.00  0.00    -0.462 OA
BRANCH   6   7
ATOM      7  C   UNL A   1      38.953  21.012  25.727  1.00  0.00     0.325 C 
ATOM      8  O   UNL A   1      38.838  19.900  25.223  1.00  0.00    -0.250 OA
BRANCH   7   9
ATOM      9  C   UNL A   1      38.003  22.212  25.437  1.00  0.00     0.238 C 
BRANCH   9  10
ATOM     10  N   UNL A   1      37.252  22.278  24.162  1.00  0.00    -0.343 N 
ATOM     11  C   UNL A   1      36.250  22.982  23.582  1.00  0.00     0.244 C 
ATOM     12  H   UNL A   1      37.588  21.594  23.539  1.00  0.00     0.164 HD
ATOM     13  O   UNL A   1      36.312  22.860  22.338  1.00  0.00    -0.273 OA
BRANCH  11  14
ATOM     14  C   UNL A   1      35.022  23.853  24.148  1.00  0.00     0.188 C 
BRANCH  14  15
ATOM     15  C   UNL A   1      35.019  24.599  25.549  1.00  0.00     0.069 C 
BRANCH  15  16
ATOM     16  C   UNL A   1      33.909  25.544  25.914  1.00  0.00    -0.037 C 
ATOM     17  C   UNL A   1      33.547  27.137  25.625  1.00  0.00     0.001 A 
ATOM     18  C   UNL A   1      32.267  24.644  26.695  1.00  0.00     0.174 C 
ATOM     19  C   UNL A   1      34.059  28.321  24.977  1.00  0.00     0.010 A 
ATOM     20  C   UNL A   1      31.717  27.476  26.301  1.00  0.00     0.065 A 
ATOM     21  N   UNL A   1      30.981  26.176  26.820  1.00  0.00    -0.280 NA
ATOM     22  C   UNL A   1      33.280  29.415  24.837  1.00  0.00     0.001 A 
ATOM     23  C   UNL A   1      31.146  28.787  26.025  1.00  0.00     0.028 A 
ATOM     24  C   UNL A   1      31.906  29.624  25.306  1.00  0.00     0.002 A 
ENDBRANCH  15  16
ENDBRANCH  14  15
BRANCH  14  25
ATOM     25  N   UNL A   1      33.721  24.126  23.401  1.00  0.00    -0.249 N 
ATOM     26  C   UNL A   1      32.701  23.173  23.574  1.00  0.00     0.351 C 
ATOM     27  C   UNL A   1      33.502  25.288  22.672  1.00  0.00     0.244 C 
ATOM     28  N   UNL A   1      31.404  23.577  23.516  1.00  0.00    -0.197 NA
ATOM     29  O   UNL A   1      32.923  22.033  23.969  1.00  0.00    -0.246 OA
ATOM     30  C   UNL A   1      32.046  25.565  22.223  1.00  0.00     0.151 C 
ATOM     31  O   UNL A   1      34.429  26.017  22.313  1.00  0.00    -0.273 OA
ATOM     32  C   UNL A   1      31.098  24.743  23.066  1.00  0.00     0.062 C 
ATOM     33  C   UNL A   1      31.596  27.017  22.165  1.00  0.00    -0.007 C 
ATOM     34  C   UNL A   1      29.798  25.272  23.530  1.00  0.00     0.025 C 
ATOM     35  C   UNL A   1      30.439  27.456  22.692  1.00  0.00    -0.003 C 
ATOM     36  C   UNL A   1      29.555  26.578  23.411  1.00  0.00     0.002 C 
ENDBRANCH  14  25
ENDBRANCH  11  14
ENDBRANCH   9  10
ENDBRANCH   7   9
ENDBRANCH   6   7
ENDBRANCH   5   6
ENDBRANCH   4   5
ENDBRANCH   3   4
ENDBRANCH   2   3
ENDBRANCH   1   2
BRANCH   1  37
ATOM     37  O   UNL A   1      40.666  27.590  27.938  1.00  0.00    -0.377 OA
BRANCH  37  38
ATOM     38  C   UNL A   1      39.282  27.520  28.342  1.00  0.00     0.188 C 
BRANCH  38  39
ATOM     39  C   UNL A   1      38.488  28.769  28.785  1.00  0.00     0.188 C 
BRANCH  39  40
ATOM     40  O   UNL A   1      37.183  29.018  28.305  1.00  0.00    -0.376 OA
BRANCH  40  41
ATOM     41  C   UNL A   1      36.245  29.690  29.131  1.00  0.00     0.202 C 
BRANCH  41  42
ATOM     42  C   UNL A   1      35.850  31.134  28.834  1.00  0.00     0.261 C 
BRANCH  42  43
ATOM     43  O   UNL A   1      36.735  32.109  29.393  1.00  0.00    -0.460 OA
BRANCH  43  44
ATOM     44  C   UNL A   1      36.388  32.648  30.590  1.00  0.00     0.338 C 
ATOM     45  O   UNL A   1      35.324  33.149  30.900  1.00  0.00    -0.246 OA
BRANCH  44  46
ATOM     46  C   UNL A   1      37.473  32.316  31.539  1.00  0.00     0.060 A 
ATOM     47  C   UNL A   1      38.791  32.618  31.193  1.00  0.00     0.016 A 
ATOM     48  C   UNL A   1      37.188  31.573  32.699  1.00  0.00     0.016 A 
ATOM     49  C   UNL A   1      39.828  32.204  32.020  1.00  0.00     0.010 A 
ATOM     50  C   UNL A   1      38.234  31.130  33.514  1.00  0.00     0.010 A 
ATOM     51  C   UNL A   1      39.556  31.481  33.197  1.00  0.00    -0.014 A 
BRANCH  51  52
ATOM     52  C   UNL A   1      40.621  31.413  34.221  1.00  0.00     0.031 A 
ATOM     53  C   UNL A   1      40.824  32.455  35.269  1.00  0.00     0.074 A 
ATOM     54  C   UNL A   1      41.355  30.286  34.215  1.00  0.00     0.049 A 
ATOM     55  N   UNL A   1      41.603  32.413  36.320  1.00  0.00    -0.248 NA
ATOM     56  C   UNL A   1      40.067  33.705  35.129  1.00  0.00     0.031 C 
ATOM     57  C   UNL A   1      41.219  29.213  33.225  1.00  0.00     0.029 A 
ATOM     58  N   UNL A   1      42.323  29.832  35.069  1.00  0.00    -0.354 N 
ATOM     59  C   UNL A   1      41.415  33.614  36.986  1.00  0.00     0.074 A 
ATOM     60  C   UNL A   1      40.479  34.388  36.193  1.00  0.00     0.031 C 
ATOM     61  C   UNL A   1      42.037  28.207  33.554  1.00  0.00     0.029 A 
ATOM     62  C   UNL A   1      42.779  28.578  34.752  1.00  0.00     0.049 A 
ATOM     63  H   UNL A   1      42.657  30.354  35.835  1.00  0.00     0.167 HD
ATOM     64  C   UNL A   1      41.968  34.012  38.159  1.00  0.00     0.037 A 
ATOM     65  C   UNL A   1      43.692  27.804  35.363  1.00  0.00     0.037 A 
ATOM     66  C   UNL A   1      42.915  33.225  38.916  1.00  0.00     0.049 A 
ATOM     67  C   UNL A   1      44.325  28.300  36.628  1.00  0.00     0.074 A 
ATOM     68  C   UNL A   1      43.512  33.529  40.129  1.00  0.00     0.029 A 
ATOM     69  N   UNL A   1      43.416  31.988  38.530  1.00  0.00    -0.354 N 
ATOM     70  N   UNL A   1      44.086  29.404  37.292  1.00  0.00    -0.248 NA
ATOM     71  C   UNL A   1      45.348  27.440  37.234  1.00  0.00     0.031 C 
ATOM     72  C   UNL A   1      44.419  32.513  40.440  1.00  0.00     0.029 A 
ATOM     73  C   UNL A   1      44.340  31.537  39.461  1.00  0.00     0.049 A 
ATOM     74  H   UNL A   1      43.153  31.502  37.714  1.00  0.00     0.167 HD
ATOM     75  C   UNL A   1      44.913  29.366  38.403  1.00  0.00     0.074 A 
ATOM     76  C   UNL A   1      45.640  28.114  38.338  1.00  0.00     0.031 C 
ATOM     77  C   UNL A   1      45.060  30.288  39.385  1.00  0.00     0.037 A 
BRANCH  64  78
ATOM     78  C   UNL A   1      41.571  35.348  38.721  1.00  0.00     0.064 A 
ATOM     79  C   UNL A   1      40.470  35.481  39.582  1.00  0.00     0.173 A 
ATOM     80  C   UNL A   1      42.364  36.484  38.497  1.00  0.00     0.173 A 
ATOM     81  F   UNL A   1      39.674  34.430  39.827  1.00  0.00    -0.203 F 
ATOM     82  C   UNL A   1      40.178  36.701  40.189  1.00  0.00     0.198 A 
ATOM     83  C   UNL A   1      42.085  37.694  39.129  1.00  0.00     0.198 A 
ATOM     84  F   UNL A   1      43.436  36.414  37.691  1.00  0.00    -0.203 F 
ATOM     85  F   UNL A   1      39.105  36.808  40.987  1.00  0.00    -0.200 F 
ATOM     86  C   UNL A   1      40.991  37.802  39.972  1.00  0.00     0.200 A 
ATOM     87  F   UNL A   1      42.884  38.753  38.932  1.00  0.00    -0.200 F 
ATOM     88  F   UNL A   1      40.720  38.967  40.576  1.00  0.00    -0.200 F 
ENDBRANCH  64  78
BRANCH  65  89
ATOM     89  C   UNL A   1      44.020  26.475  34.789  1.00  0.00     0.064 A 
ATOM     90  C   UNL A   1      43.235  25.351  35.072  1.00  0.00     0.173 A 
ATOM     91  C   UNL A   1      45.104  26.312  33.911  1.00  0.00     0.173 A 
ATOM     92  F   UNL A   1      42.193  25.455  35.910  1.00  0.00    -0.203 F 
ATOM     93  C   UNL A   1      43.529  24.110  34.513  1.00  0.00     0.198 A 
ATOM     94  C   UNL A   1      45.376  25.080  33.324  1.00  0.00     0.198 A 
ATOM     95  F   UNL A   1      45.878  27.361  33.596  1.00  0.00    -0.203 F 
ATOM     96  F   UNL A   1      42.786  23.042  34.831  1.00  0.00    -0.200 F 
ATOM     97  C   UNL A   1      44.594  23.978  33.632  1.00  0.00     0.200 A 
ATOM     98  F   UNL A   1      46.389  24.964  32.455  1.00  0.00    -0.200 F 
ATOM     99  F   UNL A   1      44.867  22.787  33.083  1.00  0.00    -0.200 F 
ENDBRANCH  65  89
BRANCH  77 100
ATOM    100  C   UNL A   1      46.040  29.979  40.482  1.00  0.00     0.064 A 
ATOM    101  C   UNL A   1      45.670  29.222  41.604  1.00  0.00     0.173 A 
ATOM    102  C   UNL A   1      47.378  30.389  40.380  1.00  0.00     0.173 A 
ATOM    103  F   UNL A   1      44.399  28.820  41.758  1.00  0.00    -0.203 F 
ATOM    104  C   UNL A   1      46.598  28.904  42.591  1.00  0.00     0.198 A 
ATOM    105  C   UNL A   1      48.312  30.036  41.350  1.00  0.00     0.198 A 
ATOM    106  F   UNL A   1      47.788  31.110  39.325  1.00  0.00    -0.203 F 
ATOM    107  F   UNL A   1      46.211  28.218  43.675  1.00  0.00    -0.200 F 
ATOM    108  C   UNL A   1      47.920  29.299  42.458  1.00  0.00     0.200 A 
ATOM    109  F   UNL A   1      49.593  30.403  41.210  1.00  0.00    -0.200 F 
ATOM    110  F   UNL A   1      48.817  28.973  43.398  1.00  0.00    -0.200 F 
ENDBRANCH  77 100
ENDBRANCH  51  52
ENDBRANCH  44  46
ENDBRANCH  43  44
ENDBRANCH  42  43
ENDBRANCH  41  42
ENDBRANCH  40  41
ENDBRANCH  39  40
ENDBRANCH  38  39
ENDBRANCH  37  38
ENDBRANCH   1  37
TORSDOF 25
ENDMDL
MODEL 2
REMARK VINA RESULT:      -9.6      4.895      7.925
REMARK SMILES O=C(CNC(=O)[C@@H](CC1=c2ccccc2=NC1)N1C(=O)N=C2C=CC=C[C@H]2C1=O)OCCOCCOCCOCCOC(=O)c1ccc(-c2c3nc(c(-c4c(F)c(F)c(F)c(F)c4F)c4ccc([nH]4)c(-c4c(F)c(F)c(F)c(F)c4F)c4nc(c(-c5c(F)c(F)c(F)c(F)c5F)c5ccc2[nH]5)C=C4)C=C3)cc1
REMARK SMILES IDX 35 1 34 2 33 3 32 4 31 5 30 6 2 7 1 8 3 9 4 10 5 11 6 13
REMARK SMILES IDX 7 14 8 15 9 16 10 17 17 18 11 19 15 20 16 21 12 22 14 23
REMARK SMILES IDX 13 24 18 25 19 26 28 27 21 28 20 29 27 30 29 31 22 32 26 33
REMARK SMILES IDX 23 34 25 35 24 36 36 37 37 38 38 39 39 40 40 41 41 42 42 43
REMARK SMILES IDX 43 44 44 45 45 46 46 47 107 48 47 49 106 50 48 51 49 52
REMARK SMILES IDX 50 53 100 54 51 55 105 56 99 57 101 58 52 59 104 60 98 61
REMARK SMILES IDX 97 62 53 64 85 65 65 66 84 67 66 68 69 69 83 70 102 71 67 72
REMARK SMILES IDX 68 73 82 75 103 76 70 77 54 78 55 79 63 80 56 81 57 82 61 83
REMARK SMILES IDX 64 84 58 85 59 86 62 87 60 88 86 89 87 90 95 91 88 92 89 93
REMARK SMILES IDX 93 94 96 95 90 96 91 97 94 98 92 99 71 100 72 101 80 102
REMARK SMILES IDX 73 103 74 104 78 105 81 106 75 107 76 108 79 109 77 110
REMARK H PARENT 4 12 101 63 69 74
REMARK Flexibility Score: inf
ROOT
ATOM      1  C   UNL A   1      41.976  26.531  28.759  1.00  0.00     0.188 C 
ENDROOT
BRANCH   1   2
ATOM      2  C   UNL A   1      42.652  24.412  28.497  1.00  0.00     0.188 C 
BRANCH   2   3
ATOM      3  O   UNL A   1      41.743  23.197  28.121  1.00  0.00    -0.376 OA
BRANCH   3   4
ATOM      4  C   UNL A   1      40.730  23.274  27.103  1.00  0.00     0.202 C 
BRANCH   4   5
ATOM      5  C   UNL A   1      40.773  22.097  26.156  1.00  0.00     0.261 C 
BRANCH   5   6
ATOM      6  O   UNL A   1      39.860  21.067  26.571  1.00  0.00    -0.462 OA
BRANCH   6   7
ATOM      7  C   UNL A   1      38.869  20.793  25.672  1.00  0.00     0.325 C 
ATOM      8  O   UNL A   1      38.722  19.683  25.172  1.00  0.00    -0.250 OA
BRANCH   7   9
ATOM      9  C   UNL A   1      37.884  21.983  25.476  1.00  0.00     0.238 C 
BRANCH   9  10
ATOM     10  N   UNL A   1      37.212  22.188  24.172  1.00  0.00    -0.343 N 
ATOM     11  C   UNL A   1      36.262  22.971  23.604  1.00  0.00     0.244 C 
ATOM     12  H   UNL A   1      37.568  21.555  23.508  1.00  0.00     0.164 HD
ATOM     13  O   UNL A   1      36.395  22.963  22.360  1.00  0.00    -0.273 OA
BRANCH  11  14
ATOM     14  C   UNL A   1      35.024  23.821  24.178  1.00  0.00     0.188 C 
BRANCH  14  15
ATOM     15  C   UNL A   1      35.016  24.564  25.581  1.00  0.00     0.069 C 
BRANCH  15  16
ATOM     16  C   UNL A   1      33.921  25.530  25.932  1.00  0.00    -0.037 C 
ATOM     17  C   UNL A   1      33.565  27.116  25.593  1.00  0.00     0.001 A 
ATOM     18  C   UNL A   1      32.286  24.673  26.774  1.00  0.00     0.174 C 
ATOM     19  C   UNL A   1      34.074  28.271  24.894  1.00  0.00     0.010 A 
ATOM     20  C   UNL A   1      31.751  27.493  26.290  1.00  0.00     0.065 A 
ATOM     21  N   UNL A   1      31.015  26.219  26.868  1.00  0.00    -0.280 NA
ATOM     22  C   UNL A   1      33.301  29.367  24.729  1.00  0.00     0.001 A 
ATOM     23  C   UNL A   1      31.185  28.799  25.978  1.00  0.00     0.028 A 
ATOM     24  C   UNL A   1      31.938  29.603  25.216  1.00  0.00     0.002 A 
ENDBRANCH  15  16
ENDBRANCH  14  15
BRANCH  14  25
ATOM     25  N   UNL A   1      33.714  24.073  23.440  1.00  0.00    -0.249 N 
ATOM     26  C   UNL A   1      32.689  23.136  23.665  1.00  0.00     0.351 C 
ATOM     27  C   UNL A   1      33.493  25.206  22.667  1.00  0.00     0.244 C 
ATOM     28  N   UNL A   1      31.395  23.547  23.609  1.00  0.00    -0.197 NA
ATOM     29  O   UNL A   1      32.909  22.011  24.102  1.00  0.00    -0.246 OA
ATOM     30  C   UNL A   1      32.032  25.475  22.228  1.00  0.00     0.151 C 
ATOM     31  O   UNL A   1      34.419  25.913  22.266  1.00  0.00    -0.273 OA
ATOM     32  C   UNL A   1      31.091  24.696  23.117  1.00  0.00     0.062 C 
ATOM     33  C   UNL A   1      31.591  26.927  22.117  1.00  0.00    -0.007 C 
ATOM     34  C   UNL A   1      29.801  25.252  23.576  1.00  0.00     0.025 C 
ATOM     35  C   UNL A   1      30.445  27.396  22.642  1.00  0.00    -0.003 C 
ATOM     36  C   UNL A   1      29.565  26.555  23.408  1.00  0.00     0.002 C 
ENDBRANCH  14  25
ENDBRANCH  11  14
ENDBRANCH   9  10
ENDBRANCH   7   9
ENDBRANCH   6   7
ENDBRANCH   5   6
ENDBRANCH   4   5
ENDBRANCH   3   4
ENDBRANCH   2   3
ENDBRANCH   1   2
BRANCH   1  37
ATOM     37  O   UNL A   1      41.090  27.417  27.823  1.00  0.00    -0.377 OA
BRANCH  37  38
ATOM     38  C   UNL A   1      39.664  27.205  27.899  1.00  0.00     0.188 C 
BRANCH  38  39
ATOM     39  C   UNL A   1      38.748  28.071  28.794  1.00  0.00     0.188 C 
BRANCH  39  40
ATOM     40  O   UNL A   1      38.090  29.211  28.285  1.00  0.00    -0.376 OA
BRANCH  40  41
ATOM     41  C   UNL A   1      36.674  29.226  28.196  1.00  0.00     0.202 C 
BRANCH  41  42
ATOM     42  C   UNL A   1      35.951  30.430  27.596  1.00  0.00     0.261 C 
BRANCH  42  43
ATOM     43  O   UNL A   1      36.563  31.687  27.893  1.00  0.00    -0.460 OA
BRANCH  43  44
ATOM     44  C   UNL A   1      36.344  32.206  29.129  1.00  0.00     0.338 C 
ATOM     45  O   UNL A   1      35.359  32.072  29.829  1.00  0.00    -0.246 OA
BRANCH  44  46
ATOM     46  C   UNL A   1      37.626  32.792  29.579  1.00  0.00     0.060 A 
ATOM     47  C   UNL A   1      37.787  34.178  29.543  1.00  0.00     0.016 A 
ATOM     48  C   UNL A   1      38.710  31.952  29.893  1.00  0.00     0.016 A 
ATOM     49  C   UNL A   1      39.025  34.731  29.848  1.00  0.00     0.010 A 
ATOM     50  C   UNL A   1      39.962  32.508  30.169  1.00  0.00     0.010 A 
ATOM     51  C   UNL A   1      40.111  33.904  30.188  1.00  0.00    -0.014 A 
BRANCH  51  52
ATOM     52  C   UNL A   1      41.261  34.531  30.876  1.00  0.00     0.031 A 
ATOM     53  C   UNL A   1      42.338  35.278  30.165  1.00  0.00     0.074 A 
ATOM     54  C   UNL A   1      41.232  34.469  32.220  1.00  0.00     0.049 A 
ATOM     55  N   UNL A   1      43.290  36.018  30.676  1.00  0.00    -0.248 NA
ATOM     56  C   UNL A   1      42.362  35.190  28.700  1.00  0.00     0.031 C 
ATOM     57  C   UNL A   1      40.210  33.760  32.995  1.00  0.00     0.029 A 
ATOM     58  N   UNL A   1      42.043  35.030  33.168  1.00  0.00    -0.354 N 
ATOM     59  C   UNL A   1      44.014  36.508  29.600  1.00  0.00     0.074 A 
ATOM     60  C   UNL A   1      43.418  35.943  28.404  1.00  0.00     0.031 C 
ATOM     61  C   UNL A   1      40.428  33.965  34.299  1.00  0.00     0.029 A 
ATOM     62  C   UNL A   1      41.622  34.787  34.451  1.00  0.00     0.049 A 
ATOM     63  H   UNL A   1      42.847  35.555  32.951  1.00  0.00     0.167 HD
ATOM     64  C   UNL A   1      45.067  37.363  29.625  1.00  0.00     0.037 A 
ATOM     65  C   UNL A   1      42.135  35.190  35.626  1.00  0.00     0.037 A 
ATOM     66  C   UNL A   1      45.652  37.893  30.836  1.00  0.00     0.049 A 
ATOM     67  C   UNL A   1      43.334  36.091  35.617  1.00  0.00     0.074 A 
ATOM     68  C   UNL A   1      46.703  38.786  30.965  1.00  0.00     0.029 A 
ATOM     69  N   UNL A   1      45.249  37.569  32.126  1.00  0.00    -0.354 N 
ATOM     70  N   UNL A   1      43.966  36.610  34.594  1.00  0.00    -0.248 NA
ATOM     71  C   UNL A   1      43.886  36.466  36.924  1.00  0.00     0.031 C 
ATOM     72  C   UNL A   1      46.978  38.949  32.325  1.00  0.00     0.029 A 
ATOM     73  C   UNL A   1      46.056  38.215  33.052  1.00  0.00     0.049 A 
ATOM     74  H   UNL A   1      44.502  36.969  32.350  1.00  0.00     0.167 HD
ATOM     75  C   UNL A   1      44.979  37.390  35.131  1.00  0.00     0.074 A 
ATOM     76  C   UNL A   1      44.857  37.296  36.571  1.00  0.00     0.031 C 
ATOM     77  C   UNL A   1      45.927  38.113  34.486  1.00  0.00     0.037 A 
BRANCH  64  78
ATOM     78  C   UNL A   1      45.664  37.802  28.317  1.00  0.00     0.064 A 
ATOM     79  C   UNL A   1      46.711  37.087  27.716  1.00  0.00     0.173 A 
ATOM     80  C   UNL A   1      45.108  38.871  27.598  1.00  0.00     0.173 A 
ATOM     81  F   UNL A   1      47.284  36.059  28.360  1.00  0.00    -0.203 F 
ATOM     82  C   UNL A   1      47.182  37.431  26.451  1.00  0.00     0.198 A 
ATOM     83  C   UNL A   1      45.561  39.194  26.320  1.00  0.00     0.198 A 
ATOM     84  F   UNL A   1      44.096  39.584  28.119  1.00  0.00    -0.203 F 
ATOM     85  F   UNL A   1      48.201  36.748  25.909  1.00  0.00    -0.200 F 
ATOM     86  C   UNL A   1      46.599  38.475  25.749  1.00  0.00     0.200 A 
ATOM     87  F   UNL A   1      44.984  40.191  25.637  1.00  0.00    -0.200 F 
ATOM     88  F   UNL A   1      47.038  38.789  24.523  1.00  0.00    -0.200 F 
ENDBRANCH  64  78
BRANCH  65  89
ATOM     89  C   UNL A   1      41.485  34.761  36.889  1.00  0.00     0.064 A 
ATOM     90  C   UNL A   1      41.955  33.653  37.604  1.00  0.00     0.173 A 
ATOM     91  C   UNL A   1      40.405  35.479  37.430  1.00  0.00     0.173 A 
ATOM     92  F   UNL A   1      42.979  32.932  37.125  1.00  0.00    -0.203 F 
ATOM     93  C   UNL A   1      41.360  33.266  38.803  1.00  0.00     0.198 A 
ATOM     94  C   UNL A   1      39.834  35.113  38.645  1.00  0.00     0.198 A 
ATOM     95  F   UNL A   1      39.928  36.557  36.791  1.00  0.00    -0.203 F 
ATOM     96  F   UNL A   1      41.803  32.178  39.446  1.00  0.00    -0.200 F 
ATOM     97  C   UNL A   1      40.307  34.002  39.327  1.00  0.00     0.200 A 
ATOM     98  F   UNL A   1      38.835  35.843  39.158  1.00  0.00    -0.200 F 
ATOM     99  F   UNL A   1      39.744  33.639  40.486  1.00  0.00    -0.200 F 
ENDBRANCH  65  89
BRANCH  77 100
ATOM    100  C   UNL A   1      46.910  38.873  35.332  1.00  0.00     0.064 A 
ATOM    101  C   UNL A   1      46.673  40.202  35.716  1.00  0.00     0.173 A 
ATOM    102  C   UNL A   1      48.068  38.248  35.816  1.00  0.00     0.173 A 
ATOM    103  F   UNL A   1      45.588  40.852  35.267  1.00  0.00    -0.203 F 
ATOM    104  C   UNL A   1      47.569  40.881  36.537  1.00  0.00     0.198 A 
ATOM    105  C   UNL A   1      48.943  38.917  36.668  1.00  0.00     0.198 A 
ATOM    106  F   UNL A   1      48.341  36.977  35.485  1.00  0.00    -0.203 F 
ATOM    107  F   UNL A   1      47.343  42.163  36.854  1.00  0.00    -0.200 F 
ATOM    108  C   UNL A   1      48.695  40.235  37.023  1.00  0.00     0.200 A 
ATOM    109  F   UNL A   1      50.020  38.286  37.151  1.00  0.00    -0.200 F 
ATOM    110  F   UNL A   1      49.544  40.883  37.830  1.00  0.00    -0.200 F 
ENDBRANCH  77 100
ENDBRANCH  51  52
ENDBRANCH  44  46
ENDBRANCH  43  44
ENDBRANCH  42  43
ENDBRANCH  41  42
ENDBRANCH  40  41
ENDBRANCH  39  40
ENDBRANCH  38  39
ENDBRANCH  37  38
ENDBRANCH   1  37
TORSDOF 25
ENDMDL
MODEL 3
REMARK VINA RESULT:      -9.5      4.621      9.857
REMARK SMILES O=C(CNC(=O)[C@@H](CC1=c2ccccc2=NC1)N1C(=O)N=C2C=CC=C[C@H]2C1=O)OCCOCCOCCOCCOC(=O)c1ccc(-c2c3nc(c(-c4c(F)c(F)c(F)c(F)c4F)c4ccc([nH]4)c(-c4c(F)c(F)c(F)c(F)c4F)c4nc(c(-c5c(F)c(F)c(F)c(F)c5F)c5ccc2[nH]5)C=C4)C=C3)cc1
REMARK SMILES IDX 35 1 34 2 33 3 32 4 31 5 30 6 2 7 1 8 3 9 4 10 5 11 6 13
REMARK SMILES IDX 7 14 8 15 9 16 10 17 17 18 11 19 15 20 16 21 12 22 14 23
REMARK SMILES IDX 13 24 18 25 19 26 28 27 21 28 20 29 27 30 29 31 22 32 26 33
REMARK SMILES IDX 23 34 25 35 24 36 36 37 37 38 38 39 39 40 40 41 41 42 42 43
REMARK SMILES IDX 43 44 44 45 45 46 46 47 107 48 47 49 106 50 48 51 49 52
REMARK SMILES IDX 50 53 100 54 51 55 105 56 99 57 101 58 52 59 104 60 98 61
REMARK SMILES IDX 97 62 53 64 85 65 65 66 84 67 66 68 69 69 83 70 102 71 67 72
REMARK SMILES IDX 68 73 82 75 103 76 70 77 54 78 55 79 63 80 56 81 57 82 61 83
REMARK SMILES IDX 64 84 58 85 59 86 62 87 60 88 86 89 87 90 95 91 88 92 89 93
REMARK SMILES IDX 93 94 96 95 90 96 91 97 94 98 92 99 71 100 72 101 80 102
REMARK SMILES IDX 73 103 74 104 78 105 81 106 75 107 76 108 79 109 77 110
REMARK H PARENT 4 12 101 63 69 74
REMARK Flexibility Score: inf
ROOT
ATOM      1  C   UNL A   1      34.865  33.742  29.709  1.00  0.00     0.188 C 
ENDROOT
BRANCH   1   2
ATOM      2  C   UNL A   1      33.263  33.561  28.154  1.00  0.00     0.188 C 
BRANCH   2   3
ATOM      3  O   UNL A   1      33.030  32.335  27.213  1.00  0.00    -0.376 OA
BRANCH   3   4
ATOM      4  C   UNL A   1      31.717  31.825  26.918  1.00  0.00     0.202 C 
BRANCH   4   5
ATOM      5  C   UNL A   1      31.691  30.316  26.832  1.00  0.00     0.261 C 
BRANCH   5   6
ATOM      6  O   UNL A   1      32.995  29.763  27.077  1.00  0.00    -0.462 OA
BRANCH   6   7
ATOM      7  C   UNL A   1      33.450  28.930  26.095  1.00  0.00     0.325 C 
ATOM      8  O   UNL A   1      34.079  27.906  26.339  1.00  0.00    -0.250 OA
BRANCH   7   9
ATOM      9  C   UNL A   1      32.962  29.346  24.675  1.00  0.00     0.238 C 
BRANCH   9  10
ATOM     10  N   UNL A   1      33.471  28.641  23.476  1.00  0.00    -0.343 N 
ATOM     11  C   UNL A   1      33.226  27.528  22.743  1.00  0.00     0.244 C 
ATOM     12  H   UNL A   1      34.226  29.139  23.089  1.00  0.00     0.164 HD
ATOM     13  O   UNL A   1      33.720  27.656  21.600  1.00  0.00    -0.273 OA
BRANCH  11  14
ATOM     14  C   UNL A   1      32.512  26.120  23.052  1.00  0.00     0.188 C 
BRANCH  14  15
ATOM     15  C   UNL A   1      30.953  25.854  22.918  1.00  0.00     0.069 C 
BRANCH  15  16
ATOM     16  C   UNL A   1      29.964  26.967  23.116  1.00  0.00    -0.037 C 
ATOM     17  C   UNL A   1      29.795  28.530  22.586  1.00  0.00     0.001 A 
ATOM     18  C   UNL A   1      28.224  26.394  23.990  1.00  0.00     0.174 C 
ATOM     19  C   UNL A   1      30.445  29.535  21.780  1.00  0.00     0.010 A 
ATOM     20  C   UNL A   1      28.017  29.179  23.169  1.00  0.00     0.065 A 
ATOM     21  N   UNL A   1      27.131  28.068  23.861  1.00  0.00    -0.280 NA
ATOM     22  C   UNL A   1      29.802  30.680  21.463  1.00  0.00     0.001 A 
ATOM     23  C   UNL A   1      27.607  30.492  22.690  1.00  0.00     0.028 A 
ATOM     24  C   UNL A   1      28.462  31.117  21.869  1.00  0.00     0.002 A 
ENDBRANCH  15  16
ENDBRANCH  14  15
BRANCH  14  25
ATOM     25  N   UNL A   1      33.233  24.841  23.463  1.00  0.00    -0.249 N 
ATOM     26  C   UNL A   1      33.715  24.041  22.411  1.00  0.00     0.351 C 
ATOM     27  C   UNL A   1      33.495  24.519  24.788  1.00  0.00     0.244 C 
ATOM     28  N   UNL A   1      34.835  23.297  22.608  1.00  0.00    -0.197 NA
ATOM     29  O   UNL A   1      33.288  24.132  21.264  1.00  0.00    -0.246 OA
ATOM     30  C   UNL A   1      34.487  23.356  25.039  1.00  0.00     0.151 C 
ATOM     31  O   UNL A   1      32.900  25.061  25.721  1.00  0.00    -0.273 OA
ATOM     32  C   UNL A   1      35.307  23.120  23.792  1.00  0.00     0.062 C 
ATOM     33  C   UNL A   1      35.383  23.452  26.264  1.00  0.00    -0.007 C 
ATOM     34  C   UNL A   1      36.746  22.783  23.848  1.00  0.00     0.025 C 
ATOM     35  C   UNL A   1      36.709  23.226  26.232  1.00  0.00    -0.003 C 
ATOM     36  C   UNL A   1      37.395  22.925  25.005  1.00  0.00     0.002 C 
ENDBRANCH  14  25
ENDBRANCH  11  14
ENDBRANCH   9  10
ENDBRANCH   7   9
ENDBRANCH   6   7
ENDBRANCH   5   6
ENDBRANCH   4   5
ENDBRANCH   3   4
ENDBRANCH   2   3
ENDBRANCH   1   2
BRANCH   1  37
ATOM     37  O   UNL A   1      34.901  34.618  31.004  1.00  0.00    -0.377 OA
BRANCH  37  38
ATOM     38  C   UNL A   1      34.432  33.992  32.216  1.00  0.00     0.188 C 
BRANCH  38  39
ATOM     39  C   UNL A   1      35.168  32.798  32.866  1.00  0.00     0.188 C 
BRANCH  39  40
ATOM     40  O   UNL A   1      36.427  32.368  32.396  1.00  0.00    -0.376 OA
BRANCH  40  41
ATOM     41  C   UNL A   1      36.574  31.057  31.874  1.00  0.00     0.202 C 
BRANCH  41  42
ATOM     42  C   UNL A   1      36.946  30.847  30.408  1.00  0.00     0.261 C 
BRANCH  42  43
ATOM     43  O   UNL A   1      38.355  30.815  30.162  1.00  0.00    -0.460 OA
BRANCH  43  44
ATOM     44  C   UNL A   1      38.787  30.033  29.139  1.00  0.00     0.338 C 
ATOM     45  O   UNL A   1      38.372  30.005  27.997  1.00  0.00    -0.246 OA
BRANCH  44  46
ATOM     46  C   UNL A   1      40.023  29.366  29.605  1.00  0.00     0.060 A 
ATOM     47  C   UNL A   1      40.081  27.971  29.603  1.00  0.00     0.016 A 
ATOM     48  C   UNL A   1      41.057  30.127  30.179  1.00  0.00     0.016 A 
ATOM     49  C   UNL A   1      41.188  27.332  30.150  1.00  0.00     0.010 A 
ATOM     50  C   UNL A   1      42.156  29.482  30.756  1.00  0.00     0.010 A 
ATOM     51  C   UNL A   1      42.242  28.082  30.705  1.00  0.00    -0.014 A 
BRANCH  51  52
ATOM     52  C   UNL A   1      43.539  27.398  30.903  1.00  0.00     0.031 A 
ATOM     53  C   UNL A   1      44.484  27.088  29.792  1.00  0.00     0.074 A 
ATOM     54  C   UNL A   1      43.870  27.150  32.183  1.00  0.00     0.049 A 
ATOM     55  N   UNL A   1      45.719  26.658  29.869  1.00  0.00    -0.248 NA
ATOM     56  C   UNL A   1      43.994  27.276  28.421  1.00  0.00     0.031 C 
ATOM     57  C   UNL A   1      43.003  27.426  33.332  1.00  0.00     0.029 A 
ATOM     58  N   UNL A   1      45.016  26.655  32.741  1.00  0.00    -0.354 N 
ATOM     59  C   UNL A   1      46.169  26.549  28.562  1.00  0.00     0.074 A 
ATOM     60  C   UNL A   1      45.055  26.913  27.706  1.00  0.00     0.031 C 
ATOM     61  C   UNL A   1      43.664  27.140  34.459  1.00  0.00     0.029 A 
ATOM     62  C   UNL A   1      44.983  26.627  34.112  1.00  0.00     0.049 A 
ATOM     63  H   UNL A   1      45.789  26.349  32.211  1.00  0.00     0.167 HD
ATOM     64  C   UNL A   1      47.405  26.190  28.134  1.00  0.00     0.037 A 
ATOM     65  C   UNL A   1      45.916  26.240  34.998  1.00  0.00     0.037 A 
ATOM     66  C   UNL A   1      48.488  25.811  29.013  1.00  0.00     0.049 A 
ATOM     67  C   UNL A   1      47.254  25.797  34.486  1.00  0.00     0.074 A 
ATOM     68  C   UNL A   1      49.785  25.457  28.677  1.00  0.00     0.029 A 
ATOM     69  N   UNL A   1      48.400  25.721  30.396  1.00  0.00    -0.354 N 
ATOM     70  N   UNL A   1      47.696  25.767  33.253  1.00  0.00    -0.248 NA
ATOM     71  C   UNL A   1      48.224  25.339  35.488  1.00  0.00     0.031 C 
ATOM     72  C   UNL A   1      50.457  25.091  29.846  1.00  0.00     0.029 A 
ATOM     73  C   UNL A   1      49.607  25.282  30.922  1.00  0.00     0.049 A 
ATOM     74  H   UNL A   1      47.599  25.938  30.927  1.00  0.00     0.167 HD
ATOM     75  C   UNL A   1      49.002  25.307  33.329  1.00  0.00     0.074 A 
ATOM     76  C   UNL A   1      49.287  25.097  34.734  1.00  0.00     0.031 C 
ATOM     77  C   UNL A   1      49.880  25.075  32.324  1.00  0.00     0.037 A 
BRANCH  64  78
ATOM     78  C   UNL A   1      47.679  26.192  26.656  1.00  0.00     0.064 A 
ATOM     79  C   UNL A   1      48.436  27.210  26.055  1.00  0.00     0.173 A 
ATOM     80  C   UNL A   1      47.288  25.110  25.853  1.00  0.00     0.173 A 
ATOM     81  F   UNL A   1      48.832  28.271  26.774  1.00  0.00    -0.203 F 
ATOM     82  C   UNL A   1      48.784  27.146  24.708  1.00  0.00     0.198 A 
ATOM     83  C   UNL A   1      47.663  25.036  24.512  1.00  0.00     0.198 A 
ATOM     84  F   UNL A   1      46.572  24.103  26.376  1.00  0.00    -0.203 F 
ATOM     85  F   UNL A   1      49.486  28.144  24.152  1.00  0.00    -0.200 F 
ATOM     86  C   UNL A   1      48.408  26.054  23.941  1.00  0.00     0.200 A 
ATOM     87  F   UNL A   1      47.313  23.970  23.778  1.00  0.00    -0.200 F 
ATOM     88  F   UNL A   1      48.763  25.985  22.651  1.00  0.00    -0.200 F 
ENDBRANCH  64  78
BRANCH  65  89
ATOM     89  C   UNL A   1      45.609  26.293  36.448  1.00  0.00     0.064 A 
ATOM     90  C   UNL A   1      45.626  27.506  37.148  1.00  0.00     0.173 A 
ATOM     91  C   UNL A   1      45.250  25.135  37.157  1.00  0.00     0.173 A 
ATOM     92  F   UNL A   1      45.970  28.638  36.516  1.00  0.00    -0.203 F 
ATOM     93  C   UNL A   1      45.313  27.558  38.504  1.00  0.00     0.198 A 
ATOM     94  C   UNL A   1      44.902  25.193  38.503  1.00  0.00     0.198 A 
ATOM     95  F   UNL A   1      45.203  23.950  36.529  1.00  0.00    -0.203 F 
ATOM     96  F   UNL A   1      45.376  28.725  39.158  1.00  0.00    -0.200 F 
ATOM     97  C   UNL A   1      44.942  26.403  39.178  1.00  0.00     0.200 A 
ATOM     98  F   UNL A   1      44.520  24.079  39.142  1.00  0.00    -0.200 F 
ATOM     99  F   UNL A   1      44.626  26.456  40.478  1.00  0.00    -0.200 F 
ENDBRANCH  65  89
BRANCH  77 100
ATOM    100  C   UNL A   1      51.246  24.574  32.703  1.00  0.00     0.064 A 
ATOM    101  C   UNL A   1      51.488  23.212  32.938  1.00  0.00     0.173 A 
ATOM    102  C   UNL A   1      52.336  25.454  32.768  1.00  0.00     0.173 A 
ATOM    103  F   UNL A   1      50.477  22.330  32.904  1.00  0.00    -0.203 F 
ATOM    104  C   UNL A   1      52.767  22.754  33.244  1.00  0.00     0.198 A 
ATOM    105  C   UNL A   1      53.620  24.987  33.037  1.00  0.00     0.198 A 
ATOM    106  F   UNL A   1      52.163  26.766  32.546  1.00  0.00    -0.203 F 
ATOM    107  F   UNL A   1      52.965  21.455  33.508  1.00  0.00    -0.200 F 
ATOM    108  C   UNL A   1      53.833  23.639  33.279  1.00  0.00     0.200 A 
ATOM    109  F   UNL A   1      54.652  25.841  33.052  1.00  0.00    -0.200 F 
ATOM    110  F   UNL A   1      55.067  23.193  33.552  1.00  0.00    -0.200 F 
ENDBRANCH  77 100
ENDBRANCH  51  52
ENDBRANCH  44  46
ENDBRANCH  43  44
ENDBRANCH  42  43
ENDBRANCH  41  42
ENDBRANCH  40  41
ENDBRANCH  39  40
ENDBRANCH  38  39
ENDBRANCH  37  38
ENDBRANCH   1  37
TORSDOF 25
ENDMDL
