MODEL 1
REMARK VINA RESULT:      -9.6      0.000      0.000
REMARK SMILES CCCc1nnc(SCC(=O)OCCOCCOCCOCCOC(=O)c2ccc(-c3c4nc(c(-c5c(F)c(F)c(F)c(F)c5F)c5ccc([nH]5)c(-c5c(F)c(F)c(F)c(F)c5F)c5nc(c(-c6c(F)c(F)c(F)c(F)c6F)c6ccc3[nH]6)C=C5)C=C4)cc2)n1C[C@H]1CCCO1
REMARK SMILES IDX 17 1 16 2 15 3 14 4 13 5 12 6 10 7 11 8 9 9 8 10 7 11 4 12
REMARK SMILES IDX 5 13 90 14 6 15 3 16 2 17 1 18 91 19 92 20 93 21 96 22 94 23
REMARK SMILES IDX 95 24 18 25 19 26 20 27 21 28 22 29 23 30 24 31 25 32 26 33
REMARK SMILES IDX 27 34 28 35 89 36 29 37 88 38 30 39 31 40 32 41 82 42 33 43
REMARK SMILES IDX 87 44 81 45 83 46 34 47 86 48 80 49 79 50 35 52 67 53 47 54
REMARK SMILES IDX 66 55 48 56 51 57 65 58 84 59 49 60 50 61 64 63 85 64 52 65
REMARK SMILES IDX 36 66 37 67 45 68 38 69 39 70 43 71 46 72 40 73 41 74 44 75
REMARK SMILES IDX 42 76 68 77 69 78 77 79 70 80 71 81 75 82 78 83 72 84 73 85
REMARK SMILES IDX 76 86 74 87 53 88 54 89 62 90 55 91 56 92 60 93 63 94 57 95
REMARK SMILES IDX 58 96 61 97 59 98
REMARK H PARENT 83 51 51 62
REMARK Flexibility Score: inf
ROOT
ATOM      1  C   UNL A   1      32.536  35.980  30.994  1.00  0.00     0.188 C 
ENDROOT
BRANCH   1   2
ATOM      2  C   UNL A   1      33.175  35.775  29.644  1.00  0.00     0.188 C 
BRANCH   2   3
ATOM      3  O   UNL A   1      32.951  34.526  29.052  1.00  0.00    -0.376 OA
BRANCH   3   4
ATOM      4  C   UNL A   1      34.074  33.796  28.572  1.00  0.00     0.202 C 
BRANCH   4   5
ATOM      5  C   UNL A   1      33.960  32.371  27.970  1.00  0.00     0.261 C 
BRANCH   5   6
ATOM      6  O   UNL A   1      32.641  31.905  27.560  1.00  0.00    -0.463 OA
BRANCH   6   7
ATOM      7  C   UNL A   1      32.601  30.891  26.654  1.00  0.00     0.316 C 
ATOM      8  O   UNL A   1      31.649  30.716  25.895  1.00  0.00    -0.251 OA
BRANCH   7   9
ATOM      9  C   UNL A   1      33.764  29.905  26.639  1.00  0.00     0.200 C 
BRANCH   9  10
ATOM     10  S   UNL A   1      33.491  28.147  26.574  1.00  0.00    -0.074 SA
BRANCH  10  11
ATOM     11  C   UNL A   1      33.595  27.486  24.957  1.00  0.00     0.191 A 
ATOM     12  C   UNL A   1      32.831  26.526  23.129  1.00  0.00     0.133 A 
ATOM     13  N   UNL A   1      33.272  27.721  22.805  1.00  0.00    -0.134 NA
ATOM     14  N   UNL A   1      33.245  26.253  24.438  1.00  0.00    -0.303 N 
ATOM     15  N   UNL A   1      33.757  28.313  23.941  1.00  0.00    -0.123 NA
BRANCH  12  16
ATOM     16  C   UNL A   1      31.919  25.655  22.307  1.00  0.00     0.077 C 
BRANCH  16  17
ATOM     17  C   UNL A   1      31.814  26.011  20.815  1.00  0.00     0.005 C 
ATOM     18  C   UNL A   1      32.772  25.254  19.913  1.00  0.00     0.004 C 
ENDBRANCH  16  17
ENDBRANCH  12  16
BRANCH  14  19
ATOM     19  C   UNL A   1      33.127  24.959  25.070  1.00  0.00     0.158 C 
BRANCH  19  20
ATOM     20  C   UNL A   1      31.778  24.622  25.715  1.00  0.00     0.138 C 
ATOM     21  C   UNL A   1      30.966  23.531  25.042  1.00  0.00     0.036 C 
ATOM     22  O   UNL A   1      32.049  24.124  27.041  1.00  0.00    -0.376 OA
ATOM     23  C   UNL A   1      31.378  22.248  25.730  1.00  0.00     0.031 C 
ATOM     24  C   UNL A   1      31.993  22.690  27.038  1.00  0.00     0.160 C 
ENDBRANCH  19  20
ENDBRANCH  14  19
ENDBRANCH  10  11
ENDBRANCH   9  10
ENDBRANCH   7   9
ENDBRANCH   6   7
ENDBRANCH   5   6
ENDBRANCH   4   5
ENDBRANCH   3   4
ENDBRANCH   2   3
ENDBRANCH   1   2
BRANCH   1  25
ATOM     25  O   UNL A   1      32.858  37.080  31.799  1.00  0.00    -0.377 OA
BRANCH  25  26
ATOM     26  C   UNL A   1      34.015  37.153  32.593  1.00  0.00     0.188 C 
BRANCH  26  27
ATOM     27  C   UNL A   1      34.772  35.890  32.990  1.00  0.00     0.188 C 
BRANCH  27  28
ATOM     28  O   UNL A   1      34.126  34.788  33.630  1.00  0.00    -0.376 OA
BRANCH  28  29
ATOM     29  C   UNL A   1      34.417  33.441  33.281  1.00  0.00     0.202 C 
BRANCH  29  30
ATOM     30  C   UNL A   1      35.360  33.266  32.102  1.00  0.00     0.261 C 
BRANCH  30  31
ATOM     31  O   UNL A   1      35.141  31.962  31.602  1.00  0.00    -0.460 OA
BRANCH  31  32
ATOM     32  C   UNL A   1      36.272  31.240  31.557  1.00  0.00     0.338 C 
ATOM     33  O   UNL A   1      36.922  30.828  32.516  1.00  0.00    -0.246 OA
BRANCH  32  34
ATOM     34  C   UNL A   1      36.667  31.080  30.142  1.00  0.00     0.060 A 
ATOM     35  C   UNL A   1      36.499  29.758  29.768  1.00  0.00     0.016 A 
ATOM     36  C   UNL A   1      37.764  31.853  29.713  1.00  0.00     0.016 A 
ATOM     37  C   UNL A   1      37.664  29.072  29.607  1.00  0.00     0.010 A 
ATOM     38  C   UNL A   1      38.930  31.176  29.504  1.00  0.00     0.010 A 
ATOM     39  C   UNL A   1      38.869  29.795  29.612  1.00  0.00    -0.014 A 
BRANCH  39  40
ATOM     40  C   UNL A   1      40.077  29.024  29.620  1.00  0.00     0.031 A 
ATOM     41  C   UNL A   1      40.585  28.900  30.991  1.00  0.00     0.074 A 
ATOM     42  C   UNL A   1      40.635  28.526  28.507  1.00  0.00     0.049 A 
ATOM     43  N   UNL A   1      41.567  29.555  31.504  1.00  0.00    -0.248 NA
ATOM     44  C   UNL A   1      39.723  28.215  31.966  1.00  0.00     0.031 C 
ATOM     45  C   UNL A   1      40.109  28.426  27.147  1.00  0.00     0.029 A 
ATOM     46  N   UNL A   1      41.840  27.907  28.425  1.00  0.00    -0.354 N 
ATOM     47  C   UNL A   1      41.561  29.219  32.847  1.00  0.00     0.074 A 
ATOM     48  C   UNL A   1      40.292  28.595  33.108  1.00  0.00     0.031 C 
ATOM     49  C   UNL A   1      40.885  27.570  26.439  1.00  0.00     0.029 A 
ATOM     50  C   UNL A   1      42.016  27.176  27.259  1.00  0.00     0.049 A 
ATOM     51  H   UNL A   1      42.525  27.972  29.129  1.00  0.00     0.167 HD
ATOM     52  C   UNL A   1      42.710  29.249  33.570  1.00  0.00     0.037 A 
ATOM     53  C   UNL A   1      42.965  26.214  27.133  1.00  0.00     0.037 A 
ATOM     54  C   UNL A   1      43.723  30.024  32.899  1.00  0.00     0.049 A 
ATOM     55  C   UNL A   1      44.024  26.529  28.148  1.00  0.00     0.074 A 
ATOM     56  C   UNL A   1      43.835  31.357  32.550  1.00  0.00     0.029 A 
ATOM     57  N   UNL A   1      44.628  29.351  32.110  1.00  0.00    -0.354 N 
ATOM     58  N   UNL A   1      44.776  27.598  28.084  1.00  0.00    -0.248 NA
ATOM     59  C   UNL A   1      43.873  25.959  29.485  1.00  0.00     0.031 C 
ATOM     60  C   UNL A   1      44.442  31.355  31.261  1.00  0.00     0.029 A 
ATOM     61  C   UNL A   1      44.735  30.034  30.923  1.00  0.00     0.049 A 
ATOM     62  H   UNL A   1      45.110  28.528  32.352  1.00  0.00     0.167 HD
ATOM     63  C   UNL A   1      44.844  28.071  29.390  1.00  0.00     0.074 A 
ATOM     64  C   UNL A   1      44.310  26.991  30.218  1.00  0.00     0.031 C 
ATOM     65  C   UNL A   1      45.034  29.397  29.659  1.00  0.00     0.037 A 
BRANCH  52  66
ATOM     66  C   UNL A   1      43.017  28.270  34.666  1.00  0.00     0.064 A 
ATOM     67  C   UNL A   1      43.381  28.765  35.930  1.00  0.00     0.173 A 
ATOM     68  C   UNL A   1      43.249  26.891  34.458  1.00  0.00     0.173 A 
ATOM     69  F   UNL A   1      43.211  30.061  36.231  1.00  0.00    -0.203 F 
ATOM     70  C   UNL A   1      44.009  27.957  36.880  1.00  0.00     0.198 A 
ATOM     71  C   UNL A   1      43.821  26.076  35.428  1.00  0.00     0.198 A 
ATOM     72  F   UNL A   1      43.043  26.292  33.280  1.00  0.00    -0.203 F 
ATOM     73  F   UNL A   1      44.454  28.500  38.020  1.00  0.00    -0.200 F 
ATOM     74  C   UNL A   1      44.234  26.616  36.625  1.00  0.00     0.200 A 
ATOM     75  F   UNL A   1      44.042  24.784  35.153  1.00  0.00    -0.200 F 
ATOM     76  F   UNL A   1      44.893  25.855  37.508  1.00  0.00    -0.200 F 
ENDBRANCH  52  66
BRANCH  53  77
ATOM     77  C   UNL A   1      42.772  24.866  26.542  1.00  0.00     0.064 A 
ATOM     78  C   UNL A   1      43.531  24.442  25.439  1.00  0.00     0.173 A 
ATOM     79  C   UNL A   1      42.019  23.867  27.196  1.00  0.00     0.173 A 
ATOM     80  F   UNL A   1      44.315  25.313  24.787  1.00  0.00    -0.203 F 
ATOM     81  C   UNL A   1      43.549  23.103  25.030  1.00  0.00     0.198 A 
ATOM     82  C   UNL A   1      42.031  22.536  26.783  1.00  0.00     0.198 A 
ATOM     83  F   UNL A   1      41.326  24.139  28.310  1.00  0.00    -0.203 F 
ATOM     84  F   UNL A   1      44.331  22.725  24.009  1.00  0.00    -0.200 F 
ATOM     85  C   UNL A   1      42.806  22.150  25.707  1.00  0.00     0.200 A 
ATOM     86  F   UNL A   1      41.336  21.620  27.472  1.00  0.00    -0.200 F 
ATOM     87  F   UNL A   1      42.868  20.860  25.352  1.00  0.00    -0.200 F 
ENDBRANCH  53  77
BRANCH  65  88
ATOM     88  C   UNL A   1      45.353  30.312  28.507  1.00  0.00     0.064 A 
ATOM     89  C   UNL A   1      44.374  30.949  27.722  1.00  0.00     0.173 A 
ATOM     90  C   UNL A   1      46.684  30.694  28.302  1.00  0.00     0.173 A 
ATOM     91  F   UNL A   1      43.072  30.724  27.934  1.00  0.00    -0.203 F 
ATOM     92  C   UNL A   1      44.718  31.886  26.749  1.00  0.00     0.198 A 
ATOM     93  C   UNL A   1      47.023  31.659  27.357  1.00  0.00     0.198 A 
ATOM     94  F   UNL A   1      47.656  30.171  29.065  1.00  0.00    -0.203 F 
ATOM     95  F   UNL A   1      43.764  32.471  26.009  1.00  0.00    -0.200 F 
ATOM     96  C   UNL A   1      46.043  32.246  26.572  1.00  0.00     0.200 A 
ATOM     97  F   UNL A   1      48.301  32.045  27.229  1.00  0.00    -0.200 F 
ATOM     98  F   UNL A   1      46.373  33.181  25.670  1.00  0.00    -0.200 F 
ENDBRANCH  65  88
ENDBRANCH  39  40
ENDBRANCH  32  34
ENDBRANCH  31  32
ENDBRANCH  30  31
ENDBRANCH  29  30
ENDBRANCH  28  29
ENDBRANCH  27  28
ENDBRANCH  26  27
ENDBRANCH  25  26
ENDBRANCH   1  25
TORSDOF 26
ENDMDL
MODEL 2
REMARK VINA RESULT:      -9.6      3.403      9.500
REMARK SMILES CCCc1nnc(SCC(=O)OCCOCCOCCOCCOC(=O)c2ccc(-c3c4nc(c(-c5c(F)c(F)c(F)c(F)c5F)c5ccc([nH]5)c(-c5c(F)c(F)c(F)c(F)c5F)c5nc(c(-c6c(F)c(F)c(F)c(F)c6F)c6ccc3[nH]6)C=C5)C=C4)cc2)n1C[C@H]1CCCO1
REMARK SMILES IDX 17 1 16 2 15 3 14 4 13 5 12 6 10 7 11 8 9 9 8 10 7 11 4 12
REMARK SMILES IDX 5 13 90 14 6 15 3 16 2 17 1 18 91 19 92 20 93 21 96 22 94 23
REMARK SMILES IDX 95 24 18 25 19 26 20 27 21 28 22 29 23 30 24 31 25 32 26 33
REMARK SMILES IDX 27 34 28 35 89 36 29 37 88 38 30 39 31 40 32 41 82 42 33 43
REMARK SMILES IDX 87 44 81 45 83 46 34 47 86 48 80 49 79 50 35 52 67 53 47 54
REMARK SMILES IDX 66 55 48 56 51 57 65 58 84 59 49 60 50 61 64 63 85 64 52 65
REMARK SMILES IDX 36 66 37 67 45 68 38 69 39 70 43 71 46 72 40 73 41 74 44 75
REMARK SMILES IDX 42 76 68 77 69 78 77 79 70 80 71 81 75 82 78 83 72 84 73 85
REMARK SMILES IDX 76 86 74 87 53 88 54 89 62 90 55 91 56 92 60 93 63 94 57 95
REMARK SMILES IDX 58 96 61 97 59 98
REMARK H PARENT 83 51 51 62
REMARK Flexibility Score: inf
ROOT
ATOM      1  C   UNL A   1      33.555  21.124  26.456  1.00  0.00     0.188 C 
ENDROOT
BRANCH   1   2
ATOM      2  C   UNL A   1      32.441  21.846  25.742  1.00  0.00     0.188 C 
BRANCH   2   3
ATOM      3  O   UNL A   1      32.013  21.265  24.543  1.00  0.00    -0.376 OA
BRANCH   3   4
ATOM      4  C   UNL A   1      32.210  21.989  23.334  1.00  0.00     0.202 C 
BRANCH   4   5
ATOM      5  C   UNL A   1      33.586  22.562  22.908  1.00  0.00     0.261 C 
BRANCH   5   6
ATOM      6  O   UNL A   1      33.961  23.882  23.400  1.00  0.00    -0.463 OA
BRANCH   6   7
ATOM      7  C   UNL A   1      33.623  24.947  22.624  1.00  0.00     0.316 C 
ATOM      8  O   UNL A   1      33.371  24.841  21.424  1.00  0.00    -0.251 OA
BRANCH   7   9
ATOM      9  C   UNL A   1      33.623  26.326  23.271  1.00  0.00     0.200 C 
BRANCH   9  10
ATOM     10  S   UNL A   1      32.956  27.748  22.431  1.00  0.00    -0.074 SA
BRANCH  10  11
ATOM     11  C   UNL A   1      31.404  28.261  23.057  1.00  0.00     0.191 A 
ATOM     12  C   UNL A   1      29.798  29.698  23.506  1.00  0.00     0.133 A 
ATOM     13  N   UNL A   1      29.311  28.785  22.695  1.00  0.00    -0.134 NA
ATOM     14  N   UNL A   1      31.051  29.258  23.948  1.00  0.00    -0.303 N 
ATOM     15  N   UNL A   1      30.308  27.886  22.426  1.00  0.00    -0.123 NA
BRANCH  12  16
ATOM     16  C   UNL A   1      29.196  31.045  23.802  1.00  0.00     0.077 C 
BRANCH  16  17
ATOM     17  C   UNL A   1      28.242  31.604  22.735  1.00  0.00     0.005 C 
ATOM     18  C   UNL A   1      28.456  33.069  22.397  1.00  0.00     0.004 C 
ENDBRANCH  16  17
ENDBRANCH  12  16
BRANCH  14  19
ATOM     19  C   UNL A   1      31.803  29.891  25.007  1.00  0.00     0.158 C 
BRANCH  19  20
ATOM     20  C   UNL A   1      31.693  29.270  26.404  1.00  0.00     0.138 C 
ATOM     21  C   UNL A   1      31.388  27.784  26.455  1.00  0.00     0.036 C 
ATOM     22  O   UNL A   1      32.979  29.410  27.039  1.00  0.00    -0.376 OA
ATOM     23  C   UNL A   1      32.737  27.102  26.488  1.00  0.00     0.031 C 
ATOM     24  C   UNL A   1      33.701  28.174  26.944  1.00  0.00     0.160 C 
ENDBRANCH  19  20
ENDBRANCH  14  19
ENDBRANCH  10  11
ENDBRANCH   9  10
ENDBRANCH   7   9
ENDBRANCH   6   7
ENDBRANCH   5   6
ENDBRANCH   4   5
ENDBRANCH   3   4
ENDBRANCH   2   3
ENDBRANCH   1   2
BRANCH   1  25
ATOM     25  O   UNL A   1      34.889  21.238  26.041  1.00  0.00    -0.377 OA
BRANCH  25  26
ATOM     26  C   UNL A   1      35.485  20.393  25.090  1.00  0.00     0.188 C 
BRANCH  26  27
ATOM     27  C   UNL A   1      37.001  20.297  24.971  1.00  0.00     0.188 C 
BRANCH  27  28
ATOM     28  O   UNL A   1      37.815  21.439  24.700  1.00  0.00    -0.376 OA
BRANCH  28  29
ATOM     29  C   UNL A   1      38.227  22.330  25.730  1.00  0.00     0.202 C 
BRANCH  29  30
ATOM     30  C   UNL A   1      39.415  21.863  26.553  1.00  0.00     0.261 C 
BRANCH  30  31
ATOM     31  O   UNL A   1      40.466  22.771  26.293  1.00  0.00    -0.460 OA
BRANCH  31  32
ATOM     32  C   UNL A   1      40.471  23.802  27.153  1.00  0.00     0.338 C 
ATOM     33  O   UNL A   1      39.651  24.023  28.043  1.00  0.00    -0.246 OA
BRANCH  32  34
ATOM     34  C   UNL A   1      41.596  24.695  26.805  1.00  0.00     0.060 A 
ATOM     35  C   UNL A   1      42.400  24.870  27.918  1.00  0.00     0.016 A 
ATOM     36  C   UNL A   1      41.301  25.744  25.913  1.00  0.00     0.016 A 
ATOM     37  C   UNL A   1      42.305  26.104  28.486  1.00  0.00     0.010 A 
ATOM     38  C   UNL A   1      41.245  26.995  26.455  1.00  0.00     0.010 A 
ATOM     39  C   UNL A   1      41.608  27.106  27.789  1.00  0.00    -0.014 A 
BRANCH  39  40
ATOM     40  C   UNL A   1      41.378  28.332  28.493  1.00  0.00     0.031 A 
ATOM     41  C   UNL A   1      42.463  29.281  28.218  1.00  0.00     0.074 A 
ATOM     42  C   UNL A   1      40.320  28.530  29.292  1.00  0.00     0.049 A 
ATOM     43  N   UNL A   1      43.441  29.573  29.003  1.00  0.00    -0.248 NA
ATOM     44  C   UNL A   1      42.645  29.705  26.822  1.00  0.00     0.031 C 
ATOM     45  C   UNL A   1      39.105  27.736  29.469  1.00  0.00     0.029 A 
ATOM     46  N   UNL A   1      40.111  29.608  30.090  1.00  0.00    -0.354 N 
ATOM     47  C   UNL A   1      44.280  30.376  28.250  1.00  0.00     0.074 A 
ATOM     48  C   UNL A   1      43.868  30.230  26.881  1.00  0.00     0.031 C 
ATOM     49  C   UNL A   1      38.187  28.483  30.129  1.00  0.00     0.029 A 
ATOM     50  C   UNL A   1      38.799  29.739  30.523  1.00  0.00     0.049 A 
ATOM     51  H   UNL A   1      40.825  30.239  30.338  1.00  0.00     0.167 HD
ATOM     52  C   UNL A   1      45.075  31.297  28.852  1.00  0.00     0.037 A 
ATOM     53  C   UNL A   1      38.301  30.903  31.013  1.00  0.00     0.037 A 
ATOM     54  C   UNL A   1      45.213  31.020  30.261  1.00  0.00     0.049 A 
ATOM     55  C   UNL A   1      39.478  31.692  31.505  1.00  0.00     0.074 A 
ATOM     56  C   UNL A   1      45.765  29.979  30.983  1.00  0.00     0.029 A 
ATOM     57  N   UNL A   1      44.366  31.672  31.127  1.00  0.00    -0.354 N 
ATOM     58  N   UNL A   1      40.214  31.316  32.520  1.00  0.00    -0.248 NA
ATOM     59  C   UNL A   1      40.145  32.580  30.556  1.00  0.00     0.031 C 
ATOM     60  C   UNL A   1      44.877  29.774  32.079  1.00  0.00     0.029 A 
ATOM     61  C   UNL A   1      43.875  30.742  32.011  1.00  0.00     0.049 A 
ATOM     62  H   UNL A   1      44.149  32.632  31.115  1.00  0.00     0.167 HD
ATOM     63  C   UNL A   1      41.525  31.564  32.129  1.00  0.00     0.074 A 
ATOM     64  C   UNL A   1      41.416  32.392  30.928  1.00  0.00     0.031 C 
ATOM     65  C   UNL A   1      42.568  30.832  32.622  1.00  0.00     0.037 A 
BRANCH  52  66
ATOM     66  C   UNL A   1      45.395  32.631  28.243  1.00  0.00     0.064 A 
ATOM     67  C   UNL A   1      44.334  33.480  27.884  1.00  0.00     0.173 A 
ATOM     68  C   UNL A   1      46.665  32.991  27.738  1.00  0.00     0.173 A 
ATOM     69  F   UNL A   1      43.085  33.227  28.302  1.00  0.00    -0.203 F 
ATOM     70  C   UNL A   1      44.520  34.556  27.013  1.00  0.00     0.198 A 
ATOM     71  C   UNL A   1      46.856  34.097  26.919  1.00  0.00     0.198 A 
ATOM     72  F   UNL A   1      47.754  32.234  27.914  1.00  0.00    -0.203 F 
ATOM     73  F   UNL A   1      43.460  35.260  26.596  1.00  0.00    -0.200 F 
ATOM     74  C   UNL A   1      45.778  34.858  26.526  1.00  0.00     0.200 A 
ATOM     75  F   UNL A   1      48.083  34.362  26.448  1.00  0.00    -0.200 F 
ATOM     76  F   UNL A   1      45.948  35.849  25.643  1.00  0.00    -0.200 F 
ENDBRANCH  52  66
BRANCH  53  77
ATOM     77  C   UNL A   1      36.995  31.513  30.660  1.00  0.00     0.064 A 
ATOM     78  C   UNL A   1      36.046  31.817  31.650  1.00  0.00     0.173 A 
ATOM     79  C   UNL A   1      36.744  32.045  29.377  1.00  0.00     0.173 A 
ATOM     80  F   UNL A   1      36.228  31.395  32.910  1.00  0.00    -0.203 F 
ATOM     81  C   UNL A   1      34.929  32.616  31.376  1.00  0.00     0.198 A 
ATOM     82  C   UNL A   1      35.628  32.834  29.104  1.00  0.00     0.198 A 
ATOM     83  F   UNL A   1      37.624  31.892  28.379  1.00  0.00    -0.203 F 
ATOM     84  F   UNL A   1      34.076  32.933  32.360  1.00  0.00    -0.200 F 
ATOM     85  C   UNL A   1      34.726  33.130  30.106  1.00  0.00     0.200 A 
ATOM     86  F   UNL A   1      35.466  33.354  27.879  1.00  0.00    -0.200 F 
ATOM     87  F   UNL A   1      33.689  33.942  29.858  1.00  0.00    -0.200 F 
ENDBRANCH  53  77
BRANCH  65  88
ATOM     88  C   UNL A   1      42.284  29.867  33.743  1.00  0.00     0.064 A 
ATOM     89  C   UNL A   1      41.845  28.545  33.542  1.00  0.00     0.173 A 
ATOM     90  C   UNL A   1      42.634  30.233  35.048  1.00  0.00     0.173 A 
ATOM     91  F   UNL A   1      41.600  28.083  32.310  1.00  0.00    -0.203 F 
ATOM     92  C   UNL A   1      41.720  27.651  34.604  1.00  0.00     0.198 A 
ATOM     93  C   UNL A   1      42.545  29.327  36.102  1.00  0.00     0.198 A 
ATOM     94  F   UNL A   1      43.122  31.459  35.292  1.00  0.00    -0.203 F 
ATOM     95  F   UNL A   1      41.290  26.399  34.384  1.00  0.00    -0.200 F 
ATOM     96  C   UNL A   1      42.077  28.041  35.883  1.00  0.00     0.200 A 
ATOM     97  F   UNL A   1      42.946  29.692  37.328  1.00  0.00    -0.200 F 
ATOM     98  F   UNL A   1      42.002  27.170  36.899  1.00  0.00    -0.200 F 
ENDBRANCH  65  88
ENDBRANCH  39  40
ENDBRANCH  32  34
ENDBRANCH  31  32
ENDBRANCH  30  31
ENDBRANCH  29  30
ENDBRANCH  28  29
ENDBRANCH  27  28
ENDBRANCH  26  27
ENDBRANCH  25  26
ENDBRANCH   1  25
TORSDOF 26
ENDMDL
MODEL 3
REMARK VINA RESULT:      -9.4      4.346      9.131
REMARK SMILES CCCc1nnc(SCC(=O)OCCOCCOCCOCCOC(=O)c2ccc(-c3c4nc(c(-c5c(F)c(F)c(F)c(F)c5F)c5ccc([nH]5)c(-c5c(F)c(F)c(F)c(F)c5F)c5nc(c(-c6c(F)c(F)c(F)c(F)c6F)c6ccc3[nH]6)C=C5)C=C4)cc2)n1C[C@H]1CCCO1
REMARK SMILES IDX 17 1 16 2 15 3 14 4 13 5 12 6 10 7 11 8 9 9 8 10 7 11 4 12
REMARK SMILES IDX 5 13 90 14 6 15 3 16 2 17 1 18 91 19 92 20 93 21 96 22 94 23
REMARK SMILES IDX 95 24 18 25 19 26 20 27 21 28 22 29 23 30 24 31 25 32 26 33
REMARK SMILES IDX 27 34 28 35 89 36 29 37 88 38 30 39 31 40 32 41 82 42 33 43
REMARK SMILES IDX 87 44 81 45 83 46 34 47 86 48 80 49 79 50 35 52 67 53 47 54
REMARK SMILES IDX 66 55 48 56 51 57 65 58 84 59 49 60 50 61 64 63 85 64 52 65
REMARK SMILES IDX 36 66 37 67 45 68 38 69 39 70 43 71 46 72 40 73 41 74 44 75
REMARK SMILES IDX 42 76 68 77 69 78 77 79 70 80 71 81 75 82 78 83 72 84 73 85
REMARK SMILES IDX 76 86 74 87 53 88 54 89 62 90 55 91 56 92 60 93 63 94 57 95
REMARK SMILES IDX 58 96 61 97 59 98
REMARK H PARENT 83 51 51 62
REMARK Flexibility Score: inf
ROOT
ATOM      1  C   UNL A   1      39.590  21.457  26.428  1.00  0.00     0.188 C 
ENDROOT
BRANCH   1   2
ATOM      2  C   UNL A   1      38.440  22.158  25.749  1.00  0.00     0.188 C 
BRANCH   2   3
ATOM      3  O   UNL A   1      37.755  21.405  24.788  1.00  0.00    -0.376 OA
BRANCH   3   4
ATOM      4  C   UNL A   1      36.335  21.474  24.764  1.00  0.00     0.202 C 
BRANCH   4   5
ATOM      5  C   UNL A   1      35.424  20.276  25.141  1.00  0.00     0.261 C 
BRANCH   5   6
ATOM      6  O   UNL A   1      34.177  20.107  24.406  1.00  0.00    -0.463 OA
BRANCH   6   7
ATOM      7  C   UNL A   1      33.023  20.286  25.104  1.00  0.00     0.316 C 
ATOM      8  O   UNL A   1      32.168  19.406  25.211  1.00  0.00    -0.251 OA
BRANCH   7   9
ATOM      9  C   UNL A   1      32.769  21.657  25.717  1.00  0.00     0.200 C 
BRANCH   9  10
ATOM     10  S   UNL A   1      31.177  22.447  25.602  1.00  0.00    -0.074 SA
BRANCH  10  11
ATOM     11  C   UNL A   1      31.208  24.142  26.036  1.00  0.00     0.191 A 
ATOM     12  C   UNL A   1      31.002  26.306  25.690  1.00  0.00     0.133 A 
ATOM     13  N   UNL A   1      30.127  25.958  26.606  1.00  0.00    -0.134 NA
ATOM     14  N   UNL A   1      31.868  25.226  25.486  1.00  0.00    -0.303 N 
ATOM     15  N   UNL A   1      30.264  24.613  26.829  1.00  0.00    -0.123 NA
BRANCH  12  16
ATOM     16  C   UNL A   1      30.999  27.580  24.888  1.00  0.00     0.077 C 
BRANCH  16  17
ATOM     17  C   UNL A   1      29.874  27.719  23.850  1.00  0.00     0.005 C 
ATOM     18  C   UNL A   1      30.088  28.819  22.826  1.00  0.00     0.004 C 
ENDBRANCH  16  17
ENDBRANCH  12  16
BRANCH  14  19
ATOM     19  C   UNL A   1      33.081  25.297  24.705  1.00  0.00     0.158 C 
BRANCH  19  20
ATOM     20  C   UNL A   1      33.076  24.586  23.347  1.00  0.00     0.138 C 
ATOM     21  C   UNL A   1      31.760  24.597  22.590  1.00  0.00     0.036 C 
ATOM     22  O   UNL A   1      34.005  25.283  22.493  1.00  0.00    -0.376 OA
ATOM     23  C   UNL A   1      31.819  25.827  21.710  1.00  0.00     0.031 C 
ATOM     24  C   UNL A   1      33.288  26.170  21.623  1.00  0.00     0.160 C 
ENDBRANCH  19  20
ENDBRANCH  14  19
ENDBRANCH  10  11
ENDBRANCH   9  10
ENDBRANCH   7   9
ENDBRANCH   6   7
ENDBRANCH   5   6
ENDBRANCH   4   5
ENDBRANCH   3   4
ENDBRANCH   2   3
ENDBRANCH   1   2
BRANCH   1  25
ATOM     25  O   UNL A   1      40.746  22.149  26.815  1.00  0.00    -0.377 OA
BRANCH  25  26
ATOM     26  C   UNL A   1      41.824  22.409  25.952  1.00  0.00     0.188 C 
BRANCH  26  27
ATOM     27  C   UNL A   1      43.258  22.133  26.389  1.00  0.00     0.188 C 
BRANCH  27  28
ATOM     28  O   UNL A   1      44.340  22.993  26.026  1.00  0.00    -0.376 OA
BRANCH  28  29
ATOM     29  C   UNL A   1      44.343  24.376  26.356  1.00  0.00     0.202 C 
BRANCH  29  30
ATOM     30  C   UNL A   1      44.089  25.320  25.193  1.00  0.00     0.261 C 
BRANCH  30  31
ATOM     31  O   UNL A   1      42.766  25.793  25.341  1.00  0.00    -0.460 OA
BRANCH  31  32
ATOM     32  C   UNL A   1      42.726  27.078  25.730  1.00  0.00     0.338 C 
ATOM     33  O   UNL A   1      43.688  27.817  25.927  1.00  0.00    -0.246 OA
BRANCH  32  34
ATOM     34  C   UNL A   1      41.316  27.451  25.965  1.00  0.00     0.060 A 
ATOM     35  C   UNL A   1      41.196  28.828  25.925  1.00  0.00     0.016 A 
ATOM     36  C   UNL A   1      40.612  26.657  26.892  1.00  0.00     0.016 A 
ATOM     37  C   UNL A   1      40.986  29.405  27.141  1.00  0.00     0.010 A 
ATOM     38  C   UNL A   1      40.352  27.233  28.101  1.00  0.00     0.010 A 
ATOM     39  C   UNL A   1      40.697  28.570  28.234  1.00  0.00    -0.014 A 
BRANCH  39  40
ATOM     40  C   UNL A   1      40.659  29.194  29.523  1.00  0.00     0.031 A 
ATOM     41  C   UNL A   1      39.477  30.057  29.629  1.00  0.00     0.074 A 
ATOM     42  C   UNL A   1      41.601  29.003  30.458  1.00  0.00     0.049 A 
ATOM     43  N   UNL A   1      39.457  31.341  29.538  1.00  0.00    -0.248 NA
ATOM     44  C   UNL A   1      38.162  29.410  29.510  1.00  0.00     0.031 C 
ATOM     45  C   UNL A   1      42.687  28.026  30.521  1.00  0.00     0.029 A 
ATOM     46  N   UNL A   1      41.699  29.661  31.640  1.00  0.00    -0.354 N 
ATOM     47  C   UNL A   1      38.115  31.682  29.536  1.00  0.00     0.074 A 
ATOM     48  C   UNL A   1      37.385  30.468  29.288  1.00  0.00     0.031 C 
ATOM     49  C   UNL A   1      43.176  27.997  31.784  1.00  0.00     0.029 A 
ATOM     50  C   UNL A   1      42.524  29.034  32.564  1.00  0.00     0.049 A 
ATOM     51  H   UNL A   1      41.228  30.506  31.825  1.00  0.00     0.167 HD
ATOM     52  C   UNL A   1      37.711  32.891  30.001  1.00  0.00     0.037 A 
ATOM     53  C   UNL A   1      42.483  29.312  33.891  1.00  0.00     0.037 A 
ATOM     54  C   UNL A   1      38.815  33.815  30.068  1.00  0.00     0.049 A 
ATOM     55  C   UNL A   1      41.899  30.689  34.017  1.00  0.00     0.074 A 
ATOM     56  C   UNL A   1      39.644  34.387  29.121  1.00  0.00     0.029 A 
ATOM     57  N   UNL A   1      39.472  33.943  31.271  1.00  0.00    -0.354 N 
ATOM     58  N   UNL A   1      42.507  31.762  33.581  1.00  0.00    -0.248 NA
ATOM     59  C   UNL A   1      40.447  30.803  34.126  1.00  0.00     0.031 C 
ATOM     60  C   UNL A   1      40.939  34.397  29.718  1.00  0.00     0.029 A 
ATOM     61  C   UNL A   1      40.821  33.902  31.016  1.00  0.00     0.049 A 
ATOM     62  H   UNL A   1      39.050  34.045  32.155  1.00  0.00     0.167 HD
ATOM     63  C   UNL A   1      41.512  32.520  32.972  1.00  0.00     0.074 A 
ATOM     64  C   UNL A   1      40.253  31.901  33.386  1.00  0.00     0.031 C 
ATOM     65  C   UNL A   1      41.795  33.381  31.950  1.00  0.00     0.037 A 
BRANCH  52  66
ATOM     66  C   UNL A   1      36.422  33.097  30.743  1.00  0.00     0.064 A 
ATOM     67  C   UNL A   1      35.411  33.863  30.138  1.00  0.00     0.173 A 
ATOM     68  C   UNL A   1      36.244  32.826  32.119  1.00  0.00     0.173 A 
ATOM     69  F   UNL A   1      35.484  34.186  28.838  1.00  0.00    -0.203 F 
ATOM     70  C   UNL A   1      34.349  34.389  30.877  1.00  0.00     0.198 A 
ATOM     71  C   UNL A   1      35.155  33.302  32.838  1.00  0.00     0.198 A 
ATOM     72  F   UNL A   1      37.163  32.190  32.855  1.00  0.00    -0.203 F 
ATOM     73  F   UNL A   1      33.479  35.219  30.287  1.00  0.00    -0.200 F 
ATOM     74  C   UNL A   1      34.226  34.114  32.226  1.00  0.00     0.200 A 
ATOM     75  F   UNL A   1      35.065  33.033  34.148  1.00  0.00    -0.200 F 
ATOM     76  F   UNL A   1      33.245  34.668  32.949  1.00  0.00    -0.200 F 
ENDBRANCH  52  66
BRANCH  53  77
ATOM     77  C   UNL A   1      42.483  28.318  34.994  1.00  0.00     0.064 A 
ATOM     78  C   UNL A   1      41.673  27.173  34.937  1.00  0.00     0.173 A 
ATOM     79  C   UNL A   1      43.462  28.335  36.010  1.00  0.00     0.173 A 
ATOM     80  F   UNL A   1      40.749  27.049  33.973  1.00  0.00    -0.203 F 
ATOM     81  C   UNL A   1      41.843  26.107  35.830  1.00  0.00     0.198 A 
ATOM     82  C   UNL A   1      43.626  27.277  36.903  1.00  0.00     0.198 A 
ATOM     83  F   UNL A   1      44.347  29.336  36.105  1.00  0.00    -0.203 F 
ATOM     84  F   UNL A   1      41.089  25.005  35.709  1.00  0.00    -0.200 F 
ATOM     85  C   UNL A   1      42.825  26.156  36.806  1.00  0.00     0.200 A 
ATOM     86  F   UNL A   1      44.605  27.325  37.818  1.00  0.00    -0.200 F 
ATOM     87  F   UNL A   1      43.026  25.113  37.622  1.00  0.00    -0.200 F 
ENDBRANCH  53  77
BRANCH  65  88
ATOM     88  C   UNL A   1      43.242  33.630  31.618  1.00  0.00     0.064 A 
ATOM     89  C   UNL A   1      44.053  34.551  32.306  1.00  0.00     0.173 A 
ATOM     90  C   UNL A   1      43.874  32.787  30.697  1.00  0.00     0.173 A 
ATOM     91  F   UNL A   1      43.548  35.313  33.284  1.00  0.00    -0.203 F 
ATOM     92  C   UNL A   1      45.419  34.654  32.048  1.00  0.00     0.198 A 
ATOM     93  C   UNL A   1      45.245  32.863  30.467  1.00  0.00     0.198 A 
ATOM     94  F   UNL A   1      43.166  31.843  30.057  1.00  0.00    -0.203 F 
ATOM     95  F   UNL A   1      46.165  35.548  32.713  1.00  0.00    -0.200 F 
ATOM     96  C   UNL A   1      46.016  33.803  31.132  1.00  0.00     0.200 A 
ATOM     97  F   UNL A   1      45.827  32.000  29.622  1.00  0.00    -0.200 F 
ATOM     98  F   UNL A   1      47.336  33.868  30.915  1.00  0.00    -0.200 F 
ENDBRANCH  65  88
ENDBRANCH  39  40
ENDBRANCH  32  34
ENDBRANCH  31  32
ENDBRANCH  30  31
ENDBRANCH  29  30
ENDBRANCH  28  29
ENDBRANCH  27  28
ENDBRANCH  26  27
ENDBRANCH  25  26
ENDBRANCH   1  25
TORSDOF 26
ENDMDL
