MODEL 1
REMARK VINA RESULT:     -10.9      0.000      0.000
REMARK SMILES Cc1[nH]cnc1C[NH+]1CCC(Oc2cccc(F)c2)(C(=O)OCCOCCOCCOCCOC(=O)c2ccc(-c3c4nc(c(-c5c(F)c(F)c(F)c(F)c5F)c5ccc([nH]5)c(-c5c(F)c(F)c(F)c(F)c5F)c5nc(c(-c6c(F)c(F)c(F)c(F)c6F)c6ccc3[nH]6)C=C5)C=C4)cc2)CC1
REMARK SMILES IDX 28 1 27 2 26 3 25 4 24 5 23 6 22 7 20 8 21 9 11 10 8 11 9 12
REMARK SMILES IDX 101 13 10 15 100 16 7 17 6 18 1 19 2 20 3 21 4 22 5 24 12 25
REMARK SMILES IDX 13 26 14 27 19 28 15 29 17 30 16 31 18 32 29 33 30 34 31 35
REMARK SMILES IDX 32 36 33 37 34 38 35 39 36 40 37 41 38 42 99 43 39 44 98 45
REMARK SMILES IDX 40 46 41 47 42 48 92 49 43 50 97 51 91 52 93 53 44 54 96 55
REMARK SMILES IDX 90 56 89 57 45 59 77 60 57 61 76 62 58 63 61 64 75 65 94 66
REMARK SMILES IDX 59 67 60 68 74 70 95 71 62 72 46 73 47 74 55 75 48 76 49 77
REMARK SMILES IDX 53 78 56 79 50 80 51 81 54 82 52 83 78 84 79 85 87 86 80 87
REMARK SMILES IDX 81 88 85 89 88 90 82 91 83 92 86 93 84 94 63 95 64 96 72 97
REMARK SMILES IDX 65 98 66 99 70 100 73 101 67 102 68 103 71 104 69 105
REMARK H PARENT 8 14 3 23 93 58 61 69
REMARK Flexibility Score: inf
ROOT
ATOM      1  O   UNL A   1      34.150  20.782  24.621  1.00  0.00    -0.377 OA
ENDROOT
BRANCH   1   2
ATOM      2  C   UNL A   1      32.819  21.140  24.966  1.00  0.00     0.188 C 
BRANCH   2   3
ATOM      3  C   UNL A   1      32.257  22.511  24.615  1.00  0.00     0.188 C 
BRANCH   3   4
ATOM      4  O   UNL A   1      33.030  23.649  24.910  1.00  0.00    -0.376 OA
BRANCH   4   5
ATOM      5  C   UNL A   1      33.636  24.355  23.837  1.00  0.00     0.202 C 
BRANCH   5   6
ATOM      6  C   UNL A   1      33.116  24.251  22.386  1.00  0.00     0.261 C 
BRANCH   6   7
ATOM      7  O   UNL A   1      32.267  25.322  21.892  1.00  0.00    -0.460 OA
BRANCH   7   8
ATOM      8  C   UNL A   1      31.317  25.797  22.748  1.00  0.00     0.351 C 
ATOM      9  O   UNL A   1      30.373  25.100  23.122  1.00  0.00    -0.247 OA
BRANCH   8  10
ATOM     10  C   UNL A   1      31.451  27.299  23.143  1.00  0.00     0.216 C 
ATOM     11  N   UNL A   1      33.105  28.071  25.512  1.00  0.00    -0.330 N 
ATOM     12  C   UNL A   1      33.749  28.114  24.210  1.00  0.00     0.267 C 
ATOM     13  C   UNL A   1      32.002  27.131  25.639  1.00  0.00     0.267 C 
ATOM     14  H   UNL A   1      32.626  28.971  25.553  1.00  0.00     0.348 HD
ATOM     15  C   UNL A   1      32.810  28.021  22.987  1.00  0.00     0.122 C 
ATOM     16  C   UNL A   1      30.928  27.453  24.593  1.00  0.00     0.122 C 
BRANCH  11  17
ATOM     17  C   UNL A   1      34.026  28.129  26.669  1.00  0.00     0.321 C 
BRANCH  17  18
ATOM     18  C   UNL A   1      34.347  29.486  27.261  1.00  0.00     0.115 A 
ATOM     19  C   UNL A   1      36.941  29.413  27.794  1.00  0.00     0.066 C 
ATOM     20  C   UNL A   1      35.581  29.990  27.673  1.00  0.00     0.040 A 
ATOM     21  N   UNL A   1      35.347  31.313  27.977  1.00  0.00    -0.348 N 
ATOM     22  C   UNL A   1      34.029  31.567  27.748  1.00  0.00     0.197 A 
ATOM     23  H   UNL A   1      36.015  31.960  28.302  1.00  0.00     0.167 HD
ATOM     24  N   UNL A   1      33.400  30.494  27.330  1.00  0.00    -0.236 NA
ENDBRANCH  17  18
ENDBRANCH  11  17
BRANCH  10  25
ATOM     25  O   UNL A   1      30.544  27.776  22.083  1.00  0.00    -0.475 OA
BRANCH  25  26
ATOM     26  C   UNL A   1      29.560  28.648  22.440  1.00  0.00     0.123 A 
ATOM     27  C   UNL A   1      29.727  30.019  22.239  1.00  0.00     0.047 A 
ATOM     28  C   UNL A   1      28.341  28.146  22.884  1.00  0.00     0.085 A 
ATOM     29  C   UNL A   1      28.712  30.906  22.593  1.00  0.00     0.007 A 
ATOM     30  C   UNL A   1      27.327  29.037  23.213  1.00  0.00     0.126 A 
ATOM     31  C   UNL A   1      27.508  30.412  23.092  1.00  0.00     0.039 A 
ATOM     32  F   UNL A   1      26.153  28.566  23.651  1.00  0.00    -0.207 F 
ENDBRANCH  25  26
ENDBRANCH  10  25
ENDBRANCH   8  10
ENDBRANCH   7   8
ENDBRANCH   6   7
ENDBRANCH   5   6
ENDBRANCH   4   5
ENDBRANCH   3   4
ENDBRANCH   2   3
ENDBRANCH   1   2
BRANCH   1  33
ATOM     33  C   UNL A   1      35.233  21.063  25.501  1.00  0.00     0.188 C 
BRANCH  33  34
ATOM     34  C   UNL A   1      36.638  20.890  24.940  1.00  0.00     0.188 C 
BRANCH  34  35
ATOM     35  O   UNL A   1      37.168  19.565  24.965  1.00  0.00    -0.376 OA
BRANCH  35  36
ATOM     36  C   UNL A   1      38.532  19.371  25.325  1.00  0.00     0.202 C 
BRANCH  36  37
ATOM     37  C   UNL A   1      39.154  20.657  25.843  1.00  0.00     0.261 C 
BRANCH  37  38
ATOM     38  O   UNL A   1      40.173  20.312  26.776  1.00  0.00    -0.460 OA
BRANCH  38  39
ATOM     39  C   UNL A   1      41.368  20.874  26.478  1.00  0.00     0.338 C 
ATOM     40  O   UNL A   1      42.226  20.461  25.727  1.00  0.00    -0.246 OA
BRANCH  39  41
ATOM     41  C   UNL A   1      41.384  22.201  27.105  1.00  0.00     0.060 A 
ATOM     42  C   UNL A   1      40.728  23.238  26.436  1.00  0.00     0.016 A 
ATOM     43  C   UNL A   1      42.071  22.420  28.305  1.00  0.00     0.016 A 
ATOM     44  C   UNL A   1      40.855  24.532  26.909  1.00  0.00     0.010 A 
ATOM     45  C   UNL A   1      42.211  23.717  28.772  1.00  0.00     0.010 A 
ATOM     46  C   UNL A   1      41.665  24.770  28.026  1.00  0.00    -0.014 A 
BRANCH  46  47
ATOM     47  C   UNL A   1      42.167  26.135  28.220  1.00  0.00     0.031 A 
ATOM     48  C   UNL A   1      43.483  26.482  27.586  1.00  0.00     0.074 A 
ATOM     49  C   UNL A   1      41.409  27.040  28.853  1.00  0.00     0.049 A 
ATOM     50  N   UNL A   1      44.122  27.620  27.577  1.00  0.00    -0.248 NA
ATOM     51  C   UNL A   1      44.172  25.402  26.854  1.00  0.00     0.031 C 
ATOM     52  C   UNL A   1      40.094  26.774  29.433  1.00  0.00     0.029 A 
ATOM     53  N   UNL A   1      41.630  28.365  29.097  1.00  0.00    -0.354 N 
ATOM     54  C   UNL A   1      45.279  27.391  26.844  1.00  0.00     0.074 A 
ATOM     55  C   UNL A   1      45.279  26.004  26.448  1.00  0.00     0.031 C 
ATOM     56  C   UNL A   1      39.619  27.911  29.966  1.00  0.00     0.029 A 
ATOM     57  C   UNL A   1      40.615  28.966  29.795  1.00  0.00     0.049 A 
ATOM     58  H   UNL A   1      42.440  28.842  28.802  1.00  0.00     0.167 HD
ATOM     59  C   UNL A   1      46.247  28.278  26.526  1.00  0.00     0.037 A 
ATOM     60  C   UNL A   1      40.525  30.227  30.251  1.00  0.00     0.037 A 
ATOM     61  C   UNL A   1      46.209  29.657  26.932  1.00  0.00     0.049 A 
ATOM     62  C   UNL A   1      41.646  31.179  29.932  1.00  0.00     0.074 A 
ATOM     63  C   UNL A   1      47.130  30.654  26.681  1.00  0.00     0.029 A 
ATOM     64  N   UNL A   1      45.185  30.226  27.679  1.00  0.00    -0.354 N 
ATOM     65  N   UNL A   1      42.746  30.962  29.247  1.00  0.00    -0.248 NA
ATOM     66  C   UNL A   1      41.515  32.550  30.436  1.00  0.00     0.031 C 
ATOM     67  C   UNL A   1      46.696  31.812  27.330  1.00  0.00     0.029 A 
ATOM     68  C   UNL A   1      45.465  31.559  27.918  1.00  0.00     0.049 A 
ATOM     69  H   UNL A   1      44.382  29.751  27.992  1.00  0.00     0.167 HD
ATOM     70  C   UNL A   1      43.422  32.172  29.211  1.00  0.00     0.074 A 
ATOM     71  C   UNL A   1      42.600  33.123  29.933  1.00  0.00     0.031 C 
ATOM     72  C   UNL A   1      44.613  32.475  28.635  1.00  0.00     0.037 A 
BRANCH  59  73
ATOM     73  C   UNL A   1      47.428  27.792  25.740  1.00  0.00     0.064 A 
ATOM     74  C   UNL A   1      48.597  27.392  26.401  1.00  0.00     0.173 A 
ATOM     75  C   UNL A   1      47.433  27.784  24.337  1.00  0.00     0.173 A 
ATOM     76  F   UNL A   1      48.641  27.370  27.742  1.00  0.00    -0.203 F 
ATOM     77  C   UNL A   1      49.739  27.033  25.690  1.00  0.00     0.198 A 
ATOM     78  C   UNL A   1      48.568  27.396  23.628  1.00  0.00     0.198 A 
ATOM     79  F   UNL A   1      46.332  28.132  23.653  1.00  0.00    -0.203 F 
ATOM     80  F   UNL A   1      50.857  26.694  26.347  1.00  0.00    -0.200 F 
ATOM     81  C   UNL A   1      49.723  27.035  24.304  1.00  0.00     0.200 A 
ATOM     82  F   UNL A   1      48.543  27.370  22.287  1.00  0.00    -0.200 F 
ATOM     83  F   UNL A   1      50.822  26.688  23.621  1.00  0.00    -0.200 F 
ENDBRANCH  59  73
BRANCH  60  84
ATOM     84  C   UNL A   1      39.338  30.637  31.044  1.00  0.00     0.064 A 
ATOM     85  C   UNL A   1      38.317  31.411  30.469  1.00  0.00     0.173 A 
ATOM     86  C   UNL A   1      39.214  30.301  32.398  1.00  0.00     0.173 A 
ATOM     87  F   UNL A   1      38.390  31.767  29.178  1.00  0.00    -0.203 F 
ATOM     88  C   UNL A   1      37.231  31.849  31.222  1.00  0.00     0.198 A 
ATOM     89  C   UNL A   1      38.110  30.712  33.143  1.00  0.00     0.198 A 
ATOM     90  F   UNL A   1      40.154  29.553  32.992  1.00  0.00    -0.203 F 
ATOM     91  F   UNL A   1      36.294  32.621  30.655  1.00  0.00    -0.200 F 
ATOM     92  C   UNL A   1      37.124  31.493  32.557  1.00  0.00     0.200 A 
ATOM     93  F   UNL A   1      37.998  30.347  34.428  1.00  0.00    -0.200 F 
ATOM     94  F   UNL A   1      36.072  31.902  33.279  1.00  0.00    -0.200 F 
ENDBRANCH  60  84
BRANCH  72  95
ATOM     95  C   UNL A   1      45.078  33.899  28.725  1.00  0.00     0.064 A 
ATOM     96  C   UNL A   1      44.664  34.837  27.765  1.00  0.00     0.173 A 
ATOM     97  C   UNL A   1      45.984  34.319  29.708  1.00  0.00     0.173 A 
ATOM     98  F   UNL A   1      43.810  34.479  26.794  1.00  0.00    -0.203 F 
ATOM     99  C   UNL A   1      45.151  36.139  27.781  1.00  0.00     0.198 A 
ATOM    100  C   UNL A   1      46.438  35.633  29.744  1.00  0.00     0.198 A 
ATOM    101  F   UNL A   1      46.403  33.461  30.651  1.00  0.00    -0.203 F 
ATOM    102  F   UNL A   1      44.775  37.004  26.829  1.00  0.00    -0.200 F 
ATOM    103  C   UNL A   1      46.030  36.539  28.775  1.00  0.00     0.200 A 
ATOM    104  F   UNL A   1      47.265  36.026  30.723  1.00  0.00    -0.200 F 
ATOM    105  F   UNL A   1      46.483  37.799  28.802  1.00  0.00    -0.200 F 
ENDBRANCH  72  95
ENDBRANCH  46  47
ENDBRANCH  39  41
ENDBRANCH  38  39
ENDBRANCH  37  38
ENDBRANCH  36  37
ENDBRANCH  35  36
ENDBRANCH  34  35
ENDBRANCH  33  34
ENDBRANCH   1  33
TORSDOF 24
ENDMDL
MODEL 2
REMARK VINA RESULT:     -10.7      3.975      9.208
REMARK SMILES Cc1[nH]cnc1C[NH+]1CCC(Oc2cccc(F)c2)(C(=O)OCCOCCOCCOCCOC(=O)c2ccc(-c3c4nc(c(-c5c(F)c(F)c(F)c(F)c5F)c5ccc([nH]5)c(-c5c(F)c(F)c(F)c(F)c5F)c5nc(c(-c6c(F)c(F)c(F)c(F)c6F)c6ccc3[nH]6)C=C5)C=C4)cc2)CC1
REMARK SMILES IDX 28 1 27 2 26 3 25 4 24 5 23 6 22 7 20 8 21 9 11 10 8 11 9 12
REMARK SMILES IDX 101 13 10 15 100 16 7 17 6 18 1 19 2 20 3 21 4 22 5 24 12 25
REMARK SMILES IDX 13 26 14 27 19 28 15 29 17 30 16 31 18 32 29 33 30 34 31 35
REMARK SMILES IDX 32 36 33 37 34 38 35 39 36 40 37 41 38 42 99 43 39 44 98 45
REMARK SMILES IDX 40 46 41 47 42 48 92 49 43 50 97 51 91 52 93 53 44 54 96 55
REMARK SMILES IDX 90 56 89 57 45 59 77 60 57 61 76 62 58 63 61 64 75 65 94 66
REMARK SMILES IDX 59 67 60 68 74 70 95 71 62 72 46 73 47 74 55 75 48 76 49 77
REMARK SMILES IDX 53 78 56 79 50 80 51 81 54 82 52 83 78 84 79 85 87 86 80 87
REMARK SMILES IDX 81 88 85 89 88 90 82 91 83 92 86 93 84 94 63 95 64 96 72 97
REMARK SMILES IDX 65 98 66 99 70 100 73 101 67 102 68 103 71 104 69 105
REMARK H PARENT 8 14 3 23 93 58 61 69
REMARK Flexibility Score: inf
ROOT
ATOM      1  O   UNL A   1      33.536  35.776  29.895  1.00  0.00    -0.377 OA
ENDROOT
BRANCH   1   2
ATOM      2  C   UNL A   1      33.895  34.407  30.010  1.00  0.00     0.188 C 
BRANCH   2   3
ATOM      3  C   UNL A   1      34.182  33.562  28.775  1.00  0.00     0.188 C 
BRANCH   3   4
ATOM      4  O   UNL A   1      34.579  32.224  28.955  1.00  0.00    -0.376 OA
BRANCH   4   5
ATOM      5  C   UNL A   1      34.896  31.451  27.807  1.00  0.00     0.202 C 
BRANCH   5   6
ATOM      6  C   UNL A   1      33.867  30.516  27.134  1.00  0.00     0.261 C 
BRANCH   6   7
ATOM      7  O   UNL A   1      34.346  29.253  26.599  1.00  0.00    -0.460 OA
BRANCH   7   8
ATOM      8  C   UNL A   1      33.460  28.215  26.589  1.00  0.00     0.351 C 
ATOM      9  O   UNL A   1      32.865  27.860  27.608  1.00  0.00    -0.247 OA
BRANCH   8  10
ATOM     10  C   UNL A   1      33.326  27.451  25.238  1.00  0.00     0.216 C 
ATOM     11  N   UNL A   1      31.543  28.531  23.092  1.00  0.00    -0.330 N 
ATOM     12  C   UNL A   1      32.951  28.881  23.023  1.00  0.00     0.267 C 
ATOM     13  C   UNL A   1      31.030  28.242  24.423  1.00  0.00     0.267 C 
ATOM     14  H   UNL A   1      31.520  27.612  22.650  1.00  0.00     0.348 HD
ATOM     15  C   UNL A   1      33.896  28.071  23.939  1.00  0.00     0.122 C 
ATOM     16  C   UNL A   1      31.831  27.093  25.046  1.00  0.00     0.122 C 
BRANCH  11  17
ATOM     17  C   UNL A   1      30.653  29.340  22.231  1.00  0.00     0.321 C 
BRANCH  17  18
ATOM     18  C   UNL A   1      29.210  29.515  22.655  1.00  0.00     0.115 A 
ATOM     19  C   UNL A   1      28.843  32.134  22.803  1.00  0.00     0.066 C 
ATOM     20  C   UNL A   1      28.488  30.694  22.837  1.00  0.00     0.040 A 
ATOM     21  N   UNL A   1      27.191  30.294  23.063  1.00  0.00    -0.348 N 
ATOM     22  C   UNL A   1      27.160  28.933  23.011  1.00  0.00     0.197 A 
ATOM     23  H   UNL A   1      26.422  30.886  23.231  1.00  0.00     0.167 HD
ATOM     24  N   UNL A   1      28.351  28.435  22.781  1.00  0.00    -0.236 NA
ENDBRANCH  17  18
ENDBRANCH  11  17
BRANCH  10  25
ATOM     25  O   UNL A   1      34.202  26.339  25.648  1.00  0.00    -0.475 OA
BRANCH  25  26
ATOM     26  C   UNL A   1      33.903  25.095  25.179  1.00  0.00     0.123 A 
ATOM     27  C   UNL A   1      34.138  24.772  23.842  1.00  0.00     0.047 A 
ATOM     28  C   UNL A   1      33.487  24.117  26.077  1.00  0.00     0.085 A 
ATOM     29  C   UNL A   1      33.844  23.493  23.370  1.00  0.00     0.007 A 
ATOM     30  C   UNL A   1      33.219  22.840  25.601  1.00  0.00     0.126 A 
ATOM     31  C   UNL A   1      33.373  22.524  24.254  1.00  0.00     0.039 A 
ATOM     32  F   UNL A   1      32.807  21.893  26.453  1.00  0.00    -0.207 F 
ENDBRANCH  25  26
ENDBRANCH  10  25
ENDBRANCH   8  10
ENDBRANCH   7   8
ENDBRANCH   6   7
ENDBRANCH   5   6
ENDBRANCH   4   5
ENDBRANCH   3   4
ENDBRANCH   2   3
ENDBRANCH   1   2
BRANCH   1  33
ATOM     33  C   UNL A   1      32.961  36.475  30.993  1.00  0.00     0.188 C 
BRANCH  33  34
ATOM     34  C   UNL A   1      33.200  35.895  32.381  1.00  0.00     0.188 C 
BRANCH  34  35
ATOM     35  O   UNL A   1      34.500  36.099  32.933  1.00  0.00    -0.376 OA
BRANCH  35  36
ATOM     36  C   UNL A   1      35.146  35.019  33.603  1.00  0.00     0.202 C 
BRANCH  36  37
ATOM     37  C   UNL A   1      36.326  34.501  32.800  1.00  0.00     0.261 C 
BRANCH  37  38
ATOM     38  O   UNL A   1      36.067  33.142  32.459  1.00  0.00    -0.460 OA
BRANCH  38  39
ATOM     39  C   UNL A   1      36.764  32.268  33.222  1.00  0.00     0.338 C 
ATOM     40  O   UNL A   1      36.720  32.120  34.426  1.00  0.00    -0.246 OA
BRANCH  39  41
ATOM     41  C   UNL A   1      37.484  31.378  32.304  1.00  0.00     0.060 A 
ATOM     42  C   UNL A   1      38.410  30.491  32.859  1.00  0.00     0.016 A 
ATOM     43  C   UNL A   1      37.277  31.455  30.922  1.00  0.00     0.016 A 
ATOM     44  C   UNL A   1      39.222  29.751  32.018  1.00  0.00     0.010 A 
ATOM     45  C   UNL A   1      38.099  30.725  30.078  1.00  0.00     0.010 A 
ATOM     46  C   UNL A   1      39.116  29.937  30.634  1.00  0.00    -0.014 A 
BRANCH  46  47
ATOM     47  C   UNL A   1      40.260  29.535  29.807  1.00  0.00     0.031 A 
ATOM     48  C   UNL A   1      41.366  30.534  29.628  1.00  0.00     0.074 A 
ATOM     49  C   UNL A   1      40.331  28.284  29.333  1.00  0.00     0.049 A 
ATOM     50  N   UNL A   1      42.493  30.412  28.981  1.00  0.00    -0.248 NA
ATOM     51  C   UNL A   1      41.184  31.848  30.272  1.00  0.00     0.031 C 
ATOM     52  C   UNL A   1      39.315  27.253  29.531  1.00  0.00     0.029 A 
ATOM     53  N   UNL A   1      41.308  27.668  28.604  1.00  0.00    -0.354 N 
ATOM     54  C   UNL A   1      43.146  31.627  29.140  1.00  0.00     0.074 A 
ATOM     55  C   UNL A   1      42.287  32.487  29.915  1.00  0.00     0.031 C 
ATOM     56  C   UNL A   1      39.726  26.121  28.938  1.00  0.00     0.029 A 
ATOM     57  C   UNL A   1      41.012  26.367  28.291  1.00  0.00     0.049 A 
ATOM     58  H   UNL A   1      42.142  28.115  28.330  1.00  0.00     0.167 HD
ATOM     59  C   UNL A   1      44.368  31.976  28.682  1.00  0.00     0.037 A 
ATOM     60  C   UNL A   1      41.709  25.490  27.546  1.00  0.00     0.037 A 
ATOM     61  C   UNL A   1      45.201  31.087  27.919  1.00  0.00     0.049 A 
ATOM     62  C   UNL A   1      43.041  25.927  26.998  1.00  0.00     0.074 A 
ATOM     63  C   UNL A   1      46.455  31.323  27.390  1.00  0.00     0.029 A 
ATOM     64  N   UNL A   1      44.853  29.786  27.578  1.00  0.00    -0.354 N 
ATOM     65  N   UNL A   1      43.657  27.079  27.141  1.00  0.00    -0.248 NA
ATOM     66  C   UNL A   1      43.782  24.946  26.199  1.00  0.00     0.031 C 
ATOM     67  C   UNL A   1      46.839  30.187  26.674  1.00  0.00     0.029 A 
ATOM     68  C   UNL A   1      45.861  29.214  26.824  1.00  0.00     0.049 A 
ATOM     69  H   UNL A   1      44.014  29.339  27.833  1.00  0.00     0.167 HD
ATOM     70  C   UNL A   1      44.868  26.953  26.476  1.00  0.00     0.074 A 
ATOM     71  C   UNL A   1      44.903  25.605  25.942  1.00  0.00     0.031 C 
ATOM     72  C   UNL A   1      45.861  27.863  26.318  1.00  0.00     0.037 A 
BRANCH  59  73
ATOM     73  C   UNL A   1      44.862  33.365  28.958  1.00  0.00     0.064 A 
ATOM     74  C   UNL A   1      45.429  33.676  30.202  1.00  0.00     0.173 A 
ATOM     75  C   UNL A   1      44.717  34.404  28.026  1.00  0.00     0.173 A 
ATOM     76  F   UNL A   1      45.601  32.717  31.125  1.00  0.00    -0.203 F 
ATOM     77  C   UNL A   1      45.802  34.980  30.517  1.00  0.00     0.198 A 
ATOM     78  C   UNL A   1      45.119  35.702  28.333  1.00  0.00     0.198 A 
ATOM     79  F   UNL A   1      44.206  34.156  26.810  1.00  0.00    -0.203 F 
ATOM     80  F   UNL A   1      46.303  35.257  31.728  1.00  0.00    -0.200 F 
ATOM     81  C   UNL A   1      45.647  35.991  29.582  1.00  0.00     0.200 A 
ATOM     82  F   UNL A   1      44.996  36.675  27.418  1.00  0.00    -0.200 F 
ATOM     83  F   UNL A   1      46.008  37.245  29.885  1.00  0.00    -0.200 F 
ENDBRANCH  59  73
BRANCH  60  84
ATOM     84  C   UNL A   1      41.152  24.138  27.292  1.00  0.00     0.064 A 
ATOM     85  C   UNL A   1      40.022  23.964  26.477  1.00  0.00     0.173 A 
ATOM     86  C   UNL A   1      41.707  22.996  27.886  1.00  0.00     0.173 A 
ATOM     87  F   UNL A   1      39.447  25.024  25.890  1.00  0.00    -0.203 F 
ATOM     88  C   UNL A   1      39.459  22.706  26.281  1.00  0.00     0.198 A 
ATOM     89  C   UNL A   1      41.161  21.734  27.663  1.00  0.00     0.198 A 
ATOM     90  F   UNL A   1      42.793  23.107  28.663  1.00  0.00    -0.203 F 
ATOM     91  F   UNL A   1      38.356  22.577  25.531  1.00  0.00    -0.200 F 
ATOM     92  C   UNL A   1      40.033  21.590  26.870  1.00  0.00     0.200 A 
ATOM     93  F   UNL A   1      41.733  20.654  28.215  1.00  0.00    -0.200 F 
ATOM     94  F   UNL A   1      39.500  20.377  26.671  1.00  0.00    -0.200 F 
ENDBRANCH  60  84
BRANCH  72  95
ATOM     95  C   UNL A   1      47.088  27.420  25.576  1.00  0.00     0.064 A 
ATOM     96  C   UNL A   1      48.150  26.817  26.268  1.00  0.00     0.173 A 
ATOM     97  C   UNL A   1      47.245  27.657  24.204  1.00  0.00     0.173 A 
ATOM     98  F   UNL A   1      48.055  26.584  27.586  1.00  0.00    -0.203 F 
ATOM     99  C   UNL A   1      49.330  26.479  25.613  1.00  0.00     0.198 A 
ATOM    100  C   UNL A   1      48.411  27.280  23.545  1.00  0.00     0.198 A 
ATOM    101  F   UNL A   1      46.256  28.225  23.498  1.00  0.00    -0.203 F 
ATOM    102  F   UNL A   1      50.346  25.944  26.303  1.00  0.00    -0.200 F 
ATOM    103  C   UNL A   1      49.456  26.702  24.251  1.00  0.00     0.200 A 
ATOM    104  F   UNL A   1      48.521  27.470  22.223  1.00  0.00    -0.200 F 
ATOM    105  F   UNL A   1      50.585  26.357  23.617  1.00  0.00    -0.200 F 
ENDBRANCH  72  95
ENDBRANCH  46  47
ENDBRANCH  39  41
ENDBRANCH  38  39
ENDBRANCH  37  38
ENDBRANCH  36  37
ENDBRANCH  35  36
ENDBRANCH  34  35
ENDBRANCH  33  34
ENDBRANCH   1  33
TORSDOF 24
ENDMDL
MODEL 3
REMARK VINA RESULT:     -10.7      3.833      9.000
REMARK SMILES Cc1[nH]cnc1C[NH+]1CCC(Oc2cccc(F)c2)(C(=O)OCCOCCOCCOCCOC(=O)c2ccc(-c3c4nc(c(-c5c(F)c(F)c(F)c(F)c5F)c5ccc([nH]5)c(-c5c(F)c(F)c(F)c(F)c5F)c5nc(c(-c6c(F)c(F)c(F)c(F)c6F)c6ccc3[nH]6)C=C5)C=C4)cc2)CC1
REMARK SMILES IDX 28 1 27 2 26 3 25 4 24 5 23 6 22 7 20 8 21 9 11 10 8 11 9 12
REMARK SMILES IDX 101 13 10 15 100 16 7 17 6 18 1 19 2 20 3 21 4 22 5 24 12 25
REMARK SMILES IDX 13 26 14 27 19 28 15 29 17 30 16 31 18 32 29 33 30 34 31 35
REMARK SMILES IDX 32 36 33 37 34 38 35 39 36 40 37 41 38 42 99 43 39 44 98 45
REMARK SMILES IDX 40 46 41 47 42 48 92 49 43 50 97 51 91 52 93 53 44 54 96 55
REMARK SMILES IDX 90 56 89 57 45 59 77 60 57 61 76 62 58 63 61 64 75 65 94 66
REMARK SMILES IDX 59 67 60 68 74 70 95 71 62 72 46 73 47 74 55 75 48 76 49 77
REMARK SMILES IDX 53 78 56 79 50 80 51 81 54 82 52 83 78 84 79 85 87 86 80 87
REMARK SMILES IDX 81 88 85 89 88 90 82 91 83 92 86 93 84 94 63 95 64 96 72 97
REMARK SMILES IDX 65 98 66 99 70 100 73 101 67 102 68 103 71 104 69 105
REMARK H PARENT 8 14 3 23 93 58 61 69
REMARK Flexibility Score: inf
ROOT
ATOM      1  O   UNL A   1      33.566  35.619  29.271  1.00  0.00    -0.377 OA
ENDROOT
BRANCH   1   2
ATOM      2  C   UNL A   1      34.035  34.298  29.492  1.00  0.00     0.188 C 
BRANCH   2   3
ATOM      3  C   UNL A   1      34.172  33.308  28.342  1.00  0.00     0.188 C 
BRANCH   3   4
ATOM      4  O   UNL A   1      34.705  32.034  28.612  1.00  0.00    -0.376 OA
BRANCH   4   5
ATOM      5  C   UNL A   1      34.647  31.045  27.595  1.00  0.00     0.202 C 
BRANCH   5   6
ATOM      6  C   UNL A   1      34.770  29.536  27.905  1.00  0.00     0.261 C 
BRANCH   6   7
ATOM      7  O   UNL A   1      34.416  28.597  26.854  1.00  0.00    -0.460 OA
BRANCH   7   8
ATOM      8  C   UNL A   1      33.106  28.224  26.780  1.00  0.00     0.351 C 
ATOM      9  O   UNL A   1      32.376  28.216  27.773  1.00  0.00    -0.247 OA
BRANCH   8  10
ATOM     10  C   UNL A   1      32.622  27.719  25.388  1.00  0.00     0.216 C 
ATOM     11  N   UNL A   1      32.377  24.783  24.874  1.00  0.00    -0.330 N 
ATOM     12  C   UNL A   1      31.177  25.484  25.297  1.00  0.00     0.267 C 
ATOM     13  C   UNL A   1      33.636  25.368  25.309  1.00  0.00     0.267 C 
ATOM     14  H   UNL A   1      32.395  24.957  23.869  1.00  0.00     0.348 HD
ATOM     15  C   UNL A   1      31.245  27.027  25.251  1.00  0.00     0.122 C 
ATOM     16  C   UNL A   1      33.734  26.813  24.804  1.00  0.00     0.122 C 
BRANCH  11  17
ATOM     17  C   UNL A   1      32.301  23.307  24.957  1.00  0.00     0.321 C 
BRANCH  17  18
ATOM     18  C   UNL A   1      33.179  22.600  25.969  1.00  0.00     0.115 A 
ATOM     19  C   UNL A   1      35.207  21.629  24.569  1.00  0.00     0.066 C 
ATOM     20  C   UNL A   1      34.399  21.956  25.769  1.00  0.00     0.040 A 
ATOM     21  N   UNL A   1      34.848  21.631  27.029  1.00  0.00    -0.348 N 
ATOM     22  C   UNL A   1      33.924  22.073  27.927  1.00  0.00     0.197 A 
ATOM     23  H   UNL A   1      35.688  21.162  27.243  1.00  0.00     0.167 HD
ATOM     24  N   UNL A   1      32.909  22.646  27.326  1.00  0.00    -0.236 NA
ENDBRANCH  17  18
ENDBRANCH  11  17
BRANCH  10  25
ATOM     25  O   UNL A   1      32.527  29.069  24.804  1.00  0.00    -0.475 OA
BRANCH  25  26
ATOM     26  C   UNL A   1      31.443  29.346  24.027  1.00  0.00     0.123 A 
ATOM     27  C   UNL A   1      31.203  28.612  22.865  1.00  0.00     0.047 A 
ATOM     28  C   UNL A   1      30.511  30.276  24.477  1.00  0.00     0.085 A 
ATOM     29  C   UNL A   1      30.085  28.890  22.082  1.00  0.00     0.007 A 
ATOM     30  C   UNL A   1      29.387  30.529  23.700  1.00  0.00     0.126 A 
ATOM     31  C   UNL A   1      29.176  29.861  22.497  1.00  0.00     0.039 A 
ATOM     32  F   UNL A   1      28.488  31.430  24.116  1.00  0.00    -0.207 F 
ENDBRANCH  25  26
ENDBRANCH  10  25
ENDBRANCH   8  10
ENDBRANCH   7   8
ENDBRANCH   6   7
ENDBRANCH   5   6
ENDBRANCH   4   5
ENDBRANCH   3   4
ENDBRANCH   2   3
ENDBRANCH   1   2
BRANCH   1  33
ATOM     33  C   UNL A   1      32.987  36.376  30.329  1.00  0.00     0.188 C 
BRANCH  33  34
ATOM     34  C   UNL A   1      33.071  35.780  31.728  1.00  0.00     0.188 C 
BRANCH  34  35
ATOM     35  O   UNL A   1      34.195  36.172  32.514  1.00  0.00    -0.376 OA
BRANCH  35  36
ATOM     36  C   UNL A   1      34.860  35.195  33.309  1.00  0.00     0.202 C 
BRANCH  36  37
ATOM     37  C   UNL A   1      36.086  34.648  32.598  1.00  0.00     0.261 C 
BRANCH  37  38
ATOM     38  O   UNL A   1      35.868  33.264  32.340  1.00  0.00    -0.460 OA
BRANCH  38  39
ATOM     39  C   UNL A   1      36.567  32.460  33.174  1.00  0.00     0.338 C 
ATOM     40  O   UNL A   1      36.491  32.382  34.382  1.00  0.00    -0.246 OA
BRANCH  39  41
ATOM     41  C   UNL A   1      37.339  31.539  32.332  1.00  0.00     0.060 A 
ATOM     42  C   UNL A   1      38.341  30.785  32.950  1.00  0.00     0.016 A 
ATOM     43  C   UNL A   1      37.106  31.460  30.954  1.00  0.00     0.016 A 
ATOM     44  C   UNL A   1      39.194  30.028  32.168  1.00  0.00     0.010 A 
ATOM     45  C   UNL A   1      37.969  30.713  30.167  1.00  0.00     0.010 A 
ATOM     46  C   UNL A   1      39.053  30.065  30.775  1.00  0.00    -0.014 A 
BRANCH  46  47
ATOM     47  C   UNL A   1      40.211  29.670  29.965  1.00  0.00     0.031 A 
ATOM     48  C   UNL A   1      41.307  30.681  29.789  1.00  0.00     0.074 A 
ATOM     49  C   UNL A   1      40.304  28.415  29.504  1.00  0.00     0.049 A 
ATOM     50  N   UNL A   1      42.442  30.568  29.156  1.00  0.00    -0.248 NA
ATOM     51  C   UNL A   1      41.100  31.999  30.418  1.00  0.00     0.031 C 
ATOM     52  C   UNL A   1      39.299  27.374  29.701  1.00  0.00     0.029 A 
ATOM     53  N   UNL A   1      41.297  27.805  28.793  1.00  0.00    -0.354 N 
ATOM     54  C   UNL A   1      43.078  31.793  29.311  1.00  0.00     0.074 A 
ATOM     55  C   UNL A   1      42.199  32.649  30.068  1.00  0.00     0.031 C 
ATOM     56  C   UNL A   1      39.731  26.241  29.123  1.00  0.00     0.029 A 
ATOM     57  C   UNL A   1      41.022  26.498  28.489  1.00  0.00     0.049 A 
ATOM     58  H   UNL A   1      42.128  28.260  28.524  1.00  0.00     0.167 HD
ATOM     59  C   UNL A   1      44.300  32.153  28.864  1.00  0.00     0.037 A 
ATOM     60  C   UNL A   1      41.739  25.623  27.761  1.00  0.00     0.037 A 
ATOM     61  C   UNL A   1      45.154  31.268  28.120  1.00  0.00     0.049 A 
ATOM     62  C   UNL A   1      43.072  26.072  27.225  1.00  0.00     0.074 A 
ATOM     63  C   UNL A   1      46.411  31.515  27.603  1.00  0.00     0.029 A 
ATOM     64  N   UNL A   1      44.827  29.960  27.787  1.00  0.00    -0.354 N 
ATOM     65  N   UNL A   1      43.671  27.233  27.363  1.00  0.00    -0.248 NA
ATOM     66  C   UNL A   1      43.834  25.093  26.443  1.00  0.00     0.031 C 
ATOM     67  C   UNL A   1      46.818  30.377  26.903  1.00  0.00     0.029 A 
ATOM     68  C   UNL A   1      45.851  29.393  27.051  1.00  0.00     0.049 A 
ATOM     69  H   UNL A   1      43.991  29.504  28.037  1.00  0.00     0.167 HD
ATOM     70  C   UNL A   1      44.891  27.116  26.714  1.00  0.00     0.074 A 
ATOM     71  C   UNL A   1      44.950  25.764  26.193  1.00  0.00     0.031 C 
ATOM     72  C   UNL A   1      45.874  28.038  26.559  1.00  0.00     0.037 A 
BRANCH  59  73
ATOM     73  C   UNL A   1      44.773  33.551  29.132  1.00  0.00     0.064 A 
ATOM     74  C   UNL A   1      44.492  34.576  28.218  1.00  0.00     0.173 A 
ATOM     75  C   UNL A   1      45.557  33.868  30.251  1.00  0.00     0.173 A 
ATOM     76  F   UNL A   1      43.737  34.329  27.137  1.00  0.00    -0.203 F 
ATOM     77  C   UNL A   1      45.006  35.858  28.395  1.00  0.00     0.198 A 
ATOM     78  C   UNL A   1      46.045  35.159  30.441  1.00  0.00     0.198 A 
ATOM     79  F   UNL A   1      45.833  32.932  31.172  1.00  0.00    -0.203 F 
ATOM     80  F   UNL A   1      44.756  36.809  27.484  1.00  0.00    -0.200 F 
ATOM     81  C   UNL A   1      45.781  36.148  29.506  1.00  0.00     0.200 A 
ATOM     82  F   UNL A   1      46.770  35.447  31.532  1.00  0.00    -0.200 F 
ATOM     83  F   UNL A   1      46.273  37.383  29.677  1.00  0.00    -0.200 F 
ENDBRANCH  59  73
BRANCH  60  84
ATOM     84  C   UNL A   1      41.202  24.261  27.514  1.00  0.00     0.064 A 
ATOM     85  C   UNL A   1      41.799  23.132  28.098  1.00  0.00     0.173 A 
ATOM     86  C   UNL A   1      40.109  24.051  26.662  1.00  0.00     0.173 A 
ATOM     87  F   UNL A   1      42.853  23.277  28.915  1.00  0.00    -0.203 F 
ATOM     88  C   UNL A   1      41.338  21.847  27.823  1.00  0.00     0.198 A 
ATOM     89  C   UNL A   1      39.628  22.767  26.414  1.00  0.00     0.198 A 
ATOM     90  F   UNL A   1      39.496  25.096  26.090  1.00  0.00    -0.203 F 
ATOM     91  F   UNL A   1      41.954  20.787  28.362  1.00  0.00    -0.200 F 
ATOM     92  C   UNL A   1      40.247  21.666  26.987  1.00  0.00     0.200 A 
ATOM     93  F   UNL A   1      38.559  22.597  25.623  1.00  0.00    -0.200 F 
ATOM     94  F   UNL A   1      39.794  20.431  26.733  1.00  0.00    -0.200 F 
ENDBRANCH  60  84
BRANCH  72  95
ATOM     95  C   UNL A   1      47.116  27.604  25.835  1.00  0.00     0.064 A 
ATOM     96  C   UNL A   1      47.196  27.724  24.439  1.00  0.00     0.173 A 
ATOM     97  C   UNL A   1      48.190  27.005  26.508  1.00  0.00     0.173 A 
ATOM     98  F   UNL A   1      46.185  28.274  23.748  1.00  0.00    -0.203 F 
ATOM     99  C   UNL A   1      48.301  27.248  23.742  1.00  0.00     0.198 A 
ATOM    100  C   UNL A   1      49.312  26.567  25.811  1.00  0.00     0.198 A 
ATOM    101  F   UNL A   1      48.163  26.875  27.843  1.00  0.00    -0.203 F 
ATOM    102  F   UNL A   1      48.335  27.334  22.406  1.00  0.00    -0.200 F 
ATOM    103  C   UNL A   1      49.362  26.679  24.429  1.00  0.00     0.200 A 
ATOM    104  F   UNL A   1      50.349  26.044  26.479  1.00  0.00    -0.200 F 
ATOM    105  F   UNL A   1      50.435  26.240  23.759  1.00  0.00    -0.200 F 
ENDBRANCH  72  95
ENDBRANCH  46  47
ENDBRANCH  39  41
ENDBRANCH  38  39
ENDBRANCH  37  38
ENDBRANCH  36  37
ENDBRANCH  35  36
ENDBRANCH  34  35
ENDBRANCH  33  34
ENDBRANCH   1  33
TORSDOF 24
ENDMDL
