MODEL 1
REMARK VINA RESULT:     -10.2      0.000      0.000
REMARK SMILES C[C@H]1[C@@H](C(=O)OCCOCCOCCOCCOC(=O)c2ccc(-c3c4nc(c(-c5c(F)c(F)c(F)c(F)c5F)c5ccc([nH]5)c(-c5c(F)c(F)c(F)c(F)c5F)c5nc(c(-c6c(F)c(F)c(F)c(F)c6F)c6ccc3[nH]6)C=C5)C=C4)cc2)CCN1C(=O)c1cncc(O)c1
REMARK SMILES IDX 11 1 10 2 9 3 8 4 7 5 6 6 4 7 5 8 3 9 1 10 2 11 86 12 84 13
REMARK SMILES IDX 85 14 87 15 88 16 89 17 90 18 95 19 91 20 93 21 92 22 94 23
REMARK SMILES IDX 12 25 13 26 14 27 15 28 16 29 17 30 18 31 19 32 20 33 21 34
REMARK SMILES IDX 22 35 83 36 23 37 82 38 24 39 25 40 26 41 76 42 27 43 81 44
REMARK SMILES IDX 75 45 77 46 28 47 80 48 74 49 73 50 29 52 61 53 41 54 60 55
REMARK SMILES IDX 42 56 45 57 59 58 78 59 43 60 44 61 58 63 79 64 46 65 30 66
REMARK SMILES IDX 31 67 39 68 32 69 33 70 37 71 40 72 34 73 35 74 38 75 36 76
REMARK SMILES IDX 62 77 63 78 71 79 64 80 65 81 69 82 72 83 66 84 67 85 70 86
REMARK SMILES IDX 68 87 47 88 48 89 56 90 49 91 50 92 54 93 57 94 51 95 52 96
REMARK SMILES IDX 55 97 53 98
REMARK H PARENT 94 24 77 51 45 62
REMARK Flexibility Score: inf
ROOT
ATOM      1  C   UNL A   1      33.984  30.752  27.485  1.00  0.00     0.188 C 
ENDROOT
BRANCH   1   2
ATOM      2  C   UNL A   1      32.914  29.889  26.777  1.00  0.00     0.188 C 
BRANCH   2   3
ATOM      3  O   UNL A   1      33.420  29.115  25.712  1.00  0.00    -0.376 OA
BRANCH   3   4
ATOM      4  C   UNL A   1      32.527  28.508  24.805  1.00  0.00     0.202 C 
BRANCH   4   5
ATOM      5  C   UNL A   1      31.780  27.219  25.181  1.00  0.00     0.261 C 
BRANCH   5   6
ATOM      6  O   UNL A   1      31.988  26.075  24.342  1.00  0.00    -0.463 OA
BRANCH   6   7
ATOM      7  C   UNL A   1      30.924  25.318  24.010  1.00  0.00     0.311 C 
ATOM      8  O   UNL A   1      29.781  25.757  23.927  1.00  0.00    -0.252 OA
BRANCH   7   9
ATOM      9  C   UNL A   1      31.259  23.867  23.660  1.00  0.00     0.123 C 
ATOM     10  C   UNL A   1      30.930  23.069  26.149  1.00  0.00     0.032 C 
ATOM     11  C   UNL A   1      31.317  22.731  24.708  1.00  0.00     0.096 C 
ATOM     12  N   UNL A   1      32.652  22.115  24.565  1.00  0.00    -0.335 N 
ATOM     13  C   UNL A   1      32.567  23.779  22.858  1.00  0.00     0.039 C 
ATOM     14  C   UNL A   1      33.438  22.728  23.520  1.00  0.00     0.121 C 
BRANCH  12  15
ATOM     15  C   UNL A   1      33.205  21.025  25.231  1.00  0.00     0.255 C 
ATOM     16  O   UNL A   1      33.596  21.076  26.395  1.00  0.00    -0.269 OA
BRANCH  15  17
ATOM     17  C   UNL A   1      33.379  19.760  24.507  1.00  0.00     0.062 A 
ATOM     18  C   UNL A   1      34.433  18.917  24.829  1.00  0.00     0.125 A 
ATOM     19  C   UNL A   1      32.501  19.390  23.488  1.00  0.00     0.063 A 
ATOM     20  N   UNL A   1      34.611  17.701  24.254  1.00  0.00    -0.260 NA
ATOM     21  C   UNL A   1      32.650  18.142  22.905  1.00  0.00     0.134 A 
ATOM     22  C   UNL A   1      33.704  17.337  23.314  1.00  0.00     0.157 A 
BRANCH  21  23
ATOM     23  O   UNL A   1      31.778  17.688  21.966  1.00  0.00    -0.506 OA
ATOM     24  H   UNL A   1      31.357  16.858  22.080  1.00  0.00     0.293 HD
ENDBRANCH  21  23
ENDBRANCH  15  17
ENDBRANCH  12  15
ENDBRANCH   7   9
ENDBRANCH   6   7
ENDBRANCH   5   6
ENDBRANCH   4   5
ENDBRANCH   3   4
ENDBRANCH   2   3
ENDBRANCH   1   2
BRANCH   1  25
ATOM     25  O   UNL A   1      33.827  32.136  27.778  1.00  0.00    -0.377 OA
BRANCH  25  26
ATOM     26  C   UNL A   1      34.973  32.922  28.046  1.00  0.00     0.188 C 
BRANCH  26  27
ATOM     27  C   UNL A   1      34.738  34.188  28.891  1.00  0.00     0.188 C 
BRANCH  27  28
ATOM     28  O   UNL A   1      33.867  33.976  29.990  1.00  0.00    -0.376 OA
BRANCH  28  29
ATOM     29  C   UNL A   1      34.430  33.724  31.268  1.00  0.00     0.202 C 
BRANCH  29  30
ATOM     30  C   UNL A   1      34.791  32.294  31.718  1.00  0.00     0.261 C 
BRANCH  30  31
ATOM     31  O   UNL A   1      35.778  32.151  32.747  1.00  0.00    -0.460 OA
BRANCH  31  32
ATOM     32  C   UNL A   1      36.906  32.870  32.637  1.00  0.00     0.338 C 
ATOM     33  O   UNL A   1      37.179  33.918  33.208  1.00  0.00    -0.246 OA
BRANCH  32  34
ATOM     34  C   UNL A   1      37.867  32.077  31.848  1.00  0.00     0.060 A 
ATOM     35  C   UNL A   1      38.840  31.332  32.526  1.00  0.00     0.016 A 
ATOM     36  C   UNL A   1      37.811  32.064  30.451  1.00  0.00     0.016 A 
ATOM     37  C   UNL A   1      39.793  30.616  31.810  1.00  0.00     0.010 A 
ATOM     38  C   UNL A   1      38.787  31.370  29.730  1.00  0.00     0.010 A 
ATOM     39  C   UNL A   1      39.810  30.686  30.411  1.00  0.00    -0.014 A 
BRANCH  39  40
ATOM     40  C   UNL A   1      41.045  30.270  29.707  1.00  0.00     0.031 A 
ATOM     41  C   UNL A   1      41.089  28.882  29.126  1.00  0.00     0.074 A 
ATOM     42  C   UNL A   1      42.059  31.127  29.501  1.00  0.00     0.049 A 
ATOM     43  N   UNL A   1      42.024  28.301  28.420  1.00  0.00    -0.248 NA
ATOM     44  C   UNL A   1      39.909  28.036  29.373  1.00  0.00     0.031 C 
ATOM     45  C   UNL A   1      42.106  32.509  29.971  1.00  0.00     0.029 A 
ATOM     46  N   UNL A   1      43.244  30.955  28.831  1.00  0.00    -0.354 N 
ATOM     47  C   UNL A   1      41.545  27.027  28.141  1.00  0.00     0.074 A 
ATOM     48  C   UNL A   1      40.257  26.903  28.785  1.00  0.00     0.031 C 
ATOM     49  C   UNL A   1      43.267  33.062  29.575  1.00  0.00     0.029 A 
ATOM     50  C   UNL A   1      44.051  32.064  28.848  1.00  0.00     0.049 A 
ATOM     51  H   UNL A   1      43.491  30.116  28.380  1.00  0.00     0.167 HD
ATOM     52  C   UNL A   1      42.122  26.051  27.401  1.00  0.00     0.037 A 
ATOM     53  C   UNL A   1      45.288  32.242  28.343  1.00  0.00     0.037 A 
ATOM     54  C   UNL A   1      43.407  26.177  26.767  1.00  0.00     0.049 A 
ATOM     55  C   UNL A   1      45.942  31.113  27.587  1.00  0.00     0.074 A 
ATOM     56  C   UNL A   1      44.082  25.251  25.992  1.00  0.00     0.029 A 
ATOM     57  N   UNL A   1      44.218  27.300  26.849  1.00  0.00    -0.354 N 
ATOM     58  N   UNL A   1      45.474  29.920  27.303  1.00  0.00    -0.248 NA
ATOM     59  C   UNL A   1      47.295  31.360  27.070  1.00  0.00     0.031 C 
ATOM     60  C   UNL A   1      45.328  25.790  25.657  1.00  0.00     0.029 A 
ATOM     61  C   UNL A   1      45.400  27.080  26.159  1.00  0.00     0.049 A 
ATOM     62  H   UNL A   1      43.989  28.130  27.325  1.00  0.00     0.167 HD
ATOM     63  C   UNL A   1      46.457  29.291  26.548  1.00  0.00     0.074 A 
ATOM     64  C   UNL A   1      47.539  30.244  26.402  1.00  0.00     0.031 C 
ATOM     65  C   UNL A   1      46.465  28.041  26.019  1.00  0.00     0.037 A 
BRANCH  52  66
ATOM     66  C   UNL A   1      41.379  24.752  27.270  1.00  0.00     0.064 A 
ATOM     67  C   UNL A   1      41.793  23.588  27.936  1.00  0.00     0.173 A 
ATOM     68  C   UNL A   1      40.223  24.676  26.476  1.00  0.00     0.173 A 
ATOM     69  F   UNL A   1      42.901  23.601  28.693  1.00  0.00    -0.203 F 
ATOM     70  C   UNL A   1      41.096  22.391  27.790  1.00  0.00     0.198 A 
ATOM     71  C   UNL A   1      39.510  23.487  26.361  1.00  0.00     0.198 A 
ATOM     72  F   UNL A   1      39.783  25.758  25.818  1.00  0.00    -0.203 F 
ATOM     73  F   UNL A   1      41.542  21.280  28.391  1.00  0.00    -0.200 F 
ATOM     74  C   UNL A   1      39.951  22.344  27.009  1.00  0.00     0.200 A 
ATOM     75  F   UNL A   1      38.395  23.447  25.618  1.00  0.00    -0.200 F 
ATOM     76  F   UNL A   1      39.276  21.193  26.876  1.00  0.00    -0.200 F 
ENDBRANCH  52  66
BRANCH  53  77
ATOM     77  C   UNL A   1      45.994  33.537  28.535  1.00  0.00     0.064 A 
ATOM     78  C   UNL A   1      45.779  34.621  27.672  1.00  0.00     0.173 A 
ATOM     79  C   UNL A   1      46.928  33.707  29.570  1.00  0.00     0.173 A 
ATOM     80  F   UNL A   1      44.916  34.503  26.652  1.00  0.00    -0.203 F 
ATOM     81  C   UNL A   1      46.487  35.812  27.819  1.00  0.00     0.198 A 
ATOM     82  C   UNL A   1      47.609  34.910  29.737  1.00  0.00     0.198 A 
ATOM     83  F   UNL A   1      47.174  32.703  30.424  1.00  0.00    -0.203 F 
ATOM     84  F   UNL A   1      46.303  36.810  26.944  1.00  0.00    -0.200 F 
ATOM     85  C   UNL A   1      47.397  35.958  28.854  1.00  0.00     0.200 A 
ATOM     86  F   UNL A   1      48.478  35.051  30.747  1.00  0.00    -0.200 F 
ATOM     87  F   UNL A   1      48.077  37.104  28.997  1.00  0.00    -0.200 F 
ENDBRANCH  53  77
BRANCH  65  88
ATOM     88  C   UNL A   1      47.658  27.650  25.191  1.00  0.00     0.064 A 
ATOM     89  C   UNL A   1      47.687  27.821  23.799  1.00  0.00     0.173 A 
ATOM     90  C   UNL A   1      48.798  27.111  25.807  1.00  0.00     0.173 A 
ATOM     91  F   UNL A   1      46.620  28.322  23.156  1.00  0.00    -0.203 F 
ATOM     92  C   UNL A   1      48.793  27.426  23.050  1.00  0.00     0.198 A 
ATOM     93  C   UNL A   1      49.919  26.754  25.061  1.00  0.00     0.198 A 
ATOM     94  F   UNL A   1      48.833  26.937  27.136  1.00  0.00    -0.203 F 
ATOM     95  F   UNL A   1      48.769  27.534  21.715  1.00  0.00    -0.200 F 
ATOM     96  C   UNL A   1      49.910  26.899  23.682  1.00  0.00     0.200 A 
ATOM     97  F   UNL A   1      51.004  26.265  25.675  1.00  0.00    -0.200 F 
ATOM     98  F   UNL A   1      50.973  26.520  22.960  1.00  0.00    -0.200 F 
ENDBRANCH  65  88
ENDBRANCH  39  40
ENDBRANCH  32  34
ENDBRANCH  31  32
ENDBRANCH  30  31
ENDBRANCH  29  30
ENDBRANCH  28  29
ENDBRANCH  27  28
ENDBRANCH  26  27
ENDBRANCH  25  26
ENDBRANCH   1  25
TORSDOF 23
ENDMDL
MODEL 2
REMARK VINA RESULT:      -9.9      5.675     12.943
REMARK SMILES C[C@H]1[C@@H](C(=O)OCCOCCOCCOCCOC(=O)c2ccc(-c3c4nc(c(-c5c(F)c(F)c(F)c(F)c5F)c5ccc([nH]5)c(-c5c(F)c(F)c(F)c(F)c5F)c5nc(c(-c6c(F)c(F)c(F)c(F)c6F)c6ccc3[nH]6)C=C5)C=C4)cc2)CCN1C(=O)c1cncc(O)c1
REMARK SMILES IDX 11 1 10 2 9 3 8 4 7 5 6 6 4 7 5 8 3 9 1 10 2 11 86 12 84 13
REMARK SMILES IDX 85 14 87 15 88 16 89 17 90 18 95 19 91 20 93 21 92 22 94 23
REMARK SMILES IDX 12 25 13 26 14 27 15 28 16 29 17 30 18 31 19 32 20 33 21 34
REMARK SMILES IDX 22 35 83 36 23 37 82 38 24 39 25 40 26 41 76 42 27 43 81 44
REMARK SMILES IDX 75 45 77 46 28 47 80 48 74 49 73 50 29 52 61 53 41 54 60 55
REMARK SMILES IDX 42 56 45 57 59 58 78 59 43 60 44 61 58 63 79 64 46 65 30 66
REMARK SMILES IDX 31 67 39 68 32 69 33 70 37 71 40 72 34 73 35 74 38 75 36 76
REMARK SMILES IDX 62 77 63 78 71 79 64 80 65 81 69 82 72 83 66 84 67 85 70 86
REMARK SMILES IDX 68 87 47 88 48 89 56 90 49 91 50 92 54 93 57 94 51 95 52 96
REMARK SMILES IDX 55 97 53 98
REMARK H PARENT 94 24 77 51 45 62
REMARK Flexibility Score: inf
ROOT
ATOM      1  C   UNL A   1      47.097  26.865  25.823  1.00  0.00     0.188 C 
ENDROOT
BRANCH   1   2
ATOM      2  C   UNL A   1      46.570  28.319  25.825  1.00  0.00     0.188 C 
BRANCH   2   3
ATOM      3  O   UNL A   1      45.787  28.640  26.954  1.00  0.00    -0.376 OA
BRANCH   3   4
ATOM      4  C   UNL A   1      44.462  29.090  26.779  1.00  0.00     0.202 C 
BRANCH   4   5
ATOM      5  C   UNL A   1      44.067  30.530  27.140  1.00  0.00     0.261 C 
BRANCH   5   6
ATOM      6  O   UNL A   1      44.222  31.525  26.119  1.00  0.00    -0.463 OA
BRANCH   6   7
ATOM      7  C   UNL A   1      45.298  32.336  26.170  1.00  0.00     0.311 C 
ATOM      8  O   UNL A   1      46.448  31.927  26.292  1.00  0.00    -0.252 OA
BRANCH   7   9
ATOM      9  C   UNL A   1      44.985  33.821  25.981  1.00  0.00     0.123 C 
ATOM     10  C   UNL A   1      44.443  34.151  28.538  1.00  0.00     0.032 C 
ATOM     11  C   UNL A   1      44.511  34.743  27.129  1.00  0.00     0.096 C 
ATOM     12  N   UNL A   1      43.249  35.354  26.664  1.00  0.00    -0.335 N 
ATOM     13  C   UNL A   1      43.998  34.036  24.822  1.00  0.00     0.039 C 
ATOM     14  C   UNL A   1      42.885  34.933  25.331  1.00  0.00     0.121 C 
BRANCH  12  15
ATOM     15  C   UNL A   1      42.433  36.295  27.287  1.00  0.00     0.255 C 
ATOM     16  O   UNL A   1      41.512  35.991  28.042  1.00  0.00    -0.269 OA
BRANCH  15  17
ATOM     17  C   UNL A   1      42.641  37.720  27.003  1.00  0.00     0.062 A 
ATOM     18  C   UNL A   1      43.929  38.220  26.877  1.00  0.00     0.125 A 
ATOM     19  C   UNL A   1      41.558  38.589  26.863  1.00  0.00     0.063 A 
ATOM     20  N   UNL A   1      44.194  39.508  26.542  1.00  0.00    -0.260 NA
ATOM     21  C   UNL A   1      41.806  39.902  26.496  1.00  0.00     0.134 A 
ATOM     22  C   UNL A   1      43.122  40.315  26.345  1.00  0.00     0.157 A 
BRANCH  21  23
ATOM     23  O   UNL A   1      40.792  40.777  26.262  1.00  0.00    -0.506 OA
ATOM     24  H   UNL A   1      39.935  40.603  26.600  1.00  0.00     0.293 HD
ENDBRANCH  21  23
ENDBRANCH  15  17
ENDBRANCH  12  15
ENDBRANCH   7   9
ENDBRANCH   6   7
ENDBRANCH   5   6
ENDBRANCH   4   5
ENDBRANCH   3   4
ENDBRANCH   2   3
ENDBRANCH   1   2
BRANCH   1  25
ATOM     25  O   UNL A   1      46.270  25.717  25.672  1.00  0.00    -0.377 OA
BRANCH  25  26
ATOM     26  C   UNL A   1      44.992  25.856  25.080  1.00  0.00     0.188 C 
BRANCH  26  27
ATOM     27  C   UNL A   1      44.128  24.582  25.037  1.00  0.00     0.188 C 
BRANCH  27  28
ATOM     28  O   UNL A   1      44.598  23.556  25.895  1.00  0.00    -0.376 OA
BRANCH  28  29
ATOM     29  C   UNL A   1      44.031  22.259  25.783  1.00  0.00     0.202 C 
BRANCH  29  30
ATOM     30  C   UNL A   1      42.507  22.055  25.673  1.00  0.00     0.261 C 
BRANCH  30  31
ATOM     31  O   UNL A   1      41.695  22.518  26.760  1.00  0.00    -0.460 OA
BRANCH  31  32
ATOM     32  C   UNL A   1      40.467  22.978  26.473  1.00  0.00     0.338 C 
ATOM     33  O   UNL A   1      39.552  22.369  25.935  1.00  0.00    -0.246 OA
BRANCH  32  34
ATOM     34  C   UNL A   1      40.330  24.307  27.100  1.00  0.00     0.060 A 
ATOM     35  C   UNL A   1      40.903  25.412  26.460  1.00  0.00     0.016 A 
ATOM     36  C   UNL A   1      39.641  24.463  28.306  1.00  0.00     0.016 A 
ATOM     37  C   UNL A   1      40.837  26.670  27.051  1.00  0.00     0.010 A 
ATOM     38  C   UNL A   1      39.602  25.720  28.917  1.00  0.00     0.010 A 
ATOM     39  C   UNL A   1      40.244  26.815  28.312  1.00  0.00    -0.014 A 
BRANCH  39  40
ATOM     40  C   UNL A   1      40.546  28.041  29.087  1.00  0.00     0.031 A 
ATOM     41  C   UNL A   1      41.945  28.214  29.613  1.00  0.00     0.074 A 
ATOM     42  C   UNL A   1      39.636  29.019  29.238  1.00  0.00     0.049 A 
ATOM     43  N   UNL A   1      42.475  29.215  30.266  1.00  0.00    -0.248 NA
ATOM     44  C   UNL A   1      42.878  27.103  29.358  1.00  0.00     0.031 C 
ATOM     45  C   UNL A   1      38.267  28.985  28.729  1.00  0.00     0.029 A 
ATOM     46  N   UNL A   1      39.738  30.238  29.859  1.00  0.00    -0.354 N 
ATOM     47  C   UNL A   1      43.796  28.854  30.499  1.00  0.00     0.074 A 
ATOM     48  C   UNL A   1      43.979  27.527  29.955  1.00  0.00     0.031 C 
ATOM     49  C   UNL A   1      37.653  30.135  29.063  1.00  0.00     0.029 A 
ATOM     50  C   UNL A   1      38.578  30.970  29.829  1.00  0.00     0.049 A 
ATOM     51  H   UNL A   1      40.565  30.557  30.287  1.00  0.00     0.167 HD
ATOM     52  C   UNL A   1      44.774  29.570  31.101  1.00  0.00     0.037 A 
ATOM     53  C   UNL A   1      38.298  32.171  30.370  1.00  0.00     0.037 A 
ATOM     54  C   UNL A   1      44.585  30.888  31.647  1.00  0.00     0.049 A 
ATOM     55  C   UNL A   1      39.385  32.917  31.104  1.00  0.00     0.074 A 
ATOM     56  C   UNL A   1      45.510  31.703  32.275  1.00  0.00     0.029 A 
ATOM     57  N   UNL A   1      43.382  31.577  31.641  1.00  0.00    -0.354 N 
ATOM     58  N   UNL A   1      40.639  32.583  31.297  1.00  0.00    -0.248 NA
ATOM     59  C   UNL A   1      39.018  34.216  31.684  1.00  0.00     0.031 C 
ATOM     60  C   UNL A   1      44.851  32.859  32.704  1.00  0.00     0.029 A 
ATOM     61  C   UNL A   1      43.533  32.798  32.278  1.00  0.00     0.049 A 
ATOM     62  H   UNL A   1      42.543  31.248  31.243  1.00  0.00     0.167 HD
ATOM     63  C   UNL A   1      41.217  33.642  31.989  1.00  0.00     0.074 A 
ATOM     64  C   UNL A   1      40.179  34.637  32.162  1.00  0.00     0.031 C 
ATOM     65  C   UNL A   1      42.490  33.781  32.437  1.00  0.00     0.037 A 
BRANCH  52  66
ATOM     66  C   UNL A   1      46.125  28.925  31.229  1.00  0.00     0.064 A 
ATOM     67  C   UNL A   1      47.149  29.151  30.296  1.00  0.00     0.173 A 
ATOM     68  C   UNL A   1      46.403  28.079  32.314  1.00  0.00     0.173 A 
ATOM     69  F   UNL A   1      46.930  29.937  29.230  1.00  0.00    -0.203 F 
ATOM     70  C   UNL A   1      48.389  28.532  30.427  1.00  0.00     0.198 A 
ATOM     71  C   UNL A   1      47.655  27.490  32.461  1.00  0.00     0.198 A 
ATOM     72  F   UNL A   1      45.462  27.828  33.235  1.00  0.00    -0.203 F 
ATOM     73  F   UNL A   1      49.332  28.718  29.495  1.00  0.00    -0.200 F 
ATOM     74  C   UNL A   1      48.644  27.708  31.514  1.00  0.00     0.200 A 
ATOM     75  F   UNL A   1      47.905  26.706  33.520  1.00  0.00    -0.200 F 
ATOM     76  F   UNL A   1      49.842  27.120  31.644  1.00  0.00    -0.200 F 
ENDBRANCH  52  66
BRANCH  53  77
ATOM     77  C   UNL A   1      36.932  32.747  30.246  1.00  0.00     0.064 A 
ATOM     78  C   UNL A   1      36.570  33.534  29.144  1.00  0.00     0.173 A 
ATOM     79  C   UNL A   1      35.969  32.550  31.248  1.00  0.00     0.173 A 
ATOM     80  F   UNL A   1      37.461  33.774  28.171  1.00  0.00    -0.203 F 
ATOM     81  C   UNL A   1      35.309  34.121  29.061  1.00  0.00     0.198 A 
ATOM     82  C   UNL A   1      34.697  33.109  31.147  1.00  0.00     0.198 A 
ATOM     83  F   UNL A   1      36.262  31.807  32.326  1.00  0.00    -0.203 F 
ATOM     84  F   UNL A   1      35.010  34.916  28.024  1.00  0.00    -0.200 F 
ATOM     85  C   UNL A   1      34.372  33.904  30.058  1.00  0.00     0.200 A 
ATOM     86  F   UNL A   1      33.790  32.884  32.108  1.00  0.00    -0.200 F 
ATOM     87  F   UNL A   1      33.159  34.467  29.978  1.00  0.00    -0.200 F 
ENDBRANCH  53  77
BRANCH  65  88
ATOM     88  C   UNL A   1      42.846  35.077  33.113  1.00  0.00     0.064 A 
ATOM     89  C   UNL A   1      43.377  36.165  32.404  1.00  0.00     0.173 A 
ATOM     90  C   UNL A   1      42.634  35.236  34.491  1.00  0.00     0.173 A 
ATOM     91  F   UNL A   1      43.609  36.066  31.086  1.00  0.00    -0.203 F 
ATOM     92  C   UNL A   1      43.723  37.345  33.056  1.00  0.00     0.198 A 
ATOM     93  C   UNL A   1      42.943  36.431  35.134  1.00  0.00     0.198 A 
ATOM     94  F   UNL A   1      42.117  34.233  35.217  1.00  0.00    -0.203 F 
ATOM     95  F   UNL A   1      44.294  38.346  32.371  1.00  0.00    -0.200 F 
ATOM     96  C   UNL A   1      43.500  37.480  34.419  1.00  0.00     0.200 A 
ATOM     97  F   UNL A   1      42.708  36.565  36.446  1.00  0.00    -0.200 F 
ATOM     98  F   UNL A   1      43.834  38.617  35.045  1.00  0.00    -0.200 F 
ENDBRANCH  65  88
ENDBRANCH  39  40
ENDBRANCH  32  34
ENDBRANCH  31  32
ENDBRANCH  30  31
ENDBRANCH  29  30
ENDBRANCH  28  29
ENDBRANCH  27  28
ENDBRANCH  26  27
ENDBRANCH  25  26
ENDBRANCH   1  25
TORSDOF 23
ENDMDL
MODEL 3
REMARK VINA RESULT:      -9.6      1.135      2.428
REMARK SMILES C[C@H]1[C@@H](C(=O)OCCOCCOCCOCCOC(=O)c2ccc(-c3c4nc(c(-c5c(F)c(F)c(F)c(F)c5F)c5ccc([nH]5)c(-c5c(F)c(F)c(F)c(F)c5F)c5nc(c(-c6c(F)c(F)c(F)c(F)c6F)c6ccc3[nH]6)C=C5)C=C4)cc2)CCN1C(=O)c1cncc(O)c1
REMARK SMILES IDX 11 1 10 2 9 3 8 4 7 5 6 6 4 7 5 8 3 9 1 10 2 11 86 12 84 13
REMARK SMILES IDX 85 14 87 15 88 16 89 17 90 18 95 19 91 20 93 21 92 22 94 23
REMARK SMILES IDX 12 25 13 26 14 27 15 28 16 29 17 30 18 31 19 32 20 33 21 34
REMARK SMILES IDX 22 35 83 36 23 37 82 38 24 39 25 40 26 41 76 42 27 43 81 44
REMARK SMILES IDX 75 45 77 46 28 47 80 48 74 49 73 50 29 52 61 53 41 54 60 55
REMARK SMILES IDX 42 56 45 57 59 58 78 59 43 60 44 61 58 63 79 64 46 65 30 66
REMARK SMILES IDX 31 67 39 68 32 69 33 70 37 71 40 72 34 73 35 74 38 75 36 76
REMARK SMILES IDX 62 77 63 78 71 79 64 80 65 81 69 82 72 83 66 84 67 85 70 86
REMARK SMILES IDX 68 87 47 88 48 89 56 90 49 91 50 92 54 93 57 94 51 95 52 96
REMARK SMILES IDX 55 97 53 98
REMARK H PARENT 94 24 77 51 45 62
REMARK Flexibility Score: inf
ROOT
ATOM      1  C   UNL A   1      33.739  30.643  27.204  1.00  0.00     0.188 C 
ENDROOT
BRANCH   1   2
ATOM      2  C   UNL A   1      32.408  29.989  26.768  1.00  0.00     0.188 C 
BRANCH   2   3
ATOM      3  O   UNL A   1      32.462  29.379  25.497  1.00  0.00    -0.376 OA
BRANCH   3   4
ATOM      4  C   UNL A   1      31.607  28.296  25.206  1.00  0.00     0.202 C 
BRANCH   4   5
ATOM      5  C   UNL A   1      32.159  26.867  25.095  1.00  0.00     0.261 C 
BRANCH   5   6
ATOM      6  O   UNL A   1      31.260  25.856  24.618  1.00  0.00    -0.463 OA
BRANCH   6   7
ATOM      7  C   UNL A   1      30.635  25.074  25.521  1.00  0.00     0.311 C 
ATOM      8  O   UNL A   1      30.025  25.514  26.490  1.00  0.00    -0.252 OA
BRANCH   7   9
ATOM      9  C   UNL A   1      30.672  23.578  25.202  1.00  0.00     0.123 C 
ATOM     10  C   UNL A   1      32.365  23.084  27.159  1.00  0.00     0.032 C 
ATOM     11  C   UNL A   1      31.557  22.567  25.967  1.00  0.00     0.096 C 
ATOM     12  N   UNL A   1      32.364  21.876  24.940  1.00  0.00    -0.335 N 
ATOM     13  C   UNL A   1      30.937  23.337  23.707  1.00  0.00     0.039 C 
ATOM     14  C   UNL A   1      32.065  22.329  23.601  1.00  0.00     0.121 C 
BRANCH  12  15
ATOM     15  C   UNL A   1      33.287  20.843  25.079  1.00  0.00     0.255 C 
ATOM     16  O   UNL A   1      32.988  19.727  25.498  1.00  0.00    -0.269 OA
BRANCH  15  17
ATOM     17  C   UNL A   1      34.696  21.098  24.759  1.00  0.00     0.062 A 
ATOM     18  C   UNL A   1      35.074  22.319  24.219  1.00  0.00     0.125 A 
ATOM     19  C   UNL A   1      35.670  20.124  24.981  1.00  0.00     0.063 A 
ATOM     20  N   UNL A   1      36.365  22.651  23.968  1.00  0.00    -0.260 NA
ATOM     21  C   UNL A   1      36.998  20.451  24.755  1.00  0.00     0.134 A 
ATOM     22  C   UNL A   1      37.299  21.710  24.257  1.00  0.00     0.157 A 
BRANCH  21  23
ATOM     23  O   UNL A   1      38.001  19.576  25.032  1.00  0.00    -0.506 OA
ATOM     24  H   UNL A   1      37.924  18.678  24.775  1.00  0.00     0.293 HD
ENDBRANCH  21  23
ENDBRANCH  15  17
ENDBRANCH  12  15
ENDBRANCH   7   9
ENDBRANCH   6   7
ENDBRANCH   5   6
ENDBRANCH   4   5
ENDBRANCH   3   4
ENDBRANCH   2   3
ENDBRANCH   1   2
BRANCH   1  25
ATOM     25  O   UNL A   1      33.828  31.854  27.946  1.00  0.00    -0.377 OA
BRANCH  25  26
ATOM     26  C   UNL A   1      35.050  32.196  28.572  1.00  0.00     0.188 C 
BRANCH  26  27
ATOM     27  C   UNL A   1      34.979  33.331  29.610  1.00  0.00     0.188 C 
BRANCH  27  28
ATOM     28  O   UNL A   1      34.055  33.080  30.655  1.00  0.00    -0.376 OA
BRANCH  28  29
ATOM     29  C   UNL A   1      34.516  33.102  31.997  1.00  0.00     0.202 C 
BRANCH  29  30
ATOM     30  C   UNL A   1      35.445  32.001  32.545  1.00  0.00     0.261 C 
BRANCH  30  31
ATOM     31  O   UNL A   1      36.516  32.403  33.409  1.00  0.00    -0.460 OA
BRANCH  31  32
ATOM     32  C   UNL A   1      37.443  33.236  32.911  1.00  0.00     0.338 C 
ATOM     33  O   UNL A   1      37.611  34.415  33.191  1.00  0.00    -0.246 OA
BRANCH  32  34
ATOM     34  C   UNL A   1      38.374  32.432  32.096  1.00  0.00     0.060 A 
ATOM     35  C   UNL A   1      39.282  31.590  32.750  1.00  0.00     0.016 A 
ATOM     36  C   UNL A   1      38.353  32.505  30.700  1.00  0.00     0.016 A 
ATOM     37  C   UNL A   1      40.209  30.859  32.013  1.00  0.00     0.010 A 
ATOM     38  C   UNL A   1      39.304  31.795  29.960  1.00  0.00     0.010 A 
ATOM     39  C   UNL A   1      40.265  31.010  30.622  1.00  0.00    -0.014 A 
BRANCH  39  40
ATOM     40  C   UNL A   1      41.491  30.561  29.921  1.00  0.00     0.031 A 
ATOM     41  C   UNL A   1      41.502  29.169  29.348  1.00  0.00     0.074 A 
ATOM     42  C   UNL A   1      42.526  31.391  29.712  1.00  0.00     0.049 A 
ATOM     43  N   UNL A   1      42.423  28.561  28.646  1.00  0.00    -0.248 NA
ATOM     44  C   UNL A   1      40.301  28.353  29.597  1.00  0.00     0.031 C 
ATOM     45  C   UNL A   1      42.606  32.775  30.175  1.00  0.00     0.029 A 
ATOM     46  N   UNL A   1      43.707  31.187  29.044  1.00  0.00    -0.354 N 
ATOM     47  C   UNL A   1      41.913  27.298  28.373  1.00  0.00     0.074 A 
ATOM     48  C   UNL A   1      40.622  27.209  29.016  1.00  0.00     0.031 C 
ATOM     49  C   UNL A   1      43.781  33.297  29.777  1.00  0.00     0.029 A 
ATOM     50  C   UNL A   1      44.541  32.277  29.056  1.00  0.00     0.049 A 
ATOM     51  H   UNL A   1      43.934  30.340  28.598  1.00  0.00     0.167 HD
ATOM     52  C   UNL A   1      42.467  26.305  27.638  1.00  0.00     0.037 A 
ATOM     53  C   UNL A   1      45.782  32.422  28.551  1.00  0.00     0.037 A 
ATOM     54  C   UNL A   1      43.756  26.396  27.005  1.00  0.00     0.049 A 
ATOM     55  C   UNL A   1      46.409  31.273  27.802  1.00  0.00     0.074 A 
ATOM     56  C   UNL A   1      44.409  25.450  26.236  1.00  0.00     0.029 A 
ATOM     57  N   UNL A   1      44.594  27.499  27.082  1.00  0.00    -0.354 N 
ATOM     58  N   UNL A   1      45.913  30.091  27.524  1.00  0.00    -0.248 NA
ATOM     59  C   UNL A   1      47.769  31.485  27.286  1.00  0.00     0.031 C 
ATOM     60  C   UNL A   1      45.668  25.956  25.899  1.00  0.00     0.029 A 
ATOM     61  C   UNL A   1      45.771  27.247  26.395  1.00  0.00     0.049 A 
ATOM     62  H   UNL A   1      44.384  28.337  27.554  1.00  0.00     0.167 HD
ATOM     63  C   UNL A   1      46.881  29.434  26.773  1.00  0.00     0.074 A 
ATOM     64  C   UNL A   1      47.986  30.359  26.624  1.00  0.00     0.031 C 
ATOM     65  C   UNL A   1      46.859  28.182  26.251  1.00  0.00     0.037 A 
BRANCH  52  66
ATOM     66  C   UNL A   1      41.693  25.024  27.513  1.00  0.00     0.064 A 
ATOM     67  C   UNL A   1      40.532  24.930  26.730  1.00  0.00     0.173 A 
ATOM     68  C   UNL A   1      42.131  23.866  28.175  1.00  0.00     0.173 A 
ATOM     69  F   UNL A   1      40.060  26.011  26.090  1.00  0.00    -0.203 F 
ATOM     70  C   UNL A   1      39.822  23.735  26.639  1.00  0.00     0.198 A 
ATOM     71  C   UNL A   1      41.439  22.665  28.053  1.00  0.00     0.198 A 
ATOM     72  F   UNL A   1      43.234  23.899  28.937  1.00  0.00    -0.203 F 
ATOM     73  F   UNL A   1      38.686  23.684  25.930  1.00  0.00    -0.200 F 
ATOM     74  C   UNL A   1      40.280  22.602  27.294  1.00  0.00     0.200 A 
ATOM     75  F   UNL A   1      41.891  21.567  28.675  1.00  0.00    -0.200 F 
ATOM     76  F   UNL A   1      39.601  21.450  27.198  1.00  0.00    -0.200 F 
ENDBRANCH  52  66
BRANCH  53  77
ATOM     77  C   UNL A   1      46.519  33.701  28.738  1.00  0.00     0.064 A 
ATOM     78  C   UNL A   1      47.303  33.929  29.878  1.00  0.00     0.173 A 
ATOM     79  C   UNL A   1      46.428  34.736  27.795  1.00  0.00     0.173 A 
ATOM     80  F   UNL A   1      47.404  32.983  30.823  1.00  0.00    -0.203 F 
ATOM     81  C   UNL A   1      47.944  35.151  30.079  1.00  0.00     0.198 A 
ATOM     82  C   UNL A   1      47.097  35.943  27.980  1.00  0.00     0.198 A 
ATOM     83  F   UNL A   1      45.690  34.571  26.686  1.00  0.00    -0.203 F 
ATOM     84  F   UNL A   1      48.638  35.363  31.205  1.00  0.00    -0.200 F 
ATOM     85  C   UNL A   1      47.845  36.154  29.128  1.00  0.00     0.200 A 
ATOM     86  F   UNL A   1      47.009  36.904  27.051  1.00  0.00    -0.200 F 
ATOM     87  F   UNL A   1      48.462  37.327  29.320  1.00  0.00    -0.200 F 
ENDBRANCH  53  77
BRANCH  65  88
ATOM     88  C   UNL A   1      48.043  27.757  25.427  1.00  0.00     0.064 A 
ATOM     89  C   UNL A   1      49.240  27.320  26.013  1.00  0.00     0.173 A 
ATOM     90  C   UNL A   1      47.969  27.770  24.025  1.00  0.00     0.173 A 
ATOM     91  F   UNL A   1      49.370  27.297  27.349  1.00  0.00    -0.203 F 
ATOM     92  C   UNL A   1      50.332  26.957  25.229  1.00  0.00     0.198 A 
ATOM     93  C   UNL A   1      49.049  27.367  23.243  1.00  0.00     0.198 A 
ATOM     94  F   UNL A   1      46.845  28.165  23.409  1.00  0.00    -0.203 F 
ATOM     95  F   UNL A   1      51.488  26.611  25.812  1.00  0.00    -0.200 F 
ATOM     96  C   UNL A   1      50.234  26.974  23.846  1.00  0.00     0.200 A 
ATOM     97  F   UNL A   1      48.944  27.366  21.908  1.00  0.00    -0.200 F 
ATOM     98  F   UNL A   1      51.285  26.624  23.093  1.00  0.00    -0.200 F 
ENDBRANCH  65  88
ENDBRANCH  39  40
ENDBRANCH  32  34
ENDBRANCH  31  32
ENDBRANCH  30  31
ENDBRANCH  29  30
ENDBRANCH  28  29
ENDBRANCH  27  28
ENDBRANCH  26  27
ENDBRANCH  25  26
ENDBRANCH   1  25
TORSDOF 23
ENDMDL
