MODEL 1
REMARK VINA RESULT:     -10.1      0.000      0.000
REMARK SMILES C=C1c2ccccc2C(=O)N1[C@](C)(CC)C(=O)OCCOCCOCCOCCOC(=O)c1ccc(-c2c3nc(c(-c4c(F)c(F)c(F)c(F)c4F)c4ccc([nH]4)c(-c4c(F)c(F)c(F)c(F)c4F)c4nc(c(-c5c(F)c(F)c(F)c(F)c5F)c5ccc2[nH]5)C=C4)C=C3)cc1
REMARK SMILES IDX 25 1 24 2 23 3 22 4 21 5 20 6 19 7 18 8 16 9 17 10 12 11
REMARK SMILES IDX 13 12 11 13 1 14 2 15 3 16 4 17 8 18 9 19 5 20 7 21 10 22
REMARK SMILES IDX 6 23 14 24 15 25 26 26 27 27 28 28 29 29 30 30 31 31 32 32
REMARK SMILES IDX 33 33 34 34 95 35 35 36 94 37 36 38 37 39 38 40 88 41 39 42
REMARK SMILES IDX 93 43 87 44 89 45 40 46 92 47 86 48 85 49 41 51 73 52 53 53
REMARK SMILES IDX 72 54 54 55 57 56 71 57 90 58 55 59 56 60 70 62 91 63 58 64
REMARK SMILES IDX 42 65 43 66 51 67 44 68 45 69 49 70 52 71 46 72 47 73 50 74
REMARK SMILES IDX 48 75 74 76 75 77 83 78 76 79 77 80 81 81 84 82 78 83 79 84
REMARK SMILES IDX 82 85 80 86 59 87 60 88 68 89 61 90 62 91 66 92 69 93 63 94
REMARK SMILES IDX 64 95 67 96 65 97
REMARK H PARENT 89 50 57 61
REMARK Flexibility Score: inf
ROOT
ATOM      1  C   UNL A   1      35.971  32.278  28.093  1.00  0.00     0.188 C 
ENDROOT
BRANCH   1   2
ATOM      2  O   UNL A   1      35.073  31.266  27.655  1.00  0.00    -0.377 OA
BRANCH   2   3
ATOM      3  C   UNL A   1      33.701  31.347  27.997  1.00  0.00     0.188 C 
BRANCH   3   4
ATOM      4  C   UNL A   1      32.712  31.348  26.832  1.00  0.00     0.188 C 
BRANCH   4   5
ATOM      5  O   UNL A   1      31.843  30.239  26.731  1.00  0.00    -0.376 OA
BRANCH   5   6
ATOM      6  C   UNL A   1      32.374  28.919  26.766  1.00  0.00     0.202 C 
BRANCH   6   7
ATOM      7  C   UNL A   1      31.648  27.747  27.437  1.00  0.00     0.261 C 
BRANCH   7   8
ATOM      8  O   UNL A   1      30.740  26.971  26.621  1.00  0.00    -0.461 OA
BRANCH   8   9
ATOM      9  C   UNL A   1      31.188  25.744  26.216  1.00  0.00     0.332 C 
ATOM     10  O   UNL A   1      31.447  24.839  27.011  1.00  0.00    -0.249 OA
BRANCH   9  11
ATOM     11  C   UNL A   1      31.537  25.633  24.709  1.00  0.00     0.142 C 
ATOM     12  C   UNL A   1      33.081  25.843  24.676  1.00  0.00     0.048 C 
BRANCH  11  13
ATOM     13  N   UNL A   1      30.903  26.752  23.929  1.00  0.00    -0.292 N 
ATOM     14  C   UNL A   1      32.753  28.091  22.908  1.00  0.00     0.038 C 
ATOM     15  C   UNL A   1      31.489  27.812  23.229  1.00  0.00     0.046 C 
ATOM     16  C   UNL A   1      30.406  28.676  22.757  1.00  0.00     0.010 A 
ATOM     17  C   UNL A   1      30.407  29.873  22.057  1.00  0.00     0.011 A 
ATOM     18  C   UNL A   1      29.204  28.085  23.121  1.00  0.00     0.049 A 
ATOM     19  C   UNL A   1      29.504  26.864  23.870  1.00  0.00     0.259 C 
ATOM     20  C   UNL A   1      29.179  30.449  21.721  1.00  0.00     0.001 A 
ATOM     21  C   UNL A   1      27.975  28.630  22.798  1.00  0.00     0.014 A 
ATOM     22  O   UNL A   1      28.643  26.138  24.339  1.00  0.00    -0.269 OA
ATOM     23  C   UNL A   1      27.971  29.828  22.084  1.00  0.00     0.001 A 
ENDBRANCH  11  13
BRANCH  11  24
ATOM     24  C   UNL A   1      31.148  24.258  24.053  1.00  0.00     0.037 C 
ATOM     25  C   UNL A   1      32.032  23.678  22.941  1.00  0.00     0.007 C 
ENDBRANCH  11  24
ENDBRANCH   9  11
ENDBRANCH   8   9
ENDBRANCH   7   8
ENDBRANCH   6   7
ENDBRANCH   5   6
ENDBRANCH   4   5
ENDBRANCH   3   4
ENDBRANCH   2   3
ENDBRANCH   1   2
BRANCH   1  26
ATOM     26  C   UNL A   1      35.405  33.526  28.779  1.00  0.00     0.188 C 
BRANCH  26  27
ATOM     27  O   UNL A   1      34.731  34.503  27.985  1.00  0.00    -0.376 OA
BRANCH  27  28
ATOM     28  C   UNL A   1      34.333  35.732  28.581  1.00  0.00     0.202 C 
BRANCH  28  29
ATOM     29  C   UNL A   1      32.935  35.769  29.195  1.00  0.00     0.261 C 
BRANCH  29  30
ATOM     30  O   UNL A   1      32.789  34.895  30.322  1.00  0.00    -0.460 OA
BRANCH  30  31
ATOM     31  C   UNL A   1      32.863  35.505  31.528  1.00  0.00     0.338 C 
ATOM     32  O   UNL A   1      32.110  36.342  31.991  1.00  0.00    -0.246 OA
BRANCH  31  33
ATOM     33  C   UNL A   1      33.969  34.912  32.295  1.00  0.00     0.060 A 
ATOM     34  C   UNL A   1      35.214  35.554  32.288  1.00  0.00     0.016 A 
ATOM     35  C   UNL A   1      33.803  33.679  32.928  1.00  0.00     0.016 A 
ATOM     36  C   UNL A   1      36.316  34.937  32.871  1.00  0.00     0.010 A 
ATOM     37  C   UNL A   1      34.911  33.052  33.496  1.00  0.00     0.010 A 
ATOM     38  C   UNL A   1      36.177  33.660  33.426  1.00  0.00    -0.014 A 
BRANCH  38  39
ATOM     39  C   UNL A   1      37.383  32.868  33.749  1.00  0.00     0.031 A 
ATOM     40  C   UNL A   1      38.099  33.157  35.037  1.00  0.00     0.074 A 
ATOM     41  C   UNL A   1      37.819  31.910  32.916  1.00  0.00     0.049 A 
ATOM     42  N   UNL A   1      39.224  32.669  35.492  1.00  0.00    -0.248 NA
ATOM     43  C   UNL A   1      37.463  34.138  35.934  1.00  0.00     0.031 C 
ATOM     44  C   UNL A   1      37.172  31.519  31.665  1.00  0.00     0.029 A 
ATOM     45  N   UNL A   1      38.926  31.105  32.993  1.00  0.00    -0.354 N 
ATOM     46  C   UNL A   1      39.432  33.287  36.718  1.00  0.00     0.074 A 
ATOM     47  C   UNL A   1      38.339  34.211  36.923  1.00  0.00     0.031 C 
ATOM     48  C   UNL A   1      37.907  30.560  31.078  1.00  0.00     0.029 A 
ATOM     49  C   UNL A   1      39.093  30.302  31.893  1.00  0.00     0.049 A 
ATOM     50  H   UNL A   1      39.540  31.103  33.761  1.00  0.00     0.167 HD
ATOM     51  C   UNL A   1      40.444  33.091  37.595  1.00  0.00     0.037 A 
ATOM     52  C   UNL A   1      40.112  29.482  31.571  1.00  0.00     0.037 A 
ATOM     53  C   UNL A   1      41.527  32.170  37.377  1.00  0.00     0.049 A 
ATOM     54  C   UNL A   1      41.269  29.343  32.529  1.00  0.00     0.074 A 
ATOM     55  C   UNL A   1      42.601  31.887  38.201  1.00  0.00     0.029 A 
ATOM     56  N   UNL A   1      41.675  31.385  36.242  1.00  0.00    -0.354 N 
ATOM     57  N   UNL A   1      41.455  29.915  33.695  1.00  0.00    -0.248 NA
ATOM     58  C   UNL A   1      42.355  28.439  32.128  1.00  0.00     0.031 C 
ATOM     59  C   UNL A   1      43.428  30.975  37.541  1.00  0.00     0.029 A 
ATOM     60  C   UNL A   1      42.836  30.637  36.334  1.00  0.00     0.049 A 
ATOM     61  H   UNL A   1      41.048  31.364  35.483  1.00  0.00     0.167 HD
ATOM     62  C   UNL A   1      42.656  29.415  34.180  1.00  0.00     0.074 A 
ATOM     63  C   UNL A   1      43.148  28.482  33.188  1.00  0.00     0.031 C 
ATOM     64  C   UNL A   1      43.298  29.701  35.341  1.00  0.00     0.037 A 
BRANCH  51  65
ATOM     65  C   UNL A   1      40.440  33.903  38.858  1.00  0.00     0.064 A 
ATOM     66  C   UNL A   1      41.095  35.141  38.943  1.00  0.00     0.173 A 
ATOM     67  C   UNL A   1      39.736  33.456  39.986  1.00  0.00     0.173 A 
ATOM     68  F   UNL A   1      41.797  35.607  37.899  1.00  0.00    -0.203 F 
ATOM     69  C   UNL A   1      41.062  35.890  40.117  1.00  0.00     0.198 A 
ATOM     70  C   UNL A   1      39.678  34.222  41.147  1.00  0.00     0.198 A 
ATOM     71  F   UNL A   1      39.091  32.279  39.959  1.00  0.00    -0.203 F 
ATOM     72  F   UNL A   1      41.732  37.049  40.189  1.00  0.00    -0.200 F 
ATOM     73  C   UNL A   1      40.346  35.436  41.213  1.00  0.00     0.200 A 
ATOM     74  F   UNL A   1      38.974  33.787  42.201  1.00  0.00    -0.200 F 
ATOM     75  F   UNL A   1      40.303  36.164  42.337  1.00  0.00    -0.200 F 
ENDBRANCH  51  65
BRANCH  52  76
ATOM     76  C   UNL A   1      40.101  28.747  30.279  1.00  0.00     0.064 A 
ATOM     77  C   UNL A   1      40.664  29.304  29.122  1.00  0.00     0.173 A 
ATOM     78  C   UNL A   1      39.497  27.484  30.165  1.00  0.00     0.173 A 
ATOM     79  F   UNL A   1      41.234  30.517  29.174  1.00  0.00    -0.203 F 
ATOM     80  C   UNL A   1      40.596  28.643  27.897  1.00  0.00     0.198 A 
ATOM     81  C   UNL A   1      39.463  26.808  28.948  1.00  0.00     0.198 A 
ATOM     82  F   UNL A   1      38.946  26.903  31.241  1.00  0.00    -0.203 F 
ATOM     83  F   UNL A   1      41.089  29.227  26.796  1.00  0.00    -0.200 F 
ATOM     84  C   UNL A   1      40.000  27.393  27.812  1.00  0.00     0.200 A 
ATOM     85  F   UNL A   1      38.900  25.595  28.873  1.00  0.00    -0.200 F 
ATOM     86  F   UNL A   1      39.936  26.759  26.634  1.00  0.00    -0.200 F 
ENDBRANCH  52  76
BRANCH  64  87
ATOM     87  C   UNL A   1      44.573  28.957  35.626  1.00  0.00     0.064 A 
ATOM     88  C   UNL A   1      45.825  29.457  35.240  1.00  0.00     0.173 A 
ATOM     89  C   UNL A   1      44.540  27.747  36.337  1.00  0.00     0.173 A 
ATOM     90  F   UNL A   1      45.911  30.603  34.547  1.00  0.00    -0.203 F 
ATOM     91  C   UNL A   1      46.994  28.757  35.527  1.00  0.00     0.198 A 
ATOM     92  C   UNL A   1      45.713  27.069  36.655  1.00  0.00     0.198 A 
ATOM     93  F   UNL A   1      43.369  27.230  36.741  1.00  0.00    -0.203 F 
ATOM     94  F   UNL A   1      48.175  29.225  35.098  1.00  0.00    -0.200 F 
ATOM     95  C   UNL A   1      46.938  27.569  36.240  1.00  0.00     0.200 A 
ATOM     96  F   UNL A   1      45.657  25.932  37.362  1.00  0.00    -0.200 F 
ATOM     97  F   UNL A   1      48.065  26.902  36.524  1.00  0.00    -0.200 F 
ENDBRANCH  64  87
ENDBRANCH  38  39
ENDBRANCH  31  33
ENDBRANCH  30  31
ENDBRANCH  29  30
ENDBRANCH  28  29
ENDBRANCH  27  28
ENDBRANCH  26  27
ENDBRANCH   1  26
TORSDOF 22
ENDMDL
MODEL 2
REMARK VINA RESULT:     -10.0      1.525      3.525
REMARK SMILES C=C1c2ccccc2C(=O)N1[C@](C)(CC)C(=O)OCCOCCOCCOCCOC(=O)c1ccc(-c2c3nc(c(-c4c(F)c(F)c(F)c(F)c4F)c4ccc([nH]4)c(-c4c(F)c(F)c(F)c(F)c4F)c4nc(c(-c5c(F)c(F)c(F)c(F)c5F)c5ccc2[nH]5)C=C4)C=C3)cc1
REMARK SMILES IDX 25 1 24 2 23 3 22 4 21 5 20 6 19 7 18 8 16 9 17 10 12 11
REMARK SMILES IDX 13 12 11 13 1 14 2 15 3 16 4 17 8 18 9 19 5 20 7 21 10 22
REMARK SMILES IDX 6 23 14 24 15 25 26 26 27 27 28 28 29 29 30 30 31 31 32 32
REMARK SMILES IDX 33 33 34 34 95 35 35 36 94 37 36 38 37 39 38 40 88 41 39 42
REMARK SMILES IDX 93 43 87 44 89 45 40 46 92 47 86 48 85 49 41 51 73 52 53 53
REMARK SMILES IDX 72 54 54 55 57 56 71 57 90 58 55 59 56 60 70 62 91 63 58 64
REMARK SMILES IDX 42 65 43 66 51 67 44 68 45 69 49 70 52 71 46 72 47 73 50 74
REMARK SMILES IDX 48 75 74 76 75 77 83 78 76 79 77 80 81 81 84 82 78 83 79 84
REMARK SMILES IDX 82 85 80 86 59 87 60 88 68 89 61 90 62 91 66 92 69 93 63 94
REMARK SMILES IDX 64 95 67 96 65 97
REMARK H PARENT 89 50 57 61
REMARK Flexibility Score: inf
ROOT
ATOM      1  C   UNL A   1      36.360  32.688  27.995  1.00  0.00     0.188 C 
ENDROOT
BRANCH   1   2
ATOM      2  O   UNL A   1      35.915  31.339  27.931  1.00  0.00    -0.377 OA
BRANCH   2   3
ATOM      3  C   UNL A   1      34.589  31.018  28.310  1.00  0.00     0.188 C 
BRANCH   3   4
ATOM      4  C   UNL A   1      33.713  30.377  27.233  1.00  0.00     0.188 C 
BRANCH   4   5
ATOM      5  O   UNL A   1      33.597  28.969  27.259  1.00  0.00    -0.376 OA
BRANCH   5   6
ATOM      6  C   UNL A   1      32.996  28.289  26.162  1.00  0.00     0.202 C 
BRANCH   6   7
ATOM      7  C   UNL A   1      31.982  27.153  26.343  1.00  0.00     0.261 C 
BRANCH   7   8
ATOM      8  O   UNL A   1      32.498  25.805  26.413  1.00  0.00    -0.461 OA
BRANCH   8   9
ATOM      9  C   UNL A   1      31.581  24.796  26.295  1.00  0.00     0.332 C 
ATOM     10  O   UNL A   1      30.826  24.480  27.216  1.00  0.00    -0.249 OA
BRANCH   9  11
ATOM     11  C   UNL A   1      31.692  23.949  25.002  1.00  0.00     0.142 C 
ATOM     12  C   UNL A   1      30.772  22.725  25.287  1.00  0.00     0.048 C 
BRANCH  11  13
ATOM     13  N   UNL A   1      33.095  23.438  24.815  1.00  0.00    -0.292 N 
ATOM     14  C   UNL A   1      34.163  24.827  23.029  1.00  0.00     0.038 C 
ATOM     15  C   UNL A   1      34.084  23.822  23.903  1.00  0.00     0.046 C 
ATOM     16  C   UNL A   1      35.218  22.915  24.079  1.00  0.00     0.010 A 
ATOM     17  C   UNL A   1      36.435  22.805  23.423  1.00  0.00     0.011 A 
ATOM     18  C   UNL A   1      34.916  22.059  25.129  1.00  0.00     0.049 A 
ATOM     19  C   UNL A   1      33.568  22.377  25.603  1.00  0.00     0.259 C 
ATOM     20  C   UNL A   1      37.340  21.834  23.856  1.00  0.00     0.001 A 
ATOM     21  C   UNL A   1      35.793  21.090  25.581  1.00  0.00     0.014 A 
ATOM     22  O   UNL A   1      33.019  21.775  26.511  1.00  0.00    -0.269 OA
ATOM     23  C   UNL A   1      37.024  20.986  24.932  1.00  0.00     0.001 A 
ENDBRANCH  11  13
BRANCH  11  24
ATOM     24  C   UNL A   1      31.236  24.697  23.697  1.00  0.00     0.037 C 
ATOM     25  C   UNL A   1      29.923  25.493  23.705  1.00  0.00     0.007 C 
ENDBRANCH  11  24
ENDBRANCH   9  11
ENDBRANCH   8   9
ENDBRANCH   7   8
ENDBRANCH   6   7
ENDBRANCH   5   6
ENDBRANCH   4   5
ENDBRANCH   3   4
ENDBRANCH   2   3
ENDBRANCH   1   2
BRANCH   1  26
ATOM     26  C   UNL A   1      35.532  33.707  28.783  1.00  0.00     0.188 C 
BRANCH  26  27
ATOM     27  O   UNL A   1      34.457  34.378  28.126  1.00  0.00    -0.376 OA
BRANCH  27  28
ATOM     28  C   UNL A   1      34.182  35.737  28.446  1.00  0.00     0.202 C 
BRANCH  28  29
ATOM     29  C   UNL A   1      32.913  36.004  29.252  1.00  0.00     0.261 C 
BRANCH  29  30
ATOM     30  O   UNL A   1      32.703  35.055  30.306  1.00  0.00    -0.460 OA
BRANCH  30  31
ATOM     31  C   UNL A   1      32.728  35.577  31.554  1.00  0.00     0.338 C 
ATOM     32  O   UNL A   1      31.938  36.355  32.056  1.00  0.00    -0.246 OA
BRANCH  31  33
ATOM     33  C   UNL A   1      33.834  34.962  32.305  1.00  0.00     0.060 A 
ATOM     34  C   UNL A   1      35.081  35.598  32.307  1.00  0.00     0.016 A 
ATOM     35  C   UNL A   1      33.663  33.717  32.913  1.00  0.00     0.016 A 
ATOM     36  C   UNL A   1      36.182  34.964  32.874  1.00  0.00     0.010 A 
ATOM     37  C   UNL A   1      34.770  33.074  33.464  1.00  0.00     0.010 A 
ATOM     38  C   UNL A   1      36.039  33.676  33.403  1.00  0.00    -0.014 A 
BRANCH  38  39
ATOM     39  C   UNL A   1      37.241  32.873  33.705  1.00  0.00     0.031 A 
ATOM     40  C   UNL A   1      37.981  33.153  34.982  1.00  0.00     0.074 A 
ATOM     41  C   UNL A   1      37.655  31.911  32.864  1.00  0.00     0.049 A 
ATOM     42  N   UNL A   1      39.108  32.653  35.418  1.00  0.00    -0.248 NA
ATOM     43  C   UNL A   1      37.370  34.139  35.890  1.00  0.00     0.031 C 
ATOM     44  C   UNL A   1      36.983  31.528  31.624  1.00  0.00     0.029 A 
ATOM     45  N   UNL A   1      38.754  31.095  32.922  1.00  0.00    -0.354 N 
ATOM     46  C   UNL A   1      39.342  33.268  36.641  1.00  0.00     0.074 A 
ATOM     47  C   UNL A   1      38.263  34.202  36.864  1.00  0.00     0.031 C 
ATOM     48  C   UNL A   1      37.699  30.562  31.024  1.00  0.00     0.029 A 
ATOM     49  C   UNL A   1      38.895  30.291  31.819  1.00  0.00     0.049 A 
ATOM     50  H   UNL A   1      39.381  31.085  33.681  1.00  0.00     0.167 HD
ATOM     51  C   UNL A   1      40.366  33.060  37.502  1.00  0.00     0.037 A 
ATOM     52  C   UNL A   1      39.900  29.461  31.480  1.00  0.00     0.037 A 
ATOM     53  C   UNL A   1      41.436  32.128  37.265  1.00  0.00     0.049 A 
ATOM     54  C   UNL A   1      41.071  29.310  32.420  1.00  0.00     0.074 A 
ATOM     55  C   UNL A   1      42.520  31.834  38.072  1.00  0.00     0.029 A 
ATOM     56  N   UNL A   1      41.558  31.343  36.127  1.00  0.00    -0.354 N 
ATOM     57  N   UNL A   1      41.282  29.879  33.582  1.00  0.00    -0.248 NA
ATOM     58  C   UNL A   1      42.141  28.395  32.000  1.00  0.00     0.031 C 
ATOM     59  C   UNL A   1      43.328  30.915  37.397  1.00  0.00     0.029 A 
ATOM     60  C   UNL A   1      42.713  30.583  36.200  1.00  0.00     0.049 A 
ATOM     61  H   UNL A   1      40.919  31.330  35.378  1.00  0.00     0.167 HD
ATOM     62  C   UNL A   1      42.486  29.366  34.047  1.00  0.00     0.074 A 
ATOM     63  C   UNL A   1      42.952  28.429  33.047  1.00  0.00     0.031 C 
ATOM     64  C   UNL A   1      43.149  29.644  35.198  1.00  0.00     0.037 A 
BRANCH  51  65
ATOM     65  C   UNL A   1      40.391  33.871  38.765  1.00  0.00     0.064 A 
ATOM     66  C   UNL A   1      39.721  33.455  39.925  1.00  0.00     0.173 A 
ATOM     67  C   UNL A   1      41.131  35.062  38.828  1.00  0.00     0.173 A 
ATOM     68  F   UNL A   1      38.986  32.333  39.913  1.00  0.00    -0.203 F 
ATOM     69  C   UNL A   1      39.774  34.211  41.094  1.00  0.00     0.198 A 
ATOM     70  C   UNL A   1      41.208  35.798  40.007  1.00  0.00     0.198 A 
ATOM     71  F   UNL A   1      41.791  35.507  37.747  1.00  0.00    -0.203 F 
ATOM     72  F   UNL A   1      39.090  33.816  42.177  1.00  0.00    -0.200 F 
ATOM     73  C   UNL A   1      40.525  35.375  41.137  1.00  0.00     0.200 A 
ATOM     74  F   UNL A   1      41.946  36.916  40.050  1.00  0.00    -0.200 F 
ATOM     75  F   UNL A   1      40.587  36.094  42.266  1.00  0.00    -0.200 F 
ENDBRANCH  51  65
BRANCH  52  76
ATOM     76  C   UNL A   1      39.861  28.728  30.188  1.00  0.00     0.064 A 
ATOM     77  C   UNL A   1      39.319  27.439  30.101  1.00  0.00     0.173 A 
ATOM     78  C   UNL A   1      40.396  29.289  29.017  1.00  0.00     0.173 A 
ATOM     79  F   UNL A   1      38.815  26.850  31.196  1.00  0.00    -0.203 F 
ATOM     80  C   UNL A   1      39.341  26.726  28.903  1.00  0.00     0.198 A 
ATOM     81  C   UNL A   1      40.384  28.590  27.811  1.00  0.00     0.198 A 
ATOM     82  F   UNL A   1      40.924  30.521  29.042  1.00  0.00    -0.203 F 
ATOM     83  F   UNL A   1      38.871  25.471  28.865  1.00  0.00    -0.200 F 
ATOM     84  C   UNL A   1      39.869  27.304  27.759  1.00  0.00     0.200 A 
ATOM     85  F   UNL A   1      40.881  29.158  26.705  1.00  0.00    -0.200 F 
ATOM     86  F   UNL A   1      39.890  26.618  26.608  1.00  0.00    -0.200 F 
ENDBRANCH  52  76
BRANCH  64  87
ATOM     87  C   UNL A   1      44.421  28.888  35.462  1.00  0.00     0.064 A 
ATOM     88  C   UNL A   1      44.426  27.658  36.137  1.00  0.00     0.173 A 
ATOM     89  C   UNL A   1      45.648  29.382  34.991  1.00  0.00     0.173 A 
ATOM     90  F   UNL A   1      43.283  27.148  36.619  1.00  0.00    -0.203 F 
ATOM     91  C   UNL A   1      45.614  26.969  36.360  1.00  0.00     0.198 A 
ATOM     92  C   UNL A   1      46.829  28.672  35.183  1.00  0.00     0.198 A 
ATOM     93  F   UNL A   1      45.698  30.548  34.329  1.00  0.00    -0.203 F 
ATOM     94  F   UNL A   1      45.603  25.825  37.057  1.00  0.00    -0.200 F 
ATOM     95  C   UNL A   1      46.813  27.472  35.875  1.00  0.00     0.200 A 
ATOM     96  F   UNL A   1      47.982  29.151  34.696  1.00  0.00    -0.200 F 
ATOM     97  F   UNL A   1      47.955  26.802  36.082  1.00  0.00    -0.200 F 
ENDBRANCH  64  87
ENDBRANCH  38  39
ENDBRANCH  31  33
ENDBRANCH  30  31
ENDBRANCH  29  30
ENDBRANCH  28  29
ENDBRANCH  27  28
ENDBRANCH  26  27
ENDBRANCH   1  26
TORSDOF 22
ENDMDL
MODEL 3
REMARK VINA RESULT:     -10.0      1.090      2.673
REMARK SMILES C=C1c2ccccc2C(=O)N1[C@](C)(CC)C(=O)OCCOCCOCCOCCOC(=O)c1ccc(-c2c3nc(c(-c4c(F)c(F)c(F)c(F)c4F)c4ccc([nH]4)c(-c4c(F)c(F)c(F)c(F)c4F)c4nc(c(-c5c(F)c(F)c(F)c(F)c5F)c5ccc2[nH]5)C=C4)C=C3)cc1
REMARK SMILES IDX 25 1 24 2 23 3 22 4 21 5 20 6 19 7 18 8 16 9 17 10 12 11
REMARK SMILES IDX 13 12 11 13 1 14 2 15 3 16 4 17 8 18 9 19 5 20 7 21 10 22
REMARK SMILES IDX 6 23 14 24 15 25 26 26 27 27 28 28 29 29 30 30 31 31 32 32
REMARK SMILES IDX 33 33 34 34 95 35 35 36 94 37 36 38 37 39 38 40 88 41 39 42
REMARK SMILES IDX 93 43 87 44 89 45 40 46 92 47 86 48 85 49 41 51 73 52 53 53
REMARK SMILES IDX 72 54 54 55 57 56 71 57 90 58 55 59 56 60 70 62 91 63 58 64
REMARK SMILES IDX 42 65 43 66 51 67 44 68 45 69 49 70 52 71 46 72 47 73 50 74
REMARK SMILES IDX 48 75 74 76 75 77 83 78 76 79 77 80 81 81 84 82 78 83 79 84
REMARK SMILES IDX 82 85 80 86 59 87 60 88 68 89 61 90 62 91 66 92 69 93 63 94
REMARK SMILES IDX 64 95 67 96 65 97
REMARK H PARENT 89 50 57 61
REMARK Flexibility Score: inf
ROOT
ATOM      1  C   UNL A   1      36.073  32.170  28.093  1.00  0.00     0.188 C 
ENDROOT
BRANCH   1   2
ATOM      2  O   UNL A   1      35.099  31.199  28.459  1.00  0.00    -0.377 OA
BRANCH   2   3
ATOM      3  C   UNL A   1      34.638  30.270  27.496  1.00  0.00     0.188 C 
BRANCH   3   4
ATOM      4  C   UNL A   1      33.130  30.241  27.251  1.00  0.00     0.188 C 
BRANCH   4   5
ATOM      5  O   UNL A   1      32.699  29.822  25.972  1.00  0.00    -0.376 OA
BRANCH   5   6
ATOM      6  C   UNL A   1      31.520  30.384  25.404  1.00  0.00     0.202 C 
BRANCH   6   7
ATOM      7  C   UNL A   1      30.665  29.647  24.366  1.00  0.00     0.261 C 
BRANCH   7   8
ATOM      8  O   UNL A   1      30.908  28.233  24.185  1.00  0.00    -0.461 OA
BRANCH   8   9
ATOM      9  C   UNL A   1      31.060  27.804  22.895  1.00  0.00     0.332 C 
ATOM     10  O   UNL A   1      30.277  28.118  21.998  1.00  0.00    -0.249 OA
BRANCH   9  11
ATOM     11  C   UNL A   1      32.165  26.738  22.679  1.00  0.00     0.142 C 
ATOM     12  C   UNL A   1      31.685  25.966  21.414  1.00  0.00     0.048 C 
BRANCH  11  13
ATOM     13  N   UNL A   1      32.201  25.766  23.827  1.00  0.00    -0.292 N 
ATOM     14  C   UNL A   1      34.028  26.503  25.370  1.00  0.00     0.038 C 
ATOM     15  C   UNL A   1      33.072  25.688  24.920  1.00  0.00     0.046 C 
ATOM     16  C   UNL A   1      32.731  24.477  25.666  1.00  0.00     0.010 A 
ATOM     17  C   UNL A   1      33.284  23.890  26.794  1.00  0.00     0.011 A 
ATOM     18  C   UNL A   1      31.630  23.896  25.050  1.00  0.00     0.049 A 
ATOM     19  C   UNL A   1      31.286  24.702  23.878  1.00  0.00     0.259 C 
ATOM     20  C   UNL A   1      32.699  22.724  27.293  1.00  0.00     0.001 A 
ATOM     21  C   UNL A   1      31.029  22.745  25.524  1.00  0.00     0.014 A 
ATOM     22  O   UNL A   1      30.368  24.427  23.123  1.00  0.00    -0.269 OA
ATOM     23  C   UNL A   1      31.575  22.159  26.666  1.00  0.00     0.001 A 
ENDBRANCH  11  13
BRANCH  11  24
ATOM     24  C   UNL A   1      33.603  27.331  22.458  1.00  0.00     0.037 C 
ATOM     25  C   UNL A   1      33.835  28.837  22.652  1.00  0.00     0.007 C 
ENDBRANCH  11  24
ENDBRANCH   9  11
ENDBRANCH   8   9
ENDBRANCH   7   8
ENDBRANCH   6   7
ENDBRANCH   5   6
ENDBRANCH   4   5
ENDBRANCH   3   4
ENDBRANCH   2   3
ENDBRANCH   1   2
BRANCH   1  26
ATOM     26  C   UNL A   1      35.761  33.654  28.315  1.00  0.00     0.188 C 
BRANCH  26  27
ATOM     27  O   UNL A   1      34.398  34.065  28.413  1.00  0.00    -0.376 OA
BRANCH  27  28
ATOM     28  C   UNL A   1      34.084  35.452  28.395  1.00  0.00     0.202 C 
BRANCH  28  29
ATOM     29  C   UNL A   1      32.954  35.908  29.316  1.00  0.00     0.261 C 
BRANCH  29  30
ATOM     30  O   UNL A   1      32.680  34.981  30.374  1.00  0.00    -0.460 OA
BRANCH  30  31
ATOM     31  C   UNL A   1      32.682  35.519  31.616  1.00  0.00     0.338 C 
ATOM     32  O   UNL A   1      31.874  36.290  32.099  1.00  0.00    -0.246 OA
BRANCH  31  33
ATOM     33  C   UNL A   1      33.790  34.933  32.387  1.00  0.00     0.060 A 
ATOM     34  C   UNL A   1      35.037  35.570  32.365  1.00  0.00     0.016 A 
ATOM     35  C   UNL A   1      33.621  33.710  33.039  1.00  0.00     0.016 A 
ATOM     36  C   UNL A   1      36.139  34.957  32.952  1.00  0.00     0.010 A 
ATOM     37  C   UNL A   1      34.730  33.088  33.612  1.00  0.00     0.010 A 
ATOM     38  C   UNL A   1      35.998  33.689  33.527  1.00  0.00    -0.014 A 
BRANCH  38  39
ATOM     39  C   UNL A   1      37.202  32.898  33.856  1.00  0.00     0.031 A 
ATOM     40  C   UNL A   1      37.920  33.198  35.140  1.00  0.00     0.074 A 
ATOM     41  C   UNL A   1      37.635  31.930  33.032  1.00  0.00     0.049 A 
ATOM     42  N   UNL A   1      39.044  32.711  35.599  1.00  0.00    -0.248 NA
ATOM     43  C   UNL A   1      37.288  34.189  36.028  1.00  0.00     0.031 C 
ATOM     44  C   UNL A   1      36.984  31.528  31.787  1.00  0.00     0.029 A 
ATOM     45  N   UNL A   1      38.739  31.123  33.116  1.00  0.00    -0.354 N 
ATOM     46  C   UNL A   1      39.256  33.341  36.819  1.00  0.00     0.074 A 
ATOM     47  C   UNL A   1      38.166  34.270  37.015  1.00  0.00     0.031 C 
ATOM     48  C   UNL A   1      37.716  30.561  31.208  1.00  0.00     0.029 A 
ATOM     49  C   UNL A   1      38.903  30.309  32.024  1.00  0.00     0.049 A 
ATOM     50  H   UNL A   1      39.354  31.127  33.884  1.00  0.00     0.167 HD
ATOM     51  C   UNL A   1      40.268  33.151  37.696  1.00  0.00     0.037 A 
ATOM     52  C   UNL A   1      39.919  29.482  31.709  1.00  0.00     0.037 A 
ATOM     53  C   UNL A   1      41.348  32.225  37.486  1.00  0.00     0.049 A 
ATOM     54  C   UNL A   1      41.077  29.350  32.668  1.00  0.00     0.074 A 
ATOM     55  C   UNL A   1      42.422  31.948  38.312  1.00  0.00     0.029 A 
ATOM     56  N   UNL A   1      41.493  31.428  36.359  1.00  0.00    -0.354 N 
ATOM     57  N   UNL A   1      41.266  29.933  33.827  1.00  0.00    -0.248 NA
ATOM     58  C   UNL A   1      42.160  28.439  32.274  1.00  0.00     0.031 C 
ATOM     59  C   UNL A   1      43.247  31.027  37.660  1.00  0.00     0.029 A 
ATOM     60  C   UNL A   1      42.653  30.678  36.457  1.00  0.00     0.049 A 
ATOM     61  H   UNL A   1      40.865  31.401  35.601  1.00  0.00     0.167 HD
ATOM     62  C   UNL A   1      42.466  29.435  34.315  1.00  0.00     0.074 A 
ATOM     63  C   UNL A   1      42.955  28.491  33.332  1.00  0.00     0.031 C 
ATOM     64  C   UNL A   1      43.110  29.731  35.472  1.00  0.00     0.037 A 
BRANCH  51  65
ATOM     65  C   UNL A   1      40.268  33.976  38.950  1.00  0.00     0.064 A 
ATOM     66  C   UNL A   1      39.657  33.528  40.131  1.00  0.00     0.173 A 
ATOM     67  C   UNL A   1      40.926  35.215  38.984  1.00  0.00     0.173 A 
ATOM     68  F   UNL A   1      38.999  32.359  40.149  1.00  0.00    -0.203 F 
ATOM     69  C   UNL A   1      39.686  34.299  41.291  1.00  0.00     0.198 A 
ATOM     70  C   UNL A   1      40.981  35.968  40.153  1.00  0.00     0.198 A 
ATOM     71  F   UNL A   1      41.527  35.692  37.883  1.00  0.00    -0.203 F 
ATOM     72  F   UNL A   1      39.057  33.870  42.394  1.00  0.00    -0.200 F 
ATOM     73  C   UNL A   1      40.356  35.512  41.304  1.00  0.00     0.200 A 
ATOM     74  F   UNL A   1      41.641  37.135  40.167  1.00  0.00    -0.200 F 
ATOM     75  F   UNL A   1      40.396  36.246  42.425  1.00  0.00    -0.200 F 
ENDBRANCH  51  65
BRANCH  52  76
ATOM     76  C   UNL A   1      39.905  28.735  30.424  1.00  0.00     0.064 A 
ATOM     77  C   UNL A   1      40.422  29.298  29.250  1.00  0.00     0.173 A 
ATOM     78  C   UNL A   1      39.342  27.451  30.336  1.00  0.00     0.173 A 
ATOM     79  F   UNL A   1      40.950  30.531  29.277  1.00  0.00    -0.203 F 
ATOM     80  C   UNL A   1      40.350  28.623  28.033  1.00  0.00     0.198 A 
ATOM     81  C   UNL A   1      39.304  26.761  29.126  1.00  0.00     0.198 A 
ATOM     82  F   UNL A   1      38.836  26.862  31.430  1.00  0.00    -0.203 F 
ATOM     83  F   UNL A   1      40.797  29.213  26.916  1.00  0.00    -0.200 F 
ATOM     84  C   UNL A   1      39.795  27.353  27.973  1.00  0.00     0.200 A 
ATOM     85  F   UNL A   1      38.782  25.529  29.076  1.00  0.00    -0.200 F 
ATOM     86  F   UNL A   1      39.726  26.705  26.803  1.00  0.00    -0.200 F 
ENDBRANCH  52  76
BRANCH  64  87
ATOM     87  C   UNL A   1      44.384  28.987  35.764  1.00  0.00     0.064 A 
ATOM     88  C   UNL A   1      45.637  29.481  35.375  1.00  0.00     0.173 A 
ATOM     89  C   UNL A   1      44.348  27.782  36.484  1.00  0.00     0.173 A 
ATOM     90  F   UNL A   1      45.725  30.621  34.673  1.00  0.00    -0.203 F 
ATOM     91  C   UNL A   1      46.804  28.781  35.667  1.00  0.00     0.198 A 
ATOM     92  C   UNL A   1      45.520  27.104  36.807  1.00  0.00     0.198 A 
ATOM     93  F   UNL A   1      43.176  27.271  36.891  1.00  0.00    -0.203 F 
ATOM     94  F   UNL A   1      47.986  29.243  35.235  1.00  0.00    -0.200 F 
ATOM     95  C   UNL A   1      46.745  27.599  36.389  1.00  0.00     0.200 A 
ATOM     96  F   UNL A   1      45.461  25.973  37.523  1.00  0.00    -0.200 F 
ATOM     97  F   UNL A   1      47.871  26.931  36.678  1.00  0.00    -0.200 F 
ENDBRANCH  64  87
ENDBRANCH  38  39
ENDBRANCH  31  33
ENDBRANCH  30  31
ENDBRANCH  29  30
ENDBRANCH  28  29
ENDBRANCH  27  28
ENDBRANCH  26  27
ENDBRANCH   1  26
TORSDOF 22
ENDMDL
