MODEL 1
REMARK VINA RESULT:      -9.2      0.000      0.000
REMARK SMILES CC[C@H](C)C[C@@H](CC)[N@@H+]1CCO[C@H](CC(=O)OCCOCCOCCOCCOC(=O)c2ccc(-c3c4nc(c(-c5c(F)c(F)c(F)c(F)c5F)c5ccc([nH]5)c(-c5c(F)c(F)c(F)c(F)c5F)c5nc(c(-c6c(F)c(F)c(F)c(F)c6F)c6ccc3[nH]6)C=C5)C=C4)cc2)C1
REMARK SMILES IDX 21 1 20 2 19 3 18 4 17 5 15 6 16 7 14 8 13 9 9 10 10 11
REMARK SMILES IDX 95 12 11 14 12 15 6 16 5 17 3 18 4 19 2 20 1 21 7 22 8 23
REMARK SMILES IDX 22 24 23 25 24 26 25 27 26 28 27 29 28 30 29 31 30 32 31 33
REMARK SMILES IDX 32 34 33 35 94 36 34 37 93 38 35 39 36 40 37 41 87 42 38 43
REMARK SMILES IDX 92 44 86 45 88 46 39 47 91 48 85 49 84 50 40 52 72 53 52 54
REMARK SMILES IDX 71 55 53 56 56 57 70 58 89 59 54 60 55 61 69 63 90 64 57 65
REMARK SMILES IDX 41 66 42 67 50 68 43 69 44 70 48 71 51 72 45 73 46 74 49 75
REMARK SMILES IDX 47 76 73 77 74 78 82 79 75 80 76 81 80 82 83 83 77 84 78 85
REMARK SMILES IDX 81 86 79 87 58 88 59 89 67 90 60 91 61 92 65 93 68 94 62 95
REMARK SMILES IDX 63 96 66 97 64 98
REMARK H PARENT 9 13 88 51 56 62
REMARK Flexibility Score: inf
ROOT
ATOM      1  C   UNL A   1      38.244  21.302  25.362  1.00  0.00     0.188 C 
ENDROOT
BRANCH   1   2
ATOM      2  O   UNL A   1      37.501  22.200  24.562  1.00  0.00    -0.376 OA
BRANCH   2   3
ATOM      3  C   UNL A   1      37.016  23.463  24.983  1.00  0.00     0.202 C 
BRANCH   3   4
ATOM      4  C   UNL A   1      35.554  23.821  25.317  1.00  0.00     0.261 C 
BRANCH   4   5
ATOM      5  O   UNL A   1      35.056  23.271  26.534  1.00  0.00    -0.463 OA
BRANCH   5   6
ATOM      6  C   UNL A   1      33.744  22.940  26.611  1.00  0.00     0.308 C 
ATOM      7  O   UNL A   1      33.329  21.914  27.138  1.00  0.00    -0.252 OA
BRANCH   6   8
ATOM      8  C   UNL A   1      32.821  24.080  26.194  1.00  0.00     0.160 C 
BRANCH   8   9
ATOM      9  C   UNL A   1      31.316  23.889  25.875  1.00  0.00     0.184 C 
ATOM     10  N   UNL A   1      30.780  25.340  23.860  1.00  0.00    -0.328 N 
ATOM     11  C   UNL A   1      29.783  25.998  24.716  1.00  0.00     0.291 C 
ATOM     12  C   UNL A   1      30.934  23.959  24.377  1.00  0.00     0.295 C 
ATOM     13  H   UNL A   1      30.398  25.410  22.917  1.00  0.00     0.348 HD
ATOM     14  C   UNL A   1      30.053  25.919  26.222  1.00  0.00     0.222 C 
ATOM     15  O   UNL A   1      30.374  24.606  26.678  1.00  0.00    -0.366 OA
BRANCH  10  16
ATOM     16  C   UNL A   1      32.102  25.969  23.654  1.00  0.00     0.184 C 
BRANCH  16  17
ATOM     17  C   UNL A   1      32.287  27.037  24.760  1.00  0.00     0.068 C 
BRANCH  17  18
ATOM     18  C   UNL A   1      32.545  28.476  24.250  1.00  0.00    -0.009 C 
ATOM     19  C   UNL A   1      32.677  28.576  22.723  1.00  0.00     0.008 C 
BRANCH  18  20
ATOM     20  C   UNL A   1      31.452  29.453  24.737  1.00  0.00    -0.000 C 
ATOM     21  C   UNL A   1      30.202  29.522  23.865  1.00  0.00     0.004 C 
ENDBRANCH  18  20
ENDBRANCH  17  18
ENDBRANCH  16  17
BRANCH  16  22
ATOM     22  C   UNL A   1      33.344  25.103  23.375  1.00  0.00     0.061 C 
ATOM     23  C   UNL A   1      33.350  24.267  22.113  1.00  0.00     0.010 C 
ENDBRANCH  16  22
ENDBRANCH  10  16
ENDBRANCH   8   9
ENDBRANCH   6   8
ENDBRANCH   5   6
ENDBRANCH   4   5
ENDBRANCH   3   4
ENDBRANCH   2   3
ENDBRANCH   1   2
BRANCH   1  24
ATOM     24  C   UNL A   1      39.115  21.917  26.475  1.00  0.00     0.188 C 
BRANCH  24  25
ATOM     25  O   UNL A   1      40.516  21.818  26.492  1.00  0.00    -0.377 OA
BRANCH  25  26
ATOM     26  C   UNL A   1      41.024  20.630  27.064  1.00  0.00     0.188 C 
BRANCH  26  27
ATOM     27  C   UNL A   1      41.872  19.907  26.020  1.00  0.00     0.188 C 
BRANCH  27  28
ATOM     28  O   UNL A   1      43.251  20.235  26.077  1.00  0.00    -0.376 OA
BRANCH  28  29
ATOM     29  C   UNL A   1      43.812  21.240  25.236  1.00  0.00     0.202 C 
BRANCH  29  30
ATOM     30  C   UNL A   1      43.213  22.628  24.885  1.00  0.00     0.261 C 
BRANCH  30  31
ATOM     31  O   UNL A   1      44.059  23.777  24.778  1.00  0.00    -0.460 OA
BRANCH  31  32
ATOM     32  C   UNL A   1      44.821  24.129  25.827  1.00  0.00     0.338 C 
ATOM     33  O   UNL A   1      45.992  23.859  26.021  1.00  0.00    -0.246 OA
BRANCH  32  34
ATOM     34  C   UNL A   1      44.013  25.076  26.630  1.00  0.00     0.060 A 
ATOM     35  C   UNL A   1      44.164  26.455  26.424  1.00  0.00     0.016 A 
ATOM     36  C   UNL A   1      43.081  24.600  27.555  1.00  0.00     0.016 A 
ATOM     37  C   UNL A   1      43.407  27.363  27.164  1.00  0.00     0.010 A 
ATOM     38  C   UNL A   1      42.351  25.509  28.324  1.00  0.00     0.010 A 
ATOM     39  C   UNL A   1      42.539  26.892  28.155  1.00  0.00    -0.014 A 
BRANCH  39  40
ATOM     40  C   UNL A   1      42.036  27.816  29.198  1.00  0.00     0.031 A 
ATOM     41  C   UNL A   1      42.781  27.854  30.503  1.00  0.00     0.074 A 
ATOM     42  C   UNL A   1      40.950  28.584  29.010  1.00  0.00     0.049 A 
ATOM     43  N   UNL A   1      42.476  28.452  31.624  1.00  0.00    -0.248 NA
ATOM     44  C   UNL A   1      44.045  27.098  30.547  1.00  0.00     0.031 C 
ATOM     45  C   UNL A   1      40.188  28.686  27.769  1.00  0.00     0.029 A 
ATOM     46  N   UNL A   1      40.289  29.412  29.884  1.00  0.00    -0.354 N 
ATOM     47  C   UNL A   1      43.498  28.133  32.507  1.00  0.00     0.074 A 
ATOM     48  C   UNL A   1      44.419  27.270  31.804  1.00  0.00     0.031 C 
ATOM     49  C   UNL A   1      39.145  29.513  27.968  1.00  0.00     0.029 A 
ATOM     50  C   UNL A   1      39.143  29.958  29.361  1.00  0.00     0.049 A 
ATOM     51  H   UNL A   1      40.607  29.596  30.797  1.00  0.00     0.167 HD
ATOM     52  C   UNL A   1      43.654  28.527  33.792  1.00  0.00     0.037 A 
ATOM     53  C   UNL A   1      38.187  30.698  29.959  1.00  0.00     0.037 A 
ATOM     54  C   UNL A   1      42.727  29.376  34.486  1.00  0.00     0.049 A 
ATOM     55  C   UNL A   1      38.326  31.037  31.424  1.00  0.00     0.074 A 
ATOM     56  C   UNL A   1      42.786  29.836  35.789  1.00  0.00     0.029 A 
ATOM     57  N   UNL A   1      41.560  29.884  33.932  1.00  0.00    -0.354 N 
ATOM     58  N   UNL A   1      39.295  30.740  32.257  1.00  0.00    -0.248 NA
ATOM     59  C   UNL A   1      37.233  31.809  32.035  1.00  0.00     0.031 C 
ATOM     60  C   UNL A   1      41.627  30.574  36.041  1.00  0.00     0.029 A 
ATOM     61  C   UNL A   1      40.878  30.632  34.876  1.00  0.00     0.049 A 
ATOM     62  H   UNL A   1      41.263  29.735  33.005  1.00  0.00     0.167 HD
ATOM     63  C   UNL A   1      38.952  31.324  33.471  1.00  0.00     0.074 A 
ATOM     64  C   UNL A   1      37.683  31.990  33.270  1.00  0.00     0.031 C 
ATOM     65  C   UNL A   1      39.630  31.314  34.645  1.00  0.00     0.037 A 
BRANCH  52  66
ATOM     66  C   UNL A   1      44.850  28.007  34.534  1.00  0.00     0.064 A 
ATOM     67  C   UNL A   1      44.816  26.795  35.238  1.00  0.00     0.173 A 
ATOM     68  C   UNL A   1      46.053  28.731  34.530  1.00  0.00     0.173 A 
ATOM     69  F   UNL A   1      43.685  26.074  35.288  1.00  0.00    -0.203 F 
ATOM     70  C   UNL A   1      45.932  26.340  35.936  1.00  0.00     0.198 A 
ATOM     71  C   UNL A   1      47.178  28.256  35.200  1.00  0.00     0.198 A 
ATOM     72  F   UNL A   1      46.142  29.896  33.873  1.00  0.00    -0.203 F 
ATOM     73  F   UNL A   1      45.858  25.207  36.648  1.00  0.00    -0.200 F 
ATOM     74  C   UNL A   1      47.113  27.066  35.910  1.00  0.00     0.200 A 
ATOM     75  F   UNL A   1      48.321  28.952  35.163  1.00  0.00    -0.200 F 
ATOM     76  F   UNL A   1      48.188  26.625  36.577  1.00  0.00    -0.200 F 
ENDBRANCH  52  66
BRANCH  53  77
ATOM     77  C   UNL A   1      37.000  31.154  29.187  1.00  0.00     0.064 A 
ATOM     78  C   UNL A   1      36.872  32.490  28.783  1.00  0.00     0.173 A 
ATOM     79  C   UNL A   1      35.958  30.273  28.859  1.00  0.00     0.173 A 
ATOM     80  F   UNL A   1      37.829  33.378  29.094  1.00  0.00    -0.203 F 
ATOM     81  C   UNL A   1      35.741  32.932  28.099  1.00  0.00     0.198 A 
ATOM     82  C   UNL A   1      34.841  30.710  28.149  1.00  0.00     0.198 A 
ATOM     83  F   UNL A   1      36.026  28.984  29.223  1.00  0.00    -0.203 F 
ATOM     84  F   UNL A   1      35.623  34.226  27.770  1.00  0.00    -0.200 F 
ATOM     85  C   UNL A   1      34.729  32.040  27.777  1.00  0.00     0.200 A 
ATOM     86  F   UNL A   1      33.872  29.841  27.828  1.00  0.00    -0.200 F 
ATOM     87  F   UNL A   1      33.643  32.466  27.119  1.00  0.00    -0.200 F 
ENDBRANCH  53  77
BRANCH  65  88
ATOM     88  C   UNL A   1      39.062  32.099  35.793  1.00  0.00     0.064 A 
ATOM     89  C   UNL A   1      38.258  31.504  36.774  1.00  0.00     0.173 A 
ATOM     90  C   UNL A   1      39.411  33.450  35.959  1.00  0.00     0.173 A 
ATOM     91  F   UNL A   1      37.886  30.221  36.655  1.00  0.00    -0.203 F 
ATOM     92  C   UNL A   1      37.816  32.234  37.875  1.00  0.00     0.198 A 
ATOM     93  C   UNL A   1      38.994  34.167  37.075  1.00  0.00     0.198 A 
ATOM     94  F   UNL A   1      40.186  34.064  35.052  1.00  0.00    -0.203 F 
ATOM     95  F   UNL A   1      37.023  31.654  38.786  1.00  0.00    -0.200 F 
ATOM     96  C   UNL A   1      38.195  33.560  38.031  1.00  0.00     0.200 A 
ATOM     97  F   UNL A   1      39.378  35.441  37.233  1.00  0.00    -0.200 F 
ATOM     98  F   UNL A   1      37.788  34.253  39.104  1.00  0.00    -0.200 F 
ENDBRANCH  65  88
ENDBRANCH  39  40
ENDBRANCH  32  34
ENDBRANCH  31  32
ENDBRANCH  30  31
ENDBRANCH  29  30
ENDBRANCH  28  29
ENDBRANCH  27  28
ENDBRANCH  26  27
ENDBRANCH  25  26
ENDBRANCH  24  25
ENDBRANCH   1  24
TORSDOF 26
ENDMDL
MODEL 2
REMARK VINA RESULT:      -8.9      5.184      8.053
REMARK SMILES CC[C@H](C)C[C@@H](CC)[N@@H+]1CCO[C@H](CC(=O)OCCOCCOCCOCCOC(=O)c2ccc(-c3c4nc(c(-c5c(F)c(F)c(F)c(F)c5F)c5ccc([nH]5)c(-c5c(F)c(F)c(F)c(F)c5F)c5nc(c(-c6c(F)c(F)c(F)c(F)c6F)c6ccc3[nH]6)C=C5)C=C4)cc2)C1
REMARK SMILES IDX 21 1 20 2 19 3 18 4 17 5 15 6 16 7 14 8 13 9 9 10 10 11
REMARK SMILES IDX 95 12 11 14 12 15 6 16 5 17 3 18 4 19 2 20 1 21 7 22 8 23
REMARK SMILES IDX 22 24 23 25 24 26 25 27 26 28 27 29 28 30 29 31 30 32 31 33
REMARK SMILES IDX 32 34 33 35 94 36 34 37 93 38 35 39 36 40 37 41 87 42 38 43
REMARK SMILES IDX 92 44 86 45 88 46 39 47 91 48 85 49 84 50 40 52 72 53 52 54
REMARK SMILES IDX 71 55 53 56 56 57 70 58 89 59 54 60 55 61 69 63 90 64 57 65
REMARK SMILES IDX 41 66 42 67 50 68 43 69 44 70 48 71 51 72 45 73 46 74 49 75
REMARK SMILES IDX 47 76 73 77 74 78 82 79 75 80 76 81 80 82 83 83 77 84 78 85
REMARK SMILES IDX 81 86 79 87 58 88 59 89 67 90 60 91 61 92 65 93 68 94 62 95
REMARK SMILES IDX 63 96 66 97 64 98
REMARK H PARENT 9 13 88 51 56 62
REMARK Flexibility Score: inf
ROOT
ATOM      1  C   UNL A   1      38.054  21.518  25.613  1.00  0.00     0.188 C 
ENDROOT
BRANCH   1   2
ATOM      2  O   UNL A   1      37.421  21.828  24.387  1.00  0.00    -0.376 OA
BRANCH   2   3
ATOM      3  C   UNL A   1      36.490  22.877  24.188  1.00  0.00     0.202 C 
BRANCH   3   4
ATOM      4  C   UNL A   1      34.969  22.813  24.434  1.00  0.00     0.261 C 
BRANCH   4   5
ATOM      5  O   UNL A   1      34.180  22.504  23.288  1.00  0.00    -0.463 OA
BRANCH   5   6
ATOM      6  C   UNL A   1      33.578  23.518  22.619  1.00  0.00     0.308 C 
ATOM      7  O   UNL A   1      33.557  23.610  21.397  1.00  0.00    -0.252 OA
BRANCH   6   8
ATOM      8  C   UNL A   1      32.724  24.399  23.524  1.00  0.00     0.160 C 
BRANCH   8   9
ATOM      9  C   UNL A   1      31.213  24.156  23.776  1.00  0.00     0.184 C 
ATOM     10  N   UNL A   1      30.308  26.205  24.975  1.00  0.00    -0.328 N 
ATOM     11  C   UNL A   1      29.906  25.285  26.048  1.00  0.00     0.291 C 
ATOM     12  C   UNL A   1      30.314  25.414  23.720  1.00  0.00     0.295 C 
ATOM     13  H   UNL A   1      29.622  26.959  25.009  1.00  0.00     0.348 HD
ATOM     14  C   UNL A   1      30.706  23.980  26.132  1.00  0.00     0.222 C 
ATOM     15  O   UNL A   1      30.854  23.317  24.878  1.00  0.00    -0.366 OA
BRANCH  10  16
ATOM     16  C   UNL A   1      31.558  26.983  25.106  1.00  0.00     0.184 C 
BRANCH  16  17
ATOM     17  C   UNL A   1      31.238  28.447  24.718  1.00  0.00     0.068 C 
BRANCH  17  18
ATOM     18  C   UNL A   1      31.720  28.877  23.311  1.00  0.00    -0.009 C 
ATOM     19  C   UNL A   1      32.945  28.096  22.812  1.00  0.00     0.008 C 
BRANCH  18  20
ATOM     20  C   UNL A   1      30.585  28.775  22.268  1.00  0.00    -0.000 C 
ATOM     21  C   UNL A   1      29.644  29.975  22.207  1.00  0.00     0.004 C 
ENDBRANCH  18  20
ENDBRANCH  17  18
ENDBRANCH  16  17
BRANCH  16  22
ATOM     22  C   UNL A   1      32.452  26.822  26.349  1.00  0.00     0.061 C 
ATOM     23  C   UNL A   1      33.544  27.848  26.570  1.00  0.00     0.010 C 
ENDBRANCH  16  22
ENDBRANCH  10  16
ENDBRANCH   8   9
ENDBRANCH   6   8
ENDBRANCH   5   6
ENDBRANCH   4   5
ENDBRANCH   3   4
ENDBRANCH   2   3
ENDBRANCH   1   2
BRANCH   1  24
ATOM     24  C   UNL A   1      38.917  22.624  26.252  1.00  0.00     0.188 C 
BRANCH  24  25
ATOM     25  O   UNL A   1      40.316  22.541  26.350  1.00  0.00    -0.377 OA
BRANCH  25  26
ATOM     26  C   UNL A   1      40.796  21.487  27.159  1.00  0.00     0.188 C 
BRANCH  26  27
ATOM     27  C   UNL A   1      41.616  20.536  26.290  1.00  0.00     0.188 C 
BRANCH  27  28
ATOM     28  O   UNL A   1      43.013  20.771  26.348  1.00  0.00    -0.376 OA
BRANCH  28  29
ATOM     29  C   UNL A   1      43.695  21.458  25.301  1.00  0.00     0.202 C 
BRANCH  29  30
ATOM     30  C   UNL A   1      43.527  22.939  24.869  1.00  0.00     0.261 C 
BRANCH  30  31
ATOM     31  O   UNL A   1      44.668  23.725  24.513  1.00  0.00    -0.460 OA
BRANCH  31  32
ATOM     32  C   UNL A   1      45.626  23.942  25.429  1.00  0.00     0.338 C 
ATOM     33  O   UNL A   1      46.657  23.314  25.591  1.00  0.00    -0.246 OA
BRANCH  32  34
ATOM     34  C   UNL A   1      45.281  25.217  26.099  1.00  0.00     0.060 A 
ATOM     35  C   UNL A   1      44.723  26.260  25.347  1.00  0.00     0.016 A 
ATOM     36  C   UNL A   1      45.474  25.364  27.475  1.00  0.00     0.016 A 
ATOM     37  C   UNL A   1      44.384  27.466  25.961  1.00  0.00     0.010 A 
ATOM     38  C   UNL A   1      45.171  26.584  28.083  1.00  0.00     0.010 A 
ATOM     39  C   UNL A   1      44.660  27.650  27.321  1.00  0.00    -0.014 A 
BRANCH  39  40
ATOM     40  C   UNL A   1      44.680  29.016  27.893  1.00  0.00     0.031 A 
ATOM     41  C   UNL A   1      43.447  29.479  28.616  1.00  0.00     0.074 A 
ATOM     42  C   UNL A   1      45.742  29.829  27.766  1.00  0.00     0.049 A 
ATOM     43  N   UNL A   1      43.143  30.663  29.077  1.00  0.00    -0.248 NA
ATOM     44  C   UNL A   1      42.407  28.459  28.839  1.00  0.00     0.031 C 
ATOM     45  C   UNL A   1      47.016  29.469  27.150  1.00  0.00     0.029 A 
ATOM     46  N   UNL A   1      45.902  31.141  28.136  1.00  0.00    -0.354 N 
ATOM     47  C   UNL A   1      41.875  30.534  29.629  1.00  0.00     0.074 A 
ATOM     48  C   UNL A   1      41.455  29.167  29.424  1.00  0.00     0.031 C 
ATOM     49  C   UNL A   1      47.822  30.547  27.162  1.00  0.00     0.029 A 
ATOM     50  C   UNL A   1      47.102  31.679  27.744  1.00  0.00     0.049 A 
ATOM     51  H   UNL A   1      45.221  31.647  28.636  1.00  0.00     0.167 HD
ATOM     52  C   UNL A   1      41.127  31.475  30.251  1.00  0.00     0.037 A 
ATOM     53  C   UNL A   1      47.544  32.951  27.814  1.00  0.00     0.037 A 
ATOM     54  C   UNL A   1      41.548  32.835  30.439  1.00  0.00     0.049 A 
ATOM     55  C   UNL A   1      46.650  34.010  28.416  1.00  0.00     0.074 A 
ATOM     56  C   UNL A   1      40.871  33.871  31.054  1.00  0.00     0.029 A 
ATOM     57  N   UNL A   1      42.760  33.350  30.000  1.00  0.00    -0.354 N 
ATOM     58  N   UNL A   1      45.455  33.886  28.942  1.00  0.00    -0.248 NA
ATOM     59  C   UNL A   1      47.165  35.388  28.427  1.00  0.00     0.031 C 
ATOM     60  C   UNL A   1      41.646  35.027  30.936  1.00  0.00     0.029 A 
ATOM     61  C   UNL A   1      42.837  34.697  30.308  1.00  0.00     0.049 A 
ATOM     62  H   UNL A   1      43.460  32.834  29.538  1.00  0.00     0.167 HD
ATOM     63  C   UNL A   1      45.096  35.154  29.385  1.00  0.00     0.074 A 
ATOM     64  C   UNL A   1      46.198  36.036  29.063  1.00  0.00     0.031 C 
ATOM     65  C   UNL A   1      43.958  35.551  30.006  1.00  0.00     0.037 A 
BRANCH  52  66
ATOM     66  C   UNL A   1      39.766  31.068  30.733  1.00  0.00     0.064 A 
ATOM     67  C   UNL A   1      39.575  30.452  31.979  1.00  0.00     0.173 A 
ATOM     68  C   UNL A   1      38.634  31.308  29.939  1.00  0.00     0.173 A 
ATOM     69  F   UNL A   1      40.626  30.182  32.768  1.00  0.00    -0.203 F 
ATOM     70  C   UNL A   1      38.305  30.064  32.399  1.00  0.00     0.198 A 
ATOM     71  C   UNL A   1      37.362  30.951  30.378  1.00  0.00     0.198 A 
ATOM     72  F   UNL A   1      38.760  31.895  28.740  1.00  0.00    -0.203 F 
ATOM     73  F   UNL A   1      38.154  29.426  33.568  1.00  0.00    -0.200 F 
ATOM     74  C   UNL A   1      37.200  30.321  31.603  1.00  0.00     0.200 A 
ATOM     75  F   UNL A   1      36.294  31.212  29.612  1.00  0.00    -0.200 F 
ATOM     76  F   UNL A   1      35.978  29.953  32.010  1.00  0.00    -0.200 F 
ENDBRANCH  52  66
BRANCH  53  77
ATOM     77  C   UNL A   1      48.887  33.309  27.284  1.00  0.00     0.064 A 
ATOM     78  C   UNL A   1      50.049  33.028  28.015  1.00  0.00     0.173 A 
ATOM     79  C   UNL A   1      49.037  33.960  26.050  1.00  0.00     0.173 A 
ATOM     80  F   UNL A   1      49.959  32.431  29.213  1.00  0.00    -0.203 F 
ATOM     81  C   UNL A   1      51.307  33.402  27.544  1.00  0.00     0.198 A 
ATOM     82  C   UNL A   1      50.297  34.306  25.566  1.00  0.00     0.198 A 
ATOM     83  F   UNL A   1      47.959  34.256  25.310  1.00  0.00    -0.203 F 
ATOM     84  F   UNL A   1      52.396  33.167  28.288  1.00  0.00    -0.200 F 
ATOM     85  C   UNL A   1      51.430  34.035  26.317  1.00  0.00     0.200 A 
ATOM     86  F   UNL A   1      50.413  34.906  24.372  1.00  0.00    -0.200 F 
ATOM     87  F   UNL A   1      52.639  34.393  25.864  1.00  0.00    -0.200 F 
ENDBRANCH  53  77
BRANCH  65  88
ATOM     88  C   UNL A   1      43.861  36.982  30.450  1.00  0.00     0.064 A 
ATOM     89  C   UNL A   1      44.246  37.389  31.734  1.00  0.00     0.173 A 
ATOM     90  C   UNL A   1      43.465  37.974  29.538  1.00  0.00     0.173 A 
ATOM     91  F   UNL A   1      44.621  36.481  32.647  1.00  0.00    -0.203 F 
ATOM     92  C   UNL A   1      44.229  38.735  32.093  1.00  0.00     0.198 A 
ATOM     93  C   UNL A   1      43.479  39.320  29.888  1.00  0.00     0.198 A 
ATOM     94  F   UNL A   1      43.095  37.637  28.292  1.00  0.00    -0.203 F 
ATOM     95  F   UNL A   1      44.573  39.100  33.336  1.00  0.00    -0.200 F 
ATOM     96  C   UNL A   1      43.859  39.699  31.166  1.00  0.00     0.200 A 
ATOM     97  F   UNL A   1      43.139  40.250  28.985  1.00  0.00    -0.200 F 
ATOM     98  F   UNL A   1      43.867  40.996  31.506  1.00  0.00    -0.200 F 
ENDBRANCH  65  88
ENDBRANCH  39  40
ENDBRANCH  32  34
ENDBRANCH  31  32
ENDBRANCH  30  31
ENDBRANCH  29  30
ENDBRANCH  28  29
ENDBRANCH  27  28
ENDBRANCH  26  27
ENDBRANCH  25  26
ENDBRANCH  24  25
ENDBRANCH   1  24
TORSDOF 26
ENDMDL
MODEL 3
REMARK VINA RESULT:      -8.9      1.099      2.246
REMARK SMILES CC[C@H](C)C[C@@H](CC)[N@@H+]1CCO[C@H](CC(=O)OCCOCCOCCOCCOC(=O)c2ccc(-c3c4nc(c(-c5c(F)c(F)c(F)c(F)c5F)c5ccc([nH]5)c(-c5c(F)c(F)c(F)c(F)c5F)c5nc(c(-c6c(F)c(F)c(F)c(F)c6F)c6ccc3[nH]6)C=C5)C=C4)cc2)C1
REMARK SMILES IDX 21 1 20 2 19 3 18 4 17 5 15 6 16 7 14 8 13 9 9 10 10 11
REMARK SMILES IDX 95 12 11 14 12 15 6 16 5 17 3 18 4 19 2 20 1 21 7 22 8 23
REMARK SMILES IDX 22 24 23 25 24 26 25 27 26 28 27 29 28 30 29 31 30 32 31 33
REMARK SMILES IDX 32 34 33 35 94 36 34 37 93 38 35 39 36 40 37 41 87 42 38 43
REMARK SMILES IDX 92 44 86 45 88 46 39 47 91 48 85 49 84 50 40 52 72 53 52 54
REMARK SMILES IDX 71 55 53 56 56 57 70 58 89 59 54 60 55 61 69 63 90 64 57 65
REMARK SMILES IDX 41 66 42 67 50 68 43 69 44 70 48 71 51 72 45 73 46 74 49 75
REMARK SMILES IDX 47 76 73 77 74 78 82 79 75 80 76 81 80 82 83 83 77 84 78 85
REMARK SMILES IDX 81 86 79 87 58 88 59 89 67 90 60 91 61 92 65 93 68 94 62 95
REMARK SMILES IDX 63 96 66 97 64 98
REMARK H PARENT 9 13 88 51 56 62
REMARK Flexibility Score: inf
ROOT
ATOM      1  C   UNL A   1      37.718  21.611  25.393  1.00  0.00     0.188 C 
ENDROOT
BRANCH   1   2
ATOM      2  O   UNL A   1      37.089  22.021  24.195  1.00  0.00    -0.376 OA
BRANCH   2   3
ATOM      3  C   UNL A   1      36.673  23.343  23.899  1.00  0.00     0.202 C 
BRANCH   3   4
ATOM      4  C   UNL A   1      35.324  23.987  24.278  1.00  0.00     0.261 C 
BRANCH   4   5
ATOM      5  O   UNL A   1      34.777  23.566  25.525  1.00  0.00    -0.463 OA
BRANCH   5   6
ATOM      6  C   UNL A   1      33.543  23.006  25.540  1.00  0.00     0.308 C 
ATOM      7  O   UNL A   1      33.099  22.358  26.482  1.00  0.00    -0.252 OA
BRANCH   6   8
ATOM      8  C   UNL A   1      32.673  23.462  24.374  1.00  0.00     0.160 C 
BRANCH   8   9
ATOM      9  C   UNL A   1      31.143  23.692  24.487  1.00  0.00     0.184 C 
ATOM     10  N   UNL A   1      30.634  25.935  23.408  1.00  0.00    -0.328 N 
ATOM     11  C   UNL A   1      30.070  26.327  24.706  1.00  0.00     0.291 C 
ATOM     12  C   UNL A   1      30.493  24.461  23.313  1.00  0.00     0.295 C 
ATOM     13  H   UNL A   1      30.100  26.467  22.721  1.00  0.00     0.348 HD
ATOM     14  C   UNL A   1      30.615  25.566  25.920  1.00  0.00     0.222 C 
ATOM     15  O   UNL A   1      30.636  24.150  25.745  1.00  0.00    -0.366 OA
BRANCH  10  16
ATOM     16  C   UNL A   1      32.007  26.350  23.048  1.00  0.00     0.184 C 
BRANCH  16  17
ATOM     17  C   UNL A   1      32.748  26.697  24.362  1.00  0.00     0.068 C 
BRANCH  17  18
ATOM     18  C   UNL A   1      33.346  28.123  24.425  1.00  0.00    -0.009 C 
ATOM     19  C   UNL A   1      34.267  28.460  23.243  1.00  0.00     0.008 C 
BRANCH  18  20
ATOM     20  C   UNL A   1      32.240  29.196  24.538  1.00  0.00    -0.000 C 
ATOM     21  C   UNL A   1      31.690  29.423  25.943  1.00  0.00     0.004 C 
ENDBRANCH  18  20
ENDBRANCH  17  18
ENDBRANCH  16  17
BRANCH  16  22
ATOM     22  C   UNL A   1      32.830  25.531  22.036  1.00  0.00     0.061 C 
ATOM     23  C   UNL A   1      32.402  25.570  20.585  1.00  0.00     0.010 C 
ENDBRANCH  16  22
ENDBRANCH  10  16
ENDBRANCH   8   9
ENDBRANCH   6   8
ENDBRANCH   5   6
ENDBRANCH   4   5
ENDBRANCH   3   4
ENDBRANCH   2   3
ENDBRANCH   1   2
BRANCH   1  24
ATOM     24  C   UNL A   1      38.461  22.695  26.197  1.00  0.00     0.188 C 
BRANCH  24  25
ATOM     25  O   UNL A   1      39.861  22.743  26.303  1.00  0.00    -0.377 OA
BRANCH  25  26
ATOM     26  C   UNL A   1      40.418  21.873  27.267  1.00  0.00     0.188 C 
BRANCH  26  27
ATOM     27  C   UNL A   1      41.074  20.698  26.545  1.00  0.00     0.188 C 
BRANCH  27  28
ATOM     28  O   UNL A   1      42.491  20.746  26.547  1.00  0.00    -0.376 OA
BRANCH  28  29
ATOM     29  C   UNL A   1      43.214  21.393  25.502  1.00  0.00     0.202 C 
BRANCH  29  30
ATOM     30  C   UNL A   1      43.047  22.849  24.990  1.00  0.00     0.261 C 
BRANCH  30  31
ATOM     31  O   UNL A   1      44.159  23.553  24.432  1.00  0.00    -0.460 OA
BRANCH  31  32
ATOM     32  C   UNL A   1      45.050  24.130  25.256  1.00  0.00     0.338 C 
ATOM     33  O   UNL A   1      46.261  24.001  25.251  1.00  0.00    -0.246 OA
BRANCH  32  34
ATOM     34  C   UNL A   1      44.293  25.110  26.069  1.00  0.00     0.060 A 
ATOM     35  C   UNL A   1      44.348  26.470  25.734  1.00  0.00     0.016 A 
ATOM     36  C   UNL A   1      43.499  24.678  27.135  1.00  0.00     0.016 A 
ATOM     37  C   UNL A   1      43.637  27.407  26.482  1.00  0.00     0.010 A 
ATOM     38  C   UNL A   1      42.818  25.619  27.908  1.00  0.00     0.010 A 
ATOM     39  C   UNL A   1      42.914  26.989  27.606  1.00  0.00    -0.014 A 
BRANCH  39  40
ATOM     40  C   UNL A   1      42.488  27.980  28.622  1.00  0.00     0.031 A 
ATOM     41  C   UNL A   1      43.396  28.191  29.801  1.00  0.00     0.074 A 
ATOM     42  C   UNL A   1      41.333  28.658  28.521  1.00  0.00     0.049 A 
ATOM     43  N   UNL A   1      43.200  28.878  30.895  1.00  0.00    -0.248 NA
ATOM     44  C   UNL A   1      44.707  27.522  29.734  1.00  0.00     0.031 C 
ATOM     45  C   UNL A   1      40.407  28.590  27.394  1.00  0.00     0.029 A 
ATOM     46  N   UNL A   1      40.736  29.526  29.401  1.00  0.00    -0.354 N 
ATOM     47  C   UNL A   1      44.353  28.710  31.651  1.00  0.00     0.074 A 
ATOM     48  C   UNL A   1      45.233  27.839  30.906  1.00  0.00     0.031 C 
ATOM     49  C   UNL A   1      39.341  29.367  27.663  1.00  0.00     0.029 A 
ATOM     50  C   UNL A   1      39.493  29.947  28.998  1.00  0.00     0.049 A 
ATOM     51  H   UNL A   1      41.159  29.819  30.240  1.00  0.00     0.167 HD
ATOM     52  C   UNL A   1      44.650  29.238  32.861  1.00  0.00     0.037 A 
ATOM     53  C   UNL A   1      38.574  30.682  29.655  1.00  0.00     0.037 A 
ATOM     54  C   UNL A   1      43.764  30.093  33.600  1.00  0.00     0.049 A 
ATOM     55  C   UNL A   1      38.882  31.172  31.050  1.00  0.00     0.074 A 
ATOM     56  C   UNL A   1      43.962  30.681  34.836  1.00  0.00     0.029 A 
ATOM     57  N   UNL A   1      42.499  30.472  33.172  1.00  0.00    -0.354 N 
ATOM     58  N   UNL A   1      39.973  31.018  31.761  1.00  0.00    -0.248 NA
ATOM     59  C   UNL A   1      37.826  31.933  31.737  1.00  0.00     0.031 C 
ATOM     60  C   UNL A   1      42.796  31.368  35.181  1.00  0.00     0.029 A 
ATOM     61  C   UNL A   1      41.897  31.266  34.132  1.00  0.00     0.049 A 
ATOM     62  H   UNL A   1      42.092  30.214  32.313  1.00  0.00     0.167 HD
ATOM     63  C   UNL A   1      39.753  31.697  32.955  1.00  0.00     0.074 A 
ATOM     64  C   UNL A   1      38.423  32.262  32.875  1.00  0.00     0.031 C 
ATOM     65  C   UNL A   1      40.581  31.845  34.019  1.00  0.00     0.037 A 
BRANCH  52  66
ATOM     66  C   UNL A   1      45.970  28.867  33.471  1.00  0.00     0.064 A 
ATOM     67  C   UNL A   1      47.124  29.638  33.264  1.00  0.00     0.173 A 
ATOM     68  C   UNL A   1      46.078  27.728  34.284  1.00  0.00     0.173 A 
ATOM     69  F   UNL A   1      47.078  30.725  32.480  1.00  0.00    -0.203 F 
ATOM     70  C   UNL A   1      48.343  29.265  33.824  1.00  0.00     0.198 A 
ATOM     71  C   UNL A   1      47.292  27.378  34.871  1.00  0.00     0.198 A 
ATOM     72  F   UNL A   1      45.006  26.956  34.515  1.00  0.00    -0.203 F 
ATOM     73  F   UNL A   1      49.445  29.986  33.566  1.00  0.00    -0.200 F 
ATOM     74  C   UNL A   1      48.425  28.142  34.632  1.00  0.00     0.200 A 
ATOM     75  F   UNL A   1      47.365  26.300  35.661  1.00  0.00    -0.200 F 
ATOM     76  F   UNL A   1      49.598  27.788  35.174  1.00  0.00    -0.200 F 
ENDBRANCH  52  66
BRANCH  53  77
ATOM     77  C   UNL A   1      37.263  30.987  29.019  1.00  0.00     0.064 A 
ATOM     78  C   UNL A   1      36.295  29.988  28.849  1.00  0.00     0.173 A 
ATOM     79  C   UNL A   1      36.960  32.273  28.547  1.00  0.00     0.173 A 
ATOM     80  F   UNL A   1      36.546  28.735  29.259  1.00  0.00    -0.203 F 
ATOM     81  C   UNL A   1      35.084  30.257  28.213  1.00  0.00     0.198 A 
ATOM     82  C   UNL A   1      35.737  32.548  27.939  1.00  0.00     0.198 A 
ATOM     83  F   UNL A   1      37.851  33.266  28.681  1.00  0.00    -0.203 F 
ATOM     84  F   UNL A   1      34.199  29.270  28.018  1.00  0.00    -0.200 F 
ATOM     85  C   UNL A   1      34.804  31.538  27.764  1.00  0.00     0.200 A 
ATOM     86  F   UNL A   1      35.465  33.792  27.518  1.00  0.00    -0.200 F 
ATOM     87  F   UNL A   1      33.639  31.797  27.154  1.00  0.00    -0.200 F 
ENDBRANCH  53  77
BRANCH  65  88
ATOM     88  C   UNL A   1      40.116  32.703  35.160  1.00  0.00     0.064 A 
ATOM     89  C   UNL A   1      40.350  34.084  35.194  1.00  0.00     0.173 A 
ATOM     90  C   UNL A   1      39.339  32.142  36.187  1.00  0.00     0.173 A 
ATOM     91  F   UNL A   1      41.096  34.666  34.243  1.00  0.00    -0.203 F 
ATOM     92  C   UNL A   1      39.832  34.871  36.219  1.00  0.00     0.198 A 
ATOM     93  C   UNL A   1      38.797  32.936  37.193  1.00  0.00     0.198 A 
ATOM     94  F   UNL A   1      39.079  30.826  36.196  1.00  0.00    -0.203 F 
ATOM     95  F   UNL A   1      40.094  36.185  36.249  1.00  0.00    -0.200 F 
ATOM     96  C   UNL A   1      39.047  34.299  37.210  1.00  0.00     0.200 A 
ATOM     97  F   UNL A   1      38.023  32.384  38.137  1.00  0.00    -0.200 F 
ATOM     98  F   UNL A   1      38.529  35.064  38.182  1.00  0.00    -0.200 F 
ENDBRANCH  65  88
ENDBRANCH  39  40
ENDBRANCH  32  34
ENDBRANCH  31  32
ENDBRANCH  30  31
ENDBRANCH  29  30
ENDBRANCH  28  29
ENDBRANCH  27  28
ENDBRANCH  26  27
ENDBRANCH  25  26
ENDBRANCH  24  25
ENDBRANCH   1  24
TORSDOF 26
ENDMDL
