MODEL 1
REMARK VINA RESULT:     -11.1      0.000      0.000
REMARK SMILES Cc1ccc(-n2cnnn2)cc1OCC(=O)OCCOCCOCCOCCOC(=O)c1ccc(-c2c3nc(c(-c4c(F)c(F)c(F)c(F)c4F)c4ccc([nH]4)c(-c4c(F)c(F)c(F)c(F)c4F)c4nc(c(-c5c(F)c(F)c(F)c(F)c5F)c5ccc2[nH]5)C=C4)C=C3)cc1
REMARK SMILES IDX 22 1 21 2 20 3 19 4 18 5 17 6 15 7 16 8 14 9 13 10 12 11
REMARK SMILES IDX 1 12 2 13 3 14 4 15 11 16 5 17 6 18 7 19 10 20 8 21 9 22
REMARK SMILES IDX 23 23 24 24 25 25 26 26 27 27 28 28 29 29 30 30 31 31 32 32
REMARK SMILES IDX 33 33 94 34 34 35 93 36 35 37 36 38 37 39 87 40 38 41 92 42
REMARK SMILES IDX 86 43 88 44 39 45 91 46 85 47 84 48 40 50 72 51 52 52 71 53
REMARK SMILES IDX 53 54 56 55 70 56 89 57 54 58 55 59 69 61 90 62 57 63 41 64
REMARK SMILES IDX 42 65 50 66 43 67 44 68 48 69 51 70 45 71 46 72 49 73 47 74
REMARK SMILES IDX 73 75 74 76 82 77 75 78 76 79 80 80 83 81 77 82 78 83 81 84
REMARK SMILES IDX 79 85 58 86 59 87 67 88 60 89 61 90 65 91 68 92 62 93 63 94
REMARK SMILES IDX 66 95 64 96
REMARK H PARENT 88 49 56 60
REMARK Flexibility Score: inf
ROOT
ATOM      1  C   UNL A   1      40.833  21.123  27.358  1.00  0.00     0.188 C 
ENDROOT
BRANCH   1   2
ATOM      2  C   UNL A   1      39.747  22.109  26.832  1.00  0.00     0.188 C 
BRANCH   2   3
ATOM      3  O   UNL A   1      38.735  21.785  25.894  1.00  0.00    -0.376 OA
BRANCH   3   4
ATOM      4  C   UNL A   1      37.747  22.766  25.727  1.00  0.00     0.202 C 
BRANCH   4   5
ATOM      5  C   UNL A   1      36.445  22.396  25.051  1.00  0.00     0.261 C 
BRANCH   5   6
ATOM      6  O   UNL A   1      35.420  23.319  25.414  1.00  0.00    -0.461 OA
BRANCH   6   7
ATOM      7  C   UNL A   1      34.472  22.823  26.234  1.00  0.00     0.344 C 
ATOM      8  O   UNL A   1      34.539  22.802  27.458  1.00  0.00    -0.248 OA
BRANCH   7   9
ATOM      9  C   UNL A   1      33.283  22.270  25.448  1.00  0.00     0.351 C 
BRANCH   9  10
ATOM     10  O   UNL A   1      32.766  20.969  25.633  1.00  0.00    -0.482 OA
BRANCH  10  11
ATOM     11  C   UNL A   1      32.537  20.037  24.661  1.00  0.00     0.125 A 
ATOM     12  C   UNL A   1      31.936  21.446  22.533  1.00  0.00     0.048 C 
ATOM     13  C   UNL A   1      32.263  20.188  23.291  1.00  0.00    -0.009 A 
ATOM     14  C   UNL A   1      32.386  19.051  22.452  1.00  0.00     0.009 A 
ATOM     15  C   UNL A   1      32.754  17.801  22.937  1.00  0.00     0.029 A 
ATOM     16  C   UNL A   1      32.791  18.733  25.164  1.00  0.00     0.075 A 
ATOM     17  C   UNL A   1      32.920  17.630  24.305  1.00  0.00     0.072 A 
BRANCH  17  18
ATOM     18  N   UNL A   1      33.282  16.356  24.782  1.00  0.00    -0.200 N 
ATOM     19  C   UNL A   1      32.486  15.346  25.250  1.00  0.00     0.252 A 
ATOM     20  N   UNL A   1      34.565  15.927  24.798  1.00  0.00    -0.040 NA
ATOM     21  N   UNL A   1      33.243  14.330  25.597  1.00  0.00    -0.117 NA
ATOM     22  N   UNL A   1      34.532  14.716  25.335  1.00  0.00    -0.024 NA
ENDBRANCH  17  18
ENDBRANCH  10  11
ENDBRANCH   9  10
ENDBRANCH   7   9
ENDBRANCH   6   7
ENDBRANCH   5   6
ENDBRANCH   4   5
ENDBRANCH   3   4
ENDBRANCH   2   3
ENDBRANCH   1   2
BRANCH   1  23
ATOM     23  O   UNL A   1      41.337  20.113  26.505  1.00  0.00    -0.377 OA
BRANCH  23  24
ATOM     24  C   UNL A   1      42.191  19.105  27.030  1.00  0.00     0.188 C 
BRANCH  24  25
ATOM     25  C   UNL A   1      43.131  18.347  26.133  1.00  0.00     0.188 C 
BRANCH  25  26
ATOM     26  O   UNL A   1      43.344  19.147  24.987  1.00  0.00    -0.376 OA
BRANCH  26  27
ATOM     27  C   UNL A   1      44.642  19.084  24.425  1.00  0.00     0.202 C 
BRANCH  27  28
ATOM     28  C   UNL A   1      45.662  19.849  25.267  1.00  0.00     0.261 C 
BRANCH  28  29
ATOM     29  O   UNL A   1      46.174  20.943  24.470  1.00  0.00    -0.460 OA
BRANCH  29  30
ATOM     30  C   UNL A   1      45.323  22.000  24.303  1.00  0.00     0.338 C 
ATOM     31  O   UNL A   1      44.513  22.108  23.412  1.00  0.00    -0.246 OA
BRANCH  30  32
ATOM     32  C   UNL A   1      45.709  23.125  25.220  1.00  0.00     0.060 A 
ATOM     33  C   UNL A   1      45.182  23.190  26.524  1.00  0.00     0.016 A 
ATOM     34  C   UNL A   1      46.320  24.254  24.687  1.00  0.00     0.016 A 
ATOM     35  C   UNL A   1      45.138  24.416  27.226  1.00  0.00     0.010 A 
ATOM     36  C   UNL A   1      46.161  25.472  25.329  1.00  0.00     0.010 A 
ATOM     37  C   UNL A   1      45.553  25.589  26.596  1.00  0.00    -0.014 A 
BRANCH  37  38
ATOM     38  C   UNL A   1      45.306  26.982  27.067  1.00  0.00     0.031 A 
ATOM     39  C   UNL A   1      43.877  27.472  27.082  1.00  0.00     0.074 A 
ATOM     40  C   UNL A   1      46.246  27.597  27.843  1.00  0.00     0.049 A 
ATOM     41  N   UNL A   1      43.447  28.565  27.621  1.00  0.00    -0.248 NA
ATOM     42  C   UNL A   1      42.770  26.678  26.554  1.00  0.00     0.031 C 
ATOM     43  C   UNL A   1      46.002  28.565  28.928  1.00  0.00     0.029 A 
ATOM     44  N   UNL A   1      47.626  27.351  27.992  1.00  0.00    -0.354 N 
ATOM     45  C   UNL A   1      42.076  28.461  27.838  1.00  0.00     0.074 A 
ATOM     46  C   UNL A   1      41.706  27.287  27.087  1.00  0.00     0.031 C 
ATOM     47  C   UNL A   1      47.142  28.884  29.564  1.00  0.00     0.029 A 
ATOM     48  C   UNL A   1      48.191  28.458  28.678  1.00  0.00     0.049 A 
ATOM     49  H   UNL A   1      48.111  26.556  27.675  1.00  0.00     0.167 HD
ATOM     50  C   UNL A   1      41.469  29.308  28.740  1.00  0.00     0.037 A 
ATOM     51  C   UNL A   1      48.991  29.341  28.013  1.00  0.00     0.037 A 
ATOM     52  C   UNL A   1      42.445  30.316  29.238  1.00  0.00     0.049 A 
ATOM     53  C   UNL A   1      48.250  30.661  27.810  1.00  0.00     0.074 A 
ATOM     54  C   UNL A   1      42.876  30.758  30.478  1.00  0.00     0.029 A 
ATOM     55  N   UNL A   1      43.301  30.939  28.320  1.00  0.00    -0.354 N 
ATOM     56  N   UNL A   1      46.938  30.748  27.836  1.00  0.00    -0.248 NA
ATOM     57  C   UNL A   1      48.865  31.984  27.760  1.00  0.00     0.031 C 
ATOM     58  C   UNL A   1      44.081  31.507  30.299  1.00  0.00     0.029 A 
ATOM     59  C   UNL A   1      44.342  31.599  28.939  1.00  0.00     0.049 A 
ATOM     60  H   UNL A   1      43.175  30.907  27.344  1.00  0.00     0.167 HD
ATOM     61  C   UNL A   1      46.542  32.044  27.949  1.00  0.00     0.074 A 
ATOM     62  C   UNL A   1      47.783  32.789  27.825  1.00  0.00     0.031 C 
ATOM     63  C   UNL A   1      45.248  32.436  28.159  1.00  0.00     0.037 A 
BRANCH  50  64
ATOM     64  C   UNL A   1      40.037  29.170  29.334  1.00  0.00     0.064 A 
ATOM     65  C   UNL A   1      38.884  29.516  28.579  1.00  0.00     0.173 A 
ATOM     66  C   UNL A   1      39.710  28.726  30.637  1.00  0.00     0.173 A 
ATOM     67  F   UNL A   1      38.965  29.853  27.288  1.00  0.00    -0.203 F 
ATOM     68  C   UNL A   1      37.574  29.496  29.095  1.00  0.00     0.198 A 
ATOM     69  C   UNL A   1      38.399  28.689  31.150  1.00  0.00     0.198 A 
ATOM     70  F   UNL A   1      40.622  28.255  31.481  1.00  0.00    -0.203 F 
ATOM     71  F   UNL A   1      36.546  29.867  28.317  1.00  0.00    -0.200 F 
ATOM     72  C   UNL A   1      37.330  29.088  30.384  1.00  0.00     0.200 A 
ATOM     73  F   UNL A   1      38.191  28.245  32.399  1.00  0.00    -0.200 F 
ATOM     74  F   UNL A   1      36.084  29.047  30.873  1.00  0.00    -0.200 F 
ENDBRANCH  50  64
BRANCH  51  75
ATOM     75  C   UNL A   1      50.006  28.576  27.213  1.00  0.00     0.064 A 
ATOM     76  C   UNL A   1      51.016  27.979  28.013  1.00  0.00     0.173 A 
ATOM     77  C   UNL A   1      49.612  27.865  26.067  1.00  0.00     0.173 A 
ATOM     78  F   UNL A   1      51.466  28.622  29.103  1.00  0.00    -0.203 F 
ATOM     79  C   UNL A   1      51.379  26.639  27.848  1.00  0.00     0.198 A 
ATOM     80  C   UNL A   1      50.013  26.532  25.885  1.00  0.00     0.198 A 
ATOM     81  F   UNL A   1      48.690  28.378  25.242  1.00  0.00    -0.203 F 
ATOM     82  F   UNL A   1      52.144  26.034  28.769  1.00  0.00    -0.200 F 
ATOM     83  C   UNL A   1      50.832  25.902  26.814  1.00  0.00     0.200 A 
ATOM     84  F   UNL A   1      49.502  25.811  24.875  1.00  0.00    -0.200 F 
ATOM     85  F   UNL A   1      51.039  24.579  26.751  1.00  0.00    -0.200 F 
ENDBRANCH  51  75
BRANCH  63  86
ATOM     86  C   UNL A   1      44.680  33.712  27.596  1.00  0.00     0.064 A 
ATOM     87  C   UNL A   1      44.090  33.762  26.325  1.00  0.00     0.173 A 
ATOM     88  C   UNL A   1      44.472  34.848  28.420  1.00  0.00     0.173 A 
ATOM     89  F   UNL A   1      44.100  32.703  25.505  1.00  0.00    -0.203 F 
ATOM     90  C   UNL A   1      43.397  34.887  25.884  1.00  0.00     0.198 A 
ATOM     91  C   UNL A   1      43.721  35.938  28.000  1.00  0.00     0.198 A 
ATOM     92  F   UNL A   1      44.941  34.917  29.673  1.00  0.00    -0.203 F 
ATOM     93  F   UNL A   1      42.884  34.898  24.646  1.00  0.00    -0.200 F 
ATOM     94  C   UNL A   1      43.201  35.967  26.723  1.00  0.00     0.200 A 
ATOM     95  F   UNL A   1      43.476  36.945  28.851  1.00  0.00    -0.200 F 
ATOM     96  F   UNL A   1      42.491  37.024  26.310  1.00  0.00    -0.200 F 
ENDBRANCH  63  86
ENDBRANCH  37  38
ENDBRANCH  30  32
ENDBRANCH  29  30
ENDBRANCH  28  29
ENDBRANCH  27  28
ENDBRANCH  26  27
ENDBRANCH  25  26
ENDBRANCH  24  25
ENDBRANCH  23  24
ENDBRANCH   1  23
TORSDOF 23
ENDMDL
MODEL 2
REMARK VINA RESULT:      -9.9      6.230     11.069
REMARK SMILES Cc1ccc(-n2cnnn2)cc1OCC(=O)OCCOCCOCCOCCOC(=O)c1ccc(-c2c3nc(c(-c4c(F)c(F)c(F)c(F)c4F)c4ccc([nH]4)c(-c4c(F)c(F)c(F)c(F)c4F)c4nc(c(-c5c(F)c(F)c(F)c(F)c5F)c5ccc2[nH]5)C=C4)C=C3)cc1
REMARK SMILES IDX 22 1 21 2 20 3 19 4 18 5 17 6 15 7 16 8 14 9 13 10 12 11
REMARK SMILES IDX 1 12 2 13 3 14 4 15 11 16 5 17 6 18 7 19 10 20 8 21 9 22
REMARK SMILES IDX 23 23 24 24 25 25 26 26 27 27 28 28 29 29 30 30 31 31 32 32
REMARK SMILES IDX 33 33 94 34 34 35 93 36 35 37 36 38 37 39 87 40 38 41 92 42
REMARK SMILES IDX 86 43 88 44 39 45 91 46 85 47 84 48 40 50 72 51 52 52 71 53
REMARK SMILES IDX 53 54 56 55 70 56 89 57 54 58 55 59 69 61 90 62 57 63 41 64
REMARK SMILES IDX 42 65 50 66 43 67 44 68 48 69 51 70 45 71 46 72 49 73 47 74
REMARK SMILES IDX 73 75 74 76 82 77 75 78 76 79 80 80 83 81 77 82 78 83 81 84
REMARK SMILES IDX 79 85 58 86 59 87 67 88 60 89 61 90 65 91 68 92 62 93 63 94
REMARK SMILES IDX 66 95 64 96
REMARK H PARENT 88 49 56 60
REMARK Flexibility Score: inf
ROOT
ATOM      1  C   UNL A   1      33.808  36.533  28.643  1.00  0.00     0.188 C 
ENDROOT
BRANCH   1   2
ATOM      2  C   UNL A   1      33.576  35.010  28.874  1.00  0.00     0.188 C 
BRANCH   2   3
ATOM      3  O   UNL A   1      34.342  33.969  28.294  1.00  0.00    -0.376 OA
BRANCH   3   4
ATOM      4  C   UNL A   1      33.796  32.685  28.431  1.00  0.00     0.202 C 
BRANCH   4   5
ATOM      5  C   UNL A   1      34.381  31.543  27.630  1.00  0.00     0.261 C 
BRANCH   5   6
ATOM      6  O   UNL A   1      33.464  30.453  27.581  1.00  0.00    -0.461 OA
BRANCH   6   7
ATOM      7  C   UNL A   1      32.511  30.552  26.632  1.00  0.00     0.344 C 
ATOM      8  O   UNL A   1      31.483  31.213  26.733  1.00  0.00    -0.248 OA
BRANCH   7   9
ATOM      9  C   UNL A   1      32.858  29.720  25.397  1.00  0.00     0.351 C 
BRANCH   9  10
ATOM     10  O   UNL A   1      32.343  28.428  25.160  1.00  0.00    -0.482 OA
BRANCH  10  11
ATOM     11  C   UNL A   1      31.241  28.113  24.415  1.00  0.00     0.125 A 
ATOM     12  C   UNL A   1      30.900  25.543  24.806  1.00  0.00     0.048 C 
ATOM     13  C   UNL A   1      30.527  26.909  24.297  1.00  0.00    -0.009 A 
ATOM     14  C   UNL A   1      29.238  26.948  23.707  1.00  0.00     0.009 A 
ATOM     15  C   UNL A   1      28.668  28.125  23.236  1.00  0.00     0.029 A 
ATOM     16  C   UNL A   1      30.702  29.285  23.821  1.00  0.00     0.075 A 
ATOM     17  C   UNL A   1      29.417  29.293  23.257  1.00  0.00     0.072 A 
BRANCH  17  18
ATOM     18  N   UNL A   1      28.830  30.475  22.766  1.00  0.00    -0.200 N 
ATOM     19  C   UNL A   1      27.993  31.356  23.396  1.00  0.00     0.252 A 
ATOM     20  N   UNL A   1      29.077  30.943  21.520  1.00  0.00    -0.040 NA
ATOM     21  N   UNL A   1      27.681  32.322  22.563  1.00  0.00    -0.117 NA
ATOM     22  N   UNL A   1      28.340  32.036  21.394  1.00  0.00    -0.024 NA
ENDBRANCH  17  18
ENDBRANCH  10  11
ENDBRANCH   9  10
ENDBRANCH   7   9
ENDBRANCH   6   7
ENDBRANCH   5   6
ENDBRANCH   4   5
ENDBRANCH   3   4
ENDBRANCH   2   3
ENDBRANCH   1   2
BRANCH   1  23
ATOM     23  O   UNL A   1      33.267  37.472  29.553  1.00  0.00    -0.377 OA
BRANCH  23  24
ATOM     24  C   UNL A   1      33.278  37.193  30.947  1.00  0.00     0.188 C 
BRANCH  24  25
ATOM     25  C   UNL A   1      32.436  36.084  31.519  1.00  0.00     0.188 C 
BRANCH  25  26
ATOM     26  O   UNL A   1      33.163  35.527  32.596  1.00  0.00    -0.376 OA
BRANCH  26  27
ATOM     27  C   UNL A   1      34.411  36.134  32.875  1.00  0.00     0.202 C 
BRANCH  27  28
ATOM     28  C   UNL A   1      35.541  35.107  32.931  1.00  0.00     0.261 C 
BRANCH  28  29
ATOM     29  O   UNL A   1      35.415  34.237  31.782  1.00  0.00    -0.460 OA
BRANCH  29  30
ATOM     30  C   UNL A   1      35.868  32.959  31.957  1.00  0.00     0.338 C 
ATOM     31  O   UNL A   1      35.332  32.117  32.640  1.00  0.00    -0.246 OA
BRANCH  30  32
ATOM     32  C   UNL A   1      37.255  32.820  31.397  1.00  0.00     0.060 A 
ATOM     33  C   UNL A   1      37.442  32.492  30.041  1.00  0.00     0.016 A 
ATOM     34  C   UNL A   1      38.328  32.701  32.271  1.00  0.00     0.016 A 
ATOM     35  C   UNL A   1      38.653  31.909  29.599  1.00  0.00     0.010 A 
ATOM     36  C   UNL A   1      39.462  32.018  31.855  1.00  0.00     0.010 A 
ATOM     37  C   UNL A   1      39.645  31.590  30.525  1.00  0.00    -0.014 A 
BRANCH  37  38
ATOM     38  C   UNL A   1      40.834  30.723  30.284  1.00  0.00     0.031 A 
ATOM     39  C   UNL A   1      40.615  29.228  30.257  1.00  0.00     0.074 A 
ATOM     40  C   UNL A   1      41.939  31.261  29.691  1.00  0.00     0.049 A 
ATOM     41  N   UNL A   1      41.472  28.335  29.886  1.00  0.00    -0.248 NA
ATOM     42  C   UNL A   1      39.324  28.619  30.565  1.00  0.00     0.031 C 
ATOM     43  C   UNL A   1      42.872  30.580  28.774  1.00  0.00     0.029 A 
ATOM     44  N   UNL A   1      42.378  32.597  29.596  1.00  0.00    -0.354 N 
ATOM     45  C   UNL A   1      40.799  27.160  29.562  1.00  0.00     0.074 A 
ATOM     46  C   UNL A   1      39.470  27.384  30.074  1.00  0.00     0.031 C 
ATOM     47  C   UNL A   1      43.784  31.434  28.280  1.00  0.00     0.029 A 
ATOM     48  C   UNL A   1      43.725  32.578  29.149  1.00  0.00     0.049 A 
ATOM     49  H   UNL A   1      41.847  33.399  29.803  1.00  0.00     0.167 HD
ATOM     50  C   UNL A   1      41.427  26.216  28.780  1.00  0.00     0.037 A 
ATOM     51  C   UNL A   1      44.737  32.897  30.009  1.00  0.00     0.037 A 
ATOM     52  C   UNL A   1      42.841  26.611  28.529  1.00  0.00     0.049 A 
ATOM     53  C   UNL A   1      45.515  31.638  30.384  1.00  0.00     0.074 A 
ATOM     54  C   UNL A   1      43.650  26.768  27.415  1.00  0.00     0.029 A 
ATOM     55  N   UNL A   1      43.604  27.104  29.596  1.00  0.00    -0.354 N 
ATOM     56  N   UNL A   1      44.999  30.431  30.285  1.00  0.00    -0.248 NA
ATOM     57  C   UNL A   1      46.937  31.578  30.702  1.00  0.00     0.031 C 
ATOM     58  C   UNL A   1      44.816  27.498  27.802  1.00  0.00     0.029 A 
ATOM     59  C   UNL A   1      44.766  27.714  29.172  1.00  0.00     0.049 A 
ATOM     60  H   UNL A   1      43.340  27.025  30.542  1.00  0.00     0.167 HD
ATOM     61  C   UNL A   1      45.970  29.484  30.369  1.00  0.00     0.074 A 
ATOM     62  C   UNL A   1      47.161  30.247  30.703  1.00  0.00     0.031 C 
ATOM     63  C   UNL A   1      45.764  28.150  30.143  1.00  0.00     0.037 A 
BRANCH  50  64
ATOM     64  C   UNL A   1      40.767  24.995  28.075  1.00  0.00     0.064 A 
ATOM     65  C   UNL A   1      41.266  23.676  28.254  1.00  0.00     0.173 A 
ATOM     66  C   UNL A   1      39.657  25.033  27.199  1.00  0.00     0.173 A 
ATOM     67  F   UNL A   1      42.240  23.406  29.128  1.00  0.00    -0.203 F 
ATOM     68  C   UNL A   1      40.765  22.550  27.573  1.00  0.00     0.198 A 
ATOM     69  C   UNL A   1      39.143  23.905  26.530  1.00  0.00     0.198 A 
ATOM     70  F   UNL A   1      38.967  26.145  26.967  1.00  0.00    -0.203 F 
ATOM     71  F   UNL A   1      41.317  21.345  27.782  1.00  0.00    -0.200 F 
ATOM     72  C   UNL A   1      39.705  22.664  26.705  1.00  0.00     0.200 A 
ATOM     73  F   UNL A   1      38.081  24.044  25.722  1.00  0.00    -0.200 F 
ATOM     74  F   UNL A   1      39.211  21.592  26.071  1.00  0.00    -0.200 F 
ENDBRANCH  50  64
BRANCH  51  75
ATOM     75  C   UNL A   1      44.383  34.165  30.731  1.00  0.00     0.064 A 
ATOM     76  C   UNL A   1      44.274  33.999  32.137  1.00  0.00     0.173 A 
ATOM     77  C   UNL A   1      44.887  35.397  30.283  1.00  0.00     0.173 A 
ATOM     78  F   UNL A   1      43.766  32.858  32.633  1.00  0.00    -0.203 F 
ATOM     79  C   UNL A   1      44.907  34.872  33.026  1.00  0.00     0.198 A 
ATOM     80  C   UNL A   1      45.485  36.291  31.186  1.00  0.00     0.198 A 
ATOM     81  F   UNL A   1      44.987  35.646  28.971  1.00  0.00    -0.203 F 
ATOM     82  F   UNL A   1      45.001  34.555  34.325  1.00  0.00    -0.200 F 
ATOM     83  C   UNL A   1      45.560  35.990  32.541  1.00  0.00     0.200 A 
ATOM     84  F   UNL A   1      46.109  37.388  30.729  1.00  0.00    -0.200 F 
ATOM     85  F   UNL A   1      46.313  36.736  33.362  1.00  0.00    -0.200 F 
ENDBRANCH  51  75
BRANCH  63  86
ATOM     86  C   UNL A   1      46.515  27.071  30.877  1.00  0.00     0.064 A 
ATOM     87  C   UNL A   1      47.740  26.573  30.411  1.00  0.00     0.173 A 
ATOM     88  C   UNL A   1      46.161  26.701  32.199  1.00  0.00     0.173 A 
ATOM     89  F   UNL A   1      48.249  26.956  29.231  1.00  0.00    -0.203 F 
ATOM     90  C   UNL A   1      48.524  25.719  31.182  1.00  0.00     0.198 A 
ATOM     91  C   UNL A   1      46.981  25.905  32.990  1.00  0.00     0.198 A 
ATOM     92  F   UNL A   1      45.040  27.141  32.788  1.00  0.00    -0.203 F 
ATOM     93  F   UNL A   1      49.668  25.241  30.674  1.00  0.00    -0.200 F 
ATOM     94  C   UNL A   1      48.153  25.397  32.473  1.00  0.00     0.200 A 
ATOM     95  F   UNL A   1      46.644  25.663  34.264  1.00  0.00    -0.200 F 
ATOM     96  F   UNL A   1      48.937  24.616  33.227  1.00  0.00    -0.200 F 
ENDBRANCH  63  86
ENDBRANCH  37  38
ENDBRANCH  30  32
ENDBRANCH  29  30
ENDBRANCH  28  29
ENDBRANCH  27  28
ENDBRANCH  26  27
ENDBRANCH  25  26
ENDBRANCH  24  25
ENDBRANCH  23  24
ENDBRANCH   1  23
TORSDOF 23
ENDMDL
MODEL 3
REMARK VINA RESULT:      -9.8      6.146     11.946
REMARK SMILES Cc1ccc(-n2cnnn2)cc1OCC(=O)OCCOCCOCCOCCOC(=O)c1ccc(-c2c3nc(c(-c4c(F)c(F)c(F)c(F)c4F)c4ccc([nH]4)c(-c4c(F)c(F)c(F)c(F)c4F)c4nc(c(-c5c(F)c(F)c(F)c(F)c5F)c5ccc2[nH]5)C=C4)C=C3)cc1
REMARK SMILES IDX 22 1 21 2 20 3 19 4 18 5 17 6 15 7 16 8 14 9 13 10 12 11
REMARK SMILES IDX 1 12 2 13 3 14 4 15 11 16 5 17 6 18 7 19 10 20 8 21 9 22
REMARK SMILES IDX 23 23 24 24 25 25 26 26 27 27 28 28 29 29 30 30 31 31 32 32
REMARK SMILES IDX 33 33 94 34 34 35 93 36 35 37 36 38 37 39 87 40 38 41 92 42
REMARK SMILES IDX 86 43 88 44 39 45 91 46 85 47 84 48 40 50 72 51 52 52 71 53
REMARK SMILES IDX 53 54 56 55 70 56 89 57 54 58 55 59 69 61 90 62 57 63 41 64
REMARK SMILES IDX 42 65 50 66 43 67 44 68 48 69 51 70 45 71 46 72 49 73 47 74
REMARK SMILES IDX 73 75 74 76 82 77 75 78 76 79 80 80 83 81 77 82 78 83 81 84
REMARK SMILES IDX 79 85 58 86 59 87 67 88 60 89 61 90 65 91 68 92 62 93 63 94
REMARK SMILES IDX 66 95 64 96
REMARK H PARENT 88 49 56 60
REMARK Flexibility Score: inf
ROOT
ATOM      1  C   UNL A   1      41.552  19.866  26.882  1.00  0.00     0.188 C 
ENDROOT
BRANCH   1   2
ATOM      2  C   UNL A   1      42.555  18.918  26.159  1.00  0.00     0.188 C 
BRANCH   2   3
ATOM      3  O   UNL A   1      43.050  19.102  24.844  1.00  0.00    -0.376 OA
BRANCH   3   4
ATOM      4  C   UNL A   1      44.421  18.854  24.688  1.00  0.00     0.202 C 
BRANCH   4   5
ATOM      5  C   UNL A   1      45.420  19.822  25.282  1.00  0.00     0.261 C 
BRANCH   5   6
ATOM      6  O   UNL A   1      45.189  21.138  24.786  1.00  0.00    -0.461 OA
BRANCH   6   7
ATOM      7  C   UNL A   1      45.284  22.119  25.705  1.00  0.00     0.344 C 
ATOM      8  O   UNL A   1      46.335  22.609  26.107  1.00  0.00    -0.248 OA
BRANCH   7   9
ATOM      9  C   UNL A   1      43.908  22.553  26.210  1.00  0.00     0.351 C 
BRANCH   9  10
ATOM     10  O   UNL A   1      43.644  22.890  27.556  1.00  0.00    -0.482 OA
BRANCH  10  11
ATOM     11  C   UNL A   1      43.990  24.049  28.189  1.00  0.00     0.125 A 
ATOM     12  C   UNL A   1      43.931  25.869  26.303  1.00  0.00     0.048 C 
ATOM     13  C   UNL A   1      44.043  25.372  27.719  1.00  0.00    -0.009 A 
ATOM     14  C   UNL A   1      44.123  26.421  28.670  1.00  0.00     0.009 A 
ATOM     15  C   UNL A   1      44.161  26.186  30.039  1.00  0.00     0.029 A 
ATOM     16  C   UNL A   1      44.154  23.816  29.581  1.00  0.00     0.075 A 
ATOM     17  C   UNL A   1      44.216  24.877  30.498  1.00  0.00     0.072 A 
BRANCH  17  18
ATOM     18  N   UNL A   1      44.266  24.655  31.888  1.00  0.00    -0.200 N 
ATOM     19  C   UNL A   1      44.394  23.479  32.575  1.00  0.00     0.252 A 
ATOM     20  N   UNL A   1      44.231  25.668  32.784  1.00  0.00    -0.040 NA
ATOM     21  N   UNL A   1      44.391  23.733  33.864  1.00  0.00    -0.117 NA
ATOM     22  N   UNL A   1      44.262  25.093  33.977  1.00  0.00    -0.024 NA
ENDBRANCH  17  18
ENDBRANCH  10  11
ENDBRANCH   9  10
ENDBRANCH   7   9
ENDBRANCH   6   7
ENDBRANCH   5   6
ENDBRANCH   4   5
ENDBRANCH   3   4
ENDBRANCH   2   3
ENDBRANCH   1   2
BRANCH   1  23
ATOM     23  O   UNL A   1      40.463  20.416  26.164  1.00  0.00    -0.377 OA
BRANCH  23  24
ATOM     24  C   UNL A   1      40.021  21.735  26.453  1.00  0.00     0.188 C 
BRANCH  24  25
ATOM     25  C   UNL A   1      38.617  22.167  26.124  1.00  0.00     0.188 C 
BRANCH  25  26
ATOM     26  O   UNL A   1      38.648  23.569  25.940  1.00  0.00    -0.376 OA
BRANCH  26  27
ATOM     27  C   UNL A   1      38.824  24.339  27.115  1.00  0.00     0.202 C 
BRANCH  27  28
ATOM     28  C   UNL A   1      39.925  25.385  26.949  1.00  0.00     0.261 C 
BRANCH  28  29
ATOM     29  O   UNL A   1      39.467  26.620  27.546  1.00  0.00    -0.460 OA
BRANCH  29  30
ATOM     30  C   UNL A   1      40.433  27.562  27.770  1.00  0.00     0.338 C 
ATOM     31  O   UNL A   1      41.183  28.004  26.930  1.00  0.00    -0.246 OA
BRANCH  30  32
ATOM     32  C   UNL A   1      40.611  27.780  29.245  1.00  0.00     0.060 A 
ATOM     33  C   UNL A   1      39.617  27.359  30.149  1.00  0.00     0.016 A 
ATOM     34  C   UNL A   1      41.586  28.666  29.685  1.00  0.00     0.016 A 
ATOM     35  C   UNL A   1      39.518  27.937  31.435  1.00  0.00     0.010 A 
ATOM     36  C   UNL A   1      41.408  29.315  30.898  1.00  0.00     0.010 A 
ATOM     37  C   UNL A   1      40.367  28.985  31.790  1.00  0.00    -0.014 A 
BRANCH  37  38
ATOM     38  C   UNL A   1      40.213  29.891  32.965  1.00  0.00     0.031 A 
ATOM     39  C   UNL A   1      41.061  29.604  34.183  1.00  0.00     0.074 A 
ATOM     40  C   UNL A   1      39.684  31.135  32.780  1.00  0.00     0.049 A 
ATOM     41  N   UNL A   1      41.203  30.370  35.214  1.00  0.00    -0.248 NA
ATOM     42  C   UNL A   1      41.921  28.428  34.281  1.00  0.00     0.031 C 
ATOM     43  C   UNL A   1      40.036  32.365  33.513  1.00  0.00     0.029 A 
ATOM     44  N   UNL A   1      38.858  31.644  31.758  1.00  0.00    -0.354 N 
ATOM     45  C   UNL A   1      42.367  30.014  35.892  1.00  0.00     0.074 A 
ATOM     46  C   UNL A   1      42.729  28.752  35.295  1.00  0.00     0.031 C 
ATOM     47  C   UNL A   1      39.410  33.436  32.999  1.00  0.00     0.029 A 
ATOM     48  C   UNL A   1      38.347  32.893  32.198  1.00  0.00     0.049 A 
ATOM     49  H   UNL A   1      38.668  31.211  30.895  1.00  0.00     0.167 HD
ATOM     50  C   UNL A   1      42.937  30.910  36.769  1.00  0.00     0.037 A 
ATOM     51  C   UNL A   1      37.032  33.012  32.548  1.00  0.00     0.037 A 
ATOM     52  C   UNL A   1      42.067  32.108  36.923  1.00  0.00     0.049 A 
ATOM     53  C   UNL A   1      36.910  33.151  34.063  1.00  0.00     0.074 A 
ATOM     54  C   UNL A   1      42.230  33.480  36.818  1.00  0.00     0.029 A 
ATOM     55  N   UNL A   1      40.686  31.924  37.074  1.00  0.00    -0.354 N 
ATOM     56  N   UNL A   1      37.847  32.741  34.891  1.00  0.00    -0.248 NA
ATOM     57  C   UNL A   1      35.876  33.902  34.769  1.00  0.00     0.031 C 
ATOM     58  C   UNL A   1      40.938  34.086  36.745  1.00  0.00     0.029 A 
ATOM     59  C   UNL A   1      39.978  33.095  36.893  1.00  0.00     0.049 A 
ATOM     60  H   UNL A   1      40.268  31.058  37.284  1.00  0.00     0.167 HD
ATOM     61  C   UNL A   1      37.651  33.254  36.134  1.00  0.00     0.074 A 
ATOM     62  C   UNL A   1      36.363  33.918  36.027  1.00  0.00     0.031 C 
ATOM     63  C   UNL A   1      38.545  33.136  37.163  1.00  0.00     0.037 A 
BRANCH  50  64
ATOM     64  C   UNL A   1      44.362  30.831  37.392  1.00  0.00     0.064 A 
ATOM     65  C   UNL A   1      45.514  30.633  36.585  1.00  0.00     0.173 A 
ATOM     66  C   UNL A   1      44.681  30.921  38.767  1.00  0.00     0.173 A 
ATOM     67  F   UNL A   1      45.446  30.632  35.250  1.00  0.00    -0.203 F 
ATOM     68  C   UNL A   1      46.814  30.465  37.101  1.00  0.00     0.198 A 
ATOM     69  C   UNL A   1      45.982  30.770  39.285  1.00  0.00     0.198 A 
ATOM     70  F   UNL A   1      43.772  31.207  39.694  1.00  0.00    -0.203 F 
ATOM     71  F   UNL A   1      47.841  30.254  36.265  1.00  0.00    -0.200 F 
ATOM     72  C   UNL A   1      47.048  30.528  38.454  1.00  0.00     0.200 A 
ATOM     73  F   UNL A   1      46.183  30.879  40.607  1.00  0.00    -0.200 F 
ATOM     74  F   UNL A   1      48.285  30.390  38.949  1.00  0.00    -0.200 F 
ENDBRANCH  50  64
BRANCH  51  75
ATOM     75  C   UNL A   1      36.184  32.382  31.481  1.00  0.00     0.064 A 
ATOM     76  C   UNL A   1      36.114  33.152  30.290  1.00  0.00     0.173 A 
ATOM     77  C   UNL A   1      36.166  30.986  31.326  1.00  0.00     0.173 A 
ATOM     78  F   UNL A   1      36.090  34.493  30.368  1.00  0.00    -0.203 F 
ATOM     79  C   UNL A   1      36.323  32.574  29.035  1.00  0.00     0.198 A 
ATOM     80  C   UNL A   1      36.334  30.409  30.057  1.00  0.00     0.198 A 
ATOM     81  F   UNL A   1      36.192  30.189  32.403  1.00  0.00    -0.203 F 
ATOM     82  F   UNL A   1      36.503  33.354  27.959  1.00  0.00    -0.200 F 
ATOM     83  C   UNL A   1      36.488  31.205  28.929  1.00  0.00     0.200 A 
ATOM     84  F   UNL A   1      36.480  29.080  29.939  1.00  0.00    -0.200 F 
ATOM     85  F   UNL A   1      36.860  30.664  27.759  1.00  0.00    -0.200 F 
ENDBRANCH  51  75
BRANCH  63  86
ATOM     86  C   UNL A   1      38.121  33.019  38.603  1.00  0.00     0.064 A 
ATOM     87  C   UNL A   1      38.272  34.080  39.508  1.00  0.00     0.173 A 
ATOM     88  C   UNL A   1      37.312  31.941  39.044  1.00  0.00     0.173 A 
ATOM     89  F   UNL A   1      38.901  35.212  39.163  1.00  0.00    -0.203 F 
ATOM     90  C   UNL A   1      37.710  34.041  40.781  1.00  0.00     0.198 A 
ATOM     91  C   UNL A   1      36.696  31.940  40.290  1.00  0.00     0.198 A 
ATOM     92  F   UNL A   1      37.046  30.883  38.267  1.00  0.00    -0.203 F 
ATOM     93  F   UNL A   1      37.916  35.065  41.621  1.00  0.00    -0.200 F 
ATOM     94  C   UNL A   1      36.912  32.981  41.167  1.00  0.00     0.200 A 
ATOM     95  F   UNL A   1      35.865  30.941  40.620  1.00  0.00    -0.200 F 
ATOM     96  F   UNL A   1      36.334  32.975  42.374  1.00  0.00    -0.200 F 
ENDBRANCH  63  86
ENDBRANCH  37  38
ENDBRANCH  30  32
ENDBRANCH  29  30
ENDBRANCH  28  29
ENDBRANCH  27  28
ENDBRANCH  26  27
ENDBRANCH  25  26
ENDBRANCH  24  25
ENDBRANCH  23  24
ENDBRANCH   1  23
TORSDOF 23
ENDMDL
