MODEL 1
REMARK VINA RESULT:     -10.6      0.000      0.000
REMARK SMILES C=C(C)COc1ccc2nc(C)n(-c3cccc(C(=O)OCCOCCOCCOCCOC(=O)c4ccc(-c5c6nc(c(-c7c(F)c(F)c(F)c(F)c7F)c7ccc([nH]7)c(-c7c(F)c(F)c(F)c(F)c7F)c7nc(c(-c8c(F)c(F)c(F)c(F)c8F)c8ccc5[nH]8)C=C7)C=C6)cc4)c3)c(=O)c2c1
REMARK SMILES IDX 26 1 25 2 24 3 23 4 22 5 21 6 19 7 20 8 18 9 14 10 15 11
REMARK SMILES IDX 99 12 16 13 17 14 13 15 6 16 7 17 103 18 8 19 102 20 9 21
REMARK SMILES IDX 100 22 10 23 101 24 11 25 12 26 5 27 4 28 2 29 1 30 3 31
REMARK SMILES IDX 27 32 28 33 29 34 30 35 31 36 32 37 33 38 34 39 35 40 36 41
REMARK SMILES IDX 37 42 98 43 38 44 97 45 39 46 40 47 41 48 91 49 42 50 96 51
REMARK SMILES IDX 90 52 92 53 43 54 95 55 89 56 88 57 44 59 76 60 56 61 75 62
REMARK SMILES IDX 57 63 60 64 74 65 93 66 58 67 59 68 73 70 94 71 61 72 45 73
REMARK SMILES IDX 46 74 54 75 47 76 48 77 52 78 55 79 49 80 50 81 53 82 51 83
REMARK SMILES IDX 77 84 78 85 86 86 79 87 80 88 84 89 87 90 81 91 82 92 85 93
REMARK SMILES IDX 83 94 62 95 63 96 71 97 64 98 65 99 69 100 72 101 66 102
REMARK SMILES IDX 67 103 70 104 68 105
REMARK H PARENT 92 58 60 69
REMARK Flexibility Score: inf
ROOT
ATOM      1  C   UNL A   1      32.596  28.384  26.440  1.00  0.00     0.188 C 
ENDROOT
BRANCH   1   2
ATOM      2  C   UNL A   1      33.587  28.401  25.261  1.00  0.00     0.188 C 
BRANCH   2   3
ATOM      3  O   UNL A   1      33.302  29.380  24.266  1.00  0.00    -0.376 OA
BRANCH   3   4
ATOM      4  C   UNL A   1      32.783  28.883  23.039  1.00  0.00     0.202 C 
BRANCH   4   5
ATOM      5  C   UNL A   1      31.273  29.102  22.889  1.00  0.00     0.261 C 
BRANCH   5   6
ATOM      6  O   UNL A   1      30.487  27.940  23.187  1.00  0.00    -0.460 OA
BRANCH   6   7
ATOM      7  C   UNL A   1      30.927  26.756  22.697  1.00  0.00     0.338 C 
ATOM      8  O   UNL A   1      31.232  26.514  21.544  1.00  0.00    -0.246 OA
BRANCH   7   9
ATOM      9  C   UNL A   1      31.201  25.866  23.850  1.00  0.00     0.062 A 
ATOM     10  C   UNL A   1      32.445  24.028  24.851  1.00  0.00     0.051 A 
ATOM     11  C   UNL A   1      31.547  24.035  25.928  1.00  0.00     0.027 A 
ATOM     12  C   UNL A   1      32.261  24.953  23.815  1.00  0.00     0.042 A 
ATOM     13  C   UNL A   1      30.490  24.951  25.968  1.00  0.00     0.003 A 
ATOM     14  C   UNL A   1      30.319  25.871  24.933  1.00  0.00     0.016 A 
BRANCH  10  15
ATOM     15  N   UNL A   1      33.565  23.135  24.809  1.00  0.00    -0.264 N 
ATOM     16  C   UNL A   1      38.238  22.222  25.748  1.00  0.00     0.120 A 
ATOM     17  C   UNL A   1      38.029  20.911  25.317  1.00  0.00     0.049 A 
ATOM     18  C   UNL A   1      37.189  23.133  25.737  1.00  0.00     0.062 A 
ATOM     19  C   UNL A   1      36.773  20.519  24.850  1.00  0.00     0.033 A 
ATOM     20  C   UNL A   1      35.935  22.724  25.267  1.00  0.00     0.070 A 
ATOM     21  C   UNL A   1      35.713  21.424  24.831  1.00  0.00     0.078 A 
ATOM     22  C   UNL A   1      34.796  23.651  25.250  1.00  0.00     0.266 A 
ATOM     23  N   UNL A   1      34.467  20.988  24.381  1.00  0.00    -0.234 NA
ATOM     24  O   UNL A   1      34.989  24.798  25.655  1.00  0.00    -0.268 OA
ATOM     25  C   UNL A   1      33.472  21.820  24.374  1.00  0.00     0.113 A 
ATOM     26  C   UNL A   1      32.179  21.272  23.805  1.00  0.00     0.088 C 
BRANCH  16  27
ATOM     27  O   UNL A   1      39.430  22.623  26.287  1.00  0.00    -0.489 OA
BRANCH  27  28
ATOM     28  C   UNL A   1      40.174  21.536  26.858  1.00  0.00     0.260 C 
BRANCH  28  29
ATOM     29  C   UNL A   1      41.651  21.852  26.970  1.00  0.00    -0.043 C 
ATOM     30  C   UNL A   1      42.605  21.078  26.424  1.00  0.00     0.011 C 
ATOM     31  C   UNL A   1      41.984  23.130  27.684  1.00  0.00     0.042 C 
ENDBRANCH  28  29
ENDBRANCH  27  28
ENDBRANCH  16  27
ENDBRANCH  10  15
ENDBRANCH   7   9
ENDBRANCH   6   7
ENDBRANCH   5   6
ENDBRANCH   4   5
ENDBRANCH   3   4
ENDBRANCH   2   3
ENDBRANCH   1   2
BRANCH   1  32
ATOM     32  O   UNL A   1      31.855  29.559  26.725  1.00  0.00    -0.377 OA
BRANCH  32  33
ATOM     33  C   UNL A   1      32.519  30.818  26.735  1.00  0.00     0.188 C 
BRANCH  33  34
ATOM     34  C   UNL A   1      33.722  31.093  27.664  1.00  0.00     0.188 C 
BRANCH  34  35
ATOM     35  O   UNL A   1      33.781  32.411  28.191  1.00  0.00    -0.376 OA
BRANCH  35  36
ATOM     36  C   UNL A   1      32.849  33.340  27.657  1.00  0.00     0.202 C 
BRANCH  36  37
ATOM     37  C   UNL A   1      32.979  34.741  28.259  1.00  0.00     0.261 C 
BRANCH  37  38
ATOM     38  O   UNL A   1      32.305  34.924  29.514  1.00  0.00    -0.460 OA
BRANCH  38  39
ATOM     39  C   UNL A   1      32.932  35.651  30.465  1.00  0.00     0.338 C 
ATOM     40  O   UNL A   1      32.565  36.698  30.966  1.00  0.00    -0.246 OA
BRANCH  39  41
ATOM     41  C   UNL A   1      34.078  34.845  30.929  1.00  0.00     0.060 A 
ATOM     42  C   UNL A   1      35.285  34.883  30.226  1.00  0.00     0.016 A 
ATOM     43  C   UNL A   1      33.919  33.994  32.029  1.00  0.00     0.016 A 
ATOM     44  C   UNL A   1      36.341  34.068  30.628  1.00  0.00     0.010 A 
ATOM     45  C   UNL A   1      34.974  33.167  32.421  1.00  0.00     0.010 A 
ATOM     46  C   UNL A   1      36.195  33.209  31.729  1.00  0.00    -0.014 A 
BRANCH  46  47
ATOM     47  C   UNL A   1      37.370  32.466  32.238  1.00  0.00     0.031 A 
ATOM     48  C   UNL A   1      37.988  31.340  31.469  1.00  0.00     0.074 A 
ATOM     49  C   UNL A   1      37.886  32.844  33.421  1.00  0.00     0.049 A 
ATOM     50  N   UNL A   1      39.048  30.628  31.764  1.00  0.00    -0.248 NA
ATOM     51  C   UNL A   1      37.339  30.961  30.207  1.00  0.00     0.031 C 
ATOM     52  C   UNL A   1      37.362  33.929  34.252  1.00  0.00     0.029 A 
ATOM     53  N   UNL A   1      38.960  32.368  34.127  1.00  0.00    -0.354 N 
ATOM     54  C   UNL A   1      39.209  29.732  30.718  1.00  0.00     0.074 A 
ATOM     55  C   UNL A   1      38.113  29.962  29.797  1.00  0.00     0.031 C 
ATOM     56  C   UNL A   1      38.124  34.044  35.350  1.00  0.00     0.029 A 
ATOM     57  C   UNL A   1      39.171  33.027  35.310  1.00  0.00     0.049 A 
ATOM     58  H   UNL A   1      39.525  31.623  33.814  1.00  0.00     0.167 HD
ATOM     59  C   UNL A   1      40.192  28.816  30.542  1.00  0.00     0.037 A 
ATOM     60  C   UNL A   1      40.104  32.835  36.260  1.00  0.00     0.037 A 
ATOM     61  C   UNL A   1      41.266  28.577  31.475  1.00  0.00     0.049 A 
ATOM     62  C   UNL A   1      41.143  31.768  36.065  1.00  0.00     0.074 A 
ATOM     63  C   UNL A   1      42.316  27.679  31.371  1.00  0.00     0.029 A 
ATOM     64  N   UNL A   1      41.424  29.230  32.690  1.00  0.00    -0.354 N 
ATOM     65  N   UNL A   1      41.314  30.956  35.050  1.00  0.00    -0.248 NA
ATOM     66  C   UNL A   1      42.124  31.597  37.145  1.00  0.00     0.031 C 
ATOM     67  C   UNL A   1      43.080  27.755  32.542  1.00  0.00     0.029 A 
ATOM     68  C   UNL A   1      42.538  28.737  33.354  1.00  0.00     0.049 A 
ATOM     69  H   UNL A   1      40.832  29.939  33.030  1.00  0.00     0.167 HD
ATOM     70  C   UNL A   1      42.428  30.189  35.360  1.00  0.00     0.074 A 
ATOM     71  C   UNL A   1      42.908  30.651  36.646  1.00  0.00     0.031 C 
ATOM     72  C   UNL A   1      42.999  29.190  34.642  1.00  0.00     0.037 A 
BRANCH  59  73
ATOM     73  C   UNL A   1      40.164  27.994  29.286  1.00  0.00     0.064 A 
ATOM     74  C   UNL A   1      40.898  28.373  28.151  1.00  0.00     0.173 A 
ATOM     75  C   UNL A   1      39.477  26.771  29.244  1.00  0.00     0.173 A 
ATOM     76  F   UNL A   1      41.572  29.534  28.140  1.00  0.00    -0.203 F 
ATOM     77  C   UNL A   1      40.935  27.565  27.018  1.00  0.00     0.198 A 
ATOM     78  C   UNL A   1      39.535  25.954  28.118  1.00  0.00     0.198 A 
ATOM     79  F   UNL A   1      38.771  26.356  30.307  1.00  0.00    -0.203 F 
ATOM     80  F   UNL A   1      41.629  27.957  25.941  1.00  0.00    -0.200 F 
ATOM     81  C   UNL A   1      40.262  26.353  27.005  1.00  0.00     0.200 A 
ATOM     82  F   UNL A   1      38.899  24.775  28.114  1.00  0.00    -0.200 F 
ATOM     83  F   UNL A   1      40.316  25.566  25.922  1.00  0.00    -0.200 F 
ENDBRANCH  59  73
BRANCH  60  84
ATOM     84  C   UNL A   1      40.107  33.699  37.466  1.00  0.00     0.064 A 
ATOM     85  C   UNL A   1      39.313  33.383  38.575  1.00  0.00     0.173 A 
ATOM     86  C   UNL A   1      40.922  34.837  37.544  1.00  0.00     0.173 A 
ATOM     87  F   UNL A   1      38.504  32.313  38.538  1.00  0.00    -0.203 F 
ATOM     88  C   UNL A   1      39.325  34.181  39.716  1.00  0.00     0.198 A 
ATOM     89  C   UNL A   1      40.954  35.619  38.695  1.00  0.00     0.198 A 
ATOM     90  F   UNL A   1      41.704  35.176  36.507  1.00  0.00    -0.203 F 
ATOM     91  F   UNL A   1      38.532  33.877  40.752  1.00  0.00    -0.200 F 
ATOM     92  C   UNL A   1      40.152  35.294  39.778  1.00  0.00     0.200 A 
ATOM     93  F   UNL A   1      41.765  36.684  38.756  1.00  0.00    -0.200 F 
ATOM     94  F   UNL A   1      40.172  36.054  40.881  1.00  0.00    -0.200 F 
ENDBRANCH  60  84
BRANCH  72  95
ATOM     95  C   UNL A   1      44.213  28.532  35.234  1.00  0.00     0.064 A 
ATOM     96  C   UNL A   1      44.102  27.444  36.112  1.00  0.00     0.173 A 
ATOM     97  C   UNL A   1      45.501  28.981  34.905  1.00  0.00     0.173 A 
ATOM     98  F   UNL A   1      42.893  26.987  36.471  1.00  0.00    -0.203 F 
ATOM     99  C   UNL A   1      45.234  26.848  36.662  1.00  0.00     0.198 A 
ATOM    100  C   UNL A   1      46.632  28.363  35.433  1.00  0.00     0.198 A 
ATOM    101  F   UNL A   1      45.664  30.015  34.067  1.00  0.00    -0.203 F 
ATOM    102  F   UNL A   1      45.101  25.845  37.541  1.00  0.00    -0.200 F 
ATOM    103  C   UNL A   1      46.498  27.304  36.318  1.00  0.00     0.200 A 
ATOM    104  F   UNL A   1      47.853  28.797  35.089  1.00  0.00    -0.200 F 
ATOM    105  F   UNL A   1      47.586  26.728  36.846  1.00  0.00    -0.200 F 
ENDBRANCH  72  95
ENDBRANCH  46  47
ENDBRANCH  39  41
ENDBRANCH  38  39
ENDBRANCH  37  38
ENDBRANCH  36  37
ENDBRANCH  35  36
ENDBRANCH  34  35
ENDBRANCH  33  34
ENDBRANCH  32  33
ENDBRANCH   1  32
TORSDOF 24
ENDMDL
MODEL 2
REMARK VINA RESULT:     -10.5      0.372      6.804
REMARK SMILES C=C(C)COc1ccc2nc(C)n(-c3cccc(C(=O)OCCOCCOCCOCCOC(=O)c4ccc(-c5c6nc(c(-c7c(F)c(F)c(F)c(F)c7F)c7ccc([nH]7)c(-c7c(F)c(F)c(F)c(F)c7F)c7nc(c(-c8c(F)c(F)c(F)c(F)c8F)c8ccc5[nH]8)C=C7)C=C6)cc4)c3)c(=O)c2c1
REMARK SMILES IDX 26 1 25 2 24 3 23 4 22 5 21 6 19 7 20 8 18 9 14 10 15 11
REMARK SMILES IDX 99 12 16 13 17 14 13 15 6 16 7 17 103 18 8 19 102 20 9 21
REMARK SMILES IDX 100 22 10 23 101 24 11 25 12 26 5 27 4 28 2 29 1 30 3 31
REMARK SMILES IDX 27 32 28 33 29 34 30 35 31 36 32 37 33 38 34 39 35 40 36 41
REMARK SMILES IDX 37 42 98 43 38 44 97 45 39 46 40 47 41 48 91 49 42 50 96 51
REMARK SMILES IDX 90 52 92 53 43 54 95 55 89 56 88 57 44 59 76 60 56 61 75 62
REMARK SMILES IDX 57 63 60 64 74 65 93 66 58 67 59 68 73 70 94 71 61 72 45 73
REMARK SMILES IDX 46 74 54 75 47 76 48 77 52 78 55 79 49 80 50 81 53 82 51 83
REMARK SMILES IDX 77 84 78 85 86 86 79 87 80 88 84 89 87 90 81 91 82 92 85 93
REMARK SMILES IDX 83 94 62 95 63 96 71 97 64 98 65 99 69 100 72 101 66 102
REMARK SMILES IDX 67 103 70 104 68 105
REMARK H PARENT 92 58 60 69
REMARK Flexibility Score: inf
ROOT
ATOM      1  C   UNL A   1      32.496  28.220  26.502  1.00  0.00     0.188 C 
ENDROOT
BRANCH   1   2
ATOM      2  C   UNL A   1      33.602  28.135  25.435  1.00  0.00     0.188 C 
BRANCH   2   3
ATOM      3  O   UNL A   1      33.456  29.058  24.359  1.00  0.00    -0.376 OA
BRANCH   3   4
ATOM      4  C   UNL A   1      32.916  28.527  23.156  1.00  0.00     0.202 C 
BRANCH   4   5
ATOM      5  C   UNL A   1      31.403  28.733  23.030  1.00  0.00     0.261 C 
BRANCH   5   6
ATOM      6  O   UNL A   1      30.632  27.558  23.318  1.00  0.00    -0.460 OA
BRANCH   6   7
ATOM      7  C   UNL A   1      31.098  26.382  22.836  1.00  0.00     0.338 C 
ATOM      8  O   UNL A   1      31.400  26.136  21.682  1.00  0.00    -0.246 OA
BRANCH   7   9
ATOM      9  C   UNL A   1      31.405  25.510  23.995  1.00  0.00     0.062 A 
ATOM     10  C   UNL A   1      32.696  23.706  24.999  1.00  0.00     0.051 A 
ATOM     11  C   UNL A   1      31.813  23.710  26.088  1.00  0.00     0.027 A 
ATOM     12  C   UNL A   1      32.481  24.617  23.956  1.00  0.00     0.042 A 
ATOM     13  C   UNL A   1      30.740  24.606  26.133  1.00  0.00     0.003 A 
ATOM     14  C   UNL A   1      30.538  25.512  25.090  1.00  0.00     0.016 A 
BRANCH  10  15
ATOM     15  N   UNL A   1      33.832  22.834  24.952  1.00  0.00    -0.264 N 
ATOM     16  C   UNL A   1      38.550  22.043  25.769  1.00  0.00     0.120 A 
ATOM     17  C   UNL A   1      38.353  20.714  25.391  1.00  0.00     0.049 A 
ATOM     18  C   UNL A   1      37.483  22.933  25.761  1.00  0.00     0.062 A 
ATOM     19  C   UNL A   1      37.091  20.282  24.978  1.00  0.00     0.033 A 
ATOM     20  C   UNL A   1      36.223  22.484  25.346  1.00  0.00     0.070 A 
ATOM     21  C   UNL A   1      36.013  21.166  24.962  1.00  0.00     0.078 A 
ATOM     22  C   UNL A   1      35.066  23.389  25.334  1.00  0.00     0.266 A 
ATOM     23  N   UNL A   1      34.763  20.691  24.569  1.00  0.00    -0.234 NA
ATOM     24  O   UNL A   1      35.248  24.552  25.693  1.00  0.00    -0.268 OA
ATOM     25  C   UNL A   1      33.751  21.504  24.566  1.00  0.00     0.113 A 
ATOM     26  C   UNL A   1      32.452  20.911  24.058  1.00  0.00     0.088 C 
BRANCH  16  27
ATOM     27  O   UNL A   1      39.750  22.485  26.255  1.00  0.00    -0.489 OA
BRANCH  27  28
ATOM     28  C   UNL A   1      40.349  21.562  27.177  1.00  0.00     0.260 C 
BRANCH  28  29
ATOM     29  C   UNL A   1      41.858  21.526  27.050  1.00  0.00    -0.043 C 
ATOM     30  C   UNL A   1      42.665  22.373  27.712  1.00  0.00     0.011 C 
ATOM     31  C   UNL A   1      42.404  20.434  26.176  1.00  0.00     0.042 C 
ENDBRANCH  28  29
ENDBRANCH  27  28
ENDBRANCH  16  27
ENDBRANCH  10  15
ENDBRANCH   7   9
ENDBRANCH   6   7
ENDBRANCH   5   6
ENDBRANCH   4   5
ENDBRANCH   3   4
ENDBRANCH   2   3
ENDBRANCH   1   2
BRANCH   1  32
ATOM     32  O   UNL A   1      31.784  29.438  26.652  1.00  0.00    -0.377 OA
BRANCH  32  33
ATOM     33  C   UNL A   1      32.500  30.668  26.657  1.00  0.00     0.188 C 
BRANCH  33  34
ATOM     34  C   UNL A   1      33.628  30.946  27.674  1.00  0.00     0.188 C 
BRANCH  34  35
ATOM     35  O   UNL A   1      33.674  32.278  28.167  1.00  0.00    -0.376 OA
BRANCH  35  36
ATOM     36  C   UNL A   1      32.786  33.202  27.554  1.00  0.00     0.202 C 
BRANCH  36  37
ATOM     37  C   UNL A   1      32.884  34.613  28.139  1.00  0.00     0.261 C 
BRANCH  37  38
ATOM     38  O   UNL A   1      32.317  34.764  29.450  1.00  0.00    -0.460 OA
BRANCH  38  39
ATOM     39  C   UNL A   1      32.970  35.555  30.330  1.00  0.00     0.338 C 
ATOM     40  O   UNL A   1      32.606  36.625  30.782  1.00  0.00    -0.246 OA
BRANCH  39  41
ATOM     41  C   UNL A   1      34.144  34.793  30.795  1.00  0.00     0.060 A 
ATOM     42  C   UNL A   1      35.306  34.762  30.018  1.00  0.00     0.016 A 
ATOM     43  C   UNL A   1      34.057  34.049  31.977  1.00  0.00     0.016 A 
ATOM     44  C   UNL A   1      36.387  33.985  30.429  1.00  0.00     0.010 A 
ATOM     45  C   UNL A   1      35.137  33.260  32.379  1.00  0.00     0.010 A 
ATOM     46  C   UNL A   1      36.313  33.234  31.612  1.00  0.00    -0.014 A 
BRANCH  46  47
ATOM     47  C   UNL A   1      37.519  32.539  32.114  1.00  0.00     0.031 A 
ATOM     48  C   UNL A   1      38.167  32.914  33.411  1.00  0.00     0.074 A 
ATOM     49  C   UNL A   1      38.020  31.536  31.370  1.00  0.00     0.049 A 
ATOM     50  N   UNL A   1      39.199  32.366  34.002  1.00  0.00    -0.248 NA
ATOM     51  C   UNL A   1      37.584  34.048  34.142  1.00  0.00     0.031 C 
ATOM     52  C   UNL A   1      37.467  31.089  30.092  1.00  0.00     0.029 A 
ATOM     53  N   UNL A   1      39.096  30.713  31.579  1.00  0.00    -0.354 N 
ATOM     54  C   UNL A   1      39.379  33.069  35.184  1.00  0.00     0.074 A 
ATOM     55  C   UNL A   1      38.374  34.113  35.208  1.00  0.00     0.031 C 
ATOM     56  C   UNL A   1      38.201  30.062  29.635  1.00  0.00     0.029 A 
ATOM     57  C   UNL A   1      39.286  29.799  30.575  1.00  0.00     0.049 A 
ATOM     58  H   UNL A   1      39.676  30.773  32.373  1.00  0.00     0.167 HD
ATOM     59  C   UNL A   1      40.292  32.848  36.161  1.00  0.00     0.037 A 
ATOM     60  C   UNL A   1      40.230  28.852  30.427  1.00  0.00     0.037 A 
ATOM     61  C   UNL A   1      41.306  31.821  36.119  1.00  0.00     0.049 A 
ATOM     62  C   UNL A   1      41.267  28.674  31.497  1.00  0.00     0.074 A 
ATOM     63  C   UNL A   1      42.264  31.514  37.071  1.00  0.00     0.029 A 
ATOM     64  N   UNL A   1      41.502  30.941  35.063  1.00  0.00    -0.354 N 
ATOM     65  N   UNL A   1      41.402  29.314  32.633  1.00  0.00    -0.248 NA
ATOM     66  C   UNL A   1      42.280  27.634  31.268  1.00  0.00     0.031 C 
ATOM     67  C   UNL A   1      43.068  30.482  36.573  1.00  0.00     0.029 A 
ATOM     68  C   UNL A   1      42.580  30.110  35.331  1.00  0.00     0.049 A 
ATOM     69  H   UNL A   1      40.956  30.912  34.244  1.00  0.00     0.167 HD
ATOM     70  C   UNL A   1      42.501  28.748  33.262  1.00  0.00     0.074 A 
ATOM     71  C   UNL A   1      42.982  27.693  32.392  1.00  0.00     0.031 C 
ATOM     72  C   UNL A   1      43.063  29.074  34.452  1.00  0.00     0.037 A 
BRANCH  59  73
ATOM     73  C   UNL A   1      40.244  33.730  37.375  1.00  0.00     0.064 A 
ATOM     74  C   UNL A   1      41.016  34.898  37.457  1.00  0.00     0.173 A 
ATOM     75  C   UNL A   1      39.352  33.457  38.424  1.00  0.00     0.173 A 
ATOM     76  F   UNL A   1      41.885  35.203  36.481  1.00  0.00    -0.203 F 
ATOM     77  C   UNL A   1      40.906  35.755  38.549  1.00  0.00     0.198 A 
ATOM     78  C   UNL A   1      39.227  34.329  39.503  1.00  0.00     0.198 A 
ATOM     79  F   UNL A   1      38.581  32.360  38.387  1.00  0.00    -0.203 F 
ATOM     80  F   UNL A   1      41.667  36.857  38.613  1.00  0.00    -0.200 F 
ATOM     81  C   UNL A   1      40.005  35.476  39.566  1.00  0.00     0.200 A 
ATOM     82  F   UNL A   1      38.343  34.066  40.475  1.00  0.00    -0.200 F 
ATOM     83  F   UNL A   1      39.884  36.312  40.606  1.00  0.00    -0.200 F 
ENDBRANCH  59  73
BRANCH  60  84
ATOM     84  C   UNL A   1      40.210  27.984  29.224  1.00  0.00     0.064 A 
ATOM     85  C   UNL A   1      40.897  28.356  28.061  1.00  0.00     0.173 A 
ATOM     86  C   UNL A   1      39.531  26.758  29.222  1.00  0.00     0.173 A 
ATOM     87  F   UNL A   1      41.545  29.529  28.011  1.00  0.00    -0.203 F 
ATOM     88  C   UNL A   1      40.896  27.536  26.935  1.00  0.00     0.198 A 
ATOM     89  C   UNL A   1      39.553  25.927  28.105  1.00  0.00     0.198 A 
ATOM     90  F   UNL A   1      38.864  26.358  30.315  1.00  0.00    -0.203 F 
ATOM     91  F   UNL A   1      41.532  27.928  25.823  1.00  0.00    -0.200 F 
ATOM     92  C   UNL A   1      40.231  26.319  26.961  1.00  0.00     0.200 A 
ATOM     93  F   UNL A   1      38.922  24.745  28.140  1.00  0.00    -0.200 F 
ATOM     94  F   UNL A   1      40.241  25.525  25.881  1.00  0.00    -0.200 F 
ENDBRANCH  60  84
BRANCH  72  95
ATOM     95  C   UNL A   1      44.260  28.277  34.885  1.00  0.00     0.064 A 
ATOM     96  C   UNL A   1      44.122  27.084  35.610  1.00  0.00     0.173 A 
ATOM     97  C   UNL A   1      45.557  28.698  34.555  1.00  0.00     0.173 A 
ATOM     98  F   UNL A   1      42.905  26.645  35.964  1.00  0.00    -0.203 F 
ATOM     99  C   UNL A   1      45.240  26.357  36.014  1.00  0.00     0.198 A 
ATOM    100  C   UNL A   1      46.671  27.954  34.935  1.00  0.00     0.198 A 
ATOM    101  F   UNL A   1      45.745  29.829  33.859  1.00  0.00    -0.203 F 
ATOM    102  F   UNL A   1      45.086  25.250  36.753  1.00  0.00    -0.200 F 
ATOM    103  C   UNL A   1      46.513  26.790  35.672  1.00  0.00     0.200 A 
ATOM    104  F   UNL A   1      47.900  28.366  34.592  1.00  0.00    -0.200 F 
ATOM    105  F   UNL A   1      47.587  26.089  36.060  1.00  0.00    -0.200 F 
ENDBRANCH  72  95
ENDBRANCH  46  47
ENDBRANCH  39  41
ENDBRANCH  38  39
ENDBRANCH  37  38
ENDBRANCH  36  37
ENDBRANCH  35  36
ENDBRANCH  34  35
ENDBRANCH  33  34
ENDBRANCH  32  33
ENDBRANCH   1  32
TORSDOF 24
ENDMDL
MODEL 3
REMARK VINA RESULT:     -10.4      4.754      7.813
REMARK SMILES C=C(C)COc1ccc2nc(C)n(-c3cccc(C(=O)OCCOCCOCCOCCOC(=O)c4ccc(-c5c6nc(c(-c7c(F)c(F)c(F)c(F)c7F)c7ccc([nH]7)c(-c7c(F)c(F)c(F)c(F)c7F)c7nc(c(-c8c(F)c(F)c(F)c(F)c8F)c8ccc5[nH]8)C=C7)C=C6)cc4)c3)c(=O)c2c1
REMARK SMILES IDX 26 1 25 2 24 3 23 4 22 5 21 6 19 7 20 8 18 9 14 10 15 11
REMARK SMILES IDX 99 12 16 13 17 14 13 15 6 16 7 17 103 18 8 19 102 20 9 21
REMARK SMILES IDX 100 22 10 23 101 24 11 25 12 26 5 27 4 28 2 29 1 30 3 31
REMARK SMILES IDX 27 32 28 33 29 34 30 35 31 36 32 37 33 38 34 39 35 40 36 41
REMARK SMILES IDX 37 42 98 43 38 44 97 45 39 46 40 47 41 48 91 49 42 50 96 51
REMARK SMILES IDX 90 52 92 53 43 54 95 55 89 56 88 57 44 59 76 60 56 61 75 62
REMARK SMILES IDX 57 63 60 64 74 65 93 66 58 67 59 68 73 70 94 71 61 72 45 73
REMARK SMILES IDX 46 74 54 75 47 76 48 77 52 78 55 79 49 80 50 81 53 82 51 83
REMARK SMILES IDX 77 84 78 85 86 86 79 87 80 88 84 89 87 90 81 91 82 92 85 93
REMARK SMILES IDX 83 94 62 95 63 96 71 97 64 98 65 99 69 100 72 101 66 102
REMARK SMILES IDX 67 103 70 104 68 105
REMARK H PARENT 92 58 60 69
REMARK Flexibility Score: inf
ROOT
ATOM      1  C   UNL A   1      34.595  32.969  29.002  1.00  0.00     0.188 C 
ENDROOT
BRANCH   1   2
ATOM      2  C   UNL A   1      34.942  32.072  27.800  1.00  0.00     0.188 C 
BRANCH   2   3
ATOM      3  O   UNL A   1      35.296  30.736  28.145  1.00  0.00    -0.376 OA
BRANCH   3   4
ATOM      4  C   UNL A   1      35.035  29.751  27.154  1.00  0.00     0.202 C 
BRANCH   4   5
ATOM      5  C   UNL A   1      34.001  28.709  27.596  1.00  0.00     0.261 C 
BRANCH   5   6
ATOM      6  O   UNL A   1      32.696  28.915  27.039  1.00  0.00    -0.460 OA
BRANCH   6   7
ATOM      7  C   UNL A   1      31.804  27.904  27.169  1.00  0.00     0.338 C 
ATOM      8  O   UNL A   1      30.951  27.792  28.030  1.00  0.00    -0.246 OA
BRANCH   7   9
ATOM      9  C   UNL A   1      31.885  27.073  25.944  1.00  0.00     0.062 A 
ATOM     10  C   UNL A   1      32.707  25.097  24.782  1.00  0.00     0.051 A 
ATOM     11  C   UNL A   1      32.240  25.639  23.576  1.00  0.00     0.027 A 
ATOM     12  C   UNL A   1      32.520  25.826  25.964  1.00  0.00     0.042 A 
ATOM     13  C   UNL A   1      31.599  26.883  23.554  1.00  0.00     0.003 A 
ATOM     14  C   UNL A   1      31.415  27.598  24.738  1.00  0.00     0.016 A 
BRANCH  10  15
ATOM     15  N   UNL A   1      33.321  23.804  24.840  1.00  0.00    -0.264 N 
ATOM     16  C   UNL A   1      32.969  18.975  24.509  1.00  0.00     0.120 A 
ATOM     17  C   UNL A   1      34.354  18.902  24.657  1.00  0.00     0.049 A 
ATOM     18  C   UNL A   1      32.333  20.210  24.517  1.00  0.00     0.062 A 
ATOM     19  C   UNL A   1      35.102  20.067  24.840  1.00  0.00     0.033 A 
ATOM     20  C   UNL A   1      33.097  21.370  24.700  1.00  0.00     0.070 A 
ATOM     21  C   UNL A   1      34.476  21.313  24.853  1.00  0.00     0.078 A 
ATOM     22  C   UNL A   1      32.466  22.696  24.702  1.00  0.00     0.266 A 
ATOM     23  N   UNL A   1      35.259  22.455  25.013  1.00  0.00    -0.234 NA
ATOM     24  O   UNL A   1      31.246  22.747  24.546  1.00  0.00    -0.268 OA
ATOM     25  C   UNL A   1      34.685  23.619  25.011  1.00  0.00     0.113 A 
ATOM     26  C   UNL A   1      35.612  24.793  25.258  1.00  0.00     0.088 C 
BRANCH  16  27
ATOM     27  O   UNL A   1      32.211  17.865  24.248  1.00  0.00    -0.489 OA
BRANCH  27  28
ATOM     28  C   UNL A   1      33.003  16.678  24.092  1.00  0.00     0.260 C 
BRANCH  28  29
ATOM     29  C   UNL A   1      32.791  15.698  25.227  1.00  0.00    -0.043 C 
ATOM     30  C   UNL A   1      31.775  15.803  26.101  1.00  0.00     0.011 C 
ATOM     31  C   UNL A   1      33.762  14.553  25.278  1.00  0.00     0.042 C 
ENDBRANCH  28  29
ENDBRANCH  27  28
ENDBRANCH  16  27
ENDBRANCH  10  15
ENDBRANCH   7   9
ENDBRANCH   6   7
ENDBRANCH   5   6
ENDBRANCH   4   5
ENDBRANCH   3   4
ENDBRANCH   2   3
ENDBRANCH   1   2
BRANCH   1  32
ATOM     32  O   UNL A   1      33.528  33.895  28.877  1.00  0.00    -0.377 OA
BRANCH  32  33
ATOM     33  C   UNL A   1      33.681  35.211  29.396  1.00  0.00     0.188 C 
BRANCH  33  34
ATOM     34  C   UNL A   1      33.261  35.567  30.839  1.00  0.00     0.188 C 
BRANCH  34  35
ATOM     35  O   UNL A   1      34.279  35.400  31.816  1.00  0.00    -0.376 OA
BRANCH  35  36
ATOM     36  C   UNL A   1      34.011  34.453  32.841  1.00  0.00     0.202 C 
BRANCH  36  37
ATOM     37  C   UNL A   1      34.541  33.052  32.523  1.00  0.00     0.261 C 
BRANCH  37  38
ATOM     38  O   UNL A   1      35.942  32.992  32.213  1.00  0.00    -0.460 OA
BRANCH  38  39
ATOM     39  C   UNL A   1      36.749  32.335  33.075  1.00  0.00     0.338 C 
ATOM     40  O   UNL A   1      36.554  32.110  34.255  1.00  0.00    -0.246 OA
BRANCH  39  41
ATOM     41  C   UNL A   1      37.851  31.767  32.275  1.00  0.00     0.060 A 
ATOM     42  C   UNL A   1      37.807  31.839  30.880  1.00  0.00     0.016 A 
ATOM     43  C   UNL A   1      38.897  31.098  32.922  1.00  0.00     0.016 A 
ATOM     44  C   UNL A   1      38.816  31.241  30.128  1.00  0.00     0.010 A 
ATOM     45  C   UNL A   1      39.900  30.488  32.166  1.00  0.00     0.010 A 
ATOM     46  C   UNL A   1      39.870  30.566  30.764  1.00  0.00    -0.014 A 
BRANCH  46  47
ATOM     47  C   UNL A   1      41.012  30.073  29.962  1.00  0.00     0.031 A 
ATOM     48  C   UNL A   1      41.049  28.680  29.412  1.00  0.00     0.074 A 
ATOM     49  C   UNL A   1      42.026  30.925  29.723  1.00  0.00     0.049 A 
ATOM     50  N   UNL A   1      41.959  28.122  28.653  1.00  0.00    -0.248 NA
ATOM     51  C   UNL A   1      39.924  27.799  29.754  1.00  0.00     0.031 C 
ATOM     52  C   UNL A   1      42.090  32.302  30.211  1.00  0.00     0.029 A 
ATOM     53  N   UNL A   1      43.186  30.763  29.013  1.00  0.00    -0.354 N 
ATOM     54  C   UNL A   1      41.510  26.833  28.405  1.00  0.00     0.074 A 
ATOM     55  C   UNL A   1      40.264  26.677  29.130  1.00  0.00     0.031 C 
ATOM     56  C   UNL A   1      43.226  32.867  29.774  1.00  0.00     0.029 A 
ATOM     57  C   UNL A   1      43.977  31.883  29.000  1.00  0.00     0.049 A 
ATOM     58  H   UNL A   1      43.429  29.924  28.557  1.00  0.00     0.167 HD
ATOM     59  C   UNL A   1      42.083  25.879  27.632  1.00  0.00     0.037 A 
ATOM     60  C   UNL A   1      45.176  32.096  28.428  1.00  0.00     0.037 A 
ATOM     61  C   UNL A   1      43.336  26.033  26.933  1.00  0.00     0.049 A 
ATOM     62  C   UNL A   1      45.815  30.997  27.630  1.00  0.00     0.074 A 
ATOM     63  C   UNL A   1      43.985  25.125  26.113  1.00  0.00     0.029 A 
ATOM     64  N   UNL A   1      44.138  27.166  26.980  1.00  0.00    -0.354 N 
ATOM     65  N   UNL A   1      45.361  29.796  27.364  1.00  0.00    -0.248 NA
ATOM     66  C   UNL A   1      47.131  31.286  27.044  1.00  0.00     0.031 C 
ATOM     67  C   UNL A   1      45.199  25.688  25.703  1.00  0.00     0.029 A 
ATOM     68  C   UNL A   1      45.284  26.968  26.224  1.00  0.00     0.049 A 
ATOM     69  H   UNL A   1      43.923  27.988  27.477  1.00  0.00     0.167 HD
ATOM     70  C   UNL A   1      46.325  29.192  26.569  1.00  0.00     0.074 A 
ATOM     71  C   UNL A   1      47.377  30.168  26.375  1.00  0.00     0.031 C 
ATOM     72  C   UNL A   1      46.336  27.939  26.050  1.00  0.00     0.037 A 
BRANCH  59  73
ATOM     73  C   UNL A   1      41.362  24.570  27.487  1.00  0.00     0.064 A 
ATOM     74  C   UNL A   1      40.215  24.455  26.687  1.00  0.00     0.173 A 
ATOM     75  C   UNL A   1      41.871  23.402  28.076  1.00  0.00     0.173 A 
ATOM     76  F   UNL A   1      39.688  25.542  26.103  1.00  0.00    -0.203 F 
ATOM     77  C   UNL A   1      39.599  23.222  26.490  1.00  0.00     0.198 A 
ATOM     78  C   UNL A   1      41.266  22.167  27.858  1.00  0.00     0.198 A 
ATOM     79  F   UNL A   1      42.973  23.455  28.839  1.00  0.00    -0.203 F 
ATOM     80  F   UNL A   1      38.494  23.141  25.735  1.00  0.00    -0.200 F 
ATOM     81  C   UNL A   1      40.129  22.078  27.068  1.00  0.00     0.200 A 
ATOM     82  F   UNL A   1      41.790  21.060  28.402  1.00  0.00    -0.200 F 
ATOM     83  F   UNL A   1      39.547  20.889  26.861  1.00  0.00    -0.200 F 
ENDBRANCH  59  73
BRANCH  60  84
ATOM     84  C   UNL A   1      45.829  33.420  28.573  1.00  0.00     0.064 A 
ATOM     85  C   UNL A   1      45.448  34.499  27.765  1.00  0.00     0.173 A 
ATOM     86  C   UNL A   1      46.824  33.640  29.535  1.00  0.00     0.173 A 
ATOM     87  F   UNL A   1      44.513  34.329  26.818  1.00  0.00    -0.203 F 
ATOM     88  C   UNL A   1      46.046  35.748  27.908  1.00  0.00     0.198 A 
ATOM     89  C   UNL A   1      47.403  34.896  29.696  1.00  0.00     0.198 A 
ATOM     90  F   UNL A   1      47.219  32.637  30.335  1.00  0.00    -0.203 F 
ATOM     91  F   UNL A   1      45.687  36.756  27.102  1.00  0.00    -0.200 F 
ATOM     92  C   UNL A   1      47.017  35.948  28.879  1.00  0.00     0.200 A 
ATOM     93  F   UNL A   1      48.329  35.088  30.645  1.00  0.00    -0.200 F 
ATOM     94  F   UNL A   1      47.582  37.153  29.024  1.00  0.00    -0.200 F 
ENDBRANCH  60  84
BRANCH  72  95
ATOM     95  C   UNL A   1      47.525  27.556  25.216  1.00  0.00     0.064 A 
ATOM     96  C   UNL A   1      47.544  27.762  23.828  1.00  0.00     0.173 A 
ATOM     97  C   UNL A   1      48.664  26.994  25.811  1.00  0.00     0.173 A 
ATOM     98  F   UNL A   1      46.474  28.282  23.208  1.00  0.00    -0.203 F 
ATOM     99  C   UNL A   1      48.648  27.394  23.064  1.00  0.00     0.198 A 
ATOM    100  C   UNL A   1      49.779  26.654  25.048  1.00  0.00     0.198 A 
ATOM    101  F   UNL A   1      48.701  26.779  27.135  1.00  0.00    -0.203 F 
ATOM    102  F   UNL A   1      48.622  27.551  21.734  1.00  0.00    -0.200 F 
ATOM    103  C   UNL A   1      49.767  26.846  23.675  1.00  0.00     0.200 A 
ATOM    104  F   UNL A   1      50.864  26.137  25.641  1.00  0.00    -0.200 F 
ATOM    105  F   UNL A   1      50.829  26.494  22.938  1.00  0.00    -0.200 F 
ENDBRANCH  72  95
ENDBRANCH  46  47
ENDBRANCH  39  41
ENDBRANCH  38  39
ENDBRANCH  37  38
ENDBRANCH  36  37
ENDBRANCH  35  36
ENDBRANCH  34  35
ENDBRANCH  33  34
ENDBRANCH  32  33
ENDBRANCH   1  32
TORSDOF 24
ENDMDL
