MODEL 1
REMARK VINA RESULT:     -11.2      0.000      0.000
REMARK SMILES O=C(OCCOCCOCCOCCOC(=O)[C@H]1CCCN(c2nc(-c3ccco3)cc(C(F)(F)F)n2)C1)c1ccc(-c2c3nc(c(-c4c(F)c(F)c(F)c(F)c4F)c4ccc([nH]4)c(-c4c(F)c(F)c(F)c(F)c4F)c4nc(c(-c5c(F)c(F)c(F)c(F)c5F)c5ccc2[nH]5)C=C4)C=C3)cc1
REMARK SMILES IDX 9 1 8 2 7 3 6 4 5 5 4 6 3 7 2 8 1 9 39 10 40 11 101 12 41 13
REMARK SMILES IDX 100 14 42 15 43 16 44 17 94 18 45 19 99 20 93 21 95 22 46 23
REMARK SMILES IDX 98 24 92 25 91 26 47 28 79 29 59 30 78 31 60 32 63 33 77 34
REMARK SMILES IDX 96 35 61 36 62 37 76 39 97 40 64 41 48 42 49 43 57 44 50 45
REMARK SMILES IDX 51 46 55 47 58 48 52 49 53 50 56 51 54 52 80 53 81 54 89 55
REMARK SMILES IDX 82 56 83 57 87 58 90 59 84 60 85 61 88 62 86 63 65 64 66 65
REMARK SMILES IDX 74 66 67 67 68 68 72 69 75 70 69 71 70 72 73 73 71 74 10 75
REMARK SMILES IDX 11 76 12 77 13 78 14 79 15 80 16 81 17 82 18 83 19 84 38 85
REMARK SMILES IDX 20 86 22 87 21 88 23 89 24 90 37 91 25 92 32 93 31 94 26 95
REMARK SMILES IDX 27 96 30 97 28 98 29 99 33 100 34 101 35 102 36 103
REMARK H PARENT 95 27 63 38
REMARK Flexibility Score: inf
ROOT
ATOM      1  O   UNL A   1      36.597  19.845  25.280  1.00  0.00    -0.377 OA
ENDROOT
BRANCH   1   2
ATOM      2  C   UNL A   1      37.140  20.896  24.491  1.00  0.00     0.188 C 
BRANCH   2   3
ATOM      3  C   UNL A   1      37.734  22.095  25.243  1.00  0.00     0.188 C 
BRANCH   3   4
ATOM      4  O   UNL A   1      38.580  21.690  26.321  1.00  0.00    -0.376 OA
BRANCH   4   5
ATOM      5  C   UNL A   1      39.982  21.479  26.112  1.00  0.00     0.202 C 
BRANCH   5   6
ATOM      6  C   UNL A   1      40.900  22.682  26.212  1.00  0.00     0.261 C 
BRANCH   6   7
ATOM      7  O   UNL A   1      40.314  23.944  26.567  1.00  0.00    -0.460 OA
BRANCH   7   8
ATOM      8  C   UNL A   1      40.666  25.228  26.379  1.00  0.00     0.338 C 
ATOM      9  O   UNL A   1      41.289  25.509  25.351  1.00  0.00    -0.246 OA
BRANCH   8  10
ATOM     10  C   UNL A   1      40.353  26.350  27.302  1.00  0.00     0.060 A 
ATOM     11  C   UNL A   1      40.603  27.696  27.065  1.00  0.00     0.016 A 
ATOM     12  C   UNL A   1      39.646  26.021  28.467  1.00  0.00     0.016 A 
ATOM     13  C   UNL A   1      40.247  28.691  27.938  1.00  0.00     0.010 A 
ATOM     14  C   UNL A   1      39.272  27.013  29.373  1.00  0.00     0.010 A 
ATOM     15  C   UNL A   1      39.609  28.344  29.109  1.00  0.00    -0.014 A 
BRANCH  15  16
ATOM     16  C   UNL A   1      39.605  29.371  30.139  1.00  0.00     0.031 A 
ATOM     17  C   UNL A   1      40.696  29.285  31.147  1.00  0.00     0.074 A 
ATOM     18  C   UNL A   1      38.787  30.427  30.026  1.00  0.00     0.049 A 
ATOM     19  N   UNL A   1      40.822  29.897  32.285  1.00  0.00    -0.248 NA
ATOM     20  C   UNL A   1      41.809  28.370  30.823  1.00  0.00     0.031 C 
ATOM     21  C   UNL A   1      37.890  30.691  28.897  1.00  0.00     0.029 A 
ATOM     22  N   UNL A   1      38.594  31.482  30.866  1.00  0.00    -0.354 N 
ATOM     23  C   UNL A   1      41.974  29.375  32.853  1.00  0.00     0.074 A 
ATOM     24  C   UNL A   1      42.537  28.427  31.924  1.00  0.00     0.031 C 
ATOM     25  C   UNL A   1      37.215  31.825  29.135  1.00  0.00     0.029 A 
ATOM     26  C   UNL A   1      37.558  32.289  30.471  1.00  0.00     0.049 A 
ATOM     27  H   UNL A   1      39.140  31.648  31.669  1.00  0.00     0.167 HD
ATOM     28  C   UNL A   1      42.467  29.658  34.078  1.00  0.00     0.037 A 
ATOM     29  C   UNL A   1      36.911  33.227  31.182  1.00  0.00     0.037 A 
ATOM     30  C   UNL A   1      41.833  30.622  34.931  1.00  0.00     0.049 A 
ATOM     31  C   UNL A   1      37.388  33.451  32.591  1.00  0.00     0.074 A 
ATOM     32  C   UNL A   1      42.133  30.974  36.229  1.00  0.00     0.029 A 
ATOM     33  N   UNL A   1      40.740  31.395  34.538  1.00  0.00    -0.354 N 
ATOM     34  N   UNL A   1      38.383  32.867  33.225  1.00  0.00    -0.248 NA
ATOM     35  C   UNL A   1      36.657  34.432  33.392  1.00  0.00     0.031 C 
ATOM     36  C   UNL A   1      41.185  31.919  36.639  1.00  0.00     0.029 A 
ATOM     37  C   UNL A   1      40.339  32.212  35.574  1.00  0.00     0.049 A 
ATOM     38  H   UNL A   1      40.317  31.362  33.651  1.00  0.00     0.167 HD
ATOM     39  C   UNL A   1      38.418  33.427  34.490  1.00  0.00     0.074 A 
ATOM     40  C   UNL A   1      37.338  34.397  34.531  1.00  0.00     0.031 C 
ATOM     41  C   UNL A   1      39.261  33.175  35.525  1.00  0.00     0.037 A 
BRANCH  28  42
ATOM     42  C   UNL A   1      43.608  28.812  34.557  1.00  0.00     0.064 A 
ATOM     43  C   UNL A   1      43.419  27.612  35.261  1.00  0.00     0.173 A 
ATOM     44  C   UNL A   1      44.924  29.282  34.412  1.00  0.00     0.173 A 
ATOM     45  F   UNL A   1      42.181  27.139  35.470  1.00  0.00    -0.203 F 
ATOM     46  C   UNL A   1      44.496  26.946  35.846  1.00  0.00     0.198 A 
ATOM     47  C   UNL A   1      46.001  28.593  34.967  1.00  0.00     0.198 A 
ATOM     48  F   UNL A   1      45.164  30.433  33.768  1.00  0.00    -0.203 F 
ATOM     49  F   UNL A   1      44.279  25.857  36.597  1.00  0.00    -0.200 F 
ATOM     50  C   UNL A   1      45.784  27.437  35.697  1.00  0.00     0.200 A 
ATOM     51  F   UNL A   1      47.244  29.072  34.823  1.00  0.00    -0.200 F 
ATOM     52  F   UNL A   1      46.814  26.808  36.280  1.00  0.00    -0.200 F 
ENDBRANCH  28  42
BRANCH  29  53
ATOM     53  C   UNL A   1      35.727  33.908  30.600  1.00  0.00     0.064 A 
ATOM     54  C   UNL A   1      34.519  33.989  31.301  1.00  0.00     0.173 A 
ATOM     55  C   UNL A   1      35.797  34.549  29.350  1.00  0.00     0.173 A 
ATOM     56  F   UNL A   1      34.395  33.388  32.492  1.00  0.00    -0.203 F 
ATOM     57  C   UNL A   1      33.426  34.679  30.775  1.00  0.00     0.198 A 
ATOM     58  C   UNL A   1      34.715  35.263  28.840  1.00  0.00     0.198 A 
ATOM     59  F   UNL A   1      36.932  34.511  28.636  1.00  0.00    -0.203 F 
ATOM     60  F   UNL A   1      32.273  34.722  31.457  1.00  0.00    -0.200 F 
ATOM     61  C   UNL A   1      33.528  35.324  29.551  1.00  0.00     0.200 A 
ATOM     62  F   UNL A   1      34.828  35.900  27.666  1.00  0.00    -0.200 F 
ATOM     63  F   UNL A   1      32.483  36.001  29.057  1.00  0.00    -0.200 F 
ENDBRANCH  29  53
BRANCH  41  64
ATOM     64  C   UNL A   1      39.090  34.015  36.749  1.00  0.00     0.064 A 
ATOM     65  C   UNL A   1      38.420  33.539  37.881  1.00  0.00     0.173 A 
ATOM     66  C   UNL A   1      39.712  35.271  36.816  1.00  0.00     0.173 A 
ATOM     67  F   UNL A   1      37.801  32.348  37.852  1.00  0.00    -0.203 F 
ATOM     68  C   UNL A   1      38.375  34.297  39.045  1.00  0.00     0.198 A 
ATOM     69  C   UNL A   1      39.693  36.009  37.990  1.00  0.00     0.198 A 
ATOM     70  F   UNL A   1      40.372  35.756  35.753  1.00  0.00    -0.203 F 
ATOM     71  F   UNL A   1      37.708  33.841  40.115  1.00  0.00    -0.200 F 
ATOM     72  C   UNL A   1      39.024  35.523  39.104  1.00  0.00     0.200 A 
ATOM     73  F   UNL A   1      40.339  37.182  38.051  1.00  0.00    -0.200 F 
ATOM     74  F   UNL A   1      39.007  36.237  40.236  1.00  0.00    -0.200 F 
ENDBRANCH  41  64
ENDBRANCH  15  16
ENDBRANCH   8  10
ENDBRANCH   7   8
ENDBRANCH   6   7
ENDBRANCH   5   6
ENDBRANCH   4   5
ENDBRANCH   3   4
ENDBRANCH   2   3
ENDBRANCH   1   2
BRANCH   1  75
ATOM     75  C   UNL A   1      35.600  19.084  24.633  1.00  0.00     0.188 C 
BRANCH  75  76
ATOM     76  C   UNL A   1      34.116  19.480  24.833  1.00  0.00     0.188 C 
BRANCH  76  77
ATOM     77  O   UNL A   1      33.872  20.806  25.247  1.00  0.00    -0.376 OA
BRANCH  77  78
ATOM     78  C   UNL A   1      33.680  21.084  26.627  1.00  0.00     0.202 C 
BRANCH  78  79
ATOM     79  C   UNL A   1      33.462  22.489  27.247  1.00  0.00     0.261 C 
BRANCH  79  80
ATOM     80  O   UNL A   1      32.208  22.782  27.901  1.00  0.00    -0.463 OA
BRANCH  80  81
ATOM     81  C   UNL A   1      31.169  23.192  27.132  1.00  0.00     0.310 C 
ATOM     82  O   UNL A   1      29.989  22.962  27.418  1.00  0.00    -0.252 OA
BRANCH  81  83
ATOM     83  C   UNL A   1      31.592  23.971  25.869  1.00  0.00     0.119 C 
ATOM     84  C   UNL A   1      31.052  23.218  24.644  1.00  0.00     0.019 C 
ATOM     85  C   UNL A   1      31.069  25.404  25.861  1.00  0.00     0.135 C 
ATOM     86  C   UNL A   1      31.138  24.034  23.356  1.00  0.00     0.022 C 
ATOM     87  N   UNL A   1      31.064  26.097  24.573  1.00  0.00    -0.340 N 
ATOM     88  C   UNL A   1      30.427  25.380  23.486  1.00  0.00     0.120 C 
BRANCH  87  89
ATOM     89  C   UNL A   1      30.902  27.478  24.629  1.00  0.00     0.226 A 
ATOM     90  N   UNL A   1      31.660  28.158  25.495  1.00  0.00    -0.210 NA
ATOM     91  N   UNL A   1      30.044  28.098  23.796  1.00  0.00    -0.208 NA
ATOM     92  C   UNL A   1      31.610  29.505  25.473  1.00  0.00     0.112 A 
ATOM     93  C   UNL A   1      29.976  29.463  23.814  1.00  0.00     0.150 A 
ATOM     94  C   UNL A   1      30.762  30.215  24.662  1.00  0.00     0.066 A 
BRANCH  92  95
ATOM     95  C   UNL A   1      32.590  30.190  26.299  1.00  0.00     0.152 A 
ATOM     96  C   UNL A   1      33.755  29.822  26.941  1.00  0.00     0.052 A 
ATOM     97  O   UNL A   1      32.283  31.484  26.616  1.00  0.00    -0.463 OA
ATOM     98  C   UNL A   1      34.185  30.954  27.679  1.00  0.00     0.043 A 
ATOM     99  C   UNL A   1      33.249  31.936  27.452  1.00  0.00     0.196 A 
ENDBRANCH  92  95
BRANCH  93 100
ATOM    100  C   UNL A   1      29.017  30.191  22.882  1.00  0.00     0.433 C 
ATOM    101  F   UNL A   1      27.891  30.649  23.494  1.00  0.00    -0.165 F 
ATOM    102  F   UNL A   1      29.591  31.273  22.278  1.00  0.00    -0.165 F 
ATOM    103  F   UNL A   1      28.574  29.405  21.852  1.00  0.00    -0.165 F 
ENDBRANCH  93 100
ENDBRANCH  87  89
ENDBRANCH  81  83
ENDBRANCH  80  81
ENDBRANCH  79  80
ENDBRANCH  78  79
ENDBRANCH  77  78
ENDBRANCH  76  77
ENDBRANCH  75  76
ENDBRANCH   1  75
TORSDOF 23
ENDMDL
MODEL 2
REMARK VINA RESULT:     -10.7      2.129      2.668
REMARK SMILES O=C(OCCOCCOCCOCCOC(=O)[C@H]1CCCN(c2nc(-c3ccco3)cc(C(F)(F)F)n2)C1)c1ccc(-c2c3nc(c(-c4c(F)c(F)c(F)c(F)c4F)c4ccc([nH]4)c(-c4c(F)c(F)c(F)c(F)c4F)c4nc(c(-c5c(F)c(F)c(F)c(F)c5F)c5ccc2[nH]5)C=C4)C=C3)cc1
REMARK SMILES IDX 9 1 8 2 7 3 6 4 5 5 4 6 3 7 2 8 1 9 39 10 40 11 101 12 41 13
REMARK SMILES IDX 100 14 42 15 43 16 44 17 94 18 45 19 99 20 93 21 95 22 46 23
REMARK SMILES IDX 98 24 92 25 91 26 47 28 79 29 59 30 78 31 60 32 63 33 77 34
REMARK SMILES IDX 96 35 61 36 62 37 76 39 97 40 64 41 48 42 49 43 57 44 50 45
REMARK SMILES IDX 51 46 55 47 58 48 52 49 53 50 56 51 54 52 80 53 81 54 89 55
REMARK SMILES IDX 82 56 83 57 87 58 90 59 84 60 85 61 88 62 86 63 65 64 66 65
REMARK SMILES IDX 74 66 67 67 68 68 72 69 75 70 69 71 70 72 73 73 71 74 10 75
REMARK SMILES IDX 11 76 12 77 13 78 14 79 15 80 16 81 17 82 18 83 19 84 38 85
REMARK SMILES IDX 20 86 22 87 21 88 23 89 24 90 37 91 25 92 32 93 31 94 26 95
REMARK SMILES IDX 27 96 30 97 28 98 29 99 33 100 34 101 35 102 36 103
REMARK H PARENT 95 27 63 38
REMARK Flexibility Score: inf
ROOT
ATOM      1  O   UNL A   1      36.826  19.845  25.293  1.00  0.00    -0.377 OA
ENDROOT
BRANCH   1   2
ATOM      2  C   UNL A   1      37.395  20.925  24.564  1.00  0.00     0.188 C 
BRANCH   2   3
ATOM      3  C   UNL A   1      38.001  22.074  25.381  1.00  0.00     0.188 C 
BRANCH   3   4
ATOM      4  O   UNL A   1      38.847  21.602  26.432  1.00  0.00    -0.376 OA
BRANCH   4   5
ATOM      5  C   UNL A   1      40.115  21.002  26.137  1.00  0.00     0.202 C 
BRANCH   5   6
ATOM      6  C   UNL A   1      41.313  21.919  25.988  1.00  0.00     0.261 C 
BRANCH   6   7
ATOM      7  O   UNL A   1      41.172  23.281  26.421  1.00  0.00    -0.460 OA
BRANCH   7   8
ATOM      8  C   UNL A   1      41.899  24.399  26.251  1.00  0.00     0.338 C 
ATOM      9  O   UNL A   1      42.783  24.385  25.390  1.00  0.00    -0.246 OA
BRANCH   8  10
ATOM     10  C   UNL A   1      41.717  25.666  27.005  1.00  0.00     0.060 A 
ATOM     11  C   UNL A   1      41.857  26.950  26.491  1.00  0.00     0.016 A 
ATOM     12  C   UNL A   1      41.260  25.548  28.325  1.00  0.00     0.016 A 
ATOM     13  C   UNL A   1      41.629  28.083  27.227  1.00  0.00     0.010 A 
ATOM     14  C   UNL A   1      41.021  26.683  29.098  1.00  0.00     0.010 A 
ATOM     15  C   UNL A   1      41.243  27.947  28.543  1.00  0.00    -0.014 A 
BRANCH  15  16
ATOM     16  C   UNL A   1      41.388  29.144  29.357  1.00  0.00     0.031 A 
ATOM     17  C   UNL A   1      42.753  29.406  29.889  1.00  0.00     0.074 A 
ATOM     18  C   UNL A   1      40.389  30.036  29.419  1.00  0.00     0.049 A 
ATOM     19  N   UNL A   1      43.137  30.239  30.808  1.00  0.00    -0.248 NA
ATOM     20  C   UNL A   1      43.845  28.608  29.297  1.00  0.00     0.031 C 
ATOM     21  C   UNL A   1      39.126  29.950  28.681  1.00  0.00     0.029 A 
ATOM     22  N   UNL A   1      40.291  31.197  30.124  1.00  0.00    -0.354 N 
ATOM     23  C   UNL A   1      44.493  30.000  30.970  1.00  0.00     0.074 A 
ATOM     24  C   UNL A   1      44.880  28.976  30.032  1.00  0.00     0.031 C 
ATOM     25  C   UNL A   1      38.362  31.005  29.001  1.00  0.00     0.029 A 
ATOM     26  C   UNL A   1      39.045  31.762  30.041  1.00  0.00     0.049 A 
ATOM     27  H   UNL A   1      41.035  31.589  30.638  1.00  0.00     0.167 HD
ATOM     28  C   UNL A   1      45.310  30.579  31.876  1.00  0.00     0.037 A 
ATOM     29  C   UNL A   1      38.508  32.722  30.812  1.00  0.00     0.037 A 
ATOM     30  C   UNL A   1      44.830  31.594  32.769  1.00  0.00     0.049 A 
ATOM     31  C   UNL A   1      39.385  33.278  31.900  1.00  0.00     0.074 A 
ATOM     32  C   UNL A   1      45.480  32.229  33.805  1.00  0.00     0.029 A 
ATOM     33  N   UNL A   1      43.538  32.119  32.713  1.00  0.00    -0.354 N 
ATOM     34  N   UNL A   1      40.631  32.970  32.190  1.00  0.00    -0.248 NA
ATOM     35  C   UNL A   1      38.794  34.286  32.780  1.00  0.00     0.031 C 
ATOM     36  C   UNL A   1      44.564  33.096  34.410  1.00  0.00     0.029 A 
ATOM     37  C   UNL A   1      43.363  33.059  33.708  1.00  0.00     0.049 A 
ATOM     38  H   UNL A   1      42.852  31.857  32.059  1.00  0.00     0.167 HD
ATOM     39  C   UNL A   1      40.987  33.764  33.266  1.00  0.00     0.074 A 
ATOM     40  C   UNL A   1      39.817  34.567  33.578  1.00  0.00     0.031 C 
ATOM     41  C   UNL A   1      42.166  33.836  33.937  1.00  0.00     0.037 A 
BRANCH  28  42
ATOM     42  C   UNL A   1      46.690  30.008  32.002  1.00  0.00     0.064 A 
ATOM     43  C   UNL A   1      46.986  28.921  32.841  1.00  0.00     0.173 A 
ATOM     44  C   UNL A   1      47.764  30.646  31.360  1.00  0.00     0.173 A 
ATOM     45  F   UNL A   1      46.006  28.302  33.516  1.00  0.00    -0.203 F 
ATOM     46  C   UNL A   1      48.306  28.531  33.071  1.00  0.00     0.198 A 
ATOM     47  C   UNL A   1      49.078  30.229  31.564  1.00  0.00     0.198 A 
ATOM     48  F   UNL A   1      47.544  31.702  30.564  1.00  0.00    -0.203 F 
ATOM     49  F   UNL A   1      48.569  27.555  33.952  1.00  0.00    -0.200 F 
ATOM     50  C   UNL A   1      49.348  29.184  32.433  1.00  0.00     0.200 A 
ATOM     51  F   UNL A   1      50.082  30.865  30.947  1.00  0.00    -0.200 F 
ATOM     52  F   UNL A   1      50.616  28.824  32.674  1.00  0.00    -0.200 F 
ENDBRANCH  28  42
BRANCH  29  53
ATOM     53  C   UNL A   1      37.087  33.109  30.628  1.00  0.00     0.064 A 
ATOM     54  C   UNL A   1      36.102  32.707  31.537  1.00  0.00     0.173 A 
ATOM     55  C   UNL A   1      36.690  33.942  29.567  1.00  0.00     0.173 A 
ATOM     56  F   UNL A   1      36.424  31.905  32.561  1.00  0.00    -0.203 F 
ATOM     57  C   UNL A   1      34.776  33.120  31.392  1.00  0.00     0.198 A 
ATOM     58  C   UNL A   1      35.372  34.377  29.440  1.00  0.00     0.198 A 
ATOM     59  F   UNL A   1      37.592  34.364  28.669  1.00  0.00    -0.203 F 
ATOM     60  F   UNL A   1      33.849  32.702  32.265  1.00  0.00    -0.200 F 
ATOM     61  C   UNL A   1      34.415  33.962  30.351  1.00  0.00     0.200 A 
ATOM     62  F   UNL A   1      35.035  35.208  28.443  1.00  0.00    -0.200 F 
ATOM     63  F   UNL A   1      33.145  34.371  30.224  1.00  0.00    -0.200 F 
ENDBRANCH  29  53
BRANCH  41  64
ATOM     64  C   UNL A   1      42.262  34.866  35.015  1.00  0.00     0.064 A 
ATOM     65  C   UNL A   1      41.940  34.572  36.345  1.00  0.00     0.173 A 
ATOM     66  C   UNL A   1      42.796  36.129  34.718  1.00  0.00     0.173 A 
ATOM     67  F   UNL A   1      41.414  33.381  36.668  1.00  0.00    -0.203 F 
ATOM     68  C   UNL A   1      42.148  35.514  37.346  1.00  0.00     0.198 A 
ATOM     69  C   UNL A   1      43.034  37.053  35.725  1.00  0.00     0.198 A 
ATOM     70  F   UNL A   1      43.126  36.442  33.455  1.00  0.00    -0.203 F 
ATOM     71  F   UNL A   1      41.811  35.229  38.612  1.00  0.00    -0.200 F 
ATOM     72  C   UNL A   1      42.708  36.747  37.037  1.00  0.00     0.200 A 
ATOM     73  F   UNL A   1      43.595  38.233  35.427  1.00  0.00    -0.200 F 
ATOM     74  F   UNL A   1      42.937  37.640  38.008  1.00  0.00    -0.200 F 
ENDBRANCH  41  64
ENDBRANCH  15  16
ENDBRANCH   8  10
ENDBRANCH   7   8
ENDBRANCH   6   7
ENDBRANCH   5   6
ENDBRANCH   4   5
ENDBRANCH   3   4
ENDBRANCH   2   3
ENDBRANCH   1   2
BRANCH   1  75
ATOM     75  C   UNL A   1      35.844  19.118  24.589  1.00  0.00     0.188 C 
BRANCH  75  76
ATOM     76  C   UNL A   1      34.358  19.518  24.759  1.00  0.00     0.188 C 
BRANCH  76  77
ATOM     77  O   UNL A   1      34.111  20.835  25.201  1.00  0.00    -0.376 OA
BRANCH  77  78
ATOM     78  C   UNL A   1      33.678  21.055  26.536  1.00  0.00     0.202 C 
BRANCH  78  79
ATOM     79  C   UNL A   1      33.585  22.432  27.244  1.00  0.00     0.261 C 
BRANCH  79  80
ATOM     80  O   UNL A   1      32.373  22.782  27.944  1.00  0.00    -0.463 OA
BRANCH  80  81
ATOM     81  C   UNL A   1      31.295  23.149  27.208  1.00  0.00     0.310 C 
ATOM     82  O   UNL A   1      30.134  22.882  27.535  1.00  0.00    -0.252 OA
BRANCH  81  83
ATOM     83  C   UNL A   1      31.647  23.930  25.924  1.00  0.00     0.119 C 
ATOM     84  C   UNL A   1      30.978  23.221  24.738  1.00  0.00     0.019 C 
ATOM     85  C   UNL A   1      31.189  25.384  25.977  1.00  0.00     0.135 C 
ATOM     86  C   UNL A   1      30.995  24.053  23.458  1.00  0.00     0.022 C 
ATOM     87  N   UNL A   1      31.110  26.097  24.703  1.00  0.00    -0.340 N 
ATOM     88  C   UNL A   1      30.357  25.426  23.662  1.00  0.00     0.120 C 
BRANCH  87  89
ATOM     89  C   UNL A   1      31.014  27.483  24.789  1.00  0.00     0.226 A 
ATOM     90  N   UNL A   1      31.803  28.107  25.669  1.00  0.00    -0.210 NA
ATOM     91  N   UNL A   1      30.186  28.161  23.971  1.00  0.00    -0.208 NA
ATOM     92  C   UNL A   1      31.818  29.455  25.676  1.00  0.00     0.112 A 
ATOM     93  C   UNL A   1      30.183  29.527  24.020  1.00  0.00     0.150 A 
ATOM     94  C   UNL A   1      31.003  30.222  24.883  1.00  0.00     0.066 A 
BRANCH  92  95
ATOM     95  C   UNL A   1      32.829  30.075  26.515  1.00  0.00     0.152 A 
ATOM     96  C   UNL A   1      33.000  31.325  27.078  1.00  0.00     0.052 A 
ATOM     97  O   UNL A   1      33.934  29.309  26.760  1.00  0.00    -0.463 OA
ATOM     98  C   UNL A   1      34.271  31.314  27.706  1.00  0.00     0.043 A 
ATOM     99  C   UNL A   1      34.800  30.066  27.477  1.00  0.00     0.196 A 
ENDBRANCH  92  95
BRANCH  93 100
ATOM    100  C   UNL A   1      29.259  30.320  23.105  1.00  0.00     0.433 C 
ATOM    101  F   UNL A   1      27.942  30.236  23.441  1.00  0.00    -0.165 F 
ATOM    102  F   UNL A   1      29.562  31.650  23.077  1.00  0.00    -0.165 F 
ATOM    103  F   UNL A   1      29.325  29.914  21.798  1.00  0.00    -0.165 F 
ENDBRANCH  93 100
ENDBRANCH  87  89
ENDBRANCH  81  83
ENDBRANCH  80  81
ENDBRANCH  79  80
ENDBRANCH  78  79
ENDBRANCH  77  78
ENDBRANCH  76  77
ENDBRANCH  75  76
ENDBRANCH   1  75
TORSDOF 23
ENDMDL
MODEL 3
REMARK VINA RESULT:     -10.1      6.694      9.084
REMARK SMILES O=C(OCCOCCOCCOCCOC(=O)[C@H]1CCCN(c2nc(-c3ccco3)cc(C(F)(F)F)n2)C1)c1ccc(-c2c3nc(c(-c4c(F)c(F)c(F)c(F)c4F)c4ccc([nH]4)c(-c4c(F)c(F)c(F)c(F)c4F)c4nc(c(-c5c(F)c(F)c(F)c(F)c5F)c5ccc2[nH]5)C=C4)C=C3)cc1
REMARK SMILES IDX 9 1 8 2 7 3 6 4 5 5 4 6 3 7 2 8 1 9 39 10 40 11 101 12 41 13
REMARK SMILES IDX 100 14 42 15 43 16 44 17 94 18 45 19 99 20 93 21 95 22 46 23
REMARK SMILES IDX 98 24 92 25 91 26 47 28 79 29 59 30 78 31 60 32 63 33 77 34
REMARK SMILES IDX 96 35 61 36 62 37 76 39 97 40 64 41 48 42 49 43 57 44 50 45
REMARK SMILES IDX 51 46 55 47 58 48 52 49 53 50 56 51 54 52 80 53 81 54 89 55
REMARK SMILES IDX 82 56 83 57 87 58 90 59 84 60 85 61 88 62 86 63 65 64 66 65
REMARK SMILES IDX 74 66 67 67 68 68 72 69 75 70 69 71 70 72 73 73 71 74 10 75
REMARK SMILES IDX 11 76 12 77 13 78 14 79 15 80 16 81 17 82 18 83 19 84 38 85
REMARK SMILES IDX 20 86 22 87 21 88 23 89 24 90 37 91 25 92 32 93 31 94 26 95
REMARK SMILES IDX 27 96 30 97 28 98 29 99 33 100 34 101 35 102 36 103
REMARK H PARENT 95 27 63 38
REMARK Flexibility Score: inf
ROOT
ATOM      1  O   UNL A   1      41.028  25.511  28.646  1.00  0.00    -0.377 OA
ENDROOT
BRANCH   1   2
ATOM      2  C   UNL A   1      40.169  26.624  28.437  1.00  0.00     0.188 C 
BRANCH   2   3
ATOM      3  C   UNL A   1      40.056  27.642  29.580  1.00  0.00     0.188 C 
BRANCH   3   4
ATOM      4  O   UNL A   1      38.910  27.405  30.401  1.00  0.00    -0.376 OA
BRANCH   4   5
ATOM      5  C   UNL A   1      38.995  27.520  31.827  1.00  0.00     0.202 C 
BRANCH   5   6
ATOM      6  C   UNL A   1      37.826  28.152  32.556  1.00  0.00     0.261 C 
BRANCH   6   7
ATOM      7  O   UNL A   1      38.089  29.304  33.372  1.00  0.00    -0.460 OA
BRANCH   7   8
ATOM      8  C   UNL A   1      38.519  30.553  33.121  1.00  0.00     0.338 C 
ATOM      9  O   UNL A   1      37.903  31.488  33.641  1.00  0.00    -0.246 OA
BRANCH   8  10
ATOM     10  C   UNL A   1      39.691  30.906  32.279  1.00  0.00     0.060 A 
ATOM     11  C   UNL A   1      41.011  30.981  32.706  1.00  0.00     0.016 A 
ATOM     12  C   UNL A   1      39.447  31.077  30.909  1.00  0.00     0.016 A 
ATOM     13  C   UNL A   1      42.057  31.267  31.868  1.00  0.00     0.010 A 
ATOM     14  C   UNL A   1      40.491  31.370  30.033  1.00  0.00     0.010 A 
ATOM     15  C   UNL A   1      41.790  31.495  30.536  1.00  0.00    -0.014 A 
BRANCH  15  16
ATOM     16  C   UNL A   1      42.855  32.155  29.796  1.00  0.00     0.031 A 
ATOM     17  C   UNL A   1      43.833  31.256  29.124  1.00  0.00     0.074 A 
ATOM     18  C   UNL A   1      42.799  33.476  29.578  1.00  0.00     0.049 A 
ATOM     19  N   UNL A   1      44.988  31.533  28.601  1.00  0.00    -0.248 NA
ATOM     20  C   UNL A   1      43.450  29.832  29.033  1.00  0.00     0.031 C 
ATOM     21  C   UNL A   1      41.702  34.359  29.986  1.00  0.00     0.029 A 
ATOM     22  N   UNL A   1      43.679  34.300  28.944  1.00  0.00    -0.354 N 
ATOM     23  C   UNL A   1      45.510  30.311  28.204  1.00  0.00     0.074 A 
ATOM     24  C   UNL A   1      44.536  29.292  28.507  1.00  0.00     0.031 C 
ATOM     25  C   UNL A   1      41.994  35.615  29.617  1.00  0.00     0.029 A 
ATOM     26  C   UNL A   1      43.338  35.623  29.055  1.00  0.00     0.049 A 
ATOM     27  H   UNL A   1      44.474  33.980  28.458  1.00  0.00     0.167 HD
ATOM     28  C   UNL A   1      46.731  30.092  27.672  1.00  0.00     0.037 A 
ATOM     29  C   UNL A   1      44.096  36.705  28.815  1.00  0.00     0.037 A 
ATOM     30  C   UNL A   1      47.633  31.176  27.406  1.00  0.00     0.049 A 
ATOM     31  C   UNL A   1      45.500  36.450  28.339  1.00  0.00     0.074 A 
ATOM     32  C   UNL A   1      48.934  31.143  26.955  1.00  0.00     0.029 A 
ATOM     33  N   UNL A   1      47.293  32.518  27.580  1.00  0.00    -0.354 N 
ATOM     34  N   UNL A   1      46.089  35.299  28.096  1.00  0.00    -0.248 NA
ATOM     35  C   UNL A   1      46.352  37.620  28.126  1.00  0.00     0.031 C 
ATOM     36  C   UNL A   1      49.400  32.463  26.912  1.00  0.00     0.029 A 
ATOM     37  C   UNL A   1      48.366  33.325  27.264  1.00  0.00     0.049 A 
ATOM     38  H   UNL A   1      46.416  32.843  27.884  1.00  0.00     0.167 HD
ATOM     39  C   UNL A   1      47.371  35.602  27.672  1.00  0.00     0.074 A 
ATOM     40  C   UNL A   1      47.472  37.051  27.698  1.00  0.00     0.031 C 
ATOM     41  C   UNL A   1      48.376  34.771  27.292  1.00  0.00     0.037 A 
BRANCH  28  42
ATOM     42  C   UNL A   1      47.153  28.662  27.519  1.00  0.00     0.064 A 
ATOM     43  C   UNL A   1      47.780  27.942  28.548  1.00  0.00     0.173 A 
ATOM     44  C   UNL A   1      47.036  28.038  26.266  1.00  0.00     0.173 A 
ATOM     45  F   UNL A   1      47.961  28.504  29.753  1.00  0.00    -0.203 F 
ATOM     46  C   UNL A   1      48.319  26.677  28.314  1.00  0.00     0.198 A 
ATOM     47  C   UNL A   1      47.543  26.759  26.046  1.00  0.00     0.198 A 
ATOM     48  F   UNL A   1      46.465  28.684  25.239  1.00  0.00    -0.203 F 
ATOM     49  F   UNL A   1      49.000  26.051  29.285  1.00  0.00    -0.200 F 
ATOM     50  C   UNL A   1      48.199  26.088  27.065  1.00  0.00     0.200 A 
ATOM     51  F   UNL A   1      47.428  26.194  24.837  1.00  0.00    -0.200 F 
ATOM     52  F   UNL A   1      48.739  24.882  26.836  1.00  0.00    -0.200 F 
ENDBRANCH  28  42
BRANCH  29  53
ATOM     53  C   UNL A   1      43.566  38.059  29.117  1.00  0.00     0.064 A 
ATOM     54  C   UNL A   1      42.691  38.709  28.239  1.00  0.00     0.173 A 
ATOM     55  C   UNL A   1      43.877  38.711  30.324  1.00  0.00     0.173 A 
ATOM     56  F   UNL A   1      42.369  38.137  27.071  1.00  0.00    -0.203 F 
ATOM     57  C   UNL A   1      42.151  39.957  28.553  1.00  0.00     0.198 A 
ATOM     58  C   UNL A   1      43.315  39.943  30.649  1.00  0.00     0.198 A 
ATOM     59  F   UNL A   1      44.706  38.133  31.207  1.00  0.00    -0.203 F 
ATOM     60  F   UNL A   1      41.333  40.566  27.684  1.00  0.00    -0.200 F 
ATOM     61  C   UNL A   1      42.454  40.568  29.761  1.00  0.00     0.200 A 
ATOM     62  F   UNL A   1      43.596  40.517  31.827  1.00  0.00    -0.200 F 
ATOM     63  F   UNL A   1      41.920  41.757  30.068  1.00  0.00    -0.200 F 
ENDBRANCH  29  53
BRANCH  41  64
ATOM     64  C   UNL A   1      49.632  35.418  26.805  1.00  0.00     0.064 A 
ATOM     65  C   UNL A   1      50.715  35.661  27.658  1.00  0.00     0.173 A 
ATOM     66  C   UNL A   1      49.783  35.686  25.436  1.00  0.00     0.173 A 
ATOM     67  F   UNL A   1      50.604  35.430  28.975  1.00  0.00    -0.203 F 
ATOM     68  C   UNL A   1      51.912  36.157  27.155  1.00  0.00     0.198 A 
ATOM     69  C   UNL A   1      50.991  36.148  24.933  1.00  0.00     0.198 A 
ATOM     70  F   UNL A   1      48.771  35.455  24.586  1.00  0.00    -0.203 F 
ATOM     71  F   UNL A   1      52.932  36.410  27.987  1.00  0.00    -0.200 F 
ATOM     72  C   UNL A   1      52.054  36.386  25.792  1.00  0.00     0.200 A 
ATOM     73  F   UNL A   1      51.132  36.347  23.616  1.00  0.00    -0.200 F 
ATOM     74  F   UNL A   1      53.218  36.833  25.306  1.00  0.00    -0.200 F 
ENDBRANCH  41  64
ENDBRANCH  15  16
ENDBRANCH   8  10
ENDBRANCH   7   8
ENDBRANCH   6   7
ENDBRANCH   5   6
ENDBRANCH   4   5
ENDBRANCH   3   4
ENDBRANCH   2   3
ENDBRANCH   1   2
BRANCH   1  75
ATOM     75  C   UNL A   1      41.382  24.816  27.470  1.00  0.00     0.188 C 
BRANCH  75  76
ATOM     76  C   UNL A   1      40.940  23.340  27.317  1.00  0.00     0.188 C 
BRANCH  76  77
ATOM     77  O   UNL A   1      39.584  23.123  26.998  1.00  0.00    -0.376 OA
BRANCH  77  78
ATOM     78  C   UNL A   1      39.238  22.112  26.062  1.00  0.00     0.202 C 
BRANCH  78  79
ATOM     79  C   UNL A   1      37.796  21.688  25.675  1.00  0.00     0.261 C 
BRANCH  79  80
ATOM     80  O   UNL A   1      37.056  22.494  24.733  1.00  0.00    -0.463 OA
BRANCH  80  81
ATOM     81  C   UNL A   1      35.949  23.138  25.178  1.00  0.00     0.310 C 
ATOM     82  O   UNL A   1      35.541  23.050  26.341  1.00  0.00    -0.252 OA
BRANCH  81  83
ATOM     83  C   UNL A   1      35.243  23.990  24.103  1.00  0.00     0.119 C 
ATOM     84  C   UNL A   1      34.355  23.058  23.265  1.00  0.00     0.019 C 
ATOM     85  C   UNL A   1      34.392  25.105  24.703  1.00  0.00     0.135 C 
ATOM     86  C   UNL A   1      33.378  23.813  22.367  1.00  0.00     0.022 C 
ATOM     87  N   UNL A   1      33.388  25.711  23.830  1.00  0.00    -0.340 N 
ATOM     88  C   UNL A   1      32.501  24.778  23.164  1.00  0.00     0.120 C 
BRANCH  87  89
ATOM     89  C   UNL A   1      32.855  26.920  24.267  1.00  0.00     0.226 A 
ATOM     90  N   UNL A   1      33.493  27.560  25.252  1.00  0.00    -0.210 NA
ATOM     91  N   UNL A   1      31.763  27.439  23.673  1.00  0.00    -0.208 NA
ATOM     92  C   UNL A   1      33.068  28.792  25.600  1.00  0.00     0.112 A 
ATOM     93  C   UNL A   1      31.320  28.671  24.066  1.00  0.00     0.150 A 
ATOM     94  C   UNL A   1      31.962  29.390  25.052  1.00  0.00     0.066 A 
BRANCH  92  95
ATOM     95  C   UNL A   1      33.910  29.513  26.538  1.00  0.00     0.152 A 
ATOM     96  C   UNL A   1      35.032  29.203  27.282  1.00  0.00     0.052 A 
ATOM     97  O   UNL A   1      33.482  30.771  26.860  1.00  0.00    -0.463 OA
ATOM     98  C   UNL A   1      35.305  30.336  28.091  1.00  0.00     0.043 A 
ATOM     99  C   UNL A   1      34.328  31.258  27.800  1.00  0.00     0.196 A 
ENDBRANCH  92  95
BRANCH  93 100
ATOM    100  C   UNL A   1      30.090  29.283  23.410  1.00  0.00     0.433 C 
ATOM    101  F   UNL A   1      29.698  30.464  23.963  1.00  0.00    -0.165 F 
ATOM    102  F   UNL A   1      30.270  29.526  22.079  1.00  0.00    -0.165 F 
ATOM    103  F   UNL A   1      28.990  28.471  23.477  1.00  0.00    -0.165 F 
ENDBRANCH  93 100
ENDBRANCH  87  89
ENDBRANCH  81  83
ENDBRANCH  80  81
ENDBRANCH  79  80
ENDBRANCH  78  79
ENDBRANCH  77  78
ENDBRANCH  76  77
ENDBRANCH  75  76
ENDBRANCH   1  75
TORSDOF 23
ENDMDL
