MODEL 1
REMARK VINA RESULT:     -11.0      0.000      0.000
REMARK SMILES Nc1ccc(-c2cc3ccccc3s2)c(C(=O)OCCOCCOCCOCCOC(=O)c2ccc(-c3c4nc(c(-c5c(F)c(F)c(F)c(F)c5F)c5ccc([nH]5)c(-c5c(F)c(F)c(F)c(F)c5F)c5nc(c(-c6c(F)c(F)c(F)c(F)c6F)c6ccc3[nH]6)C=C5)C=C4)cc2)n1
REMARK SMILES IDX 25 1 24 2 23 3 22 4 21 5 20 6 19 7 18 8 16 9 17 10 15 11
REMARK SMILES IDX 2 12 3 13 96 14 4 15 5 16 1 17 6 20 7 21 14 22 8 23 13 24
REMARK SMILES IDX 9 25 12 26 10 27 11 28 26 29 27 30 28 31 29 32 30 33 31 34
REMARK SMILES IDX 32 35 33 36 34 37 95 38 35 39 94 40 36 41 37 42 38 43 88 44
REMARK SMILES IDX 39 45 93 46 87 47 89 48 40 49 92 50 86 51 85 52 41 54 73 55
REMARK SMILES IDX 53 56 72 57 54 58 57 59 71 60 90 61 55 62 56 63 70 65 91 66
REMARK SMILES IDX 58 67 42 68 43 69 51 70 44 71 45 72 49 73 52 74 46 75 47 76
REMARK SMILES IDX 50 77 48 78 74 79 75 80 83 81 76 82 77 83 81 84 84 85 78 86
REMARK SMILES IDX 79 87 82 88 80 89 59 90 60 91 68 92 61 93 62 94 66 95 69 96
REMARK SMILES IDX 63 97 64 98 67 99 65 100
REMARK H PARENT 1 18 1 19 89 53 57 64
REMARK Flexibility Score: inf
ROOT
ATOM      1  C   UNL A   1      33.238  28.577  25.571  1.00  0.00     0.188 C 
ENDROOT
BRANCH   1   2
ATOM      2  O   UNL A   1      33.940  27.340  25.640  1.00  0.00    -0.377 OA
BRANCH   2   3
ATOM      3  C   UNL A   1      33.256  26.144  25.994  1.00  0.00     0.188 C 
BRANCH   3   4
ATOM      4  C   UNL A   1      33.991  24.783  25.948  1.00  0.00     0.188 C 
BRANCH   4   5
ATOM      5  O   UNL A   1      35.192  24.803  25.196  1.00  0.00    -0.376 OA
BRANCH   5   6
ATOM      6  C   UNL A   1      36.043  23.674  25.188  1.00  0.00     0.202 C 
BRANCH   6   7
ATOM      7  C   UNL A   1      35.703  22.442  26.036  1.00  0.00     0.261 C 
BRANCH   7   8
ATOM      8  O   UNL A   1      35.136  21.355  25.308  1.00  0.00    -0.458 OA
BRANCH   8   9
ATOM      9  C   UNL A   1      33.907  20.915  25.667  1.00  0.00     0.357 C 
ATOM     10  O   UNL A   1      33.318  21.192  26.697  1.00  0.00    -0.244 OA
BRANCH   9  11
ATOM     11  C   UNL A   1      33.345  20.134  24.520  1.00  0.00     0.159 A 
ATOM     12  C   UNL A   1      32.948  17.985  23.747  1.00  0.00     0.124 A 
ATOM     13  C   UNL A   1      32.250  18.481  22.660  1.00  0.00     0.047 A 
ATOM     14  N   UNL A   1      33.504  18.782  24.667  1.00  0.00    -0.224 NA
ATOM     15  C   UNL A   1      32.100  19.862  22.516  1.00  0.00     0.016 A 
ATOM     16  C   UNL A   1      32.633  20.736  23.471  1.00  0.00     0.025 A 
BRANCH  12  17
ATOM     17  N   UNL A   1      33.019  16.629  23.985  1.00  0.00    -0.384 N 
ATOM     18  H   UNL A   1      33.451  16.036  23.327  1.00  0.00     0.158 HD
ATOM     19  H   UNL A   1      32.638  16.253  24.811  1.00  0.00     0.158 HD
ENDBRANCH  12  17
BRANCH  16  20
ATOM     20  C   UNL A   1      32.396  22.186  23.385  1.00  0.00     0.038 A 
ATOM     21  C   UNL A   1      31.359  22.933  23.910  1.00  0.00     0.029 A 
ATOM     22  S   UNL A   1      33.430  23.174  22.440  1.00  0.00    -0.135 S 
ATOM     23  C   UNL A   1      31.331  24.285  23.435  1.00  0.00    -0.007 A 
ATOM     24  C   UNL A   1      32.442  24.565  22.641  1.00  0.00     0.035 A 
ATOM     25  C   UNL A   1      30.381  25.312  23.650  1.00  0.00     0.009 A 
ATOM     26  C   UNL A   1      32.656  25.845  22.101  1.00  0.00     0.019 A 
ATOM     27  C   UNL A   1      30.583  26.583  23.109  1.00  0.00     0.001 A 
ATOM     28  C   UNL A   1      31.721  26.849  22.359  1.00  0.00     0.001 A 
ENDBRANCH  16  20
ENDBRANCH   9  11
ENDBRANCH   8   9
ENDBRANCH   7   8
ENDBRANCH   6   7
ENDBRANCH   5   6
ENDBRANCH   4   5
ENDBRANCH   3   4
ENDBRANCH   2   3
ENDBRANCH   1   2
BRANCH   1  29
ATOM     29  C   UNL A   1      32.683  29.263  26.842  1.00  0.00     0.188 C 
BRANCH  29  30
ATOM     30  O   UNL A   1      33.331  30.472  27.190  1.00  0.00    -0.376 OA
BRANCH  30  31
ATOM     31  C   UNL A   1      32.551  31.650  27.271  1.00  0.00     0.202 C 
BRANCH  31  32
ATOM     32  C   UNL A   1      33.259  32.956  27.658  1.00  0.00     0.261 C 
BRANCH  32  33
ATOM     33  O   UNL A   1      32.415  34.071  27.980  1.00  0.00    -0.460 OA
BRANCH  33  34
ATOM     34  C   UNL A   1      32.957  35.075  28.699  1.00  0.00     0.338 C 
ATOM     35  O   UNL A   1      32.511  36.201  28.857  1.00  0.00    -0.246 OA
BRANCH  34  36
ATOM     36  C   UNL A   1      34.122  34.524  29.418  1.00  0.00     0.060 A 
ATOM     37  C   UNL A   1      35.388  34.574  28.819  1.00  0.00     0.016 A 
ATOM     38  C   UNL A   1      33.960  33.965  30.687  1.00  0.00     0.016 A 
ATOM     39  C   UNL A   1      36.493  34.034  29.477  1.00  0.00     0.010 A 
ATOM     40  C   UNL A   1      35.063  33.405  31.336  1.00  0.00     0.010 A 
ATOM     41  C   UNL A   1      36.328  33.407  30.719  1.00  0.00    -0.014 A 
BRANCH  41  42
ATOM     42  C   UNL A   1      37.423  32.581  31.284  1.00  0.00     0.031 A 
ATOM     43  C   UNL A   1      37.932  32.916  32.658  1.00  0.00     0.074 A 
ATOM     44  C   UNL A   1      37.941  31.542  30.607  1.00  0.00     0.049 A 
ATOM     45  N   UNL A   1      38.917  32.384  33.336  1.00  0.00    -0.248 NA
ATOM     46  C   UNL A   1      37.233  34.002  33.363  1.00  0.00     0.031 C 
ATOM     47  C   UNL A   1      37.491  31.074  29.300  1.00  0.00     0.029 A 
ATOM     48  N   UNL A   1      38.970  30.694  30.935  1.00  0.00    -0.354 N 
ATOM     49  C   UNL A   1      38.959  33.076  34.540  1.00  0.00     0.074 A 
ATOM     50  C   UNL A   1      37.926  34.087  34.486  1.00  0.00     0.031 C 
ATOM     51  C   UNL A   1      38.244  30.022  28.935  1.00  0.00     0.029 A 
ATOM     52  C   UNL A   1      39.265  29.782  29.953  1.00  0.00     0.049 A 
ATOM     53  H   UNL A   1      39.452  30.736  31.793  1.00  0.00     0.167 HD
ATOM     54  C   UNL A   1      39.782  32.880  35.597  1.00  0.00     0.037 A 
ATOM     55  C   UNL A   1      40.261  28.878  29.875  1.00  0.00     0.037 A 
ATOM     56  C   UNL A   1      40.810  31.873  35.644  1.00  0.00     0.049 A 
ATOM     57  C   UNL A   1      41.230  28.747  31.021  1.00  0.00     0.074 A 
ATOM     58  C   UNL A   1      41.682  31.579  36.677  1.00  0.00     0.029 A 
ATOM     59  N   UNL A   1      41.113  31.006  34.606  1.00  0.00    -0.354 N 
ATOM     60  N   UNL A   1      41.254  29.387  32.165  1.00  0.00    -0.248 NA
ATOM     61  C   UNL A   1      42.308  27.759  30.867  1.00  0.00     0.031 C 
ATOM     62  C   UNL A   1      42.557  30.581  36.239  1.00  0.00     0.029 A 
ATOM     63  C   UNL A   1      42.184  30.199  34.959  1.00  0.00     0.049 A 
ATOM     64  H   UNL A   1      40.638  30.967  33.744  1.00  0.00     0.167 HD
ATOM     65  C   UNL A   1      42.319  28.855  32.881  1.00  0.00     0.074 A 
ATOM     66  C   UNL A   1      42.913  27.832  32.045  1.00  0.00     0.031 C 
ATOM     67  C   UNL A   1      42.762  29.179  34.122  1.00  0.00     0.037 A 
BRANCH  54  68
ATOM     68  C   UNL A   1      39.629  33.800  36.774  1.00  0.00     0.064 A 
ATOM     69  C   UNL A   1      38.858  33.454  37.895  1.00  0.00     0.173 A 
ATOM     70  C   UNL A   1      40.283  35.042  36.788  1.00  0.00     0.173 A 
ATOM     71  F   UNL A   1      38.200  32.286  37.927  1.00  0.00    -0.203 F 
ATOM     72  C   UNL A   1      38.720  34.331  38.968  1.00  0.00     0.198 A 
ATOM     73  C   UNL A   1      40.173  35.900  37.879  1.00  0.00     0.198 A 
ATOM     74  F   UNL A   1      41.035  35.423  35.745  1.00  0.00    -0.203 F 
ATOM     75  F   UNL A   1      37.933  34.002  40.002  1.00  0.00    -0.200 F 
ATOM     76  C   UNL A   1      39.384  35.548  38.964  1.00  0.00     0.200 A 
ATOM     77  F   UNL A   1      40.826  37.070  37.878  1.00  0.00    -0.200 F 
ATOM     78  F   UNL A   1      39.256  36.387  40.000  1.00  0.00    -0.200 F 
ENDBRANCH  54  68
BRANCH  55  79
ATOM     79  C   UNL A   1      40.408  28.036  28.658  1.00  0.00     0.064 A 
ATOM     80  C   UNL A   1      39.804  26.774  28.570  1.00  0.00     0.173 A 
ATOM     81  C   UNL A   1      41.178  28.465  27.567  1.00  0.00     0.173 A 
ATOM     82  F   UNL A   1      39.082  26.306  29.598  1.00  0.00    -0.203 F 
ATOM     83  C   UNL A   1      39.976  25.970  27.445  1.00  0.00     0.198 A 
ATOM     84  C   UNL A   1      41.323  27.674  26.429  1.00  0.00     0.198 A 
ATOM     85  F   UNL A   1      41.781  29.663  27.599  1.00  0.00    -0.203 F 
ATOM     86  F   UNL A   1      39.426  24.749  27.407  1.00  0.00    -0.200 F 
ATOM     87  C   UNL A   1      40.729  26.423  26.373  1.00  0.00     0.200 A 
ATOM     88  F   UNL A   1      42.037  28.125  25.388  1.00  0.00    -0.200 F 
ATOM     89  F   UNL A   1      40.886  25.653  25.287  1.00  0.00    -0.200 F 
ENDBRANCH  55  79
BRANCH  67  90
ATOM     90  C   UNL A   1      43.914  28.388  34.677  1.00  0.00     0.064 A 
ATOM     91  C   UNL A   1      43.723  27.185  35.371  1.00  0.00     0.173 A 
ATOM     92  C   UNL A   1      45.233  28.824  34.473  1.00  0.00     0.173 A 
ATOM     93  F   UNL A   1      42.483  26.729  35.606  1.00  0.00    -0.203 F 
ATOM     94  C   UNL A   1      44.807  26.463  35.866  1.00  0.00     0.198 A 
ATOM     95  C   UNL A   1      46.315  28.082  34.937  1.00  0.00     0.198 A 
ATOM     96  F   UNL A   1      45.474  29.964  33.808  1.00  0.00    -0.203 F 
ATOM     97  F   UNL A   1      44.598  25.345  36.574  1.00  0.00    -0.200 F 
ATOM     98  C   UNL A   1      46.101  26.908  35.641  1.00  0.00     0.200 A 
ATOM     99  F   UNL A   1      47.565  28.504  34.701  1.00  0.00    -0.200 F 
ATOM    100  F   UNL A   1      47.143  26.207  36.110  1.00  0.00    -0.200 F 
ENDBRANCH  67  90
ENDBRANCH  41  42
ENDBRANCH  34  36
ENDBRANCH  33  34
ENDBRANCH  32  33
ENDBRANCH  31  32
ENDBRANCH  30  31
ENDBRANCH  29  30
ENDBRANCH   1  29
TORSDOF 22
ENDMDL
MODEL 2
REMARK VINA RESULT:     -11.0      3.423      8.915
REMARK SMILES Nc1ccc(-c2cc3ccccc3s2)c(C(=O)OCCOCCOCCOCCOC(=O)c2ccc(-c3c4nc(c(-c5c(F)c(F)c(F)c(F)c5F)c5ccc([nH]5)c(-c5c(F)c(F)c(F)c(F)c5F)c5nc(c(-c6c(F)c(F)c(F)c(F)c6F)c6ccc3[nH]6)C=C5)C=C4)cc2)n1
REMARK SMILES IDX 25 1 24 2 23 3 22 4 21 5 20 6 19 7 18 8 16 9 17 10 15 11
REMARK SMILES IDX 2 12 3 13 96 14 4 15 5 16 1 17 6 20 7 21 14 22 8 23 13 24
REMARK SMILES IDX 9 25 12 26 10 27 11 28 26 29 27 30 28 31 29 32 30 33 31 34
REMARK SMILES IDX 32 35 33 36 34 37 95 38 35 39 94 40 36 41 37 42 38 43 88 44
REMARK SMILES IDX 39 45 93 46 87 47 89 48 40 49 92 50 86 51 85 52 41 54 73 55
REMARK SMILES IDX 53 56 72 57 54 58 57 59 71 60 90 61 55 62 56 63 70 65 91 66
REMARK SMILES IDX 58 67 42 68 43 69 51 70 44 71 45 72 49 73 52 74 46 75 47 76
REMARK SMILES IDX 50 77 48 78 74 79 75 80 83 81 76 82 77 83 81 84 84 85 78 86
REMARK SMILES IDX 79 87 82 88 80 89 59 90 60 91 68 92 61 93 62 94 66 95 69 96
REMARK SMILES IDX 63 97 64 98 67 99 65 100
REMARK H PARENT 1 18 1 19 89 53 57 64
REMARK Flexibility Score: inf
ROOT
ATOM      1  C   UNL A   1      42.457  19.463  26.129  1.00  0.00     0.188 C 
ENDROOT
BRANCH   1   2
ATOM      2  O   UNL A   1      41.103  19.397  25.692  1.00  0.00    -0.377 OA
BRANCH   2   3
ATOM      3  C   UNL A   1      40.114  20.227  26.288  1.00  0.00     0.188 C 
BRANCH   3   4
ATOM      4  C   UNL A   1      39.150  21.049  25.400  1.00  0.00     0.188 C 
BRANCH   4   5
ATOM      5  O   UNL A   1      38.174  21.775  26.127  1.00  0.00    -0.376 OA
BRANCH   5   6
ATOM      6  C   UNL A   1      37.329  22.692  25.461  1.00  0.00     0.202 C 
BRANCH   6   7
ATOM      7  C   UNL A   1      35.822  22.422  25.361  1.00  0.00     0.261 C 
BRANCH   7   8
ATOM      8  O   UNL A   1      35.043  23.539  24.937  1.00  0.00    -0.458 OA
BRANCH   8   9
ATOM      9  C   UNL A   1      34.548  23.534  23.678  1.00  0.00     0.357 C 
ATOM     10  O   UNL A   1      35.103  23.085  22.689  1.00  0.00    -0.244 OA
BRANCH   9  11
ATOM     11  C   UNL A   1      33.148  24.060  23.731  1.00  0.00     0.159 A 
ATOM     12  C   UNL A   1      31.868  25.980  23.508  1.00  0.00     0.124 A 
ATOM     13  C   UNL A   1      30.702  25.242  23.610  1.00  0.00     0.047 A 
ATOM     14  N   UNL A   1      33.081  25.418  23.577  1.00  0.00    -0.224 NA
ATOM     15  C   UNL A   1      30.781  23.857  23.774  1.00  0.00     0.016 A 
ATOM     16  C   UNL A   1      32.027  23.219  23.816  1.00  0.00     0.025 A 
BRANCH  12  17
ATOM     17  N   UNL A   1      31.831  27.330  23.232  1.00  0.00    -0.384 N 
ATOM     18  H   UNL A   1      32.359  27.959  23.777  1.00  0.00     0.158 HD
ATOM     19  H   UNL A   1      31.277  27.666  22.491  1.00  0.00     0.158 HD
ENDBRANCH  12  17
BRANCH  16  20
ATOM     20  C   UNL A   1      32.122  21.752  23.887  1.00  0.00     0.038 A 
ATOM     21  C   UNL A   1      32.283  20.942  24.995  1.00  0.00     0.029 A 
ATOM     22  S   UNL A   1      32.153  20.818  22.450  1.00  0.00    -0.135 S 
ATOM     23  C   UNL A   1      32.563  19.575  24.668  1.00  0.00    -0.007 A 
ATOM     24  C   UNL A   1      32.486  19.359  23.293  1.00  0.00     0.035 A 
ATOM     25  C   UNL A   1      32.892  18.482  25.504  1.00  0.00     0.009 A 
ATOM     26  C   UNL A   1      32.676  18.081  22.737  1.00  0.00     0.019 A 
ATOM     27  C   UNL A   1      33.091  17.212  24.958  1.00  0.00     0.001 A 
ATOM     28  C   UNL A   1      32.963  17.013  23.590  1.00  0.00     0.001 A 
ENDBRANCH  16  20
ENDBRANCH   9  11
ENDBRANCH   8   9
ENDBRANCH   7   8
ENDBRANCH   6   7
ENDBRANCH   5   6
ENDBRANCH   4   5
ENDBRANCH   3   4
ENDBRANCH   2   3
ENDBRANCH   1   2
BRANCH   1  29
ATOM     29  C   UNL A   1      43.602  18.814  25.317  1.00  0.00     0.188 C 
BRANCH  29  30
ATOM     30  O   UNL A   1      44.891  19.323  25.604  1.00  0.00    -0.376 OA
BRANCH  30  31
ATOM     31  C   UNL A   1      45.384  20.385  24.808  1.00  0.00     0.202 C 
BRANCH  31  32
ATOM     32  C   UNL A   1      45.598  21.748  25.480  1.00  0.00     0.261 C 
BRANCH  32  33
ATOM     33  O   UNL A   1      44.446  22.348  26.092  1.00  0.00    -0.460 OA
BRANCH  33  34
ATOM     34  C   UNL A   1      43.661  23.122  25.315  1.00  0.00     0.338 C 
ATOM     35  O   UNL A   1      43.358  22.936  24.147  1.00  0.00    -0.246 OA
BRANCH  34  36
ATOM     36  C   UNL A   1      43.077  24.166  26.178  1.00  0.00     0.060 A 
ATOM     37  C   UNL A   1      43.604  25.464  26.142  1.00  0.00     0.016 A 
ATOM     38  C   UNL A   1      42.004  23.861  27.018  1.00  0.00     0.016 A 
ATOM     39  C   UNL A   1      43.078  26.454  26.972  1.00  0.00     0.010 A 
ATOM     40  C   UNL A   1      41.492  24.847  27.864  1.00  0.00     0.010 A 
ATOM     41  C   UNL A   1      42.049  26.139  27.869  1.00  0.00    -0.014 A 
BRANCH  41  42
ATOM     42  C   UNL A   1      41.689  27.092  28.947  1.00  0.00     0.031 A 
ATOM     43  C   UNL A   1      42.519  27.096  30.201  1.00  0.00     0.074 A 
ATOM     44  C   UNL A   1      40.665  27.952  28.813  1.00  0.00     0.049 A 
ATOM     45  N   UNL A   1      42.367  27.787  31.301  1.00  0.00    -0.248 NA
ATOM     46  C   UNL A   1      43.682  26.194  30.212  1.00  0.00     0.031 C 
ATOM     47  C   UNL A   1      39.828  28.093  27.626  1.00  0.00     0.029 A 
ATOM     48  N   UNL A   1      40.156  28.869  29.699  1.00  0.00    -0.354 N 
ATOM     49  C   UNL A   1      43.406  27.398  32.135  1.00  0.00     0.074 A 
ATOM     50  C   UNL A   1      44.161  26.386  31.430  1.00  0.00     0.031 C 
ATOM     51  C   UNL A   1      38.905  29.043  27.859  1.00  0.00     0.029 A 
ATOM     52  C   UNL A   1      39.049  29.531  29.229  1.00  0.00     0.049 A 
ATOM     53  H   UNL A   1      40.546  29.037  30.588  1.00  0.00     0.167 HD
ATOM     54  C   UNL A   1      43.707  27.848  33.376  1.00  0.00     0.037 A 
ATOM     55  C   UNL A   1      38.232  30.407  29.845  1.00  0.00     0.037 A 
ATOM     56  C   UNL A   1      42.950  28.855  34.074  1.00  0.00     0.049 A 
ATOM     57  C   UNL A   1      38.526  30.819  31.264  1.00  0.00     0.074 A 
ATOM     58  C   UNL A   1      43.184  29.396  35.325  1.00  0.00     0.029 A 
ATOM     59  N   UNL A   1      41.802  29.460  33.585  1.00  0.00    -0.354 N 
ATOM     60  N   UNL A   1      39.520  30.464  32.042  1.00  0.00    -0.248 NA
ATOM     61  C   UNL A   1      37.586  31.761  31.889  1.00  0.00     0.031 C 
ATOM     62  C   UNL A   1      42.141  30.278  35.622  1.00  0.00     0.029 A 
ATOM     63  C   UNL A   1      41.295  30.343  34.525  1.00  0.00     0.049 A 
ATOM     64  H   UNL A   1      41.405  29.288  32.700  1.00  0.00     0.167 HD
ATOM     65  C   UNL A   1      39.349  31.167  33.228  1.00  0.00     0.074 A 
ATOM     66  C   UNL A   1      38.158  31.975  33.065  1.00  0.00     0.031 C 
ATOM     67  C   UNL A   1      40.113  31.149  34.349  1.00  0.00     0.037 A 
BRANCH  54  68
ATOM     68  C   UNL A   1      44.882  27.227  34.074  1.00  0.00     0.064 A 
ATOM     69  C   UNL A   1      46.186  27.726  33.925  1.00  0.00     0.173 A 
ATOM     70  C   UNL A   1      44.697  26.124  34.922  1.00  0.00     0.173 A 
ATOM     71  F   UNL A   1      46.421  28.769  33.114  1.00  0.00    -0.203 F 
ATOM     72  C   UNL A   1      47.262  27.123  34.571  1.00  0.00     0.198 A 
ATOM     73  C   UNL A   1      45.770  25.547  35.595  1.00  0.00     0.198 A 
ATOM     74  F   UNL A   1      43.472  25.608  35.103  1.00  0.00    -0.203 F 
ATOM     75  F   UNL A   1      48.505  27.583  34.369  1.00  0.00    -0.200 F 
ATOM     76  C   UNL A   1      47.053  26.041  35.412  1.00  0.00     0.200 A 
ATOM     77  F   UNL A   1      45.563  24.510  36.418  1.00  0.00    -0.200 F 
ATOM     78  F   UNL A   1      48.088  25.467  36.039  1.00  0.00    -0.200 F 
ENDBRANCH  54  68
BRANCH  55  79
ATOM     79  C   UNL A   1      37.042  30.944  29.131  1.00  0.00     0.064 A 
ATOM     80  C   UNL A   1      35.930  30.134  28.863  1.00  0.00     0.173 A 
ATOM     81  C   UNL A   1      37.003  32.272  28.681  1.00  0.00     0.173 A 
ATOM     82  F   UNL A   1      35.930  28.850  29.247  1.00  0.00    -0.203 F 
ATOM     83  C   UNL A   1      34.832  30.628  28.160  1.00  0.00     0.198 A 
ATOM     84  C   UNL A   1      35.892  32.774  28.007  1.00  0.00     0.198 A 
ATOM     85  F   UNL A   1      38.042  33.090  28.908  1.00  0.00    -0.203 F 
ATOM     86  F   UNL A   1      33.803  29.818  27.876  1.00  0.00    -0.200 F 
ATOM     87  C   UNL A   1      34.811  31.949  27.739  1.00  0.00     0.200 A 
ATOM     88  F   UNL A   1      35.869  34.056  27.618  1.00  0.00    -0.200 F 
ATOM     89  F   UNL A   1      33.751  32.425  27.071  1.00  0.00    -0.200 F 
ENDBRANCH  55  79
BRANCH  67  90
ATOM     90  C   UNL A   1      39.718  32.066  35.473  1.00  0.00     0.064 A 
ATOM     91  C   UNL A   1      40.263  33.350  35.611  1.00  0.00     0.173 A 
ATOM     92  C   UNL A   1      38.746  31.664  36.404  1.00  0.00     0.173 A 
ATOM     93  F   UNL A   1      41.206  33.779  34.758  1.00  0.00    -0.203 F 
ATOM     94  C   UNL A   1      39.873  34.187  36.655  1.00  0.00     0.198 A 
ATOM     95  C   UNL A   1      38.331  32.517  37.423  1.00  0.00     0.198 A 
ATOM     96  F   UNL A   1      38.184  30.450  36.315  1.00  0.00    -0.203 F 
ATOM     97  F   UNL A   1      40.448  35.388  36.799  1.00  0.00    -0.200 F 
ATOM     98  C   UNL A   1      38.901  33.773  37.553  1.00  0.00     0.200 A 
ATOM     99  F   UNL A   1      37.378  32.121  38.279  1.00  0.00    -0.200 F 
ATOM    100  F   UNL A   1      38.520  34.583  38.551  1.00  0.00    -0.200 F 
ENDBRANCH  67  90
ENDBRANCH  41  42
ENDBRANCH  34  36
ENDBRANCH  33  34
ENDBRANCH  32  33
ENDBRANCH  31  32
ENDBRANCH  30  31
ENDBRANCH  29  30
ENDBRANCH   1  29
TORSDOF 22
ENDMDL
MODEL 3
REMARK VINA RESULT:     -10.9      0.958      7.048
REMARK SMILES Nc1ccc(-c2cc3ccccc3s2)c(C(=O)OCCOCCOCCOCCOC(=O)c2ccc(-c3c4nc(c(-c5c(F)c(F)c(F)c(F)c5F)c5ccc([nH]5)c(-c5c(F)c(F)c(F)c(F)c5F)c5nc(c(-c6c(F)c(F)c(F)c(F)c6F)c6ccc3[nH]6)C=C5)C=C4)cc2)n1
REMARK SMILES IDX 25 1 24 2 23 3 22 4 21 5 20 6 19 7 18 8 16 9 17 10 15 11
REMARK SMILES IDX 2 12 3 13 96 14 4 15 5 16 1 17 6 20 7 21 14 22 8 23 13 24
REMARK SMILES IDX 9 25 12 26 10 27 11 28 26 29 27 30 28 31 29 32 30 33 31 34
REMARK SMILES IDX 32 35 33 36 34 37 95 38 35 39 94 40 36 41 37 42 38 43 88 44
REMARK SMILES IDX 39 45 93 46 87 47 89 48 40 49 92 50 86 51 85 52 41 54 73 55
REMARK SMILES IDX 53 56 72 57 54 58 57 59 71 60 90 61 55 62 56 63 70 65 91 66
REMARK SMILES IDX 58 67 42 68 43 69 51 70 44 71 45 72 49 73 52 74 46 75 47 76
REMARK SMILES IDX 50 77 48 78 74 79 75 80 83 81 76 82 77 83 81 84 84 85 78 86
REMARK SMILES IDX 79 87 82 88 80 89 59 90 60 91 68 92 61 93 62 94 66 95 69 96
REMARK SMILES IDX 63 97 64 98 67 99 65 100
REMARK H PARENT 1 18 1 19 89 53 57 64
REMARK Flexibility Score: inf
ROOT
ATOM      1  C   UNL A   1      33.343  28.243  26.999  1.00  0.00     0.188 C 
ENDROOT
BRANCH   1   2
ATOM      2  O   UNL A   1      32.888  27.056  26.356  1.00  0.00    -0.377 OA
BRANCH   2   3
ATOM      3  C   UNL A   1      33.741  26.352  25.462  1.00  0.00     0.188 C 
BRANCH   3   4
ATOM      4  C   UNL A   1      34.233  24.928  25.816  1.00  0.00     0.188 C 
BRANCH   4   5
ATOM      5  O   UNL A   1      35.171  24.397  24.896  1.00  0.00    -0.376 OA
BRANCH   5   6
ATOM      6  C   UNL A   1      36.363  23.799  25.364  1.00  0.00     0.202 C 
BRANCH   6   7
ATOM      7  C   UNL A   1      36.389  22.310  25.734  1.00  0.00     0.261 C 
BRANCH   7   8
ATOM      8  O   UNL A   1      35.531  21.485  24.948  1.00  0.00    -0.458 OA
BRANCH   8   9
ATOM      9  C   UNL A   1      34.367  21.066  25.496  1.00  0.00     0.357 C 
ATOM     10  O   UNL A   1      33.918  21.406  26.577  1.00  0.00    -0.244 OA
BRANCH   9  11
ATOM     11  C   UNL A   1      33.665  20.212  24.487  1.00  0.00     0.159 A 
ATOM     12  C   UNL A   1      33.251  18.016  23.870  1.00  0.00     0.124 A 
ATOM     13  C   UNL A   1      32.363  18.433  22.895  1.00  0.00     0.047 A 
ATOM     14  N   UNL A   1      33.909  18.876  24.656  1.00  0.00    -0.224 NA
ATOM     15  C   UNL A   1      32.126  19.799  22.724  1.00  0.00     0.016 A 
ATOM     16  C   UNL A   1      32.764  20.736  23.547  1.00  0.00     0.025 A 
BRANCH  12  17
ATOM     17  N   UNL A   1      33.424  16.676  24.144  1.00  0.00    -0.384 N 
ATOM     18  H   UNL A   1      32.892  16.246  24.853  1.00  0.00     0.158 HD
ATOM     19  H   UNL A   1      34.079  16.149  23.632  1.00  0.00     0.158 HD
ENDBRANCH  12  17
BRANCH  16  20
ATOM     20  C   UNL A   1      32.448  22.170  23.445  1.00  0.00     0.038 A 
ATOM     21  C   UNL A   1      31.521  22.911  24.154  1.00  0.00     0.029 A 
ATOM     22  S   UNL A   1      33.198  23.136  22.244  1.00  0.00    -0.135 S 
ATOM     23  C   UNL A   1      31.326  24.231  23.633  1.00  0.00    -0.007 A 
ATOM     24  C   UNL A   1      32.217  24.502  22.596  1.00  0.00     0.035 A 
ATOM     25  C   UNL A   1      30.402  25.236  24.007  1.00  0.00     0.009 A 
ATOM     26  C   UNL A   1      32.246  25.756  21.959  1.00  0.00     0.019 A 
ATOM     27  C   UNL A   1      30.418  26.480  23.373  1.00  0.00     0.001 A 
ATOM     28  C   UNL A   1      31.347  26.741  22.373  1.00  0.00     0.001 A 
ENDBRANCH  16  20
ENDBRANCH   9  11
ENDBRANCH   8   9
ENDBRANCH   7   8
ENDBRANCH   6   7
ENDBRANCH   5   6
ENDBRANCH   4   5
ENDBRANCH   3   4
ENDBRANCH   2   3
ENDBRANCH   1   2
BRANCH   1  29
ATOM     29  C   UNL A   1      33.577  29.552  26.208  1.00  0.00     0.188 C 
BRANCH  29  30
ATOM     30  O   UNL A   1      32.408  30.313  25.969  1.00  0.00    -0.376 OA
BRANCH  30  31
ATOM     31  C   UNL A   1      32.026  31.276  26.934  1.00  0.00     0.202 C 
BRANCH  31  32
ATOM     32  C   UNL A   1      33.138  32.044  27.661  1.00  0.00     0.261 C 
BRANCH  32  33
ATOM     33  O   UNL A   1      33.227  33.451  27.392  1.00  0.00    -0.460 OA
BRANCH  33  34
ATOM     34  C   UNL A   1      33.285  34.285  28.450  1.00  0.00     0.338 C 
ATOM     35  O   UNL A   1      32.427  35.070  28.824  1.00  0.00    -0.246 OA
BRANCH  34  36
ATOM     36  C   UNL A   1      34.515  33.965  29.198  1.00  0.00     0.060 A 
ATOM     37  C   UNL A   1      35.763  34.225  28.615  1.00  0.00     0.016 A 
ATOM     38  C   UNL A   1      34.433  33.413  30.478  1.00  0.00     0.016 A 
ATOM     39  C   UNL A   1      36.934  33.903  29.301  1.00  0.00     0.010 A 
ATOM     40  C   UNL A   1      35.605  33.072  31.155  1.00  0.00     0.010 A 
ATOM     41  C   UNL A   1      36.861  33.284  30.556  1.00  0.00    -0.014 A 
BRANCH  41  42
ATOM     42  C   UNL A   1      38.074  32.677  31.155  1.00  0.00     0.031 A 
ATOM     43  C   UNL A   1      38.628  31.427  30.530  1.00  0.00     0.074 A 
ATOM     44  C   UNL A   1      38.688  33.231  32.214  1.00  0.00     0.049 A 
ATOM     45  N   UNL A   1      39.634  30.681  30.907  1.00  0.00    -0.248 NA
ATOM     46  C   UNL A   1      37.950  30.955  29.312  1.00  0.00     0.031 C 
ATOM     47  C   UNL A   1      38.292  34.475  32.868  1.00  0.00     0.029 A 
ATOM     48  N   UNL A   1      39.782  32.807  32.927  1.00  0.00    -0.354 N 
ATOM     49  C   UNL A   1      39.704  29.649  29.979  1.00  0.00     0.074 A 
ATOM     50  C   UNL A   1      38.618  29.845  29.043  1.00  0.00     0.031 C 
ATOM     51  C   UNL A   1      39.132  34.712  33.891  1.00  0.00     0.029 A 
ATOM     52  C   UNL A   1      40.085  33.608  33.999  1.00  0.00     0.049 A 
ATOM     53  H   UNL A   1      40.301  32.002  32.693  1.00  0.00     0.167 HD
ATOM     54  C   UNL A   1      40.597  28.634  29.911  1.00  0.00     0.037 A 
ATOM     55  C   UNL A   1      41.004  33.452  34.971  1.00  0.00     0.037 A 
ATOM     56  C   UNL A   1      41.674  28.443  30.846  1.00  0.00     0.049 A 
ATOM     57  C   UNL A   1      41.923  32.258  34.934  1.00  0.00     0.074 A 
ATOM     58  C   UNL A   1      42.646  27.459  30.852  1.00  0.00     0.029 A 
ATOM     59  N   UNL A   1      41.911  29.246  31.952  1.00  0.00    -0.354 N 
ATOM     60  N   UNL A   1      41.999  31.298  34.045  1.00  0.00    -0.248 NA
ATOM     61  C   UNL A   1      42.890  32.132  36.033  1.00  0.00     0.031 C 
ATOM     62  C   UNL A   1      43.430  27.625  31.998  1.00  0.00     0.029 A 
ATOM     63  C   UNL A   1      42.993  28.758  32.668  1.00  0.00     0.049 A 
ATOM     64  H   UNL A   1      41.389  30.046  32.193  1.00  0.00     0.167 HD
ATOM     65  C   UNL A   1      43.043  30.477  34.454  1.00  0.00     0.074 A 
ATOM     66  C   UNL A   1      43.578  31.059  35.668  1.00  0.00     0.031 C 
ATOM     67  C   UNL A   1      43.521  29.349  33.872  1.00  0.00     0.037 A 
BRANCH  54  68
ATOM     68  C   UNL A   1      40.421  27.629  28.809  1.00  0.00     0.064 A 
ATOM     69  C   UNL A   1      39.562  26.526  28.937  1.00  0.00     0.173 A 
ATOM     70  C   UNL A   1      41.109  27.784  27.596  1.00  0.00     0.173 A 
ATOM     71  F   UNL A   1      38.891  26.322  30.081  1.00  0.00    -0.203 F 
ATOM     72  C   UNL A   1      39.426  25.600  27.906  1.00  0.00     0.198 A 
ATOM     73  C   UNL A   1      40.943  26.876  26.553  1.00  0.00     0.198 A 
ATOM     74  F   UNL A   1      41.941  28.822  27.418  1.00  0.00    -0.203 F 
ATOM     75  F   UNL A   1      38.644  24.524  28.073  1.00  0.00    -0.200 F 
ATOM     76  C   UNL A   1      40.110  25.780  26.713  1.00  0.00     0.200 A 
ATOM     77  F   UNL A   1      41.594  27.060  25.397  1.00  0.00    -0.200 F 
ATOM     78  F   UNL A   1      39.973  24.891  25.719  1.00  0.00    -0.200 F 
ENDBRANCH  54  68
BRANCH  55  79
ATOM     79  C   UNL A   1      41.094  34.442  36.078  1.00  0.00     0.064 A 
ATOM     80  C   UNL A   1      41.982  35.524  36.015  1.00  0.00     0.173 A 
ATOM     81  C   UNL A   1      40.310  34.312  37.234  1.00  0.00     0.173 A 
ATOM     82  F   UNL A   1      42.774  35.677  34.944  1.00  0.00    -0.203 F 
ATOM     83  C   UNL A   1      42.093  36.428  37.070  1.00  0.00     0.198 A 
ATOM     84  C   UNL A   1      40.397  35.234  38.275  1.00  0.00     0.198 A 
ATOM     85  F   UNL A   1      39.445  33.292  37.348  1.00  0.00    -0.203 F 
ATOM     86  F   UNL A   1      42.984  37.426  37.002  1.00  0.00    -0.200 F 
ATOM     87  C   UNL A   1      41.295  36.286  38.195  1.00  0.00     0.200 A 
ATOM     88  F   UNL A   1      39.612  35.102  39.352  1.00  0.00    -0.200 F 
ATOM     89  F   UNL A   1      41.395  37.161  39.206  1.00  0.00    -0.200 F 
ENDBRANCH  55  79
BRANCH  67  90
ATOM     90  C   UNL A   1      44.713  28.691  34.509  1.00  0.00     0.064 A 
ATOM     91  C   UNL A   1      44.578  27.715  35.506  1.00  0.00     0.173 A 
ATOM     92  C   UNL A   1      46.011  29.015  34.083  1.00  0.00     0.173 A 
ATOM     93  F   UNL A   1      43.362  27.377  35.961  1.00  0.00    -0.203 F 
ATOM     94  C   UNL A   1      45.697  27.109  36.074  1.00  0.00     0.198 A 
ATOM     95  C   UNL A   1      47.126  28.382  34.625  1.00  0.00     0.198 A 
ATOM     96  F   UNL A   1      46.199  29.935  33.125  1.00  0.00    -0.203 F 
ATOM     97  F   UNL A   1      45.546  26.220  37.065  1.00  0.00    -0.200 F 
ATOM     98  C   UNL A   1      46.969  27.437  35.627  1.00  0.00     0.200 A 
ATOM     99  F   UNL A   1      48.352  28.687  34.178  1.00  0.00    -0.200 F 
ATOM    100  F   UNL A   1      48.043  26.847  36.168  1.00  0.00    -0.200 F 
ENDBRANCH  67  90
ENDBRANCH  41  42
ENDBRANCH  34  36
ENDBRANCH  33  34
ENDBRANCH  32  33
ENDBRANCH  31  32
ENDBRANCH  30  31
ENDBRANCH  29  30
ENDBRANCH   1  29
TORSDOF 22
ENDMDL
