MODEL 1
REMARK VINA RESULT:     -10.8      0.000      0.000
REMARK SMILES O=C(OCCOCCOCCOCCOC(=O)[C@H]1CC[C@@H](CN2CC(=O)N3CCCC[C@H]3C2=O)O1)c1ccc(-c2c3nc(c(-c4c(F)c(F)c(F)c(F)c4F)c4ccc([nH]4)c(-c4c(F)c(F)c(F)c(F)c4F)c4nc(c(-c5c(F)c(F)c(F)c(F)c5F)c5ccc2[nH]5)C=C4)C=C3)cc1
REMARK SMILES IDX 9 1 8 2 7 3 6 4 5 5 4 6 3 7 2 8 1 9 36 10 37 11 98 12 38 13
REMARK SMILES IDX 97 14 39 15 40 16 41 17 91 18 42 19 96 20 90 21 92 22 43 23
REMARK SMILES IDX 95 24 89 25 88 26 44 28 76 29 56 30 75 31 57 32 60 33 74 34
REMARK SMILES IDX 93 35 58 36 59 37 73 39 94 40 61 41 45 42 46 43 54 44 47 45
REMARK SMILES IDX 48 46 52 47 55 48 49 49 50 50 53 51 51 52 77 53 78 54 86 55
REMARK SMILES IDX 79 56 80 57 84 58 87 59 81 60 82 61 85 62 83 63 62 64 63 65
REMARK SMILES IDX 71 66 64 67 65 68 69 69 72 70 66 71 67 72 70 73 68 74 10 75
REMARK SMILES IDX 11 76 12 77 13 78 14 79 15 80 16 81 17 82 18 83 19 84 35 85
REMARK SMILES IDX 20 86 21 87 22 88 23 89 24 90 33 91 25 92 32 93 34 94 26 95
REMARK SMILES IDX 27 96 31 97 28 98 30 99 29 100
REMARK H PARENT 92 27 60 38
REMARK Flexibility Score: inf
ROOT
ATOM      1  O   UNL A   1      34.078  34.730  29.542  1.00  0.00    -0.377 OA
ENDROOT
BRANCH   1   2
ATOM      2  C   UNL A   1      33.077  35.682  29.898  1.00  0.00     0.188 C 
BRANCH   2   3
ATOM      3  C   UNL A   1      33.309  36.442  31.209  1.00  0.00     0.188 C 
BRANCH   3   4
ATOM      4  O   UNL A   1      33.164  35.588  32.334  1.00  0.00    -0.376 OA
BRANCH   4   5
ATOM      5  C   UNL A   1      34.284  35.214  33.116  1.00  0.00     0.202 C 
BRANCH   5   6
ATOM      6  C   UNL A   1      35.582  34.922  32.393  1.00  0.00     0.261 C 
BRANCH   6   7
ATOM      7  O   UNL A   1      36.238  33.646  32.483  1.00  0.00    -0.460 OA
BRANCH   7   8
ATOM      8  C   UNL A   1      35.909  32.469  31.919  1.00  0.00     0.338 C 
ATOM      9  O   UNL A   1      34.752  32.246  31.571  1.00  0.00    -0.246 OA
BRANCH   8  10
ATOM     10  C   UNL A   1      36.994  31.612  31.383  1.00  0.00     0.060 A 
ATOM     11  C   UNL A   1      37.826  30.790  32.145  1.00  0.00     0.016 A 
ATOM     12  C   UNL A   1      37.118  31.585  29.989  1.00  0.00     0.016 A 
ATOM     13  C   UNL A   1      38.792  29.997  31.566  1.00  0.00     0.010 A 
ATOM     14  C   UNL A   1      38.095  30.800  29.388  1.00  0.00     0.010 A 
ATOM     15  C   UNL A   1      38.952  30.040  30.192  1.00  0.00    -0.014 A 
BRANCH  15  16
ATOM     16  C   UNL A   1      40.208  29.515  29.664  1.00  0.00     0.031 A 
ATOM     17  C   UNL A   1      41.363  30.458  29.653  1.00  0.00     0.074 A 
ATOM     18  C   UNL A   1      40.318  28.219  29.345  1.00  0.00     0.049 A 
ATOM     19  N   UNL A   1      42.517  30.353  29.061  1.00  0.00    -0.248 NA
ATOM     20  C   UNL A   1      41.187  31.706  30.420  1.00  0.00     0.031 C 
ATOM     21  C   UNL A   1      39.275  27.210  29.539  1.00  0.00     0.029 A 
ATOM     22  N   UNL A   1      41.359  27.534  28.791  1.00  0.00    -0.354 N 
ATOM     23  C   UNL A   1      43.172  31.547  29.325  1.00  0.00     0.074 A 
ATOM     24  C   UNL A   1      42.302  32.357  30.143  1.00  0.00     0.031 C 
ATOM     25  C   UNL A   1      39.723  26.032  29.077  1.00  0.00     0.029 A 
ATOM     26  C   UNL A   1      41.036  26.240  28.478  1.00  0.00     0.049 A 
ATOM     27  H   UNL A   1      42.248  27.927  28.634  1.00  0.00     0.167 HD
ATOM     28  C   UNL A   1      44.390  31.922  28.879  1.00  0.00     0.037 A 
ATOM     29  C   UNL A   1      41.711  25.366  27.711  1.00  0.00     0.037 A 
ATOM     30  C   UNL A   1      45.196  31.057  28.064  1.00  0.00     0.049 A 
ATOM     31  C   UNL A   1      43.017  25.832  27.127  1.00  0.00     0.074 A 
ATOM     32  C   UNL A   1      46.420  31.302  27.478  1.00  0.00     0.029 A 
ATOM     33  N   UNL A   1      44.829  29.758  27.720  1.00  0.00    -0.354 N 
ATOM     34  N   UNL A   1      43.612  26.996  27.268  1.00  0.00    -0.248 NA
ATOM     35  C   UNL A   1      43.737  24.888  26.271  1.00  0.00     0.031 C 
ATOM     36  C   UNL A   1      46.763  30.171  26.728  1.00  0.00     0.029 A 
ATOM     37  C   UNL A   1      45.791  29.193  26.909  1.00  0.00     0.049 A 
ATOM     38  H   UNL A   1      44.004  29.309  28.013  1.00  0.00     0.167 HD
ATOM     39  C   UNL A   1      44.791  26.918  26.545  1.00  0.00     0.074 A 
ATOM     40  C   UNL A   1      44.822  25.588  25.962  1.00  0.00     0.031 C 
ATOM     41  C   UNL A   1      45.766  27.848  26.378  1.00  0.00     0.037 A 
BRANCH  28  42
ATOM     42  C   UNL A   1      44.811  33.335  29.163  1.00  0.00     0.064 A 
ATOM     43  C   UNL A   1      44.546  34.394  28.281  1.00  0.00     0.173 A 
ATOM     44  C   UNL A   1      45.590  33.613  30.298  1.00  0.00     0.173 A 
ATOM     45  F   UNL A   1      43.839  34.180  27.161  1.00  0.00    -0.203 F 
ATOM     46  C   UNL A   1      45.091  35.660  28.494  1.00  0.00     0.198 A 
ATOM     47  C   UNL A   1      46.100  34.887  30.528  1.00  0.00     0.198 A 
ATOM     48  F   UNL A   1      45.887  32.638  31.170  1.00  0.00    -0.203 F 
ATOM     49  F   UNL A   1      44.905  36.629  27.587  1.00  0.00    -0.200 F 
ATOM     50  C   UNL A   1      45.866  35.905  29.617  1.00  0.00     0.200 A 
ATOM     51  F   UNL A   1      46.848  35.121  31.615  1.00  0.00    -0.200 F 
ATOM     52  F   UNL A   1      46.408  37.116  29.810  1.00  0.00    -0.200 F 
ENDBRANCH  28  42
BRANCH  29  53
ATOM     53  C   UNL A   1      41.114  24.039  27.415  1.00  0.00     0.064 A 
ATOM     54  C   UNL A   1      39.999  23.913  26.577  1.00  0.00     0.173 A 
ATOM     55  C   UNL A   1      41.690  22.857  27.912  1.00  0.00     0.173 A 
ATOM     56  F   UNL A   1      39.404  25.009  26.086  1.00  0.00    -0.203 F 
ATOM     57  C   UNL A   1      39.483  22.659  26.249  1.00  0.00     0.198 A 
ATOM     58  C   UNL A   1      41.192  21.604  27.561  1.00  0.00     0.198 A 
ATOM     59  F   UNL A   1      42.763  22.918  28.714  1.00  0.00    -0.203 F 
ATOM     60  F   UNL A   1      38.402  22.566  25.463  1.00  0.00    -0.200 F 
ATOM     61  C   UNL A   1      40.086  21.506  26.732  1.00  0.00     0.200 A 
ATOM     62  F   UNL A   1      41.792  20.495  28.014  1.00  0.00    -0.200 F 
ATOM     63  F   UNL A   1      39.602  20.302  26.399  1.00  0.00    -0.200 F 
ENDBRANCH  29  53
BRANCH  41  64
ATOM     64  C   UNL A   1      46.971  27.435  25.593  1.00  0.00     0.064 A 
ATOM     65  C   UNL A   1      47.071  27.675  24.217  1.00  0.00     0.173 A 
ATOM     66  C   UNL A   1      48.083  26.901  26.262  1.00  0.00     0.173 A 
ATOM     67  F   UNL A   1      46.027  28.172  23.539  1.00  0.00    -0.203 F 
ATOM     68  C   UNL A   1      48.249  27.389  23.534  1.00  0.00     0.198 A 
ATOM     69  C   UNL A   1      49.267  26.649  25.582  1.00  0.00     0.198 A 
ATOM     70  F   UNL A   1      48.030  26.666  27.582  1.00  0.00    -0.203 F 
ATOM     71  F   UNL A   1      48.322  27.601  22.213  1.00  0.00    -0.200 F 
ATOM     72  C   UNL A   1      49.349  26.892  24.219  1.00  0.00     0.200 A 
ATOM     73  F   UNL A   1      50.335  26.190  26.249  1.00  0.00    -0.200 F 
ATOM     74  F   UNL A   1      50.492  26.648  23.565  1.00  0.00    -0.200 F 
ENDBRANCH  41  64
ENDBRANCH  15  16
ENDBRANCH   8  10
ENDBRANCH   7   8
ENDBRANCH   6   7
ENDBRANCH   5   6
ENDBRANCH   4   5
ENDBRANCH   3   4
ENDBRANCH   2   3
ENDBRANCH   1   2
BRANCH   1  75
ATOM     75  C   UNL A   1      33.870  34.041  28.318  1.00  0.00     0.188 C 
BRANCH  75  76
ATOM     76  C   UNL A   1      35.064  33.308  27.652  1.00  0.00     0.188 C 
BRANCH  76  77
ATOM     77  O   UNL A   1      34.856  31.922  27.424  1.00  0.00    -0.376 OA
BRANCH  77  78
ATOM     78  C   UNL A   1      33.624  31.371  27.870  1.00  0.00     0.202 C 
BRANCH  78  79
ATOM     79  C   UNL A   1      32.701  30.727  26.823  1.00  0.00     0.261 C 
BRANCH  79  80
ATOM     80  O   UNL A   1      33.312  30.154  25.658  1.00  0.00    -0.461 OA
BRANCH  80  81
ATOM     81  C   UNL A   1      32.964  28.903  25.295  1.00  0.00     0.335 C 
ATOM     82  O   UNL A   1      33.777  27.994  25.112  1.00  0.00    -0.249 OA
BRANCH  81  83
ATOM     83  C   UNL A   1      31.444  28.678  25.321  1.00  0.00     0.228 C 
ATOM     84  C   UNL A   1      30.649  29.413  24.260  1.00  0.00     0.047 C 
ATOM     85  O   UNL A   1      31.106  27.302  25.173  1.00  0.00    -0.361 OA
ATOM     86  C   UNL A   1      30.726  28.448  23.105  1.00  0.00     0.037 C 
ATOM     87  C   UNL A   1      30.771  27.085  23.793  1.00  0.00     0.139 C 
BRANCH  87  88
ATOM     88  C   UNL A   1      31.739  26.034  23.228  1.00  0.00     0.152 C 
BRANCH  88  89
ATOM     89  N   UNL A   1      32.121  24.969  24.167  1.00  0.00    -0.329 N 
ATOM     90  C   UNL A   1      31.099  24.005  24.597  1.00  0.00     0.219 C 
ATOM     91  C   UNL A   1      33.460  24.647  24.309  1.00  0.00     0.245 C 
ATOM     92  C   UNL A   1      31.407  23.219  25.886  1.00  0.00     0.242 C 
ATOM     93  C   UNL A   1      33.778  23.502  25.276  1.00  0.00     0.174 C 
ATOM     94  O   UNL A   1      34.350  25.193  23.656  1.00  0.00    -0.272 OA
ATOM     95  O   UNL A   1      30.551  22.553  26.467  1.00  0.00    -0.273 OA
ATOM     96  N   UNL A   1      32.749  23.199  26.261  1.00  0.00    -0.329 N 
ATOM     97  C   UNL A   1      34.127  22.206  24.549  1.00  0.00     0.035 C 
ATOM     98  C   UNL A   1      33.182  22.311  27.330  1.00  0.00     0.120 C 
ATOM     99  C   UNL A   1      34.582  21.146  25.566  1.00  0.00     0.004 C 
ATOM    100  C   UNL A   1      33.592  20.969  26.729  1.00  0.00     0.022 C 
ENDBRANCH  88  89
ENDBRANCH  87  88
ENDBRANCH  81  83
ENDBRANCH  80  81
ENDBRANCH  79  80
ENDBRANCH  78  79
ENDBRANCH  77  78
ENDBRANCH  76  77
ENDBRANCH  75  76
ENDBRANCH   1  75
TORSDOF 22
ENDMDL
MODEL 2
REMARK VINA RESULT:     -10.3      4.910     10.047
REMARK SMILES O=C(OCCOCCOCCOCCOC(=O)[C@H]1CC[C@@H](CN2CC(=O)N3CCCC[C@H]3C2=O)O1)c1ccc(-c2c3nc(c(-c4c(F)c(F)c(F)c(F)c4F)c4ccc([nH]4)c(-c4c(F)c(F)c(F)c(F)c4F)c4nc(c(-c5c(F)c(F)c(F)c(F)c5F)c5ccc2[nH]5)C=C4)C=C3)cc1
REMARK SMILES IDX 9 1 8 2 7 3 6 4 5 5 4 6 3 7 2 8 1 9 36 10 37 11 98 12 38 13
REMARK SMILES IDX 97 14 39 15 40 16 41 17 91 18 42 19 96 20 90 21 92 22 43 23
REMARK SMILES IDX 95 24 89 25 88 26 44 28 76 29 56 30 75 31 57 32 60 33 74 34
REMARK SMILES IDX 93 35 58 36 59 37 73 39 94 40 61 41 45 42 46 43 54 44 47 45
REMARK SMILES IDX 48 46 52 47 55 48 49 49 50 50 53 51 51 52 77 53 78 54 86 55
REMARK SMILES IDX 79 56 80 57 84 58 87 59 81 60 82 61 85 62 83 63 62 64 63 65
REMARK SMILES IDX 71 66 64 67 65 68 69 69 72 70 66 71 67 72 70 73 68 74 10 75
REMARK SMILES IDX 11 76 12 77 13 78 14 79 15 80 16 81 17 82 18 83 19 84 35 85
REMARK SMILES IDX 20 86 21 87 22 88 23 89 24 90 33 91 25 92 32 93 34 94 26 95
REMARK SMILES IDX 27 96 31 97 28 98 30 99 29 100
REMARK H PARENT 92 27 60 38
REMARK Flexibility Score: inf
ROOT
ATOM      1  O   UNL A   1      33.324  28.449  23.463  1.00  0.00    -0.377 OA
ENDROOT
BRANCH   1   2
ATOM      2  C   UNL A   1      32.001  28.923  23.707  1.00  0.00     0.188 C 
BRANCH   2   3
ATOM      3  C   UNL A   1      31.710  29.393  25.137  1.00  0.00     0.188 C 
BRANCH   3   4
ATOM      4  O   UNL A   1      32.849  30.007  25.722  1.00  0.00    -0.376 OA
BRANCH   4   5
ATOM      5  C   UNL A   1      32.863  30.365  27.092  1.00  0.00     0.202 C 
BRANCH   5   6
ATOM      6  C   UNL A   1      33.717  31.544  27.505  1.00  0.00     0.261 C 
BRANCH   6   7
ATOM      7  O   UNL A   1      33.177  32.869  27.645  1.00  0.00    -0.460 OA
BRANCH   7   8
ATOM      8  C   UNL A   1      33.518  33.849  28.503  1.00  0.00     0.338 C 
ATOM      9  O   UNL A   1      32.721  34.742  28.779  1.00  0.00    -0.246 OA
BRANCH   8  10
ATOM     10  C   UNL A   1      34.692  33.641  29.385  1.00  0.00     0.060 A 
ATOM     11  C   UNL A   1      35.950  34.219  29.206  1.00  0.00     0.016 A 
ATOM     12  C   UNL A   1      34.467  32.861  30.525  1.00  0.00     0.016 A 
ATOM     13  C   UNL A   1      36.982  34.000  30.092  1.00  0.00     0.010 A 
ATOM     14  C   UNL A   1      35.501  32.620  31.424  1.00  0.00     0.010 A 
ATOM     15  C   UNL A   1      36.766  33.165  31.173  1.00  0.00    -0.014 A 
BRANCH  15  16
ATOM     16  C   UNL A   1      37.953  32.647  31.847  1.00  0.00     0.031 A 
ATOM     17  C   UNL A   1      38.729  31.609  31.109  1.00  0.00     0.074 A 
ATOM     18  C   UNL A   1      38.368  33.192  32.998  1.00  0.00     0.049 A 
ATOM     19  N   UNL A   1      39.679  30.826  31.529  1.00  0.00    -0.248 NA
ATOM     20  C   UNL A   1      38.375  31.425  29.688  1.00  0.00     0.031 C 
ATOM     21  C   UNL A   1      37.761  34.352  33.650  1.00  0.00     0.029 A 
ATOM     22  N   UNL A   1      39.400  32.838  33.817  1.00  0.00    -0.354 N 
ATOM     23  C   UNL A   1      39.985  30.012  30.448  1.00  0.00     0.074 A 
ATOM     24  C   UNL A   1      39.139  30.403  29.348  1.00  0.00     0.031 C 
ATOM     25  C   UNL A   1      38.417  34.597  34.795  1.00  0.00     0.029 A 
ATOM     26  C   UNL A   1      39.417  33.553  34.986  1.00  0.00     0.049 A 
ATOM     27  H   UNL A   1      40.061  32.145  33.592  1.00  0.00     0.167 HD
ATOM     28  C   UNL A   1      40.886  29.006  30.417  1.00  0.00     0.037 A 
ATOM     29  C   UNL A   1      40.117  33.313  36.108  1.00  0.00     0.037 A 
ATOM     30  C   UNL A   1      41.691  28.677  31.559  1.00  0.00     0.049 A 
ATOM     31  C   UNL A   1      41.037  32.122  36.102  1.00  0.00     0.074 A 
ATOM     32  C   UNL A   1      42.602  27.654  31.719  1.00  0.00     0.029 A 
ATOM     33  N   UNL A   1      41.662  29.390  32.755  1.00  0.00    -0.354 N 
ATOM     34  N   UNL A   1      41.267  31.266  35.131  1.00  0.00    -0.248 NA
ATOM     35  C   UNL A   1      41.777  31.847  37.334  1.00  0.00     0.031 C 
ATOM     36  C   UNL A   1      43.077  27.712  33.034  1.00  0.00     0.029 A 
ATOM     37  C   UNL A   1      42.522  28.817  33.670  1.00  0.00     0.049 A 
ATOM     38  H   UNL A   1      41.109  30.186  32.924  1.00  0.00     0.167 HD
ATOM     39  C   UNL A   1      42.201  30.367  35.620  1.00  0.00     0.074 A 
ATOM     40  C   UNL A   1      42.489  30.784  36.982  1.00  0.00     0.031 C 
ATOM     41  C   UNL A   1      42.776  29.300  35.009  1.00  0.00     0.037 A 
BRANCH  28  42
ATOM     42  C   UNL A   1      40.915  28.160  29.177  1.00  0.00     0.064 A 
ATOM     43  C   UNL A   1      41.742  28.454  28.082  1.00  0.00     0.173 A 
ATOM     44  C   UNL A   1      40.016  27.089  29.045  1.00  0.00     0.173 A 
ATOM     45  F   UNL A   1      42.595  29.488  28.136  1.00  0.00    -0.203 F 
ATOM     46  C   UNL A   1      41.627  27.746  26.885  1.00  0.00     0.198 A 
ATOM     47  C   UNL A   1      39.931  26.361  27.863  1.00  0.00     0.198 A 
ATOM     48  F   UNL A   1      39.192  26.770  30.054  1.00  0.00    -0.203 F 
ATOM     49  F   UNL A   1      42.358  28.109  25.822  1.00  0.00    -0.200 F 
ATOM     50  C   UNL A   1      40.723  26.701  26.777  1.00  0.00     0.200 A 
ATOM     51  F   UNL A   1      39.057  25.350  27.762  1.00  0.00    -0.200 F 
ATOM     52  F   UNL A   1      40.597  26.037  25.620  1.00  0.00    -0.200 F 
ENDBRANCH  28  42
BRANCH  29  53
ATOM     53  C   UNL A   1      39.897  34.165  37.304  1.00  0.00     0.064 A 
ATOM     54  C   UNL A   1      40.534  35.404  37.443  1.00  0.00     0.173 A 
ATOM     55  C   UNL A   1      38.989  33.785  38.309  1.00  0.00     0.173 A 
ATOM     56  F   UNL A   1      41.418  35.809  36.521  1.00  0.00    -0.203 F 
ATOM     57  C   UNL A   1      40.273  36.229  38.537  1.00  0.00     0.198 A 
ATOM     58  C   UNL A   1      38.707  34.622  39.386  1.00  0.00     0.198 A 
ATOM     59  F   UNL A   1      38.346  32.611  38.224  1.00  0.00    -0.203 F 
ATOM     60  F   UNL A   1      40.912  37.400  38.658  1.00  0.00    -0.200 F 
ATOM     61  C   UNL A   1      39.352  35.843  39.502  1.00  0.00     0.200 A 
ATOM     62  F   UNL A   1      37.802  34.251  40.301  1.00  0.00    -0.200 F 
ATOM     63  F   UNL A   1      39.088  36.646  40.541  1.00  0.00    -0.200 F 
ENDBRANCH  29  53
BRANCH  41  64
ATOM     64  C   UNL A   1      43.820  28.557  35.782  1.00  0.00     0.064 A 
ATOM     65  C   UNL A   1      43.509  27.417  36.533  1.00  0.00     0.173 A 
ATOM     66  C   UNL A   1      45.167  28.933  35.664  1.00  0.00     0.173 A 
ATOM     67  F   UNL A   1      42.232  27.032  36.681  1.00  0.00    -0.203 F 
ATOM     68  C   UNL A   1      44.514  26.677  37.144  1.00  0.00     0.198 A 
ATOM     69  C   UNL A   1      46.170  28.172  36.248  1.00  0.00     0.198 A 
ATOM     70  F   UNL A   1      45.507  30.013  34.945  1.00  0.00    -0.203 F 
ATOM     71  F   UNL A   1      44.199  25.602  37.880  1.00  0.00    -0.200 F 
ATOM     72  C   UNL A   1      45.844  27.046  36.989  1.00  0.00     0.200 A 
ATOM     73  F   UNL A   1      47.454  28.516  36.079  1.00  0.00    -0.200 F 
ATOM     74  F   UNL A   1      46.813  26.312  37.553  1.00  0.00    -0.200 F 
ENDBRANCH  41  64
ENDBRANCH  15  16
ENDBRANCH   8  10
ENDBRANCH   7   8
ENDBRANCH   6   7
ENDBRANCH   5   6
ENDBRANCH   4   5
ENDBRANCH   3   4
ENDBRANCH   2   3
ENDBRANCH   1   2
BRANCH   1  75
ATOM     75  C   UNL A   1      33.471  27.039  23.378  1.00  0.00     0.188 C 
BRANCH  75  76
ATOM     76  C   UNL A   1      33.238  26.337  22.015  1.00  0.00     0.188 C 
BRANCH  76  77
ATOM     77  O   UNL A   1      32.200  25.368  22.018  1.00  0.00    -0.376 OA
BRANCH  77  78
ATOM     78  C   UNL A   1      32.453  24.151  22.707  1.00  0.00     0.202 C 
BRANCH  78  79
ATOM     79  C   UNL A   1      31.729  23.912  24.041  1.00  0.00     0.261 C 
BRANCH  79  80
ATOM     80  O   UNL A   1      32.081  22.740  24.790  1.00  0.00    -0.461 OA
BRANCH  80  81
ATOM     81  C   UNL A   1      33.135  22.801  25.628  1.00  0.00     0.335 C 
ATOM     82  O   UNL A   1      33.673  23.856  25.973  1.00  0.00    -0.249 OA
BRANCH  81  83
ATOM     83  C   UNL A   1      33.472  21.441  26.259  1.00  0.00     0.228 C 
ATOM     84  C   UNL A   1      33.130  20.223  25.425  1.00  0.00     0.047 C 
ATOM     85  O   UNL A   1      34.859  21.323  26.564  1.00  0.00    -0.361 OA
ATOM     86  C   UNL A   1      34.367  20.083  24.575  1.00  0.00     0.037 C 
ATOM     87  C   UNL A   1      35.477  20.595  25.492  1.00  0.00     0.139 C 
BRANCH  87  88
ATOM     88  C   UNL A   1      36.558  21.491  24.867  1.00  0.00     0.152 C 
BRANCH  88  89
ATOM     89  N   UNL A   1      37.901  21.346  25.448  1.00  0.00    -0.329 N 
ATOM     90  C   UNL A   1      38.753  20.240  24.991  1.00  0.00     0.219 C 
ATOM     91  C   UNL A   1      38.481  22.433  26.081  1.00  0.00     0.245 C 
ATOM     92  C   UNL A   1      39.923  19.857  25.918  1.00  0.00     0.242 C 
ATOM     93  C   UNL A   1      39.896  22.217  26.626  1.00  0.00     0.174 C 
ATOM     94  O   UNL A   1      37.933  23.533  26.152  1.00  0.00    -0.272 OA
ATOM     95  O   UNL A   1      40.568  18.820  25.763  1.00  0.00    -0.273 OA
ATOM     96  N   UNL A   1      40.287  20.831  26.844  1.00  0.00    -0.329 N 
ATOM     97  C   UNL A   1      40.963  22.874  25.755  1.00  0.00     0.035 C 
ATOM     98  C   UNL A   1      41.511  20.666  27.615  1.00  0.00     0.120 C 
ATOM     99  C   UNL A   1      42.337  22.753  26.435  1.00  0.00     0.004 C 
ATOM    100  C   UNL A   1      42.669  21.312  26.859  1.00  0.00     0.022 C 
ENDBRANCH  88  89
ENDBRANCH  87  88
ENDBRANCH  81  83
ENDBRANCH  80  81
ENDBRANCH  79  80
ENDBRANCH  78  79
ENDBRANCH  77  78
ENDBRANCH  76  77
ENDBRANCH  75  76
ENDBRANCH   1  75
TORSDOF 22
ENDMDL
MODEL 3
REMARK VINA RESULT:     -10.1      5.415     11.933
REMARK SMILES O=C(OCCOCCOCCOCCOC(=O)[C@H]1CC[C@@H](CN2CC(=O)N3CCCC[C@H]3C2=O)O1)c1ccc(-c2c3nc(c(-c4c(F)c(F)c(F)c(F)c4F)c4ccc([nH]4)c(-c4c(F)c(F)c(F)c(F)c4F)c4nc(c(-c5c(F)c(F)c(F)c(F)c5F)c5ccc2[nH]5)C=C4)C=C3)cc1
REMARK SMILES IDX 9 1 8 2 7 3 6 4 5 5 4 6 3 7 2 8 1 9 36 10 37 11 98 12 38 13
REMARK SMILES IDX 97 14 39 15 40 16 41 17 91 18 42 19 96 20 90 21 92 22 43 23
REMARK SMILES IDX 95 24 89 25 88 26 44 28 76 29 56 30 75 31 57 32 60 33 74 34
REMARK SMILES IDX 93 35 58 36 59 37 73 39 94 40 61 41 45 42 46 43 54 44 47 45
REMARK SMILES IDX 48 46 52 47 55 48 49 49 50 50 53 51 51 52 77 53 78 54 86 55
REMARK SMILES IDX 79 56 80 57 84 58 87 59 81 60 82 61 85 62 83 63 62 64 63 65
REMARK SMILES IDX 71 66 64 67 65 68 69 69 72 70 66 71 67 72 70 73 68 74 10 75
REMARK SMILES IDX 11 76 12 77 13 78 14 79 15 80 16 81 17 82 18 83 19 84 35 85
REMARK SMILES IDX 20 86 21 87 22 88 23 89 24 90 33 91 25 92 32 93 34 94 26 95
REMARK SMILES IDX 27 96 31 97 28 98 30 99 29 100
REMARK H PARENT 92 27 60 38
REMARK Flexibility Score: inf
ROOT
ATOM      1  O   UNL A   1      46.166  21.036  25.372  1.00  0.00    -0.377 OA
ENDROOT
BRANCH   1   2
ATOM      2  C   UNL A   1      45.729  19.974  24.526  1.00  0.00     0.188 C 
BRANCH   2   3
ATOM      3  C   UNL A   1      44.896  18.878  25.200  1.00  0.00     0.188 C 
BRANCH   3   4
ATOM      4  O   UNL A   1      43.509  19.178  25.149  1.00  0.00    -0.376 OA
BRANCH   4   5
ATOM      5  C   UNL A   1      42.601  18.590  26.062  1.00  0.00     0.202 C 
BRANCH   5   6
ATOM      6  C   UNL A   1      42.278  19.357  27.327  1.00  0.00     0.261 C 
BRANCH   6   7
ATOM      7  O   UNL A   1      41.024  20.035  27.512  1.00  0.00    -0.460 OA
BRANCH   7   8
ATOM      8  C   UNL A   1      40.417  20.947  26.730  1.00  0.00     0.338 C 
ATOM      9  O   UNL A   1      39.487  20.621  25.997  1.00  0.00    -0.246 OA
BRANCH   8  10
ATOM     10  C   UNL A   1      40.618  22.385  27.031  1.00  0.00     0.060 A 
ATOM     11  C   UNL A   1      39.889  23.437  26.476  1.00  0.00     0.016 A 
ATOM     12  C   UNL A   1      41.570  22.674  28.017  1.00  0.00     0.016 A 
ATOM     13  C   UNL A   1      40.117  24.748  26.835  1.00  0.00     0.010 A 
ATOM     14  C   UNL A   1      41.821  23.992  28.383  1.00  0.00     0.010 A 
ATOM     15  C   UNL A   1      41.114  25.023  27.754  1.00  0.00    -0.014 A 
BRANCH  15  16
ATOM     16  C   UNL A   1      41.590  26.402  27.810  1.00  0.00     0.031 A 
ATOM     17  C   UNL A   1      42.854  26.692  27.074  1.00  0.00     0.074 A 
ATOM     18  C   UNL A   1      40.840  27.353  28.381  1.00  0.00     0.049 A 
ATOM     19  N   UNL A   1      43.618  27.744  27.117  1.00  0.00    -0.248 NA
ATOM     20  C   UNL A   1      43.326  25.637  26.157  1.00  0.00     0.031 C 
ATOM     21  C   UNL A   1      39.497  27.155  28.928  1.00  0.00     0.029 A 
ATOM     22  N   UNL A   1      41.105  28.674  28.594  1.00  0.00    -0.354 N 
ATOM     23  C   UNL A   1      44.693  27.447  26.292  1.00  0.00     0.074 A 
ATOM     24  C   UNL A   1      44.480  26.129  25.745  1.00  0.00     0.031 C 
ATOM     25  C   UNL A   1      39.066  28.316  29.446  1.00  0.00     0.029 A 
ATOM     26  C   UNL A   1      40.141  29.294  29.345  1.00  0.00     0.049 A 
ATOM     27  H   UNL A   1      41.903  29.132  28.243  1.00  0.00     0.167 HD
ATOM     28  C   UNL A   1      45.774  28.221  26.055  1.00  0.00     0.037 A 
ATOM     29  C   UNL A   1      40.188  30.495  29.948  1.00  0.00     0.037 A 
ATOM     30  C   UNL A   1      45.914  29.524  26.641  1.00  0.00     0.049 A 
ATOM     31  C   UNL A   1      41.444  31.304  29.768  1.00  0.00     0.074 A 
ATOM     32  C   UNL A   1      46.968  30.410  26.557  1.00  0.00     0.029 A 
ATOM     33  N   UNL A   1      44.941  30.120  27.439  1.00  0.00    -0.354 N 
ATOM     34  N   UNL A   1      42.525  31.004  29.083  1.00  0.00    -0.248 NA
ATOM     35  C   UNL A   1      41.503  32.599  30.448  1.00  0.00     0.031 C 
ATOM     36  C   UNL A   1      46.655  31.515  27.357  1.00  0.00     0.029 A 
ATOM     37  C   UNL A   1      45.376  31.355  27.877  1.00  0.00     0.049 A 
ATOM     38  H   UNL A   1      44.070  29.719  27.660  1.00  0.00     0.167 HD
ATOM     39  C   UNL A   1      43.383  32.083  29.222  1.00  0.00     0.074 A 
ATOM     40  C   UNL A   1      42.693  33.044  30.064  1.00  0.00     0.031 C 
ATOM     41  C   UNL A   1      44.623  32.273  28.701  1.00  0.00     0.037 A 
BRANCH  28  42
ATOM     42  C   UNL A   1      46.887  27.606  25.255  1.00  0.00     0.064 A 
ATOM     43  C   UNL A   1      47.885  26.810  25.838  1.00  0.00     0.173 A 
ATOM     44  C   UNL A   1      47.010  27.910  23.890  1.00  0.00     0.173 A 
ATOM     45  F   UNL A   1      47.839  26.518  27.147  1.00  0.00    -0.203 F 
ATOM     46  C   UNL A   1      48.991  26.391  25.099  1.00  0.00     0.198 A 
ATOM     47  C   UNL A   1      48.096  27.457  23.147  1.00  0.00     0.198 A 
ATOM     48  F   UNL A   1      46.093  28.677  23.282  1.00  0.00    -0.203 F 
ATOM     49  F   UNL A   1      49.979  25.715  25.701  1.00  0.00    -0.200 F 
ATOM     50  C   UNL A   1      49.095  26.714  23.755  1.00  0.00     0.200 A 
ATOM     51  F   UNL A   1      48.193  27.770  21.847  1.00  0.00    -0.200 F 
ATOM     52  F   UNL A   1      50.169  26.330  23.052  1.00  0.00    -0.200 F 
ENDBRANCH  28  42
BRANCH  29  53
ATOM     53  C   UNL A   1      39.059  30.925  30.811  1.00  0.00     0.064 A 
ATOM     54  C   UNL A   1      37.951  31.596  30.279  1.00  0.00     0.173 A 
ATOM     55  C   UNL A   1      39.034  30.614  32.182  1.00  0.00     0.173 A 
ATOM     56  F   UNL A   1      37.930  31.929  28.981  1.00  0.00    -0.203 F 
ATOM     57  C   UNL A   1      36.864  31.940  31.083  1.00  0.00     0.198 A 
ATOM     58  C   UNL A   1      37.935  30.931  32.977  1.00  0.00     0.198 A 
ATOM     59  F   UNL A   1      40.065  29.966  32.742  1.00  0.00    -0.203 F 
ATOM     60  F   UNL A   1      35.826  32.602  30.555  1.00  0.00    -0.200 F 
ATOM     61  C   UNL A   1      36.852  31.598  32.428  1.00  0.00     0.200 A 
ATOM     62  F   UNL A   1      37.922  30.579  34.270  1.00  0.00    -0.200 F 
ATOM     63  F   UNL A   1      35.798  31.910  33.194  1.00  0.00    -0.200 F 
ENDBRANCH  29  53
BRANCH  41  64
ATOM     64  C   UNL A   1      45.277  33.591  28.971  1.00  0.00     0.064 A 
ATOM     65  C   UNL A   1      46.158  33.771  30.043  1.00  0.00     0.173 A 
ATOM     66  C   UNL A   1      45.102  34.648  28.064  1.00  0.00     0.173 A 
ATOM     67  F   UNL A   1      46.343  32.790  30.939  1.00  0.00    -0.203 F 
ATOM     68  C   UNL A   1      46.843  34.971  30.202  1.00  0.00     0.198 A 
ATOM     69  C   UNL A   1      45.813  35.832  28.208  1.00  0.00     0.198 A 
ATOM     70  F   UNL A   1      44.274  34.513  27.018  1.00  0.00    -0.203 F 
ATOM     71  F   UNL A   1      47.665  35.137  31.248  1.00  0.00    -0.200 F 
ATOM     72  C   UNL A   1      46.682  35.993  29.277  1.00  0.00     0.200 A 
ATOM     73  F   UNL A   1      45.674  36.809  27.302  1.00  0.00    -0.200 F 
ATOM     74  F   UNL A   1      47.368  37.136  29.414  1.00  0.00    -0.200 F 
ENDBRANCH  41  64
ENDBRANCH  15  16
ENDBRANCH   8  10
ENDBRANCH   7   8
ENDBRANCH   6   7
ENDBRANCH   5   6
ENDBRANCH   4   5
ENDBRANCH   3   4
ENDBRANCH   2   3
ENDBRANCH   1   2
BRANCH   1  75
ATOM     75  C   UNL A   1      45.830  22.348  24.943  1.00  0.00     0.188 C 
BRANCH  75  76
ATOM     76  C   UNL A   1      46.209  23.556  25.839  1.00  0.00     0.188 C 
BRANCH  76  77
ATOM     77  O   UNL A   1      46.374  23.244  27.214  1.00  0.00    -0.376 OA
BRANCH  77  78
ATOM     78  C   UNL A   1      45.439  23.812  28.123  1.00  0.00     0.202 C 
BRANCH  78  79
ATOM     79  C   UNL A   1      45.974  24.749  29.218  1.00  0.00     0.261 C 
BRANCH  79  80
ATOM     80  O   UNL A   1      45.444  26.081  29.272  1.00  0.00    -0.461 OA
BRANCH  80  81
ATOM     81  C   UNL A   1      46.196  27.054  29.824  1.00  0.00     0.335 C 
ATOM     82  O   UNL A   1      45.843  28.233  29.894  1.00  0.00    -0.249 OA
BRANCH  81  83
ATOM     83  C   UNL A   1      47.449  26.510  30.526  1.00  0.00     0.228 C 
ATOM     84  C   UNL A   1      48.682  27.389  30.452  1.00  0.00     0.047 C 
ATOM     85  O   UNL A   1      47.224  26.276  31.914  1.00  0.00    -0.361 OA
ATOM     86  C   UNL A   1      48.471  28.302  31.633  1.00  0.00     0.037 C 
ATOM     87  C   UNL A   1      47.732  27.412  32.631  1.00  0.00     0.139 C 
BRANCH  87  88
ATOM     88  C   UNL A   1      46.568  28.039  33.415  1.00  0.00     0.152 C 
BRANCH  88  89
ATOM     89  N   UNL A   1      45.593  27.080  33.958  1.00  0.00    -0.329 N 
ATOM     90  C   UNL A   1      45.812  26.538  35.306  1.00  0.00     0.219 C 
ATOM     91  C   UNL A   1      44.330  27.015  33.397  1.00  0.00     0.245 C 
ATOM     92  C   UNL A   1      45.057  25.238  35.645  1.00  0.00     0.242 C 
ATOM     93  C   UNL A   1      43.358  26.021  34.042  1.00  0.00     0.174 C 
ATOM     94  O   UNL A   1      43.970  27.752  32.479  1.00  0.00    -0.272 OA
ATOM     95  O   UNL A   1      45.320  24.570  36.645  1.00  0.00    -0.273 OA
ATOM     96  N   UNL A   1      43.967  24.955  34.825  1.00  0.00    -0.329 N 
ATOM     97  C   UNL A   1      42.315  26.710  34.918  1.00  0.00     0.035 C 
ATOM     98  C   UNL A   1      43.057  23.879  35.187  1.00  0.00     0.120 C 
ATOM     99  C   UNL A   1      41.285  25.679  35.408  1.00  0.00     0.004 C 
ATOM    100  C   UNL A   1      41.935  24.444  36.054  1.00  0.00     0.022 C 
ENDBRANCH  88  89
ENDBRANCH  87  88
ENDBRANCH  81  83
ENDBRANCH  80  81
ENDBRANCH  79  80
ENDBRANCH  78  79
ENDBRANCH  77  78
ENDBRANCH  76  77
ENDBRANCH  75  76
ENDBRANCH   1  75
TORSDOF 22
ENDMDL
