MODEL 1
REMARK VINA RESULT:      -8.2      0.000      0.000
REMARK SMILES O=C(OCCOCCOCCOCCOC(=O)c1ccccc1Nc1nc(Cl)nc(Nc2ccc(N3CCOCC3=O)cc2)n1)c1ccc(-c2c3nc(c(-c4c(F)c(F)c(F)c(F)c4F)c4ccc([nH]4)c(-c4c(F)c(F)c(F)c(F)c4F)c4nc(c(-c5c(F)c(F)c(F)c(F)c5F)c5ccc2[nH]5)C=C4)C=C3)cc1
REMARK SMILES IDX 10 1 9 2 8 3 7 4 6 5 5 6 4 7 3 8 2 9 1 10 46 11 47 12 108 13
REMARK SMILES IDX 48 14 107 15 49 16 50 17 51 18 101 19 52 20 106 21 100 22
REMARK SMILES IDX 102 23 53 24 105 25 99 26 98 27 54 29 86 30 66 31 85 32
REMARK SMILES IDX 67 33 70 34 84 35 103 36 68 37 69 38 83 40 104 41 71 42
REMARK SMILES IDX 55 43 56 44 64 45 57 46 58 47 62 48 65 49 59 50 60 51 63 52
REMARK SMILES IDX 61 53 87 54 88 55 96 56 89 57 90 58 94 59 97 60 91 61 92 62
REMARK SMILES IDX 95 63 93 64 72 65 73 66 81 67 74 68 75 69 79 70 82 71 76 72
REMARK SMILES IDX 77 73 80 74 78 75 11 76 12 77 13 78 14 79 15 80 16 81 17 82
REMARK SMILES IDX 18 83 19 84 23 85 20 86 22 87 21 88 24 89 25 91 26 92 45 93
REMARK SMILES IDX 27 94 30 95 28 96 29 97 31 98 32 100 33 101 44 102 34 103
REMARK SMILES IDX 43 104 35 105 36 106 37 107 41 108 38 109 40 110 42 111
REMARK SMILES IDX 39 112
REMARK H PARENT 102 28 70 39 24 90 31 99
REMARK Flexibility Score: inf
ROOT
ATOM      1  C   UNL A   1      38.175  33.720  33.070  1.00  0.00     0.188 C 
ENDROOT
BRANCH   1   2
ATOM      2  O   UNL A   1      38.815  32.929  32.076  1.00  0.00    -0.377 OA
BRANCH   2   3
ATOM      3  C   UNL A   1      38.024  32.563  30.946  1.00  0.00     0.188 C 
BRANCH   3   4
ATOM      4  C   UNL A   1      37.564  33.727  30.068  1.00  0.00     0.188 C 
BRANCH   4   5
ATOM      5  O   UNL A   1      36.166  33.976  30.249  1.00  0.00    -0.376 OA
BRANCH   5   6
ATOM      6  C   UNL A   1      35.449  34.332  29.066  1.00  0.00     0.202 C 
BRANCH   6   7
ATOM      7  C   UNL A   1      35.366  33.214  28.030  1.00  0.00     0.261 C 
BRANCH   7   8
ATOM      8  O   UNL A   1      35.182  31.930  28.637  1.00  0.00    -0.460 OA
BRANCH   8   9
ATOM      9  C   UNL A   1      35.467  30.715  28.108  1.00  0.00     0.338 C 
ATOM     10  O   UNL A   1      34.621  30.191  27.381  1.00  0.00    -0.246 OA
BRANCH   9  11
ATOM     11  C   UNL A   1      36.749  29.966  28.321  1.00  0.00     0.060 A 
ATOM     12  C   UNL A   1      37.096  29.205  29.442  1.00  0.00     0.016 A 
ATOM     13  C   UNL A   1      37.662  29.997  27.250  1.00  0.00     0.016 A 
ATOM     14  C   UNL A   1      38.314  28.540  29.532  1.00  0.00     0.010 A 
ATOM     15  C   UNL A   1      38.889  29.337  27.328  1.00  0.00     0.010 A 
ATOM     16  C   UNL A   1      39.226  28.636  28.490  1.00  0.00    -0.014 A 
BRANCH  16  17
ATOM     17  C   UNL A   1      40.614  28.218  28.730  1.00  0.00     0.031 A 
ATOM     18  C   UNL A   1      41.517  29.216  29.381  1.00  0.00     0.074 A 
ATOM     19  C   UNL A   1      41.019  26.973  28.441  1.00  0.00     0.049 A 
ATOM     20  N   UNL A   1      42.810  29.192  29.543  1.00  0.00    -0.248 NA
ATOM     21  C   UNL A   1      40.861  30.418  29.925  1.00  0.00     0.031 C 
ATOM     22  C   UNL A   1      40.158  25.901  27.946  1.00  0.00     0.029 A 
ATOM     23  N   UNL A   1      42.261  26.404  28.520  1.00  0.00    -0.354 N 
ATOM     24  C   UNL A   1      43.127  30.395  30.159  1.00  0.00     0.074 A 
ATOM     25  C   UNL A   1      41.895  31.121  30.355  1.00  0.00     0.031 C 
ATOM     26  C   UNL A   1      40.906  24.804  27.739  1.00  0.00     0.029 A 
ATOM     27  C   UNL A   1      42.303  25.127  28.020  1.00  0.00     0.049 A 
ATOM     28  H   UNL A   1      43.045  26.865  28.898  1.00  0.00     0.167 HD
ATOM     29  C   UNL A   1      44.352  30.851  30.502  1.00  0.00     0.037 A 
ATOM     30  C   UNL A   1      43.369  24.346  27.764  1.00  0.00     0.037 A 
ATOM     31  C   UNL A   1      45.550  30.091  30.278  1.00  0.00     0.049 A 
ATOM     32  C   UNL A   1      44.736  24.898  28.073  1.00  0.00     0.074 A 
ATOM     33  C   UNL A   1      46.863  30.442  30.520  1.00  0.00     0.029 A 
ATOM     34  N   UNL A   1      45.564  28.806  29.743  1.00  0.00    -0.354 N 
ATOM     35  N   UNL A   1      45.057  26.066  28.584  1.00  0.00    -0.248 NA
ATOM     36  C   UNL A   1      45.887  24.044  27.761  1.00  0.00     0.031 C 
ATOM     37  C   UNL A   1      47.674  29.388  30.086  1.00  0.00     0.029 A 
ATOM     38  C   UNL A   1      46.865  28.355  29.631  1.00  0.00     0.049 A 
ATOM     39  H   UNL A   1      44.765  28.294  29.485  1.00  0.00     0.167 HD
ATOM     40  C   UNL A   1      46.440  26.081  28.674  1.00  0.00     0.074 A 
ATOM     41  C   UNL A   1      46.899  24.800  28.167  1.00  0.00     0.031 C 
ATOM     42  C   UNL A   1      47.262  27.058  29.135  1.00  0.00     0.037 A 
BRANCH  29  43
ATOM     43  C   UNL A   1      44.429  32.252  31.038  1.00  0.00     0.064 A 
ATOM     44  C   UNL A   1      44.540  33.370  30.198  1.00  0.00     0.173 A 
ATOM     45  C   UNL A   1      44.483  32.468  32.423  1.00  0.00     0.173 A 
ATOM     46  F   UNL A   1      44.528  33.218  28.864  1.00  0.00    -0.203 F 
ATOM     47  C   UNL A   1      44.757  34.643  30.723  1.00  0.00     0.198 A 
ATOM     48  C   UNL A   1      44.667  33.745  32.945  1.00  0.00     0.198 A 
ATOM     49  F   UNL A   1      44.390  31.434  33.273  1.00  0.00    -0.203 F 
ATOM     50  F   UNL A   1      44.951  35.683  29.898  1.00  0.00    -0.200 F 
ATOM     51  C   UNL A   1      44.820  34.829  32.096  1.00  0.00     0.200 A 
ATOM     52  F   UNL A   1      44.724  33.922  34.272  1.00  0.00    -0.200 F 
ATOM     53  F   UNL A   1      45.052  36.050  32.598  1.00  0.00    -0.200 F 
ENDBRANCH  29  43
BRANCH  30  54
ATOM     54  C   UNL A   1      43.169  23.014  27.135  1.00  0.00     0.064 A 
ATOM     55  C   UNL A   1      43.651  22.732  25.851  1.00  0.00     0.173 A 
ATOM     56  C   UNL A   1      42.536  21.972  27.835  1.00  0.00     0.173 A 
ATOM     57  F   UNL A   1      44.246  23.696  25.132  1.00  0.00    -0.203 F 
ATOM     58  C   UNL A   1      43.513  21.460  25.292  1.00  0.00     0.198 A 
ATOM     59  C   UNL A   1      42.424  20.696  27.286  1.00  0.00     0.198 A 
ATOM     60  F   UNL A   1      42.055  22.186  29.067  1.00  0.00    -0.203 F 
ATOM     61  F   UNL A   1      43.966  21.223  24.053  1.00  0.00    -0.200 F 
ATOM     62  C   UNL A   1      42.910  20.441  26.014  1.00  0.00     0.200 A 
ATOM     63  F   UNL A   1      41.855  19.711  27.996  1.00  0.00    -0.200 F 
ATOM     64  F   UNL A   1      42.798  19.215  25.485  1.00  0.00    -0.200 F 
ENDBRANCH  30  54
BRANCH  42  65
ATOM     65  C   UNL A   1      48.730  26.763  29.160  1.00  0.00     0.064 A 
ATOM     66  C   UNL A   1      49.580  27.176  28.126  1.00  0.00     0.173 A 
ATOM     67  C   UNL A   1      49.300  26.160  30.291  1.00  0.00     0.173 A 
ATOM     68  F   UNL A   1      49.075  27.748  27.022  1.00  0.00    -0.203 F 
ATOM     69  C   UNL A   1      50.956  26.993  28.223  1.00  0.00     0.198 A 
ATOM     70  C   UNL A   1      50.677  26.002  30.395  1.00  0.00     0.198 A 
ATOM     71  F   UNL A   1      48.523  25.758  31.307  1.00  0.00    -0.203 F 
ATOM     72  F   UNL A   1      51.753  27.377  27.217  1.00  0.00    -0.200 F 
ATOM     73  C   UNL A   1      51.503  26.419  29.362  1.00  0.00     0.200 A 
ATOM     74  F   UNL A   1      51.206  25.465  31.503  1.00  0.00    -0.200 F 
ATOM     75  F   UNL A   1      52.831  26.268  29.465  1.00  0.00    -0.200 F 
ENDBRANCH  42  65
ENDBRANCH  16  17
ENDBRANCH   9  11
ENDBRANCH   8   9
ENDBRANCH   7   8
ENDBRANCH   6   7
ENDBRANCH   5   6
ENDBRANCH   4   5
ENDBRANCH   3   4
ENDBRANCH   2   3
ENDBRANCH   1   2
BRANCH   1  76
ATOM     76  C   UNL A   1      38.402  33.358  34.554  1.00  0.00     0.188 C 
BRANCH  76  77
ATOM     77  O   UNL A   1      39.717  32.912  34.857  1.00  0.00    -0.376 OA
BRANCH  77  78
ATOM     78  C   UNL A   1      39.806  31.660  35.530  1.00  0.00     0.202 C 
BRANCH  78  79
ATOM     79  C   UNL A   1      40.477  30.519  34.752  1.00  0.00     0.261 C 
BRANCH  79  80
ATOM     80  O   UNL A   1      41.912  30.471  34.831  1.00  0.00    -0.460 OA
BRANCH  80  81
ATOM     81  C   UNL A   1      42.510  30.347  36.037  1.00  0.00     0.340 C 
ATOM     82  O   UNL A   1      41.957  30.405  37.123  1.00  0.00    -0.246 OA
BRANCH  81  83
ATOM     83  C   UNL A   1      43.923  29.910  35.813  1.00  0.00     0.083 A 
ATOM     84  C   UNL A   1      44.924  30.687  36.422  1.00  0.00     0.018 A 
ATOM     85  C   UNL A   1      44.259  28.715  35.130  1.00  0.00     0.055 A 
ATOM     86  C   UNL A   1      46.257  30.279  36.373  1.00  0.00     0.001 A 
ATOM     87  C   UNL A   1      45.615  28.349  35.072  1.00  0.00     0.027 A 
ATOM     88  C   UNL A   1      46.601  29.116  35.693  1.00  0.00     0.002 A 
BRANCH  85  89
ATOM     89  N   UNL A   1      43.264  27.928  34.530  1.00  0.00    -0.323 N 
ATOM     90  H   UNL A   1      42.891  28.283  33.691  1.00  0.00     0.170 HD
BRANCH  89  91
ATOM     91  C   UNL A   1      42.732  26.722  34.954  1.00  0.00     0.233 A 
ATOM     92  N   UNL A   1      41.980  26.639  36.037  1.00  0.00    -0.182 NA
ATOM     93  N   UNL A   1      43.110  25.684  34.220  1.00  0.00    -0.176 NA
ATOM     94  C   UNL A   1      41.602  25.406  36.317  1.00  0.00     0.228 A 
ATOM     95  C   UNL A   1      42.755  24.489  34.660  1.00  0.00     0.233 A 
ATOM     96  Cl  UNL A   1      40.618  25.215  37.700  1.00  0.00    -0.041 Cl
ATOM     97  N   UNL A   1      41.952  24.295  35.694  1.00  0.00    -0.182 NA
BRANCH  95  98
ATOM     98  N   UNL A   1      43.400  23.422  34.047  1.00  0.00    -0.324 N 
ATOM     99  H   UNL A   1      42.904  22.974  33.325  1.00  0.00     0.170 HD
BRANCH  98 100
ATOM    100  C   UNL A   1      44.663  22.911  34.332  1.00  0.00     0.041 A 
ATOM    101  C   UNL A   1      45.773  23.758  34.361  1.00  0.00     0.028 A 
ATOM    102  C   UNL A   1      44.820  21.577  34.712  1.00  0.00     0.028 A 
ATOM    103  C   UNL A   1      47.017  23.283  34.791  1.00  0.00     0.028 A 
ATOM    104  C   UNL A   1      46.067  21.088  35.087  1.00  0.00     0.028 A 
ATOM    105  C   UNL A   1      47.172  21.940  35.150  1.00  0.00     0.044 A 
BRANCH 105 106
ATOM    106  N   UNL A   1      48.417  21.453  35.639  1.00  0.00    -0.308 N 
ATOM    107  C   UNL A   1      48.451  21.031  37.043  1.00  0.00     0.154 C 
ATOM    108  C   UNL A   1      49.425  21.064  34.749  1.00  0.00     0.253 C 
ATOM    109  C   UNL A   1      49.856  20.735  37.545  1.00  0.00     0.183 C 
ATOM    110  C   UNL A   1      50.640  20.375  35.384  1.00  0.00     0.260 C 
ATOM    111  O   UNL A   1      49.431  21.316  33.542  1.00  0.00    -0.272 OA
ATOM    112  O   UNL A   1      50.484  19.800  36.671  1.00  0.00    -0.370 OA
ENDBRANCH 105 106
ENDBRANCH  98 100
ENDBRANCH  95  98
ENDBRANCH  89  91
ENDBRANCH  85  89
ENDBRANCH  81  83
ENDBRANCH  80  81
ENDBRANCH  79  80
ENDBRANCH  78  79
ENDBRANCH  77  78
ENDBRANCH  76  77
ENDBRANCH   1  76
TORSDOF 25
ENDMDL
MODEL 2
REMARK VINA RESULT:      -8.1      4.988     12.814
REMARK SMILES O=C(OCCOCCOCCOCCOC(=O)c1ccccc1Nc1nc(Cl)nc(Nc2ccc(N3CCOCC3=O)cc2)n1)c1ccc(-c2c3nc(c(-c4c(F)c(F)c(F)c(F)c4F)c4ccc([nH]4)c(-c4c(F)c(F)c(F)c(F)c4F)c4nc(c(-c5c(F)c(F)c(F)c(F)c5F)c5ccc2[nH]5)C=C4)C=C3)cc1
REMARK SMILES IDX 10 1 9 2 8 3 7 4 6 5 5 6 4 7 3 8 2 9 1 10 46 11 47 12 108 13
REMARK SMILES IDX 48 14 107 15 49 16 50 17 51 18 101 19 52 20 106 21 100 22
REMARK SMILES IDX 102 23 53 24 105 25 99 26 98 27 54 29 86 30 66 31 85 32
REMARK SMILES IDX 67 33 70 34 84 35 103 36 68 37 69 38 83 40 104 41 71 42
REMARK SMILES IDX 55 43 56 44 64 45 57 46 58 47 62 48 65 49 59 50 60 51 63 52
REMARK SMILES IDX 61 53 87 54 88 55 96 56 89 57 90 58 94 59 97 60 91 61 92 62
REMARK SMILES IDX 95 63 93 64 72 65 73 66 81 67 74 68 75 69 79 70 82 71 76 72
REMARK SMILES IDX 77 73 80 74 78 75 11 76 12 77 13 78 14 79 15 80 16 81 17 82
REMARK SMILES IDX 18 83 19 84 23 85 20 86 22 87 21 88 24 89 25 91 26 92 45 93
REMARK SMILES IDX 27 94 30 95 28 96 29 97 31 98 32 100 33 101 44 102 34 103
REMARK SMILES IDX 43 104 35 105 36 106 37 107 41 108 38 109 40 110 42 111
REMARK SMILES IDX 39 112
REMARK H PARENT 102 28 70 39 24 90 31 99
REMARK Flexibility Score: inf
ROOT
ATOM      1  C   UNL A   1      49.229  27.047  30.688  1.00  0.00     0.188 C 
ENDROOT
BRANCH   1   2
ATOM      2  O   UNL A   1      50.540  27.202  30.161  1.00  0.00    -0.377 OA
BRANCH   2   3
ATOM      3  C   UNL A   1      50.887  26.365  29.057  1.00  0.00     0.188 C 
BRANCH   3   4
ATOM      4  C   UNL A   1      51.551  27.080  27.880  1.00  0.00     0.188 C 
BRANCH   4   5
ATOM      5  O   UNL A   1      52.774  27.702  28.291  1.00  0.00    -0.376 OA
BRANCH   5   6
ATOM      6  C   UNL A   1      53.419  28.498  27.297  1.00  0.00     0.202 C 
BRANCH   6   7
ATOM      7  C   UNL A   1      53.760  29.913  27.759  1.00  0.00     0.261 C 
BRANCH   7   8
ATOM      8  O   UNL A   1      52.587  30.688  28.032  1.00  0.00    -0.460 OA
BRANCH   8   9
ATOM      9  C   UNL A   1      52.132  31.105  29.238  1.00  0.00     0.338 C 
ATOM     10  O   UNL A   1      52.944  31.605  30.018  1.00  0.00    -0.246 OA
BRANCH   9  11
ATOM     11  C   UNL A   1      50.703  31.027  29.689  1.00  0.00     0.060 A 
ATOM     12  C   UNL A   1      49.648  30.398  29.019  1.00  0.00     0.016 A 
ATOM     13  C   UNL A   1      50.425  31.601  30.943  1.00  0.00     0.016 A 
ATOM     14  C   UNL A   1      48.357  30.377  29.534  1.00  0.00     0.010 A 
ATOM     15  C   UNL A   1      49.133  31.589  31.472  1.00  0.00     0.010 A 
ATOM     16  C   UNL A   1      48.092  31.005  30.745  1.00  0.00    -0.014 A 
BRANCH  16  17
ATOM     17  C   UNL A   1      46.692  31.262  31.110  1.00  0.00     0.031 A 
ATOM     18  C   UNL A   1      46.003  30.212  31.922  1.00  0.00     0.074 A 
ATOM     19  C   UNL A   1      46.096  32.418  30.786  1.00  0.00     0.049 A 
ATOM     20  N   UNL A   1      44.742  30.085  32.226  1.00  0.00    -0.248 NA
ATOM     21  C   UNL A   1      46.867  29.151  32.469  1.00  0.00     0.031 C 
ATOM     22  C   UNL A   1      46.750  33.547  30.127  1.00  0.00     0.029 A 
ATOM     23  N   UNL A   1      44.803  32.829  30.965  1.00  0.00    -0.354 N 
ATOM     24  C   UNL A   1      44.654  28.905  32.952  1.00  0.00     0.074 A 
ATOM     25  C   UNL A   1      45.987  28.360  33.057  1.00  0.00     0.031 C 
ATOM     26  C   UNL A   1      45.844  34.520  29.933  1.00  0.00     0.029 A 
ATOM     27  C   UNL A   1      44.539  34.046  30.389  1.00  0.00     0.049 A 
ATOM     28  H   UNL A   1      44.131  32.304  31.458  1.00  0.00     0.167 HD
ATOM     29  C   UNL A   1      43.543  28.327  33.460  1.00  0.00     0.037 A 
ATOM     30  C   UNL A   1      43.357  34.662  30.202  1.00  0.00     0.037 A 
ATOM     31  C   UNL A   1      42.238  28.908  33.320  1.00  0.00     0.049 A 
ATOM     32  C   UNL A   1      42.115  33.968  30.698  1.00  0.00     0.074 A 
ATOM     33  C   UNL A   1      41.015  28.414  33.730  1.00  0.00     0.029 A 
ATOM     34  N   UNL A   1      41.996  30.134  32.706  1.00  0.00    -0.354 N 
ATOM     35  N   UNL A   1      42.008  32.814  31.317  1.00  0.00    -0.248 NA
ATOM     36  C   UNL A   1      40.834  34.641  30.460  1.00  0.00     0.031 C 
ATOM     37  C   UNL A   1      40.029  29.319  33.320  1.00  0.00     0.029 A 
ATOM     38  C   UNL A   1      40.641  30.406  32.710  1.00  0.00     0.049 A 
ATOM     39  H   UNL A   1      42.688  30.720  32.326  1.00  0.00     0.167 HD
ATOM     40  C   UNL A   1      40.656  32.630  31.563  1.00  0.00     0.074 A 
ATOM     41  C   UNL A   1      39.980  33.798  31.026  1.00  0.00     0.031 C 
ATOM     42  C   UNL A   1      40.025  31.597  32.176  1.00  0.00     0.037 A 
BRANCH  29  43
ATOM     43  C   UNL A   1      43.711  26.976  34.092  1.00  0.00     0.064 A 
ATOM     44  C   UNL A   1      43.829  25.802  33.332  1.00  0.00     0.173 A 
ATOM     45  C   UNL A   1      43.661  26.847  35.488  1.00  0.00     0.173 A 
ATOM     46  F   UNL A   1      43.848  25.864  31.991  1.00  0.00    -0.203 F 
ATOM     47  C   UNL A   1      43.835  24.549  33.943  1.00  0.00     0.198 A 
ATOM     48  C   UNL A   1      43.701  25.596  36.097  1.00  0.00     0.198 A 
ATOM     49  F   UNL A   1      43.541  27.935  36.264  1.00  0.00    -0.203 F 
ATOM     50  F   UNL A   1      43.858  23.438  33.192  1.00  0.00    -0.200 F 
ATOM     51  C   UNL A   1      43.772  24.447  35.325  1.00  0.00     0.200 A 
ATOM     52  F   UNL A   1      43.643  25.501  37.433  1.00  0.00    -0.200 F 
ATOM     53  F   UNL A   1      43.755  23.242  35.910  1.00  0.00    -0.200 F 
ENDBRANCH  29  43
BRANCH  30  54
ATOM     54  C   UNL A   1      43.310  35.954  29.467  1.00  0.00     0.064 A 
ATOM     55  C   UNL A   1      43.687  37.156  30.077  1.00  0.00     0.173 A 
ATOM     56  C   UNL A   1      42.936  36.002  28.113  1.00  0.00     0.173 A 
ATOM     57  F   UNL A   1      44.033  37.169  31.373  1.00  0.00    -0.203 F 
ATOM     58  C   UNL A   1      43.697  38.355  29.363  1.00  0.00     0.198 A 
ATOM     59  C   UNL A   1      42.973  37.196  27.394  1.00  0.00     0.198 A 
ATOM     60  F   UNL A   1      42.565  34.881  27.478  1.00  0.00    -0.203 F 
ATOM     61  F   UNL A   1      44.043  39.495  29.978  1.00  0.00    -0.200 F 
ATOM     62  C   UNL A   1      43.351  38.372  28.020  1.00  0.00     0.200 A 
ATOM     63  F   UNL A   1      42.654  37.202  26.092  1.00  0.00    -0.200 F 
ATOM     64  F   UNL A   1      43.383  39.520  27.331  1.00  0.00    -0.200 F 
ENDBRANCH  30  54
BRANCH  42  65
ATOM     65  C   UNL A   1      38.541  31.705  32.345  1.00  0.00     0.064 A 
ATOM     66  C   UNL A   1      37.972  32.312  33.471  1.00  0.00     0.173 A 
ATOM     67  C   UNL A   1      37.689  31.295  31.308  1.00  0.00     0.173 A 
ATOM     68  F   UNL A   1      38.749  32.709  34.491  1.00  0.00    -0.203 F 
ATOM     69  C   UNL A   1      36.596  32.504  33.555  1.00  0.00     0.198 A 
ATOM     70  C   UNL A   1      36.319  31.512  31.384  1.00  0.00     0.198 A 
ATOM     71  F   UNL A   1      38.195  30.718  30.207  1.00  0.00    -0.203 F 
ATOM     72  F   UNL A   1      36.066  33.069  34.649  1.00  0.00    -0.200 F 
ATOM     73  C   UNL A   1      35.774  32.117  32.507  1.00  0.00     0.200 A 
ATOM     74  F   UNL A   1      35.528  31.154  30.363  1.00  0.00    -0.200 F 
ATOM     75  F   UNL A   1      34.452  32.327  32.578  1.00  0.00    -0.200 F 
ENDBRANCH  42  65
ENDBRANCH  16  17
ENDBRANCH   9  11
ENDBRANCH   8   9
ENDBRANCH   7   8
ENDBRANCH   6   7
ENDBRANCH   5   6
ENDBRANCH   4   5
ENDBRANCH   3   4
ENDBRANCH   2   3
ENDBRANCH   1   2
BRANCH   1  76
ATOM     76  C   UNL A   1      48.356  25.891  30.154  1.00  0.00     0.188 C 
BRANCH  76  77
ATOM     77  O   UNL A   1      47.003  25.924  30.589  1.00  0.00    -0.376 OA
BRANCH  77  78
ATOM     78  C   UNL A   1      46.072  25.230  29.767  1.00  0.00     0.202 C 
BRANCH  78  79
ATOM     79  C   UNL A   1      45.943  25.728  28.320  1.00  0.00     0.261 C 
BRANCH  79  80
ATOM     80  O   UNL A   1      45.756  24.706  27.324  1.00  0.00    -0.460 OA
BRANCH  80  81
ATOM     81  C   UNL A   1      45.194  25.027  26.137  1.00  0.00     0.340 C 
ATOM     82  O   UNL A   1      44.040  24.811  25.807  1.00  0.00    -0.246 OA
BRANCH  81  83
ATOM     83  C   UNL A   1      46.160  25.885  25.382  1.00  0.00     0.083 A 
ATOM     84  C   UNL A   1      47.374  25.283  25.010  1.00  0.00     0.018 A 
ATOM     85  C   UNL A   1      45.847  27.196  24.947  1.00  0.00     0.055 A 
ATOM     86  C   UNL A   1      48.277  25.966  24.194  1.00  0.00     0.001 A 
ATOM     87  C   UNL A   1      46.790  27.869  24.153  1.00  0.00     0.027 A 
ATOM     88  C   UNL A   1      47.987  27.259  23.774  1.00  0.00     0.002 A 
BRANCH  85  89
ATOM     89  N   UNL A   1      44.630  27.798  25.304  1.00  0.00    -0.323 N 
ATOM     90  H   UNL A   1      43.879  27.636  24.687  1.00  0.00     0.170 HD
BRANCH  89  91
ATOM     91  C   UNL A   1      44.338  28.591  26.401  1.00  0.00     0.233 A 
ATOM     92  N   UNL A   1      43.718  28.104  27.461  1.00  0.00    -0.182 NA
ATOM     93  N   UNL A   1      44.672  29.864  26.244  1.00  0.00    -0.176 NA
ATOM     94  C   UNL A   1      43.480  29.012  28.389  1.00  0.00     0.228 A 
ATOM     95  C   UNL A   1      44.286  30.697  27.195  1.00  0.00     0.233 A 
ATOM     96  Cl  UNL A   1      42.687  28.460  29.798  1.00  0.00    -0.041 Cl
ATOM     97  N   UNL A   1      43.718  30.310  28.326  1.00  0.00    -0.182 NA
BRANCH  95  98
ATOM     98  N   UNL A   1      44.387  32.045  26.873  1.00  0.00    -0.324 N 
ATOM     99  H   UNL A   1      43.539  32.543  26.825  1.00  0.00     0.170 HD
BRANCH  98 100
ATOM    100  C   UNL A   1      45.542  32.776  26.609  1.00  0.00     0.041 A 
ATOM    101  C   UNL A   1      45.453  34.117  26.231  1.00  0.00     0.028 A 
ATOM    102  C   UNL A   1      46.802  32.219  26.837  1.00  0.00     0.028 A 
ATOM    103  C   UNL A   1      46.607  34.898  26.110  1.00  0.00     0.028 A 
ATOM    104  C   UNL A   1      47.954  32.978  26.664  1.00  0.00     0.028 A 
ATOM    105  C   UNL A   1      47.868  34.329  26.318  1.00  0.00     0.044 A 
BRANCH 105 106
ATOM    106  N   UNL A   1      49.048  35.120  26.250  1.00  0.00    -0.308 N 
ATOM    107  C   UNL A   1      49.606  35.355  24.914  1.00  0.00     0.154 C 
ATOM    108  C   UNL A   1      49.433  35.916  27.336  1.00  0.00     0.253 C 
ATOM    109  C   UNL A   1      50.975  36.016  24.944  1.00  0.00     0.183 C 
ATOM    110  C   UNL A   1      50.606  36.870  27.077  1.00  0.00     0.260 C 
ATOM    111  O   UNL A   1      48.958  35.829  28.471  1.00  0.00    -0.272 OA
ATOM    112  O   UNL A   1      50.911  37.202  25.732  1.00  0.00    -0.370 OA
ENDBRANCH 105 106
ENDBRANCH  98 100
ENDBRANCH  95  98
ENDBRANCH  89  91
ENDBRANCH  85  89
ENDBRANCH  81  83
ENDBRANCH  80  81
ENDBRANCH  79  80
ENDBRANCH  78  79
ENDBRANCH  77  78
ENDBRANCH  76  77
ENDBRANCH   1  76
TORSDOF 25
ENDMDL
MODEL 3
REMARK VINA RESULT:      -7.5      5.386     11.719
REMARK SMILES O=C(OCCOCCOCCOCCOC(=O)c1ccccc1Nc1nc(Cl)nc(Nc2ccc(N3CCOCC3=O)cc2)n1)c1ccc(-c2c3nc(c(-c4c(F)c(F)c(F)c(F)c4F)c4ccc([nH]4)c(-c4c(F)c(F)c(F)c(F)c4F)c4nc(c(-c5c(F)c(F)c(F)c(F)c5F)c5ccc2[nH]5)C=C4)C=C3)cc1
REMARK SMILES IDX 10 1 9 2 8 3 7 4 6 5 5 6 4 7 3 8 2 9 1 10 46 11 47 12 108 13
REMARK SMILES IDX 48 14 107 15 49 16 50 17 51 18 101 19 52 20 106 21 100 22
REMARK SMILES IDX 102 23 53 24 105 25 99 26 98 27 54 29 86 30 66 31 85 32
REMARK SMILES IDX 67 33 70 34 84 35 103 36 68 37 69 38 83 40 104 41 71 42
REMARK SMILES IDX 55 43 56 44 64 45 57 46 58 47 62 48 65 49 59 50 60 51 63 52
REMARK SMILES IDX 61 53 87 54 88 55 96 56 89 57 90 58 94 59 97 60 91 61 92 62
REMARK SMILES IDX 95 63 93 64 72 65 73 66 81 67 74 68 75 69 79 70 82 71 76 72
REMARK SMILES IDX 77 73 80 74 78 75 11 76 12 77 13 78 14 79 15 80 16 81 17 82
REMARK SMILES IDX 18 83 19 84 23 85 20 86 22 87 21 88 24 89 25 91 26 92 45 93
REMARK SMILES IDX 27 94 30 95 28 96 29 97 31 98 32 100 33 101 44 102 34 103
REMARK SMILES IDX 43 104 35 105 36 106 37 107 41 108 38 109 40 110 42 111
REMARK SMILES IDX 39 112
REMARK H PARENT 102 28 70 39 24 90 31 99
REMARK Flexibility Score: inf
ROOT
ATOM      1  C   UNL A   1      49.755  27.647  23.859  1.00  0.00     0.188 C 
ENDROOT
BRANCH   1   2
ATOM      2  O   UNL A   1      50.439  26.736  23.008  1.00  0.00    -0.377 OA
BRANCH   2   3
ATOM      3  C   UNL A   1      51.857  26.877  22.932  1.00  0.00     0.188 C 
BRANCH   3   4
ATOM      4  C   UNL A   1      52.515  27.518  24.155  1.00  0.00     0.188 C 
BRANCH   4   5
ATOM      5  O   UNL A   1      53.236  26.540  24.912  1.00  0.00    -0.376 OA
BRANCH   5   6
ATOM      6  C   UNL A   1      53.806  27.011  26.134  1.00  0.00     0.202 C 
BRANCH   6   7
ATOM      7  C   UNL A   1      53.795  25.983  27.262  1.00  0.00     0.261 C 
BRANCH   7   8
ATOM      8  O   UNL A   1      52.714  26.199  28.177  1.00  0.00    -0.460 OA
BRANCH   8   9
ATOM      9  C   UNL A   1      51.385  26.150  27.916  1.00  0.00     0.338 C 
ATOM     10  O   UNL A   1      50.919  25.088  27.503  1.00  0.00    -0.246 OA
BRANCH   9  11
ATOM     11  C   UNL A   1      50.430  27.289  28.116  1.00  0.00     0.060 A 
ATOM     12  C   UNL A   1      49.262  27.539  27.386  1.00  0.00     0.016 A 
ATOM     13  C   UNL A   1      50.722  28.153  29.188  1.00  0.00     0.016 A 
ATOM     14  C   UNL A   1      48.439  28.624  27.663  1.00  0.00     0.010 A 
ATOM     15  C   UNL A   1      49.906  29.248  29.475  1.00  0.00     0.010 A 
ATOM     16  C   UNL A   1      48.780  29.500  28.685  1.00  0.00    -0.014 A 
BRANCH  16  17
ATOM     17  C   UNL A   1      48.101  30.801  28.751  1.00  0.00     0.031 A 
ATOM     18  C   UNL A   1      46.730  30.818  29.347  1.00  0.00     0.074 A 
ATOM     19  C   UNL A   1      48.720  31.923  28.357  1.00  0.00     0.049 A 
ATOM     20  N   UNL A   1      45.838  31.768  29.365  1.00  0.00    -0.248 NA
ATOM     21  C   UNL A   1      46.307  29.577  30.020  1.00  0.00     0.031 C 
ATOM     22  C   UNL A   1      50.108  32.006  27.906  1.00  0.00     0.029 A 
ATOM     23  N   UNL A   1      48.256  33.208  28.270  1.00  0.00    -0.354 N 
ATOM     24  C   UNL A   1      44.731  31.223  30.003  1.00  0.00     0.074 A 
ATOM     25  C   UNL A   1      45.064  29.867  30.368  1.00  0.00     0.031 C 
ATOM     26  C   UNL A   1      50.378  33.277  27.564  1.00  0.00     0.029 A 
ATOM     27  C   UNL A   1      49.161  34.072  27.705  1.00  0.00     0.049 A 
ATOM     28  H   UNL A   1      47.364  33.484  28.583  1.00  0.00     0.167 HD
ATOM     29  C   UNL A   1      43.536  31.810  30.232  1.00  0.00     0.037 A 
ATOM     30  C   UNL A   1      48.985  35.341  27.295  1.00  0.00     0.037 A 
ATOM     31  C   UNL A   1      43.252  33.162  29.840  1.00  0.00     0.049 A 
ATOM     32  C   UNL A   1      47.624  35.959  27.480  1.00  0.00     0.074 A 
ATOM     33  C   UNL A   1      42.075  33.874  29.953  1.00  0.00     0.029 A 
ATOM     34  N   UNL A   1      44.183  34.008  29.242  1.00  0.00    -0.354 N 
ATOM     35  N   UNL A   1      46.543  35.429  28.010  1.00  0.00    -0.248 NA
ATOM     36  C   UNL A   1      47.443  37.334  27.001  1.00  0.00     0.031 C 
ATOM     37  C   UNL A   1      42.280  35.134  29.380  1.00  0.00     0.029 A 
ATOM     38  C   UNL A   1      43.602  35.230  28.966  1.00  0.00     0.049 A 
ATOM     39  H   UNL A   1      45.118  33.770  29.048  1.00  0.00     0.167 HD
ATOM     40  C   UNL A   1      45.563  36.408  27.949  1.00  0.00     0.074 A 
ATOM     41  C   UNL A   1      46.179  37.568  27.331  1.00  0.00     0.031 C 
ATOM     42  C   UNL A   1      44.272  36.359  28.365  1.00  0.00     0.037 A 
BRANCH  29  43
ATOM     43  C   UNL A   1      42.460  30.948  30.825  1.00  0.00     0.064 A 
ATOM     44  C   UNL A   1      41.530  30.258  30.032  1.00  0.00     0.173 A 
ATOM     45  C   UNL A   1      42.302  30.888  32.217  1.00  0.00     0.173 A 
ATOM     46  F   UNL A   1      41.614  30.309  28.693  1.00  0.00    -0.203 F 
ATOM     47  C   UNL A   1      40.454  29.585  30.609  1.00  0.00     0.198 A 
ATOM     48  C   UNL A   1      41.244  30.187  32.792  1.00  0.00     0.198 A 
ATOM     49  F   UNL A   1      43.156  31.536  33.024  1.00  0.00    -0.203 F 
ATOM     50  F   UNL A   1      39.529  29.008  29.828  1.00  0.00    -0.200 F 
ATOM     51  C   UNL A   1      40.313  29.550  31.988  1.00  0.00     0.200 A 
ATOM     52  F   UNL A   1      41.112  30.153  34.125  1.00  0.00    -0.200 F 
ATOM     53  F   UNL A   1      39.265  28.923  32.540  1.00  0.00    -0.200 F 
ENDBRANCH  29  43
BRANCH  30  54
ATOM     54  C   UNL A   1      50.102  36.058  26.626  1.00  0.00     0.064 A 
ATOM     55  C   UNL A   1      50.395  35.855  25.272  1.00  0.00     0.173 A 
ATOM     56  C   UNL A   1      50.869  37.010  27.321  1.00  0.00     0.173 A 
ATOM     57  F   UNL A   1      49.707  34.944  24.568  1.00  0.00    -0.203 F 
ATOM     58  C   UNL A   1      51.407  36.577  24.636  1.00  0.00     0.198 A 
ATOM     59  C   UNL A   1      51.861  37.749  26.677  1.00  0.00     0.198 A 
ATOM     60  F   UNL A   1      50.633  37.244  28.619  1.00  0.00    -0.203 F 
ATOM     61  F   UNL A   1      51.679  36.348  23.344  1.00  0.00    -0.200 F 
ATOM     62  C   UNL A   1      52.130  37.531  25.336  1.00  0.00     0.200 A 
ATOM     63  F   UNL A   1      52.544  38.681  27.356  1.00  0.00    -0.200 F 
ATOM     64  F   UNL A   1      53.086  38.238  24.720  1.00  0.00    -0.200 F 
ENDBRANCH  30  54
BRANCH  42  65
ATOM     65  C   UNL A   1      43.457  37.606  28.214  1.00  0.00     0.064 A 
ATOM     66  C   UNL A   1      42.581  37.785  27.136  1.00  0.00     0.173 A 
ATOM     67  C   UNL A   1      43.476  38.578  29.226  1.00  0.00     0.173 A 
ATOM     68  F   UNL A   1      42.539  36.886  26.140  1.00  0.00    -0.203 F 
ATOM     69  C   UNL A   1      41.750  38.900  27.075  1.00  0.00     0.198 A 
ATOM     70  C   UNL A   1      42.625  39.676  29.174  1.00  0.00     0.198 A 
ATOM     71  F   UNL A   1      44.293  38.440  30.280  1.00  0.00    -0.203 F 
ATOM     72  F   UNL A   1      40.931  39.066  26.027  1.00  0.00    -0.200 F 
ATOM     73  C   UNL A   1      41.763  39.836  28.100  1.00  0.00     0.200 A 
ATOM     74  F   UNL A   1      42.626  40.569  30.173  1.00  0.00    -0.200 F 
ATOM     75  F   UNL A   1      40.942  40.894  28.052  1.00  0.00    -0.200 F 
ENDBRANCH  42  65
ENDBRANCH  16  17
ENDBRANCH   9  11
ENDBRANCH   8   9
ENDBRANCH   7   8
ENDBRANCH   6   7
ENDBRANCH   5   6
ENDBRANCH   4   5
ENDBRANCH   3   4
ENDBRANCH   2   3
ENDBRANCH   1   2
BRANCH   1  76
ATOM     76  C   UNL A   1      48.219  27.533  23.972  1.00  0.00     0.188 C 
BRANCH  76  77
ATOM     77  O   UNL A   1      47.696  26.258  23.626  1.00  0.00    -0.376 OA
BRANCH  77  78
ATOM     78  C   UNL A   1      47.721  25.278  24.659  1.00  0.00     0.202 C 
BRANCH  78  79
ATOM     79  C   UNL A   1      46.658  25.425  25.757  1.00  0.00     0.261 C 
BRANCH  79  80
ATOM     80  O   UNL A   1      45.305  25.588  25.297  1.00  0.00    -0.460 OA
BRANCH  80  81
ATOM     81  C   UNL A   1      44.328  24.807  25.809  1.00  0.00     0.340 C 
ATOM     82  O   UNL A   1      44.409  23.612  26.039  1.00  0.00    -0.246 OA
BRANCH  81  83
ATOM     83  C   UNL A   1      43.207  25.693  26.250  1.00  0.00     0.083 A 
ATOM     84  C   UNL A   1      41.997  25.574  25.543  1.00  0.00     0.018 A 
ATOM     85  C   UNL A   1      43.290  26.530  27.389  1.00  0.00     0.055 A 
ATOM     86  C   UNL A   1      40.863  26.266  25.967  1.00  0.00     0.001 A 
ATOM     87  C   UNL A   1      42.140  27.240  27.772  1.00  0.00     0.027 A 
ATOM     88  C   UNL A   1      40.938  27.103  27.075  1.00  0.00     0.002 A 
BRANCH  85  89
ATOM     89  N   UNL A   1      44.491  26.645  28.108  1.00  0.00    -0.323 N 
ATOM     90  H   UNL A   1      45.125  27.319  27.769  1.00  0.00     0.170 HD
BRANCH  89  91
ATOM     91  C   UNL A   1      44.910  25.943  29.225  1.00  0.00     0.233 A 
ATOM     92  N   UNL A   1      44.119  25.080  29.836  1.00  0.00    -0.182 NA
ATOM     93  N   UNL A   1      46.124  26.276  29.641  1.00  0.00    -0.176 NA
ATOM     94  C   UNL A   1      44.666  24.540  30.910  1.00  0.00     0.228 A 
ATOM     95  C   UNL A   1      46.521  25.747  30.786  1.00  0.00     0.233 A 
ATOM     96  Cl  UNL A   1      43.708  23.406  31.754  1.00  0.00    -0.041 Cl
ATOM     97  N   UNL A   1      45.838  24.827  31.447  1.00  0.00    -0.182 NA
BRANCH  95  98
ATOM     98  N   UNL A   1      47.655  26.329  31.340  1.00  0.00    -0.324 N 
ATOM     99  H   UNL A   1      47.661  27.313  31.380  1.00  0.00     0.170 HD
BRANCH  98 100
ATOM    100  C   UNL A   1      48.783  25.688  31.845  1.00  0.00     0.041 A 
ATOM    101  C   UNL A   1      48.855  25.357  33.200  1.00  0.00     0.028 A 
ATOM    102  C   UNL A   1      49.799  25.259  30.988  1.00  0.00     0.028 A 
ATOM    103  C   UNL A   1      49.914  24.584  33.686  1.00  0.00     0.028 A 
ATOM    104  C   UNL A   1      50.881  24.537  31.478  1.00  0.00     0.028 A 
ATOM    105  C   UNL A   1      50.940  24.175  32.827  1.00  0.00     0.044 A 
BRANCH 105 106
ATOM    106  N   UNL A   1      51.997  23.345  33.293  1.00  0.00    -0.308 N 
ATOM    107  C   UNL A   1      51.779  21.896  33.213  1.00  0.00     0.154 C 
ATOM    108  C   UNL A   1      53.284  23.866  33.469  1.00  0.00     0.253 C 
ATOM    109  C   UNL A   1      52.851  21.089  33.928  1.00  0.00     0.183 C 
ATOM    110  C   UNL A   1      54.379  22.838  33.785  1.00  0.00     0.260 C 
ATOM    111  O   UNL A   1      53.558  25.068  33.474  1.00  0.00    -0.272 OA
ATOM    112  O   UNL A   1      54.136  21.482  33.451  1.00  0.00    -0.370 OA
ENDBRANCH 105 106
ENDBRANCH  98 100
ENDBRANCH  95  98
ENDBRANCH  89  91
ENDBRANCH  85  89
ENDBRANCH  81  83
ENDBRANCH  80  81
ENDBRANCH  79  80
ENDBRANCH  78  79
ENDBRANCH  77  78
ENDBRANCH  76  77
ENDBRANCH   1  76
TORSDOF 25
ENDMDL
