MODEL 1
REMARK VINA RESULT:      -8.3      0.000      0.000
REMARK SMILES COc1cc(OC(F)(F)F)cc2c1O[C@@H](C(F)(F)F)C(C(=O)OCCOCCOCCOCCOC(=O)c1ccc(-c3c4nc(c(-c5c(F)c(F)c(F)c(F)c5F)c5ccc([nH]5)c(-c5c(F)c(F)c(F)c(F)c5F)c5nc(c(-c6c(F)c(F)c(F)c(F)c6F)c6ccc3[nH]6)C=C5)C=C4)cc1)=C2
REMARK SMILES IDX 29 1 28 2 27 3 26 4 25 5 24 6 23 7 21 8 22 9 20 10 3 11 4 12
REMARK SMILES IDX 13 13 5 14 12 15 14 16 11 17 101 18 15 19 2 20 1 21 6 22
REMARK SMILES IDX 7 23 8 24 9 25 10 26 16 27 17 28 18 29 19 30 30 31 31 32
REMARK SMILES IDX 32 33 33 34 34 35 35 36 36 37 37 38 38 39 39 40 100 41 40 42
REMARK SMILES IDX 99 43 41 44 42 45 43 46 93 47 44 48 98 49 92 50 94 51 45 52
REMARK SMILES IDX 97 53 91 54 90 55 46 57 78 58 58 59 77 60 59 61 62 62 76 63
REMARK SMILES IDX 95 64 60 65 61 66 75 68 96 69 63 70 47 71 48 72 56 73 49 74
REMARK SMILES IDX 50 75 54 76 57 77 51 78 52 79 55 80 53 81 79 82 80 83 88 84
REMARK SMILES IDX 81 85 82 86 86 87 89 88 83 89 84 90 87 91 85 92 64 93 65 94
REMARK SMILES IDX 73 95 66 96 67 97 71 98 74 99 68 100 69 101 72 102 70 103
REMARK H PARENT 94 56 62 67
REMARK Flexibility Score: inf
ROOT
ATOM      1  O   UNL A   1      40.377  24.627  28.286  1.00  0.00    -0.377 OA
ENDROOT
BRANCH   1   2
ATOM      2  C   UNL A   1      40.948  25.923  28.221  1.00  0.00     0.188 C 
BRANCH   2   3
ATOM      3  C   UNL A   1      40.377  26.917  27.189  1.00  0.00     0.188 C 
BRANCH   3   4
ATOM      4  O   UNL A   1      40.250  28.241  27.677  1.00  0.00    -0.376 OA
BRANCH   4   5
ATOM      5  C   UNL A   1      38.951  28.775  27.853  1.00  0.00     0.202 C 
BRANCH   5   6
ATOM      6  C   UNL A   1      38.798  30.019  28.741  1.00  0.00     0.261 C 
BRANCH   6   7
ATOM      7  O   UNL A   1      37.685  30.870  28.433  1.00  0.00    -0.460 OA
BRANCH   7   8
ATOM      8  C   UNL A   1      36.475  30.500  28.910  1.00  0.00     0.338 C 
ATOM      9  O   UNL A   1      35.930  29.429  28.721  1.00  0.00    -0.246 OA
BRANCH   8  10
ATOM     10  C   UNL A   1      35.983  31.528  29.849  1.00  0.00     0.087 C 
ATOM     11  C   UNL A   1      34.888  34.958  31.961  1.00  0.00     0.165 A 
ATOM     12  C   UNL A   1      35.515  35.260  33.174  1.00  0.00     0.097 A 
ATOM     13  C   UNL A   1      35.234  33.794  31.272  1.00  0.00     0.170 A 
ATOM     14  C   UNL A   1      36.454  34.385  33.721  1.00  0.00     0.134 A 
ATOM     15  C   UNL A   1      36.192  32.915  31.802  1.00  0.00     0.025 A 
ATOM     16  O   UNL A   1      34.716  33.599  30.018  1.00  0.00    -0.471 OA
ATOM     17  C   UNL A   1      36.770  33.199  33.044  1.00  0.00     0.059 A 
ATOM     18  C   UNL A   1      36.675  31.810  30.968  1.00  0.00     0.027 C 
ATOM     19  C   UNL A   1      34.660  32.214  29.598  1.00  0.00     0.316 C 
BRANCH  11  20
ATOM     20  O   UNL A   1      34.045  35.922  31.474  1.00  0.00    -0.493 OA
ATOM     21  C   UNL A   1      33.013  36.300  32.384  1.00  0.00     0.278 C 
ENDBRANCH  11  20
BRANCH  14  22
ATOM     22  O   UNL A   1      37.147  34.582  34.885  1.00  0.00    -0.406 OA
BRANCH  22  23
ATOM     23  C   UNL A   1      36.914  33.664  35.944  1.00  0.00     0.573 C 
ATOM     24  F   UNL A   1      37.544  34.050  37.075  1.00  0.00    -0.132 F 
ATOM     25  F   UNL A   1      35.593  33.530  36.184  1.00  0.00    -0.132 F 
ATOM     26  F   UNL A   1      37.401  32.455  35.585  1.00  0.00    -0.132 F 
ENDBRANCH  22  23
ENDBRANCH  14  22
BRANCH  19  27
ATOM     27  C   UNL A   1      34.022  32.173  28.200  1.00  0.00     0.430 C 
ATOM     28  F   UNL A   1      33.167  33.201  28.003  1.00  0.00    -0.167 F 
ATOM     29  F   UNL A   1      34.990  32.321  27.254  1.00  0.00    -0.167 F 
ATOM     30  F   UNL A   1      33.381  31.019  27.937  1.00  0.00    -0.167 F 
ENDBRANCH  19  27
ENDBRANCH   8  10
ENDBRANCH   7   8
ENDBRANCH   6   7
ENDBRANCH   5   6
ENDBRANCH   4   5
ENDBRANCH   3   4
ENDBRANCH   2   3
ENDBRANCH   1   2
BRANCH   1  31
ATOM     31  C   UNL A   1      41.175  23.492  27.954  1.00  0.00     0.188 C 
BRANCH  31  32
ATOM     32  C   UNL A   1      41.438  23.068  26.487  1.00  0.00     0.188 C 
BRANCH  32  33
ATOM     33  O   UNL A   1      42.663  22.387  26.270  1.00  0.00    -0.376 OA
BRANCH  33  34
ATOM     34  C   UNL A   1      43.831  23.163  26.081  1.00  0.00     0.202 C 
BRANCH  34  35
ATOM     35  C   UNL A   1      44.159  23.558  24.635  1.00  0.00     0.261 C 
BRANCH  35  36
ATOM     36  O   UNL A   1      44.669  24.888  24.451  1.00  0.00    -0.460 OA
BRANCH  36  37
ATOM     37  C   UNL A   1      45.750  25.233  25.181  1.00  0.00     0.338 C 
ATOM     38  O   UNL A   1      46.877  24.770  25.096  1.00  0.00    -0.246 OA
BRANCH  37  39
ATOM     39  C   UNL A   1      45.396  26.417  25.988  1.00  0.00     0.060 A 
ATOM     40  C   UNL A   1      46.404  27.074  26.707  1.00  0.00     0.016 A 
ATOM     41  C   UNL A   1      44.078  26.876  26.033  1.00  0.00     0.016 A 
ATOM     42  C   UNL A   1      46.085  28.168  27.510  1.00  0.00     0.010 A 
ATOM     43  C   UNL A   1      43.757  27.959  26.854  1.00  0.00     0.010 A 
ATOM     44  C   UNL A   1      44.752  28.583  27.628  1.00  0.00    -0.014 A 
BRANCH  44  45
ATOM     45  C   UNL A   1      44.382  29.527  28.710  1.00  0.00     0.031 A 
ATOM     46  C   UNL A   1      44.118  28.969  30.083  1.00  0.00     0.074 A 
ATOM     47  C   UNL A   1      44.326  30.852  28.492  1.00  0.00     0.049 A 
ATOM     48  N   UNL A   1      43.787  29.592  31.186  1.00  0.00    -0.248 NA
ATOM     49  C   UNL A   1      44.246  27.511  30.231  1.00  0.00     0.031 C 
ATOM     50  C   UNL A   1      44.597  31.512  27.217  1.00  0.00     0.029 A 
ATOM     51  N   UNL A   1      44.023  31.881  29.349  1.00  0.00    -0.354 N 
ATOM     52  C   UNL A   1      43.662  28.601  32.152  1.00  0.00     0.074 A 
ATOM     53  C   UNL A   1      43.916  27.336  31.502  1.00  0.00     0.031 C 
ATOM     54  C   UNL A   1      44.448  32.839  27.375  1.00  0.00     0.029 A 
ATOM     55  C   UNL A   1      44.040  33.118  28.751  1.00  0.00     0.049 A 
ATOM     56  H   UNL A   1      43.813  31.746  30.302  1.00  0.00     0.167 HD
ATOM     57  C   UNL A   1      43.369  28.738  33.468  1.00  0.00     0.037 A 
ATOM     58  C   UNL A   1      43.745  34.329  29.260  1.00  0.00     0.037 A 
ATOM     59  C   UNL A   1      43.119  30.000  34.112  1.00  0.00     0.049 A 
ATOM     60  C   UNL A   1      43.355  34.443  30.714  1.00  0.00     0.074 A 
ATOM     61  C   UNL A   1      42.839  30.247  35.444  1.00  0.00     0.029 A 
ATOM     62  N   UNL A   1      43.106  31.228  33.466  1.00  0.00    -0.354 N 
ATOM     63  N   UNL A   1      43.277  33.508  31.631  1.00  0.00    -0.248 NA
ATOM     64  C   UNL A   1      43.020  35.788  31.203  1.00  0.00     0.031 C 
ATOM     65  C   UNL A   1      42.591  31.615  35.592  1.00  0.00     0.029 A 
ATOM     66  C   UNL A   1      42.790  32.232  34.368  1.00  0.00     0.049 A 
ATOM     67  H   UNL A   1      43.293  31.365  32.510  1.00  0.00     0.167 HD
ATOM     68  C   UNL A   1      42.923  34.157  32.810  1.00  0.00     0.074 A 
ATOM     69  C   UNL A   1      42.823  35.565  32.494  1.00  0.00     0.031 C 
ATOM     70  C   UNL A   1      42.702  33.633  34.042  1.00  0.00     0.037 A 
BRANCH  57  71
ATOM     71  C   UNL A   1      43.271  27.487  34.293  1.00  0.00     0.064 A 
ATOM     72  C   UNL A   1      44.395  26.907  34.901  1.00  0.00     0.173 A 
ATOM     73  C   UNL A   1      42.022  26.884  34.514  1.00  0.00     0.173 A 
ATOM     74  F   UNL A   1      45.614  27.433  34.708  1.00  0.00    -0.203 F 
ATOM     75  C   UNL A   1      44.276  25.758  35.680  1.00  0.00     0.198 A 
ATOM     76  C   UNL A   1      41.904  25.756  35.321  1.00  0.00     0.198 A 
ATOM     77  F   UNL A   1      40.915  27.398  33.959  1.00  0.00    -0.203 F 
ATOM     78  F   UNL A   1      45.370  25.194  36.211  1.00  0.00    -0.200 F 
ATOM     79  C   UNL A   1      43.030  25.190  35.897  1.00  0.00     0.200 A 
ATOM     80  F   UNL A   1      40.696  25.217  35.541  1.00  0.00    -0.200 F 
ATOM     81  F   UNL A   1      42.915  24.092  36.657  1.00  0.00    -0.200 F 
ENDBRANCH  57  71
BRANCH  58  82
ATOM     82  C   UNL A   1      43.799  35.541  28.398  1.00  0.00     0.064 A 
ATOM     83  C   UNL A   1      45.008  36.212  28.164  1.00  0.00     0.173 A 
ATOM     84  C   UNL A   1      42.635  36.084  27.832  1.00  0.00     0.173 A 
ATOM     85  F   UNL A   1      46.145  35.750  28.704  1.00  0.00    -0.203 F 
ATOM     86  C   UNL A   1      45.046  37.394  27.425  1.00  0.00     0.198 A 
ATOM     87  C   UNL A   1      42.680  37.246  27.064  1.00  0.00     0.198 A 
ATOM     88  F   UNL A   1      41.451  35.485  28.026  1.00  0.00    -0.203 F 
ATOM     89  F   UNL A   1      46.206  38.049  27.274  1.00  0.00    -0.200 F 
ATOM     90  C   UNL A   1      43.884  37.907  26.872  1.00  0.00     0.200 A 
ATOM     91  F   UNL A   1      41.556  37.730  26.519  1.00  0.00    -0.200 F 
ATOM     92  F   UNL A   1      43.921  39.045  26.166  1.00  0.00    -0.200 F 
ENDBRANCH  58  82
BRANCH  70  93
ATOM     93  C   UNL A   1      42.382  34.597  35.152  1.00  0.00     0.064 A 
ATOM     94  C   UNL A   1      43.386  35.270  35.866  1.00  0.00     0.173 A 
ATOM     95  C   UNL A   1      41.047  34.863  35.497  1.00  0.00     0.173 A 
ATOM     96  F   UNL A   1      44.679  35.047  35.584  1.00  0.00    -0.203 F 
ATOM     97  C   UNL A   1      43.068  36.130  36.913  1.00  0.00     0.198 A 
ATOM     98  C   UNL A   1      40.732  35.755  36.518  1.00  0.00     0.198 A 
ATOM     99  F   UNL A   1      40.045  34.260  34.839  1.00  0.00    -0.203 F 
ATOM    100  F   UNL A   1      44.046  36.701  37.629  1.00  0.00    -0.200 F 
ATOM    101  C   UNL A   1      41.741  36.376  37.235  1.00  0.00     0.200 A 
ATOM    102  F   UNL A   1      39.449  36.007  36.812  1.00  0.00    -0.200 F 
ATOM    103  F   UNL A   1      41.438  37.203  38.244  1.00  0.00    -0.200 F 
ENDBRANCH  70  93
ENDBRANCH  44  45
ENDBRANCH  37  39
ENDBRANCH  36  37
ENDBRANCH  35  36
ENDBRANCH  34  35
ENDBRANCH  33  34
ENDBRANCH  32  33
ENDBRANCH  31  32
ENDBRANCH   1  31
TORSDOF 24
ENDMDL
MODEL 2
REMARK VINA RESULT:      -8.2      4.056     11.547
REMARK SMILES COc1cc(OC(F)(F)F)cc2c1O[C@@H](C(F)(F)F)C(C(=O)OCCOCCOCCOCCOC(=O)c1ccc(-c3c4nc(c(-c5c(F)c(F)c(F)c(F)c5F)c5ccc([nH]5)c(-c5c(F)c(F)c(F)c(F)c5F)c5nc(c(-c6c(F)c(F)c(F)c(F)c6F)c6ccc3[nH]6)C=C5)C=C4)cc1)=C2
REMARK SMILES IDX 29 1 28 2 27 3 26 4 25 5 24 6 23 7 21 8 22 9 20 10 3 11 4 12
REMARK SMILES IDX 13 13 5 14 12 15 14 16 11 17 101 18 15 19 2 20 1 21 6 22
REMARK SMILES IDX 7 23 8 24 9 25 10 26 16 27 17 28 18 29 19 30 30 31 31 32
REMARK SMILES IDX 32 33 33 34 34 35 35 36 36 37 37 38 38 39 39 40 100 41 40 42
REMARK SMILES IDX 99 43 41 44 42 45 43 46 93 47 44 48 98 49 92 50 94 51 45 52
REMARK SMILES IDX 97 53 91 54 90 55 46 57 78 58 58 59 77 60 59 61 62 62 76 63
REMARK SMILES IDX 95 64 60 65 61 66 75 68 96 69 63 70 47 71 48 72 56 73 49 74
REMARK SMILES IDX 50 75 54 76 57 77 51 78 52 79 55 80 53 81 79 82 80 83 88 84
REMARK SMILES IDX 81 85 82 86 86 87 89 88 83 89 84 90 87 91 85 92 64 93 65 94
REMARK SMILES IDX 73 95 66 96 67 97 71 98 74 99 68 100 69 101 72 102 70 103
REMARK H PARENT 94 56 62 67
REMARK Flexibility Score: inf
ROOT
ATOM      1  O   UNL A   1      38.707  33.851  29.029  1.00  0.00    -0.377 OA
ENDROOT
BRANCH   1   2
ATOM      2  C   UNL A   1      39.776  34.345  29.819  1.00  0.00     0.188 C 
BRANCH   2   3
ATOM      3  C   UNL A   1      40.593  35.534  29.272  1.00  0.00     0.188 C 
BRANCH   3   4
ATOM      4  O   UNL A   1      41.284  35.250  28.069  1.00  0.00    -0.376 OA
BRANCH   4   5
ATOM      5  C   UNL A   1      42.699  35.204  28.095  1.00  0.00     0.202 C 
BRANCH   5   6
ATOM      6  C   UNL A   1      43.390  33.958  27.522  1.00  0.00     0.261 C 
BRANCH   6   7
ATOM      7  O   UNL A   1      44.791  34.096  27.244  1.00  0.00    -0.460 OA
BRANCH   7   8
ATOM      8  C   UNL A   1      45.260  33.498  26.126  1.00  0.00     0.338 C 
ATOM      9  O   UNL A   1      45.162  33.927  24.992  1.00  0.00    -0.246 OA
BRANCH   8  10
ATOM     10  C   UNL A   1      46.072  32.323  26.501  1.00  0.00     0.087 C 
ATOM     11  C   UNL A   1      48.735  29.127  26.850  1.00  0.00     0.165 A 
ATOM     12  C   UNL A   1      48.257  27.814  26.812  1.00  0.00     0.097 A 
ATOM     13  C   UNL A   1      47.839  30.195  26.764  1.00  0.00     0.170 A 
ATOM     14  C   UNL A   1      46.886  27.563  26.732  1.00  0.00     0.134 A 
ATOM     15  C   UNL A   1      46.459  29.956  26.663  1.00  0.00     0.025 A 
ATOM     16  O   UNL A   1      48.344  31.464  26.653  1.00  0.00    -0.471 OA
ATOM     17  C   UNL A   1      45.988  28.638  26.684  1.00  0.00     0.059 A 
ATOM     18  C   UNL A   1      45.565  31.082  26.378  1.00  0.00     0.027 C 
ATOM     19  C   UNL A   1      47.447  32.511  27.099  1.00  0.00     0.316 C 
BRANCH  11  20
ATOM     20  O   UNL A   1      50.098  29.262  26.847  1.00  0.00    -0.493 OA
ATOM     21  C   UNL A   1      50.718  28.886  28.076  1.00  0.00     0.278 C 
ENDBRANCH  11  20
BRANCH  14  22
ATOM     22  O   UNL A   1      46.303  26.327  26.666  1.00  0.00    -0.406 OA
BRANCH  22  23
ATOM     23  C   UNL A   1      47.019  25.304  25.989  1.00  0.00     0.573 C 
ATOM     24  F   UNL A   1      48.074  24.878  26.716  1.00  0.00    -0.132 F 
ATOM     25  F   UNL A   1      46.213  24.259  25.704  1.00  0.00    -0.132 F 
ATOM     26  F   UNL A   1      47.488  25.801  24.823  1.00  0.00    -0.132 F 
ENDBRANCH  22  23
ENDBRANCH  14  22
BRANCH  19  27
ATOM     27  C   UNL A   1      48.180  33.853  26.944  1.00  0.00     0.430 C 
ATOM     28  F   UNL A   1      49.510  33.732  27.154  1.00  0.00    -0.167 F 
ATOM     29  F   UNL A   1      48.055  34.294  25.661  1.00  0.00    -0.167 F 
ATOM     30  F   UNL A   1      47.700  34.822  27.746  1.00  0.00    -0.167 F 
ENDBRANCH  19  27
ENDBRANCH   8  10
ENDBRANCH   7   8
ENDBRANCH   6   7
ENDBRANCH   5   6
ENDBRANCH   4   5
ENDBRANCH   3   4
ENDBRANCH   2   3
ENDBRANCH   1   2
BRANCH   1  31
ATOM     31  C   UNL A   1      37.533  33.357  29.670  1.00  0.00     0.188 C 
BRANCH  31  32
ATOM     32  C   UNL A   1      36.778  34.171  30.752  1.00  0.00     0.188 C 
BRANCH  32  33
ATOM     33  O   UNL A   1      35.375  33.969  30.785  1.00  0.00    -0.376 OA
BRANCH  33  34
ATOM     34  C   UNL A   1      34.614  34.402  29.674  1.00  0.00     0.202 C 
BRANCH  34  35
ATOM     35  C   UNL A   1      34.132  33.308  28.711  1.00  0.00     0.261 C 
BRANCH  35  36
ATOM     36  O   UNL A   1      34.380  31.956  29.128  1.00  0.00    -0.460 OA
BRANCH  36  37
ATOM     37  C   UNL A   1      34.501  31.030  28.153  1.00  0.00     0.338 C 
ATOM     38  O   UNL A   1      33.798  30.905  27.162  1.00  0.00    -0.246 OA
BRANCH  37  39
ATOM     39  C   UNL A   1      35.761  30.294  28.379  1.00  0.00     0.060 A 
ATOM     40  C   UNL A   1      35.972  29.677  29.620  1.00  0.00     0.016 A 
ATOM     41  C   UNL A   1      36.724  30.211  27.372  1.00  0.00     0.016 A 
ATOM     42  C   UNL A   1      37.172  29.014  29.871  1.00  0.00     0.010 A 
ATOM     43  C   UNL A   1      37.934  29.564  27.632  1.00  0.00     0.010 A 
ATOM     44  C   UNL A   1      38.179  28.999  28.896  1.00  0.00    -0.014 A 
BRANCH  44  45
ATOM     45  C   UNL A   1      39.548  28.575  29.278  1.00  0.00     0.031 A 
ATOM     46  C   UNL A   1      40.320  29.439  30.238  1.00  0.00     0.074 A 
ATOM     47  C   UNL A   1      40.076  27.427  28.821  1.00  0.00     0.049 A 
ATOM     48  N   UNL A   1      41.524  29.275  30.723  1.00  0.00    -0.248 NA
ATOM     49  C   UNL A   1      39.640  30.653  30.717  1.00  0.00     0.031 C 
ATOM     50  C   UNL A   1      39.412  26.490  27.918  1.00  0.00     0.029 A 
ATOM     51  N   UNL A   1      41.301  26.854  29.061  1.00  0.00    -0.354 N 
ATOM     52  C   UNL A   1      41.746  30.366  31.555  1.00  0.00     0.074 A 
ATOM     53  C   UNL A   1      40.570  31.203  31.483  1.00  0.00     0.031 C 
ATOM     54  C   UNL A   1      40.238  25.456  27.678  1.00  0.00     0.029 A 
ATOM     55  C   UNL A   1      41.500  25.675  28.385  1.00  0.00     0.049 A 
ATOM     56  H   UNL A   1      41.973  27.252  29.661  1.00  0.00     0.167 HD
ATOM     57  C   UNL A   1      42.831  30.639  32.318  1.00  0.00     0.037 A 
ATOM     58  C   UNL A   1      42.583  24.877  28.337  1.00  0.00     0.037 A 
ATOM     59  C   UNL A   1      43.999  29.802  32.389  1.00  0.00     0.049 A 
ATOM     60  C   UNL A   1      43.805  25.244  29.145  1.00  0.00     0.074 A 
ATOM     61  C   UNL A   1      45.141  29.977  33.151  1.00  0.00     0.029 A 
ATOM     62  N   UNL A   1      44.181  28.635  31.660  1.00  0.00    -0.354 N 
ATOM     63  N   UNL A   1      43.992  26.254  29.959  1.00  0.00    -0.248 NA
ATOM     64  C   UNL A   1      44.964  24.346  29.030  1.00  0.00     0.031 C 
ATOM     65  C   UNL A   1      46.040  28.954  32.834  1.00  0.00     0.029 A 
ATOM     66  C   UNL A   1      45.430  28.099  31.931  1.00  0.00     0.049 A 
ATOM     67  H   UNL A   1      43.521  28.247  31.042  1.00  0.00     0.167 HD
ATOM     68  C   UNL A   1      45.272  26.093  30.481  1.00  0.00     0.074 A 
ATOM     69  C   UNL A   1      45.804  24.877  29.906  1.00  0.00     0.031 C 
ATOM     70  C   UNL A   1      45.945  26.881  31.357  1.00  0.00     0.037 A 
BRANCH  57  71
ATOM     71  C   UNL A   1      42.821  31.913  33.113  1.00  0.00     0.064 A 
ATOM     72  C   UNL A   1      43.275  33.128  32.578  1.00  0.00     0.173 A 
ATOM     73  C   UNL A   1      42.308  31.924  34.420  1.00  0.00     0.173 A 
ATOM     74  F   UNL A   1      43.791  33.170  31.340  1.00  0.00    -0.203 F 
ATOM     75  C   UNL A   1      43.236  34.301  33.329  1.00  0.00     0.198 A 
ATOM     76  C   UNL A   1      42.240  33.105  35.154  1.00  0.00     0.198 A 
ATOM     77  F   UNL A   1      41.860  30.791  34.980  1.00  0.00    -0.203 F 
ATOM     78  F   UNL A   1      43.719  35.441  32.814  1.00  0.00    -0.200 F 
ATOM     79  C   UNL A   1      42.710  34.290  34.612  1.00  0.00     0.200 A 
ATOM     80  F   UNL A   1      41.717  33.094  36.388  1.00  0.00    -0.200 F 
ATOM     81  F   UNL A   1      42.661  35.422  35.328  1.00  0.00    -0.200 F 
ENDBRANCH  57  71
BRANCH  58  82
ATOM     82  C   UNL A   1      42.578  23.651  27.493  1.00  0.00     0.064 A 
ATOM     83  C   UNL A   1      42.202  22.408  28.022  1.00  0.00     0.173 A 
ATOM     84  C   UNL A   1      42.998  23.687  26.155  1.00  0.00     0.173 A 
ATOM     85  F   UNL A   1      41.818  22.315  29.304  1.00  0.00    -0.203 F 
ATOM     86  C   UNL A   1      42.277  21.245  27.256  1.00  0.00     0.198 A 
ATOM     87  C   UNL A   1      43.038  22.529  25.379  1.00  0.00     0.198 A 
ATOM     88  F   UNL A   1      43.371  24.848  25.598  1.00  0.00    -0.203 F 
ATOM     89  F   UNL A   1      41.974  20.062  27.808  1.00  0.00    -0.200 F 
ATOM     90  C   UNL A   1      42.690  21.308  25.935  1.00  0.00     0.200 A 
ATOM     91  F   UNL A   1      43.424  22.598  24.098  1.00  0.00    -0.200 F 
ATOM     92  F   UNL A   1      42.765  20.189  25.200  1.00  0.00    -0.200 F 
ENDBRANCH  58  82
BRANCH  70  93
ATOM     93  C   UNL A   1      47.311  26.420  31.788  1.00  0.00     0.064 A 
ATOM     94  C   UNL A   1      48.472  26.772  31.082  1.00  0.00     0.173 A 
ATOM     95  C   UNL A   1      47.461  25.624  32.934  1.00  0.00     0.173 A 
ATOM     96  F   UNL A   1      48.386  27.523  29.973  1.00  0.00    -0.203 F 
ATOM     97  C   UNL A   1      49.722  26.304  31.478  1.00  0.00     0.198 A 
ATOM     98  C   UNL A   1      48.717  25.192  33.350  1.00  0.00     0.198 A 
ATOM     99  F   UNL A   1      46.388  25.268  33.657  1.00  0.00    -0.203 F 
ATOM    100  F   UNL A   1      50.805  26.591  30.744  1.00  0.00    -0.200 F 
ATOM    101  C   UNL A   1      49.844  25.518  32.615  1.00  0.00     0.200 A 
ATOM    102  F   UNL A   1      48.834  24.451  34.462  1.00  0.00    -0.200 F 
ATOM    103  F   UNL A   1      51.048  25.068  32.993  1.00  0.00    -0.200 F 
ENDBRANCH  70  93
ENDBRANCH  44  45
ENDBRANCH  37  39
ENDBRANCH  36  37
ENDBRANCH  35  36
ENDBRANCH  34  35
ENDBRANCH  33  34
ENDBRANCH  32  33
ENDBRANCH  31  32
ENDBRANCH   1  31
TORSDOF 24
ENDMDL
MODEL 3
REMARK VINA RESULT:      -8.1      3.134      6.731
REMARK SMILES COc1cc(OC(F)(F)F)cc2c1O[C@@H](C(F)(F)F)C(C(=O)OCCOCCOCCOCCOC(=O)c1ccc(-c3c4nc(c(-c5c(F)c(F)c(F)c(F)c5F)c5ccc([nH]5)c(-c5c(F)c(F)c(F)c(F)c5F)c5nc(c(-c6c(F)c(F)c(F)c(F)c6F)c6ccc3[nH]6)C=C5)C=C4)cc1)=C2
REMARK SMILES IDX 29 1 28 2 27 3 26 4 25 5 24 6 23 7 21 8 22 9 20 10 3 11 4 12
REMARK SMILES IDX 13 13 5 14 12 15 14 16 11 17 101 18 15 19 2 20 1 21 6 22
REMARK SMILES IDX 7 23 8 24 9 25 10 26 16 27 17 28 18 29 19 30 30 31 31 32
REMARK SMILES IDX 32 33 33 34 34 35 35 36 36 37 37 38 38 39 39 40 100 41 40 42
REMARK SMILES IDX 99 43 41 44 42 45 43 46 93 47 44 48 98 49 92 50 94 51 45 52
REMARK SMILES IDX 97 53 91 54 90 55 46 57 78 58 58 59 77 60 59 61 62 62 76 63
REMARK SMILES IDX 95 64 60 65 61 66 75 68 96 69 63 70 47 71 48 72 56 73 49 74
REMARK SMILES IDX 50 75 54 76 57 77 51 78 52 79 55 80 53 81 79 82 80 83 88 84
REMARK SMILES IDX 81 85 82 86 86 87 89 88 83 89 84 90 87 91 85 92 64 93 65 94
REMARK SMILES IDX 73 95 66 96 67 97 71 98 74 99 68 100 69 101 72 102 70 103
REMARK H PARENT 94 56 62 67
REMARK Flexibility Score: inf
ROOT
ATOM      1  O   UNL A   1      48.247  28.292  25.292  1.00  0.00    -0.377 OA
ENDROOT
BRANCH   1   2
ATOM      2  C   UNL A   1      47.111  28.410  26.133  1.00  0.00     0.188 C 
BRANCH   2   3
ATOM      3  C   UNL A   1      46.848  29.772  26.808  1.00  0.00     0.188 C 
BRANCH   3   4
ATOM      4  O   UNL A   1      45.873  30.560  26.148  1.00  0.00    -0.376 OA
BRANCH   4   5
ATOM      5  C   UNL A   1      44.814  31.107  26.913  1.00  0.00     0.202 C 
BRANCH   5   6
ATOM      6  C   UNL A   1      45.061  31.358  28.407  1.00  0.00     0.261 C 
BRANCH   6   7
ATOM      7  O   UNL A   1      44.075  32.160  29.074  1.00  0.00    -0.460 OA
BRANCH   7   8
ATOM      8  C   UNL A   1      43.348  31.562  30.046  1.00  0.00     0.338 C 
ATOM      9  O   UNL A   1      42.663  30.565  29.914  1.00  0.00    -0.246 OA
BRANCH   8  10
ATOM     10  C   UNL A   1      43.650  32.196  31.345  1.00  0.00     0.087 C 
ATOM     11  C   UNL A   1      44.885  34.547  34.566  1.00  0.00     0.165 A 
ATOM     12  C   UNL A   1      45.836  34.055  35.464  1.00  0.00     0.097 A 
ATOM     13  C   UNL A   1      44.451  33.747  33.507  1.00  0.00     0.170 A 
ATOM     14  C   UNL A   1      46.325  32.754  35.333  1.00  0.00     0.134 A 
ATOM     15  C   UNL A   1      44.948  32.444  33.353  1.00  0.00     0.025 A 
ATOM     16  O   UNL A   1      43.632  34.305  32.559  1.00  0.00    -0.471 OA
ATOM     17  C   UNL A   1      45.858  31.942  34.291  1.00  0.00     0.059 A 
ATOM     18  C   UNL A   1      44.626  31.703  32.129  1.00  0.00     0.027 C 
ATOM     19  C   UNL A   1      42.813  33.355  31.835  1.00  0.00     0.316 C 
BRANCH  11  20
ATOM     20  O   UNL A   1      44.534  35.861  34.735  1.00  0.00    -0.493 OA
ATOM     21  C   UNL A   1      45.467  36.784  34.174  1.00  0.00     0.278 C 
ENDBRANCH  11  20
BRANCH  14  22
ATOM     22  O   UNL A   1      47.270  32.172  36.134  1.00  0.00    -0.406 OA
BRANCH  22  23
ATOM     23  C   UNL A   1      46.828  31.619  37.366  1.00  0.00     0.573 C 
ATOM     24  F   UNL A   1      46.836  30.269  37.329  1.00  0.00    -0.132 F 
ATOM     25  F   UNL A   1      47.596  32.050  38.389  1.00  0.00    -0.132 F 
ATOM     26  F   UNL A   1      45.560  32.025  37.594  1.00  0.00    -0.132 F 
ENDBRANCH  22  23
ENDBRANCH  14  22
BRANCH  19  27
ATOM     27  C   UNL A   1      41.937  34.147  30.850  1.00  0.00     0.430 C 
ATOM     28  F   UNL A   1      40.867  33.433  30.436  1.00  0.00    -0.167 F 
ATOM     29  F   UNL A   1      41.421  35.240  31.479  1.00  0.00    -0.167 F 
ATOM     30  F   UNL A   1      42.609  34.589  29.771  1.00  0.00    -0.167 F 
ENDBRANCH  19  27
ENDBRANCH   8  10
ENDBRANCH   7   8
ENDBRANCH   6   7
ENDBRANCH   5   6
ENDBRANCH   4   5
ENDBRANCH   3   4
ENDBRANCH   2   3
ENDBRANCH   1   2
BRANCH   1  31
ATOM     31  C   UNL A   1      48.398  27.129  24.479  1.00  0.00     0.188 C 
BRANCH  31  32
ATOM     32  C   UNL A   1      47.957  25.723  24.959  1.00  0.00     0.188 C 
BRANCH  32  33
ATOM     33  O   UNL A   1      47.068  25.044  24.088  1.00  0.00    -0.376 OA
BRANCH  33  34
ATOM     34  C   UNL A   1      46.918  23.646  24.247  1.00  0.00     0.202 C 
BRANCH  34  35
ATOM     35  C   UNL A   1      45.493  23.093  24.104  1.00  0.00     0.261 C 
BRANCH  35  36
ATOM     36  O   UNL A   1      44.433  24.027  24.357  1.00  0.00    -0.460 OA
BRANCH  36  37
ATOM     37  C   UNL A   1      43.380  23.576  25.071  1.00  0.00     0.338 C 
ATOM     38  O   UNL A   1      42.754  22.543  24.892  1.00  0.00    -0.246 OA
BRANCH  37  39
ATOM     39  C   UNL A   1      43.219  24.453  26.248  1.00  0.00     0.060 A 
ATOM     40  C   UNL A   1      42.557  23.956  27.378  1.00  0.00     0.016 A 
ATOM     41  C   UNL A   1      43.721  25.756  26.235  1.00  0.00     0.016 A 
ATOM     42  C   UNL A   1      42.355  24.780  28.484  1.00  0.00     0.010 A 
ATOM     43  C   UNL A   1      43.500  26.587  27.335  1.00  0.00     0.010 A 
ATOM     44  C   UNL A   1      42.779  26.115  28.448  1.00  0.00    -0.014 A 
BRANCH  44  45
ATOM     45  C   UNL A   1      42.288  27.059  29.481  1.00  0.00     0.031 A 
ATOM     46  C   UNL A   1      43.057  27.167  30.770  1.00  0.00     0.074 A 
ATOM     47  C   UNL A   1      41.214  27.836  29.262  1.00  0.00     0.049 A 
ATOM     48  N   UNL A   1      42.829  27.922  31.815  1.00  0.00    -0.248 NA
ATOM     49  C   UNL A   1      44.244  26.307  30.897  1.00  0.00     0.031 C 
ATOM     50  C   UNL A   1      40.412  27.847  28.041  1.00  0.00     0.029 A 
ATOM     51  N   UNL A   1      40.615  28.771  30.070  1.00  0.00    -0.354 N 
ATOM     52  C   UNL A   1      43.838  27.622  32.722  1.00  0.00     0.074 A 
ATOM     53  C   UNL A   1      44.658  26.593  32.122  1.00  0.00     0.031 C 
ATOM     54  C   UNL A   1      39.422  28.747  28.179  1.00  0.00     0.029 A 
ATOM     55  C   UNL A   1      39.503  29.351  29.509  1.00  0.00     0.049 A 
ATOM     56  H   UNL A   1      40.950  29.004  30.966  1.00  0.00     0.167 HD
ATOM     57  C   UNL A   1      44.065  28.164  33.942  1.00  0.00     0.037 A 
ATOM     58  C   UNL A   1      38.646  30.254  30.022  1.00  0.00     0.037 A 
ATOM     59  C   UNL A   1      43.248  29.190  34.534  1.00  0.00     0.049 A 
ATOM     60  C   UNL A   1      38.885  30.790  31.413  1.00  0.00     0.074 A 
ATOM     61  C   UNL A   1      43.408  29.823  35.754  1.00  0.00     0.029 A 
ATOM     62  N   UNL A   1      42.108  29.725  33.953  1.00  0.00    -0.354 N 
ATOM     63  N   UNL A   1      39.862  30.531  32.248  1.00  0.00    -0.248 NA
ATOM     64  C   UNL A   1      37.900  31.753  31.926  1.00  0.00     0.031 C 
ATOM     65  C   UNL A   1      42.329  30.692  35.941  1.00  0.00     0.029 A 
ATOM     66  C   UNL A   1      41.536  30.657  34.806  1.00  0.00     0.049 A 
ATOM     67  H   UNL A   1      41.756  29.478  33.068  1.00  0.00     0.167 HD
ATOM     68  C   UNL A   1      39.632  31.327  33.366  1.00  0.00     0.074 A 
ATOM     69  C   UNL A   1      38.434  32.091  33.091  1.00  0.00     0.031 C 
ATOM     70  C   UNL A   1      40.347  31.417  34.516  1.00  0.00     0.037 A 
BRANCH  57  71
ATOM     71  C   UNL A   1      45.226  27.635  34.735  1.00  0.00     0.064 A 
ATOM     72  C   UNL A   1      46.500  28.217  34.666  1.00  0.00     0.173 A 
ATOM     73  C   UNL A   1      45.047  26.552  35.611  1.00  0.00     0.173 A 
ATOM     74  F   UNL A   1      46.730  29.244  33.833  1.00  0.00    -0.203 F 
ATOM     75  C   UNL A   1      47.557  27.722  35.427  1.00  0.00     0.198 A 
ATOM     76  C   UNL A   1      46.098  26.082  36.394  1.00  0.00     0.198 A 
ATOM     77  F   UNL A   1      43.849  25.959  35.716  1.00  0.00    -0.203 F 
ATOM     78  F   UNL A   1      48.778  28.264  35.310  1.00  0.00    -0.200 F 
ATOM     79  C   UNL A   1      47.352  26.662  36.297  1.00  0.00     0.200 A 
ATOM     80  F   UNL A   1      45.892  25.067  37.245  1.00  0.00    -0.200 F 
ATOM     81  F   UNL A   1      48.367  26.194  37.038  1.00  0.00    -0.200 F 
ENDBRANCH  57  71
BRANCH  58  82
ATOM     82  C   UNL A   1      37.474  30.715  29.229  1.00  0.00     0.064 A 
ATOM     83  C   UNL A   1      37.397  32.028  28.744  1.00  0.00     0.173 A 
ATOM     84  C   UNL A   1      36.383  29.867  28.983  1.00  0.00     0.173 A 
ATOM     85  F   UNL A   1      38.401  32.886  28.974  1.00  0.00    -0.203 F 
ATOM     86  C   UNL A   1      36.263  32.485  28.073  1.00  0.00     0.198 A 
ATOM     87  C   UNL A   1      35.265  30.314  28.281  1.00  0.00     0.198 A 
ATOM     88  F   UNL A   1      36.401  28.602  29.426  1.00  0.00    -0.203 F 
ATOM     89  F   UNL A   1      36.191  33.764  27.679  1.00  0.00    -0.200 F 
ATOM     90  C   UNL A   1      35.200  31.627  27.838  1.00  0.00     0.200 A 
ATOM     91  F   UNL A   1      34.246  29.476  28.044  1.00  0.00    -0.200 F 
ATOM     92  F   UNL A   1      34.110  32.067  27.196  1.00  0.00    -0.200 F 
ENDBRANCH  58  82
BRANCH  70  93
ATOM     93  C   UNL A   1      39.880  32.416  35.539  1.00  0.00     0.064 A 
ATOM     94  C   UNL A   1      38.896  32.104  36.489  1.00  0.00     0.173 A 
ATOM     95  C   UNL A   1      40.439  33.704  35.577  1.00  0.00     0.173 A 
ATOM     96  F   UNL A   1      38.322  30.891  36.493  1.00  0.00    -0.203 F 
ATOM     97  C   UNL A   1      38.454  33.056  37.404  1.00  0.00     0.198 A 
ATOM     98  C   UNL A   1      40.023  34.640  36.519  1.00  0.00     0.198 A 
ATOM     99  F   UNL A   1      41.393  34.055  34.702  1.00  0.00    -0.203 F 
ATOM    100  F   UNL A   1      37.460  32.757  38.251  1.00  0.00    -0.200 F 
ATOM    101  C   UNL A   1      39.021  34.322  37.422  1.00  0.00     0.200 A 
ATOM    102  F   UNL A   1      40.588  35.856  36.548  1.00  0.00    -0.200 F 
ATOM    103  F   UNL A   1      38.594  35.237  38.302  1.00  0.00    -0.200 F 
ENDBRANCH  70  93
ENDBRANCH  44  45
ENDBRANCH  37  39
ENDBRANCH  36  37
ENDBRANCH  35  36
ENDBRANCH  34  35
ENDBRANCH  33  34
ENDBRANCH  32  33
ENDBRANCH  31  32
ENDBRANCH   1  31
TORSDOF 24
ENDMDL
