MODEL 1
REMARK VINA RESULT:      -9.0      0.000      0.000
REMARK SMILES Cc1cs/c(=N\S(=O)(=O)c2ccc(/C=C/C(=O)OCCOCCOCCOCCOC(=O)c3ccc(-c4c5nc(c(-c6c(F)c(F)c(F)c(F)c6F)c6ccc([nH]6)c(-c6c(F)c(F)c(F)c(F)c6F)c6nc(c(-c7c(F)c(F)c(F)c(F)c7F)c7ccc4[nH]7)C=C6)C=C5)cc3)cc2)[nH]1
REMARK SMILES IDX 23 1 22 2 21 3 20 4 19 5 18 6 16 7 17 8 15 9 14 10 13 11
REMARK SMILES IDX 10 12 11 13 97 14 12 15 96 16 7 17 8 18 9 19 6 20 1 21 2 22
REMARK SMILES IDX 3 23 98 24 4 25 5 26 24 28 25 29 26 30 27 31 28 32 29 33
REMARK SMILES IDX 30 34 31 35 32 36 33 37 34 38 95 39 35 40 94 41 36 42 37 43
REMARK SMILES IDX 38 44 88 45 39 46 93 47 87 48 89 49 40 50 92 51 86 52 85 53
REMARK SMILES IDX 41 55 73 56 53 57 72 58 54 59 57 60 71 61 90 62 55 63 56 64
REMARK SMILES IDX 70 66 91 67 58 68 42 69 43 70 51 71 44 72 45 73 49 74 52 75
REMARK SMILES IDX 46 76 47 77 50 78 48 79 74 80 75 81 83 82 76 83 77 84 81 85
REMARK SMILES IDX 84 86 78 87 79 88 82 89 80 90 59 91 60 92 68 93 61 94 62 95
REMARK SMILES IDX 66 96 69 97 63 98 64 99 67 100 65 101
REMARK H PARENT 98 27 89 54 57 65
REMARK Flexibility Score: inf
ROOT
ATOM      1  C   UNL A   1      42.493  27.404  26.836  1.00  0.00     0.188 C 
ENDROOT
BRANCH   1   2
ATOM      2  C   UNL A   1      41.502  26.846  25.795  1.00  0.00     0.188 C 
BRANCH   2   3
ATOM      3  O   UNL A   1      40.584  25.914  26.338  1.00  0.00    -0.376 OA
BRANCH   3   4
ATOM      4  C   UNL A   1      41.063  24.706  26.896  1.00  0.00     0.202 C 
BRANCH   4   5
ATOM      5  C   UNL A   1      40.099  23.763  27.633  1.00  0.00     0.261 C 
BRANCH   5   6
ATOM      6  O   UNL A   1      40.444  22.373  27.638  1.00  0.00    -0.460 OA
BRANCH   6   7
ATOM      7  C   UNL A   1      40.262  21.705  26.481  1.00  0.00     0.330 C 
ATOM      8  O   UNL A   1      41.015  20.868  26.009  1.00  0.00    -0.247 OA
BRANCH   7   9
ATOM      9  C   UNL A   1      38.940  22.004  25.890  1.00  0.00     0.094 C 
ATOM     10  C   UNL A   1      38.132  21.115  25.285  1.00  0.00     0.015 C 
BRANCH  10  11
ATOM     11  C   UNL A   1      36.818  21.488  24.731  1.00  0.00    -0.025 A 
ATOM     12  C   UNL A   1      34.263  22.282  23.900  1.00  0.00     0.089 A 
ATOM     13  C   UNL A   1      35.381  23.022  23.508  1.00  0.00     0.023 A 
ATOM     14  C   UNL A   1      34.413  21.103  24.632  1.00  0.00     0.023 A 
ATOM     15  C   UNL A   1      36.653  22.616  23.913  1.00  0.00     0.009 A 
ATOM     16  C   UNL A   1      35.694  20.707  25.039  1.00  0.00     0.009 A 
BRANCH  12  17
ATOM     17  S   UNL A   1      32.653  22.934  23.486  1.00  0.00     0.285 S 
ATOM     18  O   UNL A   1      31.903  22.909  24.726  1.00  0.00    -0.199 OA
ATOM     19  O   UNL A   1      32.234  22.165  22.330  1.00  0.00    -0.199 OA
BRANCH  17  20
ATOM     20  N   UNL A   1      32.912  24.467  23.050  1.00  0.00    -0.130 NA
ATOM     21  C   UNL A   1      31.047  28.928  22.703  1.00  0.00     0.065 C 
ATOM     22  C   UNL A   1      30.999  27.475  23.026  1.00  0.00     0.024 A 
ATOM     23  C   UNL A   1      29.942  26.814  23.530  1.00  0.00     0.089 A 
ATOM     24  N   UNL A   1      32.099  26.665  22.823  1.00  0.00    -0.334 N 
ATOM     25  S   UNL A   1      30.307  25.120  23.774  1.00  0.00    -0.104 S 
ATOM     26  C   UNL A   1      31.971  25.339  23.165  1.00  0.00     0.199 A 
ATOM     27  H   UNL A   1      32.938  27.022  22.451  1.00  0.00     0.169 HD
ENDBRANCH  17  20
ENDBRANCH  12  17
ENDBRANCH  10  11
ENDBRANCH   7   9
ENDBRANCH   6   7
ENDBRANCH   5   6
ENDBRANCH   4   5
ENDBRANCH   3   4
ENDBRANCH   2   3
ENDBRANCH   1   2
BRANCH   1  28
ATOM     28  O   UNL A   1      43.871  27.426  26.494  1.00  0.00    -0.377 OA
BRANCH  28  29
ATOM     29  C   UNL A   1      44.313  26.826  25.276  1.00  0.00     0.188 C 
BRANCH  29  30
ATOM     30  C   UNL A   1      45.574  25.930  25.189  1.00  0.00     0.188 C 
BRANCH  30  31
ATOM     31  O   UNL A   1      45.357  24.650  24.623  1.00  0.00    -0.376 OA
BRANCH  31  32
ATOM     32  C   UNL A   1      44.125  24.009  24.897  1.00  0.00     0.202 C 
BRANCH  32  33
ATOM     33  C   UNL A   1      44.174  22.812  25.856  1.00  0.00     0.261 C 
BRANCH  33  34
ATOM     34  O   UNL A   1      44.119  23.126  27.258  1.00  0.00    -0.460 OA
BRANCH  34  35
ATOM     35  C   UNL A   1      45.254  23.567  27.839  1.00  0.00     0.338 C 
ATOM     36  O   UNL A   1      46.403  23.333  27.496  1.00  0.00    -0.246 OA
BRANCH  35  37
ATOM     37  C   UNL A   1      44.872  24.547  28.876  1.00  0.00     0.060 A 
ATOM     38  C   UNL A   1      43.892  24.202  29.818  1.00  0.00     0.016 A 
ATOM     39  C   UNL A   1      45.493  25.796  28.925  1.00  0.00     0.016 A 
ATOM     40  C   UNL A   1      43.510  25.123  30.795  1.00  0.00     0.010 A 
ATOM     41  C   UNL A   1      45.096  26.723  29.891  1.00  0.00     0.010 A 
ATOM     42  C   UNL A   1      44.081  26.402  30.811  1.00  0.00    -0.014 A 
BRANCH  42  43
ATOM     43  C   UNL A   1      43.498  27.465  31.667  1.00  0.00     0.031 A 
ATOM     44  C   UNL A   1      44.108  27.714  33.017  1.00  0.00     0.074 A 
ATOM     45  C   UNL A   1      42.452  28.202  31.253  1.00  0.00     0.049 A 
ATOM     46  N   UNL A   1      43.737  28.537  33.964  1.00  0.00    -0.248 NA
ATOM     47  C   UNL A   1      45.300  26.915  33.347  1.00  0.00     0.031 C 
ATOM     48  C   UNL A   1      41.797  28.083  29.954  1.00  0.00     0.029 A 
ATOM     49  N   UNL A   1      41.751  29.190  31.899  1.00  0.00    -0.354 N 
ATOM     50  C   UNL A   1      44.643  28.352  34.999  1.00  0.00     0.074 A 
ATOM     51  C   UNL A   1      45.558  27.311  34.582  1.00  0.00     0.031 C 
ATOM     52  C   UNL A   1      40.776  28.956  29.901  1.00  0.00     0.029 A 
ATOM     53  C   UNL A   1      40.684  29.666  31.177  1.00  0.00     0.049 A 
ATOM     54  H   UNL A   1      41.989  29.526  32.793  1.00  0.00     0.167 HD
ATOM     55  C   UNL A   1      44.713  28.999  36.187  1.00  0.00     0.037 A 
ATOM     56  C   UNL A   1      39.727  30.551  31.521  1.00  0.00     0.037 A 
ATOM     57  C   UNL A   1      43.793  30.025  36.603  1.00  0.00     0.049 A 
ATOM     58  C   UNL A   1      39.774  31.199  32.884  1.00  0.00     0.074 A 
ATOM     59  C   UNL A   1      43.785  30.753  37.780  1.00  0.00     0.029 A 
ATOM     60  N   UNL A   1      42.704  30.459  35.858  1.00  0.00    -0.354 N 
ATOM     61  N   UNL A   1      40.648  31.042  33.848  1.00  0.00    -0.248 NA
ATOM     62  C   UNL A   1      38.699  32.150  33.202  1.00  0.00     0.031 C 
ATOM     63  C   UNL A   1      42.654  31.578  37.776  1.00  0.00     0.029 A 
ATOM     64  C   UNL A   1      41.998  31.420  36.565  1.00  0.00     0.049 A 
ATOM     65  H   UNL A   1      42.469  30.132  34.960  1.00  0.00     0.167 HD
ATOM     66  C   UNL A   1      40.248  31.892  34.872  1.00  0.00     0.074 A 
ATOM     67  C   UNL A   1      39.059  32.574  34.404  1.00  0.00     0.031 C 
ATOM     68  C   UNL A   1      40.815  32.092  36.088  1.00  0.00     0.037 A 
BRANCH  55  69
ATOM     69  C   UNL A   1      45.802  28.584  37.136  1.00  0.00     0.064 A 
ATOM     70  C   UNL A   1      47.062  29.201  37.134  1.00  0.00     0.173 A 
ATOM     71  C   UNL A   1      45.578  27.558  38.067  1.00  0.00     0.173 A 
ATOM     72  F   UNL A   1      47.335  30.178  36.255  1.00  0.00    -0.203 F 
ATOM     73  C   UNL A   1      48.069  28.781  38.001  1.00  0.00     0.198 A 
ATOM     74  C   UNL A   1      46.573  27.166  38.958  1.00  0.00     0.198 A 
ATOM     75  F   UNL A   1      44.391  26.936  38.117  1.00  0.00    -0.203 F 
ATOM     76  F   UNL A   1      49.284  29.343  37.937  1.00  0.00    -0.200 F 
ATOM     77  C   UNL A   1      47.822  27.769  38.916  1.00  0.00     0.200 A 
ATOM     78  F   UNL A   1      46.327  26.198  39.852  1.00  0.00    -0.200 F 
ATOM     79  F   UNL A   1      48.789  27.368  39.751  1.00  0.00    -0.200 F 
ENDBRANCH  55  69
BRANCH  56  80
ATOM     80  C   UNL A   1      38.632  30.865  30.566  1.00  0.00     0.064 A 
ATOM     81  C   UNL A   1      37.596  29.952  30.322  1.00  0.00     0.173 A 
ATOM     82  C   UNL A   1      38.603  32.082  29.869  1.00  0.00     0.173 A 
ATOM     83  F   UNL A   1      37.594  28.763  30.942  1.00  0.00    -0.203 F 
ATOM     84  C   UNL A   1      36.583  30.238  29.408  1.00  0.00     0.198 A 
ATOM     85  C   UNL A   1      37.573  32.381  28.980  1.00  0.00     0.198 A 
ATOM     86  F   UNL A   1      39.572  32.990  30.061  1.00  0.00    -0.203 F 
ATOM     87  F   UNL A   1      35.632  29.329  29.160  1.00  0.00    -0.200 F 
ATOM     88  C   UNL A   1      36.568  31.456  28.744  1.00  0.00     0.200 A 
ATOM     89  F   UNL A   1      37.556  33.564  28.351  1.00  0.00    -0.200 F 
ATOM     90  F   UNL A   1      35.590  31.734  27.872  1.00  0.00    -0.200 F 
ENDBRANCH  56  80
BRANCH  68  91
ATOM     91  C   UNL A   1      40.181  33.115  36.991  1.00  0.00     0.064 A 
ATOM     92  C   UNL A   1      39.066  32.812  37.787  1.00  0.00     0.173 A 
ATOM     93  C   UNL A   1      40.725  34.405  37.092  1.00  0.00     0.173 A 
ATOM     94  F   UNL A   1      38.499  31.598  37.721  1.00  0.00    -0.203 F 
ATOM     95  C   UNL A   1      38.502  33.770  38.625  1.00  0.00     0.198 A 
ATOM     96  C   UNL A   1      40.181  35.349  37.958  1.00  0.00     0.198 A 
ATOM     97  F   UNL A   1      41.797  34.747  36.361  1.00  0.00    -0.203 F 
ATOM     98  F   UNL A   1      37.403  33.474  39.335  1.00  0.00    -0.200 F 
ATOM     99  C   UNL A   1      39.064  35.035  38.717  1.00  0.00     0.200 A 
ATOM    100  F   UNL A   1      40.738  36.565  38.059  1.00  0.00    -0.200 F 
ATOM    101  F   UNL A   1      38.526  35.953  39.532  1.00  0.00    -0.200 F 
ENDBRANCH  68  91
ENDBRANCH  42  43
ENDBRANCH  35  37
ENDBRANCH  34  35
ENDBRANCH  33  34
ENDBRANCH  32  33
ENDBRANCH  31  32
ENDBRANCH  30  31
ENDBRANCH  29  30
ENDBRANCH  28  29
ENDBRANCH   1  28
TORSDOF 23
ENDMDL
MODEL 2
REMARK VINA RESULT:      -8.8      5.748     10.887
REMARK SMILES Cc1cs/c(=N\S(=O)(=O)c2ccc(/C=C/C(=O)OCCOCCOCCOCCOC(=O)c3ccc(-c4c5nc(c(-c6c(F)c(F)c(F)c(F)c6F)c6ccc([nH]6)c(-c6c(F)c(F)c(F)c(F)c6F)c6nc(c(-c7c(F)c(F)c(F)c(F)c7F)c7ccc4[nH]7)C=C6)C=C5)cc3)cc2)[nH]1
REMARK SMILES IDX 23 1 22 2 21 3 20 4 19 5 18 6 16 7 17 8 15 9 14 10 13 11
REMARK SMILES IDX 10 12 11 13 97 14 12 15 96 16 7 17 8 18 9 19 6 20 1 21 2 22
REMARK SMILES IDX 3 23 98 24 4 25 5 26 24 28 25 29 26 30 27 31 28 32 29 33
REMARK SMILES IDX 30 34 31 35 32 36 33 37 34 38 95 39 35 40 94 41 36 42 37 43
REMARK SMILES IDX 38 44 88 45 39 46 93 47 87 48 89 49 40 50 92 51 86 52 85 53
REMARK SMILES IDX 41 55 73 56 53 57 72 58 54 59 57 60 71 61 90 62 55 63 56 64
REMARK SMILES IDX 70 66 91 67 58 68 42 69 43 70 51 71 44 72 45 73 49 74 52 75
REMARK SMILES IDX 46 76 47 77 50 78 48 79 74 80 75 81 83 82 76 83 77 84 81 85
REMARK SMILES IDX 84 86 78 87 79 88 82 89 80 90 59 91 60 92 68 93 61 94 62 95
REMARK SMILES IDX 66 96 69 97 63 98 64 99 67 100 65 101
REMARK H PARENT 98 27 89 54 57 65
REMARK Flexibility Score: inf
ROOT
ATOM      1  C   UNL A   1      36.231  33.612  34.705  1.00  0.00     0.188 C 
ENDROOT
BRANCH   1   2
ATOM      2  C   UNL A   1      36.489  32.492  33.678  1.00  0.00     0.188 C 
BRANCH   2   3
ATOM      3  O   UNL A   1      36.158  32.860  32.351  1.00  0.00    -0.376 OA
BRANCH   3   4
ATOM      4  C   UNL A   1      36.175  31.880  31.331  1.00  0.00     0.202 C 
BRANCH   4   5
ATOM      5  C   UNL A   1      36.360  30.397  31.690  1.00  0.00     0.261 C 
BRANCH   5   6
ATOM      6  O   UNL A   1      37.652  29.835  31.433  1.00  0.00    -0.460 OA
BRANCH   6   7
ATOM      7  C   UNL A   1      37.929  28.663  32.040  1.00  0.00     0.330 C 
ATOM      8  O   UNL A   1      37.403  28.238  33.057  1.00  0.00    -0.247 OA
BRANCH   7   9
ATOM      9  C   UNL A   1      38.874  27.854  31.241  1.00  0.00     0.094 C 
ATOM     10  C   UNL A   1      38.903  27.779  29.898  1.00  0.00     0.015 C 
BRANCH  10  11
ATOM     11  C   UNL A   1      39.889  26.959  29.172  1.00  0.00    -0.025 A 
ATOM     12  C   UNL A   1      41.730  25.548  27.601  1.00  0.00     0.089 A 
ATOM     13  C   UNL A   1      42.187  26.377  28.628  1.00  0.00     0.023 A 
ATOM     14  C   UNL A   1      40.363  25.350  27.404  1.00  0.00     0.023 A 
ATOM     15  C   UNL A   1      41.266  27.069  29.417  1.00  0.00     0.009 A 
ATOM     16  C   UNL A   1      39.447  26.052  28.197  1.00  0.00     0.009 A 
BRANCH  12  17
ATOM     17  S   UNL A   1      42.952  24.814  26.526  1.00  0.00     0.285 S 
ATOM     18  O   UNL A   1      44.231  25.136  27.129  1.00  0.00    -0.199 OA
ATOM     19  O   UNL A   1      42.600  25.282  25.200  1.00  0.00    -0.199 OA
BRANCH  17  20
ATOM     20  N   UNL A   1      42.703  23.221  26.621  1.00  0.00    -0.130 NA
ATOM     21  C   UNL A   1      44.134  18.825  25.163  1.00  0.00     0.065 C 
ATOM     22  C   UNL A   1      44.190  20.313  25.192  1.00  0.00     0.024 A 
ATOM     23  C   UNL A   1      45.061  21.083  24.517  1.00  0.00     0.089 A 
ATOM     24  N   UNL A   1      43.305  21.042  25.963  1.00  0.00    -0.334 N 
ATOM     25  S   UNL A   1      44.793  22.782  24.838  1.00  0.00    -0.104 S 
ATOM     26  C   UNL A   1      43.440  22.410  25.943  1.00  0.00     0.199 A 
ATOM     27  H   UNL A   1      42.609  20.601  26.502  1.00  0.00     0.169 HD
ENDBRANCH  17  20
ENDBRANCH  12  17
ENDBRANCH  10  11
ENDBRANCH   7   9
ENDBRANCH   6   7
ENDBRANCH   5   6
ENDBRANCH   4   5
ENDBRANCH   3   4
ENDBRANCH   2   3
ENDBRANCH   1   2
BRANCH   1  28
ATOM     28  O   UNL A   1      37.220  33.843  35.698  1.00  0.00    -0.377 OA
BRANCH  28  29
ATOM     29  C   UNL A   1      36.979  33.450  37.049  1.00  0.00     0.188 C 
BRANCH  29  30
ATOM     30  C   UNL A   1      38.118  33.206  38.071  1.00  0.00     0.188 C 
BRANCH  30  31
ATOM     31  O   UNL A   1      37.735  33.324  39.429  1.00  0.00    -0.376 OA
BRANCH  31  32
ATOM     32  C   UNL A   1      38.428  34.264  40.230  1.00  0.00     0.202 C 
BRANCH  32  33
ATOM     33  C   UNL A   1      39.062  35.452  39.496  1.00  0.00     0.261 C 
BRANCH  33  34
ATOM     34  O   UNL A   1      40.498  35.453  39.421  1.00  0.00    -0.460 OA
BRANCH  34  35
ATOM     35  C   UNL A   1      41.068  36.206  38.457  1.00  0.00     0.338 C 
ATOM     36  O   UNL A   1      41.321  37.400  38.502  1.00  0.00    -0.246 OA
BRANCH  35  37
ATOM     37  C   UNL A   1      41.510  35.295  37.382  1.00  0.00     0.060 A 
ATOM     38  C   UNL A   1      42.872  34.985  37.263  1.00  0.00     0.016 A 
ATOM     39  C   UNL A   1      40.577  34.738  36.506  1.00  0.00     0.016 A 
ATOM     40  C   UNL A   1      43.306  34.136  36.242  1.00  0.00     0.010 A 
ATOM     41  C   UNL A   1      41.016  33.905  35.474  1.00  0.00     0.010 A 
ATOM     42  C   UNL A   1      42.385  33.625  35.319  1.00  0.00    -0.014 A 
BRANCH  42  43
ATOM     43  C   UNL A   1      42.865  32.949  34.088  1.00  0.00     0.031 A 
ATOM     44  C   UNL A   1      43.169  31.479  34.151  1.00  0.00     0.074 A 
ATOM     45  C   UNL A   1      43.021  33.622  32.935  1.00  0.00     0.049 A 
ATOM     46  N   UNL A   1      43.659  30.686  33.232  1.00  0.00    -0.248 NA
ATOM     47  C   UNL A   1      42.888  30.813  35.434  1.00  0.00     0.031 C 
ATOM     48  C   UNL A   1      42.725  35.037  32.736  1.00  0.00     0.029 A 
ATOM     49  N   UNL A   1      43.485  33.196  31.714  1.00  0.00    -0.354 N 
ATOM     50  C   UNL A   1      43.748  29.434  33.825  1.00  0.00     0.074 A 
ATOM     51  C   UNL A   1      43.301  29.579  35.194  1.00  0.00     0.031 C 
ATOM     52  C   UNL A   1      43.029  35.371  31.469  1.00  0.00     0.029 A 
ATOM     53  C   UNL A   1      43.576  34.201  30.782  1.00  0.00     0.049 A 
ATOM     54  H   UNL A   1      43.728  32.261  31.524  1.00  0.00     0.167 HD
ATOM     55  C   UNL A   1      44.158  28.266  33.275  1.00  0.00     0.037 A 
ATOM     56  C   UNL A   1      44.071  34.181  29.529  1.00  0.00     0.037 A 
ATOM     57  C   UNL A   1      44.614  28.129  31.917  1.00  0.00     0.049 A 
ATOM     58  C   UNL A   1      44.602  32.887  28.963  1.00  0.00     0.074 A 
ATOM     59  C   UNL A   1      45.036  26.987  31.258  1.00  0.00     0.029 A 
ATOM     60  N   UNL A   1      44.723  29.176  31.011  1.00  0.00    -0.354 N 
ATOM     61  N   UNL A   1      44.658  31.700  29.517  1.00  0.00    -0.248 NA
ATOM     62  C   UNL A   1      45.135  32.931  27.594  1.00  0.00     0.031 C 
ATOM     63  C   UNL A   1      45.463  27.355  29.977  1.00  0.00     0.029 A 
ATOM     64  C   UNL A   1      45.238  28.712  29.810  1.00  0.00     0.049 A 
ATOM     65  H   UNL A   1      44.471  30.109  31.195  1.00  0.00     0.167 HD
ATOM     66  C   UNL A   1      45.204  30.853  28.559  1.00  0.00     0.074 A 
ATOM     67  C   UNL A   1      45.447  31.661  27.382  1.00  0.00     0.031 C 
ATOM     68  C   UNL A   1      45.476  29.527  28.645  1.00  0.00     0.037 A 
BRANCH  55  69
ATOM     69  C   UNL A   1      44.165  27.052  34.161  1.00  0.00     0.064 A 
ATOM     70  C   UNL A   1      45.333  26.607  34.800  1.00  0.00     0.173 A 
ATOM     71  C   UNL A   1      42.983  26.328  34.382  1.00  0.00     0.173 A 
ATOM     72  F   UNL A   1      46.494  27.253  34.613  1.00  0.00    -0.203 F 
ATOM     73  C   UNL A   1      45.325  25.461  35.593  1.00  0.00     0.198 A 
ATOM     74  C   UNL A   1      42.971  25.206  35.205  1.00  0.00     0.198 A 
ATOM     75  F   UNL A   1      41.837  26.711  33.800  1.00  0.00    -0.203 F 
ATOM     76  F   UNL A   1      46.466  25.019  36.141  1.00  0.00    -0.200 F 
ATOM     77  C   UNL A   1      44.144  24.766  35.801  1.00  0.00     0.200 A 
ATOM     78  F   UNL A   1      41.824  24.544  35.416  1.00  0.00    -0.200 F 
ATOM     79  F   UNL A   1      44.137  23.667  36.566  1.00  0.00    -0.200 F 
ENDBRANCH  55  69
BRANCH  56  80
ATOM     80  C   UNL A   1      44.106  35.433  28.727  1.00  0.00     0.064 A 
ATOM     81  C   UNL A   1      45.276  36.199  28.627  1.00  0.00     0.173 A 
ATOM     82  C   UNL A   1      42.966  35.895  28.052  1.00  0.00     0.173 A 
ATOM     83  F   UNL A   1      46.384  35.816  29.277  1.00  0.00    -0.203 F 
ATOM     84  C   UNL A   1      45.300  37.385  27.895  1.00  0.00     0.198 A 
ATOM     85  C   UNL A   1      43.000  37.063  27.295  1.00  0.00     0.198 A 
ATOM     86  F   UNL A   1      41.819  35.202  28.118  1.00  0.00    -0.203 F 
ATOM     87  F   UNL A   1      46.417  38.122  27.854  1.00  0.00    -0.200 F 
ATOM     88  C   UNL A   1      44.163  37.812  27.222  1.00  0.00     0.200 A 
ATOM     89  F   UNL A   1      41.903  37.464  26.636  1.00  0.00    -0.200 F 
ATOM     90  F   UNL A   1      44.189  38.948  26.513  1.00  0.00    -0.200 F 
ENDBRANCH  56  80
BRANCH  68  91
ATOM     91  C   UNL A   1      46.035  28.851  27.423  1.00  0.00     0.064 A 
ATOM     92  C   UNL A   1      45.206  28.306  26.431  1.00  0.00     0.173 A 
ATOM     93  C   UNL A   1      47.423  28.786  27.222  1.00  0.00     0.173 A 
ATOM     94  F   UNL A   1      43.872  28.329  26.578  1.00  0.00    -0.203 F 
ATOM     95  C   UNL A   1      45.745  27.695  25.302  1.00  0.00     0.198 A 
ATOM     96  C   UNL A   1      47.958  28.208  26.074  1.00  0.00     0.198 A 
ATOM     97  F   UNL A   1      48.264  29.300  28.133  1.00  0.00    -0.203 F 
ATOM     98  F   UNL A   1      44.933  27.132  24.394  1.00  0.00    -0.200 F 
ATOM     99  C   UNL A   1      47.119  27.654  25.120  1.00  0.00     0.200 A 
ATOM    100  F   UNL A   1      49.286  28.186  25.892  1.00  0.00    -0.200 F 
ATOM    101  F   UNL A   1      47.636  27.075  24.027  1.00  0.00    -0.200 F 
ENDBRANCH  68  91
ENDBRANCH  42  43
ENDBRANCH  35  37
ENDBRANCH  34  35
ENDBRANCH  33  34
ENDBRANCH  32  33
ENDBRANCH  31  32
ENDBRANCH  30  31
ENDBRANCH  29  30
ENDBRANCH  28  29
ENDBRANCH   1  28
TORSDOF 23
ENDMDL
MODEL 3
REMARK VINA RESULT:      -8.5      6.313     11.938
REMARK SMILES Cc1cs/c(=N\S(=O)(=O)c2ccc(/C=C/C(=O)OCCOCCOCCOCCOC(=O)c3ccc(-c4c5nc(c(-c6c(F)c(F)c(F)c(F)c6F)c6ccc([nH]6)c(-c6c(F)c(F)c(F)c(F)c6F)c6nc(c(-c7c(F)c(F)c(F)c(F)c7F)c7ccc4[nH]7)C=C6)C=C5)cc3)cc2)[nH]1
REMARK SMILES IDX 23 1 22 2 21 3 20 4 19 5 18 6 16 7 17 8 15 9 14 10 13 11
REMARK SMILES IDX 10 12 11 13 97 14 12 15 96 16 7 17 8 18 9 19 6 20 1 21 2 22
REMARK SMILES IDX 3 23 98 24 4 25 5 26 24 28 25 29 26 30 27 31 28 32 29 33
REMARK SMILES IDX 30 34 31 35 32 36 33 37 34 38 95 39 35 40 94 41 36 42 37 43
REMARK SMILES IDX 38 44 88 45 39 46 93 47 87 48 89 49 40 50 92 51 86 52 85 53
REMARK SMILES IDX 41 55 73 56 53 57 72 58 54 59 57 60 71 61 90 62 55 63 56 64
REMARK SMILES IDX 70 66 91 67 58 68 42 69 43 70 51 71 44 72 45 73 49 74 52 75
REMARK SMILES IDX 46 76 47 77 50 78 48 79 74 80 75 81 83 82 76 83 77 84 81 85
REMARK SMILES IDX 84 86 78 87 79 88 82 89 80 90 59 91 60 92 68 93 61 94 62 95
REMARK SMILES IDX 66 96 69 97 63 98 64 99 67 100 65 101
REMARK H PARENT 98 27 89 54 57 65
REMARK Flexibility Score: inf
ROOT
ATOM      1  C   UNL A   1      40.499  31.404  42.493  1.00  0.00     0.188 C 
ENDROOT
BRANCH   1   2
ATOM      2  C   UNL A   1      39.249  30.542  42.761  1.00  0.00     0.188 C 
BRANCH   2   3
ATOM      3  O   UNL A   1      38.431  30.370  41.617  1.00  0.00    -0.376 OA
BRANCH   3   4
ATOM      4  C   UNL A   1      37.167  31.002  41.562  1.00  0.00     0.202 C 
BRANCH   4   5
ATOM      5  C   UNL A   1      36.479  31.229  40.206  1.00  0.00     0.261 C 
BRANCH   5   6
ATOM      6  O   UNL A   1      37.299  31.086  39.041  1.00  0.00    -0.460 OA
BRANCH   6   7
ATOM      7  C   UNL A   1      37.748  32.226  38.479  1.00  0.00     0.330 C 
ATOM      8  O   UNL A   1      37.791  33.323  39.014  1.00  0.00    -0.247 OA
BRANCH   7   9
ATOM      9  C   UNL A   1      38.330  31.974  37.143  1.00  0.00     0.094 C 
ATOM     10  C   UNL A   1      37.781  32.330  35.968  1.00  0.00     0.015 C 
BRANCH  10  11
ATOM     11  C   UNL A   1      38.431  32.056  34.674  1.00  0.00    -0.025 A 
ATOM     12  C   UNL A   1      39.450  31.464  32.133  1.00  0.00     0.089 A 
ATOM     13  C   UNL A   1      39.277  32.795  32.517  1.00  0.00     0.023 A 
ATOM     14  C   UNL A   1      39.201  30.426  33.033  1.00  0.00     0.023 A 
ATOM     15  C   UNL A   1      38.781  33.087  33.789  1.00  0.00     0.009 A 
ATOM     16  C   UNL A   1      38.698  30.729  34.305  1.00  0.00     0.009 A 
BRANCH  12  17
ATOM     17  S   UNL A   1      39.936  31.147  30.445  1.00  0.00     0.285 S 
ATOM     18  O   UNL A   1      41.009  30.176  30.533  1.00  0.00    -0.199 OA
ATOM     19  O   UNL A   1      40.150  32.463  29.874  1.00  0.00    -0.199 OA
BRANCH  17  20
ATOM     20  N   UNL A   1      38.650  30.460  29.750  1.00  0.00    -0.130 NA
ATOM     21  C   UNL A   1      34.385  31.179  27.563  1.00  0.00     0.065 C 
ATOM     22  C   UNL A   1      35.632  31.619  28.250  1.00  0.00     0.024 A 
ATOM     23  C   UNL A   1      35.987  32.890  28.501  1.00  0.00     0.089 A 
ATOM     24  N   UNL A   1      36.560  30.697  28.694  1.00  0.00    -0.334 N 
ATOM     25  S   UNL A   1      37.533  32.970  29.317  1.00  0.00    -0.104 S 
ATOM     26  C   UNL A   1      37.690  31.191  29.301  1.00  0.00     0.199 A 
ATOM     27  H   UNL A   1      36.419  29.729  28.579  1.00  0.00     0.169 HD
ENDBRANCH  17  20
ENDBRANCH  12  17
ENDBRANCH  10  11
ENDBRANCH   7   9
ENDBRANCH   6   7
ENDBRANCH   5   6
ENDBRANCH   4   5
ENDBRANCH   3   4
ENDBRANCH   2   3
ENDBRANCH   1   2
BRANCH   1  28
ATOM     28  O   UNL A   1      40.308  32.790  42.247  1.00  0.00    -0.377 OA
BRANCH  28  29
ATOM     29  C   UNL A   1      39.427  33.547  43.076  1.00  0.00     0.188 C 
BRANCH  29  30
ATOM     30  C   UNL A   1      39.563  35.078  43.271  1.00  0.00     0.188 C 
BRANCH  30  31
ATOM     31  O   UNL A   1      38.536  35.849  42.672  1.00  0.00    -0.376 OA
BRANCH  31  32
ATOM     32  C   UNL A   1      38.526  35.948  41.260  1.00  0.00     0.202 C 
BRANCH  32  33
ATOM     33  C   UNL A   1      39.615  36.823  40.627  1.00  0.00     0.261 C 
BRANCH  33  34
ATOM     34  O   UNL A   1      40.623  36.128  39.874  1.00  0.00    -0.460 OA
BRANCH  34  35
ATOM     35  C   UNL A   1      41.226  36.804  38.874  1.00  0.00     0.338 C 
ATOM     36  O   UNL A   1      41.608  37.964  38.887  1.00  0.00    -0.246 OA
BRANCH  35  37
ATOM     37  C   UNL A   1      41.515  35.838  37.795  1.00  0.00     0.060 A 
ATOM     38  C   UNL A   1      42.840  35.435  37.573  1.00  0.00     0.016 A 
ATOM     39  C   UNL A   1      40.478  35.323  37.016  1.00  0.00     0.016 A 
ATOM     40  C   UNL A   1      43.131  34.534  36.547  1.00  0.00     0.010 A 
ATOM     41  C   UNL A   1      40.774  34.437  35.978  1.00  0.00     0.010 A 
ATOM     42  C   UNL A   1      42.104  34.062  35.719  1.00  0.00    -0.014 A 
BRANCH  42  43
ATOM     43  C   UNL A   1      42.434  33.324  34.474  1.00  0.00     0.031 A 
ATOM     44  C   UNL A   1      42.586  31.830  34.546  1.00  0.00     0.074 A 
ATOM     45  C   UNL A   1      42.589  33.962  33.301  1.00  0.00     0.049 A 
ATOM     46  N   UNL A   1      42.932  30.979  33.614  1.00  0.00    -0.248 NA
ATOM     47  C   UNL A   1      42.315  31.214  35.855  1.00  0.00     0.031 C 
ATOM     48  C   UNL A   1      42.431  35.399  33.095  1.00  0.00     0.029 A 
ATOM     49  N   UNL A   1      42.929  33.476  32.063  1.00  0.00    -0.354 N 
ATOM     50  C   UNL A   1      42.926  29.732  34.224  1.00  0.00     0.074 A 
ATOM     51  C   UNL A   1      42.581  29.940  35.614  1.00  0.00     0.031 C 
ATOM     52  C   UNL A   1      42.690  35.683  31.806  1.00  0.00     0.029 A 
ATOM     53  C   UNL A   1      43.068  34.453  31.109  1.00  0.00     0.049 A 
ATOM     54  H   UNL A   1      43.061  32.518  31.876  1.00  0.00     0.167 HD
ATOM     55  C   UNL A   1      43.177  28.521  33.672  1.00  0.00     0.037 A 
ATOM     56  C   UNL A   1      43.480  34.366  29.829  1.00  0.00     0.037 A 
ATOM     57  C   UNL A   1      43.531  28.320  32.292  1.00  0.00     0.049 A 
ATOM     58  C   UNL A   1      43.837  33.016  29.256  1.00  0.00     0.074 A 
ATOM     59  C   UNL A   1      43.790  27.132  31.630  1.00  0.00     0.029 A 
ATOM     60  N   UNL A   1      43.694  29.338  31.362  1.00  0.00    -0.354 N 
ATOM     61  N   UNL A   1      43.802  31.837  29.828  1.00  0.00    -0.248 NA
ATOM     62  C   UNL A   1      44.286  32.988  27.857  1.00  0.00     0.031 C 
ATOM     63  C   UNL A   1      44.174  27.437  30.319  1.00  0.00     0.029 A 
ATOM     64  C   UNL A   1      44.082  28.808  30.141  1.00  0.00     0.049 A 
ATOM     65  H   UNL A   1      43.553  30.295  31.543  1.00  0.00     0.167 HD
ATOM     66  C   UNL A   1      44.196  30.926  28.855  1.00  0.00     0.074 A 
ATOM     67  C   UNL A   1      44.450  31.689  27.651  1.00  0.00     0.031 C 
ATOM     68  C   UNL A   1      44.332  29.579  28.948  1.00  0.00     0.037 A 
BRANCH  55  69
ATOM     69  C   UNL A   1      43.111  27.324  34.578  1.00  0.00     0.064 A 
ATOM     70  C   UNL A   1      44.240  26.849  35.264  1.00  0.00     0.173 A 
ATOM     71  C   UNL A   1      41.897  26.647  34.772  1.00  0.00     0.173 A 
ATOM     72  F   UNL A   1      45.430  27.450  35.104  1.00  0.00    -0.203 F 
ATOM     73  C   UNL A   1      44.165  25.719  36.075  1.00  0.00     0.198 A 
ATOM     74  C   UNL A   1      41.817  25.541  35.613  1.00  0.00     0.198 A 
ATOM     75  F   UNL A   1      40.785  27.059  34.146  1.00  0.00    -0.203 F 
ATOM     76  F   UNL A   1      45.271  25.247  36.669  1.00  0.00    -0.200 F 
ATOM     77  C   UNL A   1      42.953  25.070  36.255  1.00  0.00     0.200 A 
ATOM     78  F   UNL A   1      40.641  24.924  35.797  1.00  0.00    -0.200 F 
ATOM     79  F   UNL A   1      42.882  23.986  37.038  1.00  0.00    -0.200 F 
ENDBRANCH  55  69
BRANCH  56  80
ATOM     80  C   UNL A   1      43.597  35.598  29.003  1.00  0.00     0.064 A 
ATOM     81  C   UNL A   1      44.815  36.283  28.889  1.00  0.00     0.173 A 
ATOM     82  C   UNL A   1      42.489  36.121  28.320  1.00  0.00     0.173 A 
ATOM     83  F   UNL A   1      45.896  35.839  29.545  1.00  0.00    -0.203 F 
ATOM     84  C   UNL A   1      44.916  37.451  28.134  1.00  0.00     0.198 A 
ATOM     85  C   UNL A   1      42.599  37.270  27.541  1.00  0.00     0.198 A 
ATOM     86  F   UNL A   1      41.299  35.508  28.400  1.00  0.00    -0.203 F 
ATOM     87  F   UNL A   1      46.080  38.110  28.079  1.00  0.00    -0.200 F 
ATOM     88  C   UNL A   1      43.810  37.939  27.454  1.00  0.00     0.200 A 
ATOM     89  F   UNL A   1      41.531  37.730  26.875  1.00  0.00    -0.200 F 
ATOM     90  F   UNL A   1      43.910  39.056  26.723  1.00  0.00    -0.200 F 
ENDBRANCH  56  80
BRANCH  68  91
ATOM     91  C   UNL A   1      44.742  28.834  27.708  1.00  0.00     0.064 A 
ATOM     92  C   UNL A   1      43.798  28.308  26.813  1.00  0.00     0.173 A 
ATOM     93  C   UNL A   1      46.100  28.680  27.390  1.00  0.00     0.173 A 
ATOM     94  F   UNL A   1      42.486  28.416  27.074  1.00  0.00    -0.203 F 
ATOM     95  C   UNL A   1      44.199  27.631  25.664  1.00  0.00     0.198 A 
ATOM     96  C   UNL A   1      46.497  28.035  26.222  1.00  0.00     0.198 A 
ATOM     97  F   UNL A   1      47.047  29.170  28.206  1.00  0.00    -0.203 F 
ATOM     98  F   UNL A   1      43.280  27.090  24.851  1.00  0.00    -0.200 F 
ATOM     99  C   UNL A   1      45.547  27.502  25.365  1.00  0.00     0.200 A 
ATOM    100  F   UNL A   1      47.800  27.928  25.926  1.00  0.00    -0.200 F 
ATOM    101  F   UNL A   1      45.931  26.859  24.253  1.00  0.00    -0.200 F 
ENDBRANCH  68  91
ENDBRANCH  42  43
ENDBRANCH  35  37
ENDBRANCH  34  35
ENDBRANCH  33  34
ENDBRANCH  32  33
ENDBRANCH  31  32
ENDBRANCH  30  31
ENDBRANCH  29  30
ENDBRANCH  28  29
ENDBRANCH   1  28
TORSDOF 23
ENDMDL
