MODEL 1
REMARK VINA RESULT:      -8.9      0.000      0.000
REMARK SMILES NS(=O)(=O)c1ccc(-n2nc(C(=O)NCCCC(=O)OCCOCCOCCOCCOC(=O)c3ccc(-c4c5nc(c(-c6c(F)c(F)c(F)c(F)c6F)c6ccc([nH]6)c(-c6c(F)c(F)c(F)c(F)c6F)c6nc(c(-c7c(F)c(F)c(F)c(F)c7F)c7ccc4[nH]7)C=C6)C=C5)cc3)cc2-c2ccccc2)cc1
REMARK SMILES IDX 24 1 23 2 22 3 21 4 20 5 18 6 19 7 17 8 16 9 15 10 14 11
REMARK SMILES IDX 12 12 13 13 11 15 9 16 10 17 99 18 98 19 8 20 5 21 6 22
REMARK SMILES IDX 107 23 7 24 106 25 2 26 3 27 4 28 1 29 100 32 101 33 105 34
REMARK SMILES IDX 102 35 104 36 103 37 25 38 26 39 27 40 28 41 29 42 30 43
REMARK SMILES IDX 31 44 32 45 33 46 34 47 35 48 36 49 97 50 37 51 96 52 38 53
REMARK SMILES IDX 39 54 40 55 90 56 41 57 95 58 89 59 91 60 42 61 94 62 88 63
REMARK SMILES IDX 87 64 43 66 75 67 55 68 74 69 56 70 59 71 73 72 92 73 57 74
REMARK SMILES IDX 58 75 72 77 93 78 60 79 44 80 45 81 53 82 46 83 47 84 51 85
REMARK SMILES IDX 54 86 48 87 49 88 52 89 50 90 76 91 77 92 85 93 78 94 79 95
REMARK SMILES IDX 83 96 86 97 80 98 81 99 84 100 82 101 61 102 62 103 70 104
REMARK SMILES IDX 63 105 64 106 68 107 71 108 65 109 66 110 69 111 67 112
REMARK H PARENT 14 14 1 30 1 31 91 65 59 76
REMARK Flexibility Score: inf
ROOT
ATOM      1  C   UNL A   1      44.358  25.553  25.905  1.00  0.00     0.188 C 
ENDROOT
BRANCH   1   2
ATOM      2  O   UNL A   1      43.344  26.171  26.690  1.00  0.00    -0.376 OA
BRANCH   2   3
ATOM      3  C   UNL A   1      43.487  27.527  27.083  1.00  0.00     0.202 C 
BRANCH   3   4
ATOM      4  C   UNL A   1      42.862  27.989  28.403  1.00  0.00     0.261 C 
BRANCH   4   5
ATOM      5  O   UNL A   1      41.829  27.131  28.926  1.00  0.00    -0.463 OA
BRANCH   5   6
ATOM      6  C   UNL A   1      40.575  27.640  28.926  1.00  0.00     0.305 C 
ATOM      7  O   UNL A   1      40.203  28.571  29.632  1.00  0.00    -0.252 OA
BRANCH   6   8
ATOM      8  C   UNL A   1      39.605  26.930  28.000  1.00  0.00     0.124 C 
BRANCH   8   9
ATOM      9  C   UNL A   1      39.987  25.664  27.234  1.00  0.00     0.033 C 
BRANCH   9  10
ATOM     10  C   UNL A   1      38.940  24.555  27.110  1.00  0.00     0.117 C 
BRANCH  10  11
ATOM     11  N   UNL A   1      39.509  23.312  26.645  1.00  0.00    -0.351 N 
ATOM     12  C   UNL A   1      38.991  22.187  26.045  1.00  0.00     0.271 C 
ATOM     13  O   UNL A   1      39.818  21.291  25.847  1.00  0.00    -0.267 OA
ATOM     14  H   UNL A   1      40.481  23.257  26.788  1.00  0.00     0.163 HD
BRANCH  12  15
ATOM     15  C   UNL A   1      37.573  22.035  25.632  1.00  0.00     0.151 A 
ATOM     16  N   UNL A   1      35.579  22.742  25.254  1.00  0.00    -0.232 N 
ATOM     17  N   UNL A   1      36.856  23.151  25.362  1.00  0.00    -0.162 NA
ATOM     18  C   UNL A   1      35.495  21.373  25.089  1.00  0.00     0.075 A 
ATOM     19  C   UNL A   1      36.736  20.895  25.460  1.00  0.00     0.065 A 
BRANCH  16  20
ATOM     20  C   UNL A   1      34.498  23.655  25.339  1.00  0.00     0.065 A 
ATOM     21  C   UNL A   1      32.514  25.581  25.601  1.00  0.00     0.082 A 
ATOM     22  C   UNL A   1      33.406  25.662  24.532  1.00  0.00     0.024 A 
ATOM     23  C   UNL A   1      32.579  24.520  26.514  1.00  0.00     0.024 A 
ATOM     24  C   UNL A   1      34.403  24.702  24.407  1.00  0.00     0.030 A 
ATOM     25  C   UNL A   1      33.557  23.531  26.364  1.00  0.00     0.030 A 
BRANCH  21  26
ATOM     26  S   UNL A   1      31.328  26.868  25.836  1.00  0.00     0.238 S 
ATOM     27  O   UNL A   1      31.582  27.925  24.889  1.00  0.00    -0.207 OA
ATOM     28  O   UNL A   1      31.171  27.096  27.254  1.00  0.00    -0.207 OA
BRANCH  26  29
ATOM     29  N   UNL A   1      29.885  26.163  25.321  1.00  0.00    -0.225 NA
ATOM     30  H   UNL A   1      29.098  26.734  25.629  1.00  0.00     0.137 HD
ATOM     31  H   UNL A   1      29.802  25.227  25.720  1.00  0.00     0.137 HD
ENDBRANCH  26  29
ENDBRANCH  21  26
ENDBRANCH  16  20
BRANCH  18  32
ATOM     32  C   UNL A   1      34.303  20.690  24.600  1.00  0.00     0.000 A 
ATOM     33  C   UNL A   1      34.030  19.375  25.001  1.00  0.00     0.010 A 
ATOM     34  C   UNL A   1      33.484  21.297  23.651  1.00  0.00     0.010 A 
ATOM     35  C   UNL A   1      32.951  18.678  24.457  1.00  0.00     0.001 A 
ATOM     36  C   UNL A   1      32.421  20.588  23.090  1.00  0.00     0.001 A 
ATOM     37  C   UNL A   1      32.147  19.290  23.504  1.00  0.00     0.000 A 
ENDBRANCH  18  32
ENDBRANCH  12  15
ENDBRANCH  10  11
ENDBRANCH   9  10
ENDBRANCH   8   9
ENDBRANCH   6   8
ENDBRANCH   5   6
ENDBRANCH   4   5
ENDBRANCH   3   4
ENDBRANCH   2   3
ENDBRANCH   1   2
BRANCH   1  38
ATOM     38  C   UNL A   1      45.814  26.058  25.958  1.00  0.00     0.188 C 
BRANCH  38  39
ATOM     39  O   UNL A   1      46.667  25.405  26.882  1.00  0.00    -0.377 OA
BRANCH  39  40
ATOM     40  C   UNL A   1      46.083  24.272  27.521  1.00  0.00     0.188 C 
BRANCH  40  41
ATOM     41  C   UNL A   1      45.583  24.465  28.968  1.00  0.00     0.188 C 
BRANCH  41  42
ATOM     42  O   UNL A   1      45.925  25.735  29.525  1.00  0.00    -0.376 OA
BRANCH  42  43
ATOM     43  C   UNL A   1      46.989  25.792  30.466  1.00  0.00     0.202 C 
BRANCH  43  44
ATOM     44  C   UNL A   1      46.531  26.124  31.885  1.00  0.00     0.261 C 
BRANCH  44  45
ATOM     45  O   UNL A   1      45.182  25.749  32.151  1.00  0.00    -0.460 OA
BRANCH  45  46
ATOM     46  C   UNL A   1      44.726  25.970  33.401  1.00  0.00     0.338 C 
ATOM     47  O   UNL A   1      45.230  25.608  34.447  1.00  0.00    -0.246 OA
BRANCH  46  48
ATOM     48  C   UNL A   1      43.414  26.624  33.303  1.00  0.00     0.060 A 
ATOM     49  C   UNL A   1      43.234  27.503  32.234  1.00  0.00     0.016 A 
ATOM     50  C   UNL A   1      42.516  26.583  34.374  1.00  0.00     0.016 A 
ATOM     51  C   UNL A   1      42.334  28.537  32.382  1.00  0.00     0.010 A 
ATOM     52  C   UNL A   1      41.606  27.602  34.500  1.00  0.00     0.010 A 
ATOM     53  C   UNL A   1      41.622  28.636  33.577  1.00  0.00    -0.014 A 
BRANCH  53  54
ATOM     54  C   UNL A   1      40.973  29.886  33.899  1.00  0.00     0.031 A 
ATOM     55  C   UNL A   1      39.910  30.321  32.985  1.00  0.00     0.074 A 
ATOM     56  C   UNL A   1      41.255  30.601  35.004  1.00  0.00     0.049 A 
ATOM     57  N   UNL A   1      39.991  31.255  32.101  1.00  0.00    -0.248 NA
ATOM     58  C   UNL A   1      38.635  29.598  33.006  1.00  0.00     0.031 C 
ATOM     59  C   UNL A   1      42.005  30.202  36.196  1.00  0.00     0.029 A 
ATOM     60  N   UNL A   1      40.840  31.864  35.300  1.00  0.00    -0.354 N 
ATOM     61  C   UNL A   1      38.728  31.352  31.544  1.00  0.00     0.074 A 
ATOM     62  C   UNL A   1      37.968  30.229  32.039  1.00  0.00     0.031 C 
ATOM     63  C   UNL A   1      41.854  31.150  37.153  1.00  0.00     0.029 A 
ATOM     64  C   UNL A   1      41.126  32.277  36.590  1.00  0.00     0.049 A 
ATOM     65  H   UNL A   1      40.374  32.437  34.649  1.00  0.00     0.167 HD
ATOM     66  C   UNL A   1      38.337  32.465  30.871  1.00  0.00     0.037 A 
ATOM     67  C   UNL A   1      40.755  33.456  37.150  1.00  0.00     0.037 A 
ATOM     68  C   UNL A   1      39.445  33.324  30.547  1.00  0.00     0.049 A 
ATOM     69  C   UNL A   1      40.473  34.408  36.045  1.00  0.00     0.074 A 
ATOM     70  C   UNL A   1      40.602  33.176  29.806  1.00  0.00     0.029 A 
ATOM     71  N   UNL A   1      39.639  34.447  31.313  1.00  0.00    -0.354 N 
ATOM     72  N   UNL A   1      41.386  34.921  35.268  1.00  0.00    -0.248 NA
ATOM     73  C   UNL A   1      39.107  34.513  35.552  1.00  0.00     0.031 C 
ATOM     74  C   UNL A   1      41.593  33.933  30.499  1.00  0.00     0.029 A 
ATOM     75  C   UNL A   1      40.978  34.511  31.609  1.00  0.00     0.049 A 
ATOM     76  H   UNL A   1      38.947  35.086  31.598  1.00  0.00     0.167 HD
ATOM     77  C   UNL A   1      40.775  35.035  34.029  1.00  0.00     0.074 A 
ATOM     78  C   UNL A   1      39.349  34.891  34.294  1.00  0.00     0.031 C 
ATOM     79  C   UNL A   1      41.503  34.958  32.878  1.00  0.00     0.037 A 
BRANCH  66  80
ATOM     80  C   UNL A   1      36.913  32.917  30.778  1.00  0.00     0.064 A 
ATOM     81  C   UNL A   1      36.364  33.233  29.525  1.00  0.00     0.173 A 
ATOM     82  C   UNL A   1      36.154  33.292  31.905  1.00  0.00     0.173 A 
ATOM     83  F   UNL A   1      37.036  32.959  28.397  1.00  0.00    -0.203 F 
ATOM     84  C   UNL A   1      35.146  33.906  29.411  1.00  0.00     0.198 A 
ATOM     85  C   UNL A   1      34.913  33.911  31.788  1.00  0.00     0.198 A 
ATOM     86  F   UNL A   1      36.634  33.169  33.151  1.00  0.00    -0.203 F 
ATOM     87  F   UNL A   1      34.705  34.283  28.203  1.00  0.00    -0.200 F 
ATOM     88  C   UNL A   1      34.420  34.240  30.542  1.00  0.00     0.200 A 
ATOM     89  F   UNL A   1      34.238  34.252  32.895  1.00  0.00    -0.200 F 
ATOM     90  F   UNL A   1      33.273  34.924  30.435  1.00  0.00    -0.200 F 
ENDBRANCH  66  80
BRANCH  67  91
ATOM     91  C   UNL A   1      40.424  33.765  38.558  1.00  0.00     0.064 A 
ATOM     92  C   UNL A   1      39.201  33.375  39.128  1.00  0.00     0.173 A 
ATOM     93  C   UNL A   1      41.417  34.197  39.455  1.00  0.00     0.173 A 
ATOM     94  F   UNL A   1      38.211  32.913  38.351  1.00  0.00    -0.203 F 
ATOM     95  C   UNL A   1      39.003  33.383  40.513  1.00  0.00     0.198 A 
ATOM     96  C   UNL A   1      41.220  34.209  40.835  1.00  0.00     0.198 A 
ATOM     97  F   UNL A   1      42.635  34.525  39.012  1.00  0.00    -0.203 F 
ATOM     98  F   UNL A   1      37.845  32.940  41.024  1.00  0.00    -0.200 F 
ATOM     99  C   UNL A   1      40.017  33.787  41.365  1.00  0.00     0.200 A 
ATOM    100  F   UNL A   1      42.225  34.568  41.644  1.00  0.00    -0.200 F 
ATOM    101  F   UNL A   1      39.852  33.729  42.694  1.00  0.00    -0.200 F 
ENDBRANCH  67  91
BRANCH  79 102
ATOM    102  C   UNL A   1      42.996  35.078  32.998  1.00  0.00     0.064 A 
ATOM    103  C   UNL A   1      43.681  36.306  33.019  1.00  0.00     0.173 A 
ATOM    104  C   UNL A   1      43.748  33.915  33.216  1.00  0.00     0.173 A 
ATOM    105  F   UNL A   1      43.017  37.466  32.925  1.00  0.00    -0.203 F 
ATOM    106  C   UNL A   1      45.062  36.358  33.193  1.00  0.00     0.198 A 
ATOM    107  C   UNL A   1      45.122  33.974  33.427  1.00  0.00     0.198 A 
ATOM    108  F   UNL A   1      43.137  32.721  33.264  1.00  0.00    -0.203 F 
ATOM    109  F   UNL A   1      45.695  37.541  33.189  1.00  0.00    -0.200 F 
ATOM    110  C   UNL A   1      45.781  35.192  33.403  1.00  0.00     0.200 A 
ATOM    111  F   UNL A   1      45.806  32.849  33.679  1.00  0.00    -0.200 F 
ATOM    112  F   UNL A   1      47.104  35.246  33.607  1.00  0.00    -0.200 F 
ENDBRANCH  79 102
ENDBRANCH  53  54
ENDBRANCH  46  48
ENDBRANCH  45  46
ENDBRANCH  44  45
ENDBRANCH  43  44
ENDBRANCH  42  43
ENDBRANCH  41  42
ENDBRANCH  40  41
ENDBRANCH  39  40
ENDBRANCH  38  39
ENDBRANCH   1  38
TORSDOF 28
ENDMDL
MODEL 2
REMARK VINA RESULT:      -8.4      3.622      7.062
REMARK SMILES NS(=O)(=O)c1ccc(-n2nc(C(=O)NCCCC(=O)OCCOCCOCCOCCOC(=O)c3ccc(-c4c5nc(c(-c6c(F)c(F)c(F)c(F)c6F)c6ccc([nH]6)c(-c6c(F)c(F)c(F)c(F)c6F)c6nc(c(-c7c(F)c(F)c(F)c(F)c7F)c7ccc4[nH]7)C=C6)C=C5)cc3)cc2-c2ccccc2)cc1
REMARK SMILES IDX 24 1 23 2 22 3 21 4 20 5 18 6 19 7 17 8 16 9 15 10 14 11
REMARK SMILES IDX 12 12 13 13 11 15 9 16 10 17 99 18 98 19 8 20 5 21 6 22
REMARK SMILES IDX 107 23 7 24 106 25 2 26 3 27 4 28 1 29 100 32 101 33 105 34
REMARK SMILES IDX 102 35 104 36 103 37 25 38 26 39 27 40 28 41 29 42 30 43
REMARK SMILES IDX 31 44 32 45 33 46 34 47 35 48 36 49 97 50 37 51 96 52 38 53
REMARK SMILES IDX 39 54 40 55 90 56 41 57 95 58 89 59 91 60 42 61 94 62 88 63
REMARK SMILES IDX 87 64 43 66 75 67 55 68 74 69 56 70 59 71 73 72 92 73 57 74
REMARK SMILES IDX 58 75 72 77 93 78 60 79 44 80 45 81 53 82 46 83 47 84 51 85
REMARK SMILES IDX 54 86 48 87 49 88 52 89 50 90 76 91 77 92 85 93 78 94 79 95
REMARK SMILES IDX 83 96 86 97 80 98 81 99 84 100 82 101 61 102 62 103 70 104
REMARK SMILES IDX 63 105 64 106 68 107 71 108 65 109 66 110 69 111 67 112
REMARK H PARENT 14 14 1 30 1 31 91 65 59 76
REMARK Flexibility Score: inf
ROOT
ATOM      1  C   UNL A   1      40.093  27.411  27.242  1.00  0.00     0.188 C 
ENDROOT
BRANCH   1   2
ATOM      2  O   UNL A   1      41.344  27.499  26.568  1.00  0.00    -0.376 OA
BRANCH   2   3
ATOM      3  C   UNL A   1      42.336  26.510  26.795  1.00  0.00     0.202 C 
BRANCH   3   4
ATOM      4  C   UNL A   1      42.587  25.447  25.720  1.00  0.00     0.261 C 
BRANCH   4   5
ATOM      5  O   UNL A   1      41.893  24.200  25.917  1.00  0.00    -0.463 OA
BRANCH   5   6
ATOM      6  C   UNL A   1      42.669  23.100  26.056  1.00  0.00     0.305 C 
ATOM      7  O   UNL A   1      43.814  23.000  25.626  1.00  0.00    -0.252 OA
BRANCH   6   8
ATOM      8  C   UNL A   1      41.997  21.937  26.761  1.00  0.00     0.124 C 
BRANCH   8   9
ATOM      9  C   UNL A   1      41.024  21.002  26.045  1.00  0.00     0.033 C 
BRANCH   9  10
ATOM     10  C   UNL A   1      39.528  21.300  26.155  1.00  0.00     0.117 C 
BRANCH  10  11
ATOM     11  N   UNL A   1      39.267  22.653  26.587  1.00  0.00    -0.351 N 
ATOM     12  C   UNL A   1      38.203  23.514  26.450  1.00  0.00     0.271 C 
ATOM     13  O   UNL A   1      38.394  24.638  26.926  1.00  0.00    -0.267 OA
ATOM     14  H   UNL A   1      40.016  23.046  27.090  1.00  0.00     0.163 HD
BRANCH  12  15
ATOM     15  C   UNL A   1      36.909  23.154  25.816  1.00  0.00     0.151 A 
ATOM     16  N   UNL A   1      35.017  23.589  24.895  1.00  0.00    -0.232 N 
ATOM     17  N   UNL A   1      36.228  24.115  25.150  1.00  0.00    -0.162 NA
ATOM     18  C   UNL A   1      35.017  22.215  25.051  1.00  0.00     0.075 A 
ATOM     19  C   UNL A   1      36.167  21.939  25.763  1.00  0.00     0.065 A 
BRANCH  16  20
ATOM     20  C   UNL A   1      33.912  24.403  24.543  1.00  0.00     0.065 A 
ATOM     21  C   UNL A   1      31.874  26.171  23.884  1.00  0.00     0.082 A 
ATOM     22  C   UNL A   1      32.806  25.812  22.911  1.00  0.00     0.024 A 
ATOM     23  C   UNL A   1      31.927  25.619  25.171  1.00  0.00     0.024 A 
ATOM     24  C   UNL A   1      33.830  24.933  23.245  1.00  0.00     0.030 A 
ATOM     25  C   UNL A   1      32.933  24.703  25.495  1.00  0.00     0.030 A 
BRANCH  21  26
ATOM     26  S   UNL A   1      30.649  27.384  23.500  1.00  0.00     0.238 S 
ATOM     27  O   UNL A   1      30.987  28.623  24.156  1.00  0.00    -0.207 OA
ATOM     28  O   UNL A   1      29.346  26.767  23.596  1.00  0.00    -0.207 OA
BRANCH  26  29
ATOM     29  N   UNL A   1      30.898  27.680  21.859  1.00  0.00    -0.225 NA
ATOM     30  H   UNL A   1      30.228  28.377  21.533  1.00  0.00     0.137 HD
ATOM     31  H   UNL A   1      30.770  26.814  21.334  1.00  0.00     0.137 HD
ENDBRANCH  26  29
ENDBRANCH  21  26
ENDBRANCH  16  20
BRANCH  18  32
ATOM     32  C   UNL A   1      33.978  21.343  24.516  1.00  0.00     0.000 A 
ATOM     33  C   UNL A   1      33.872  20.018  24.963  1.00  0.00     0.010 A 
ATOM     34  C   UNL A   1      33.152  21.782  23.484  1.00  0.00     0.010 A 
ATOM     35  C   UNL A   1      32.951  19.145  24.382  1.00  0.00     0.001 A 
ATOM     36  C   UNL A   1      32.251  20.900  22.888  1.00  0.00     0.001 A 
ATOM     37  C   UNL A   1      32.140  19.592  23.347  1.00  0.00     0.000 A 
ENDBRANCH  18  32
ENDBRANCH  12  15
ENDBRANCH  10  11
ENDBRANCH   9  10
ENDBRANCH   8   9
ENDBRANCH   6   8
ENDBRANCH   5   6
ENDBRANCH   4   5
ENDBRANCH   3   4
ENDBRANCH   2   3
ENDBRANCH   1   2
BRANCH   1  38
ATOM     38  C   UNL A   1      39.809  28.268  28.492  1.00  0.00     0.188 C 
BRANCH  38  39
ATOM     39  O   UNL A   1      38.661  29.096  28.432  1.00  0.00    -0.377 OA
BRANCH  39  40
ATOM     40  C   UNL A   1      38.869  30.425  28.901  1.00  0.00     0.188 C 
BRANCH  40  41
ATOM     41  C   UNL A   1      37.672  31.396  28.807  1.00  0.00     0.188 C 
BRANCH  41  42
ATOM     42  O   UNL A   1      36.404  30.739  28.810  1.00  0.00    -0.376 OA
BRANCH  42  43
ATOM     43  C   UNL A   1      35.241  31.523  28.575  1.00  0.00     0.202 C 
BRANCH  43  44
ATOM     44  C   UNL A   1      34.818  32.362  29.779  1.00  0.00     0.261 C 
BRANCH  44  45
ATOM     45  O   UNL A   1      34.992  31.697  31.027  1.00  0.00    -0.460 OA
BRANCH  45  46
ATOM     46  C   UNL A   1      35.277  32.472  32.094  1.00  0.00     0.338 C 
ATOM     47  O   UNL A   1      34.787  33.548  32.378  1.00  0.00    -0.246 OA
BRANCH  46  48
ATOM     48  C   UNL A   1      36.401  31.862  32.818  1.00  0.00     0.060 A 
ATOM     49  C   UNL A   1      36.965  32.620  33.845  1.00  0.00     0.016 A 
ATOM     50  C   UNL A   1      37.039  30.724  32.313  1.00  0.00     0.016 A 
ATOM     51  C   UNL A   1      38.293  32.415  34.156  1.00  0.00     0.010 A 
ATOM     52  C   UNL A   1      38.352  30.513  32.649  1.00  0.00     0.010 A 
ATOM     53  C   UNL A   1      38.998  31.438  33.454  1.00  0.00    -0.014 A 
BRANCH  53  54
ATOM     54  C   UNL A   1      40.442  31.460  33.493  1.00  0.00     0.031 A 
ATOM     55  C   UNL A   1      41.124  31.710  32.217  1.00  0.00     0.074 A 
ATOM     56  C   UNL A   1      41.152  31.333  34.630  1.00  0.00     0.049 A 
ATOM     57  N   UNL A   1      41.733  30.839  31.488  1.00  0.00    -0.248 NA
ATOM     58  C   UNL A   1      41.071  33.061  31.652  1.00  0.00     0.031 C 
ATOM     59  C   UNL A   1      40.695  31.420  36.018  1.00  0.00     0.029 A 
ATOM     60  N   UNL A   1      42.498  31.157  34.750  1.00  0.00    -0.354 N 
ATOM     61  C   UNL A   1      42.278  31.551  30.434  1.00  0.00     0.074 A 
ATOM     62  C   UNL A   1      41.735  32.885  30.509  1.00  0.00     0.031 C 
ATOM     63  C   UNL A   1      41.774  31.456  36.838  1.00  0.00     0.029 A 
ATOM     64  C   UNL A   1      42.977  31.247  36.045  1.00  0.00     0.049 A 
ATOM     65  H   UNL A   1      43.082  30.980  33.978  1.00  0.00     0.167 HD
ATOM     66  C   UNL A   1      43.296  31.043  29.691  1.00  0.00     0.037 A 
ATOM     67  C   UNL A   1      44.279  31.183  36.419  1.00  0.00     0.037 A 
ATOM     68  C   UNL A   1      43.485  29.634  29.915  1.00  0.00     0.049 A 
ATOM     69  C   UNL A   1      45.024  30.498  35.332  1.00  0.00     0.074 A 
ATOM     70  C   UNL A   1      42.694  28.513  29.757  1.00  0.00     0.029 A 
ATOM     71  N   UNL A   1      44.524  29.241  30.722  1.00  0.00    -0.354 N 
ATOM     72  N   UNL A   1      44.913  29.229  35.054  1.00  0.00    -0.248 NA
ATOM     73  C   UNL A   1      45.636  31.311  34.291  1.00  0.00     0.031 C 
ATOM     74  C   UNL A   1      43.041  27.650  30.838  1.00  0.00     0.029 A 
ATOM     75  C   UNL A   1      44.036  28.288  31.580  1.00  0.00     0.049 A 
ATOM     76  H   UNL A   1      45.448  29.580  30.691  1.00  0.00     0.167 HD
ATOM     77  C   UNL A   1      45.049  29.154  33.676  1.00  0.00     0.074 A 
ATOM     78  C   UNL A   1      45.615  30.438  33.280  1.00  0.00     0.031 C 
ATOM     79  C   UNL A   1      44.433  28.167  32.963  1.00  0.00     0.037 A 
BRANCH  66  80
ATOM     80  C   UNL A   1      44.312  31.892  28.993  1.00  0.00     0.064 A 
ATOM     81  C   UNL A   1      45.125  32.759  29.740  1.00  0.00     0.173 A 
ATOM     82  C   UNL A   1      44.334  32.065  27.594  1.00  0.00     0.173 A 
ATOM     83  F   UNL A   1      45.132  32.702  31.080  1.00  0.00    -0.203 F 
ATOM     84  C   UNL A   1      45.888  33.754  29.126  1.00  0.00     0.198 A 
ATOM     85  C   UNL A   1      45.140  33.018  26.980  1.00  0.00     0.198 A 
ATOM     86  F   UNL A   1      43.501  31.393  26.788  1.00  0.00    -0.203 F 
ATOM     87  F   UNL A   1      46.569  34.629  29.878  1.00  0.00    -0.200 F 
ATOM     88  C   UNL A   1      45.899  33.879  27.747  1.00  0.00     0.200 A 
ATOM     89  F   UNL A   1      45.116  33.143  25.645  1.00  0.00    -0.200 F 
ATOM     90  F   UNL A   1      46.597  34.860  27.159  1.00  0.00    -0.200 F 
ENDBRANCH  66  80
BRANCH  67  91
ATOM     91  C   UNL A   1      44.969  31.851  37.545  1.00  0.00     0.064 A 
ATOM     92  C   UNL A   1      45.541  31.117  38.596  1.00  0.00     0.173 A 
ATOM     93  C   UNL A   1      45.330  33.208  37.466  1.00  0.00     0.173 A 
ATOM     94  F   UNL A   1      45.282  29.808  38.724  1.00  0.00    -0.203 F 
ATOM     95  C   UNL A   1      46.448  31.700  39.488  1.00  0.00     0.198 A 
ATOM     96  C   UNL A   1      46.230  33.792  38.356  1.00  0.00     0.198 A 
ATOM     97  F   UNL A   1      44.887  33.971  36.461  1.00  0.00    -0.203 F 
ATOM     98  F   UNL A   1      47.025  30.951  40.439  1.00  0.00    -0.200 F 
ATOM     99  C   UNL A   1      46.801  33.033  39.359  1.00  0.00     0.200 A 
ATOM    100  F   UNL A   1      46.587  35.072  38.192  1.00  0.00    -0.200 F 
ATOM    101  F   UNL A   1      47.721  33.574  40.170  1.00  0.00    -0.200 F 
ENDBRANCH  67  91
BRANCH  79 102
ATOM    102  C   UNL A   1      43.890  26.997  33.733  1.00  0.00     0.064 A 
ATOM    103  C   UNL A   1      42.644  27.002  34.384  1.00  0.00     0.173 A 
ATOM    104  C   UNL A   1      44.604  25.791  33.713  1.00  0.00     0.173 A 
ATOM    105  F   UNL A   1      41.857  28.086  34.355  1.00  0.00    -0.203 F 
ATOM    106  C   UNL A   1      42.165  25.866  35.032  1.00  0.00     0.198 A 
ATOM    107  C   UNL A   1      44.104  24.648  34.329  1.00  0.00     0.198 A 
ATOM    108  F   UNL A   1      45.771  25.713  33.055  1.00  0.00    -0.203 F 
ATOM    109  F   UNL A   1      40.982  25.902  35.664  1.00  0.00    -0.200 F 
ATOM    110  C   UNL A   1      42.893  24.688  34.999  1.00  0.00     0.200 A 
ATOM    111  F   UNL A   1      44.788  23.496  34.252  1.00  0.00    -0.200 F 
ATOM    112  F   UNL A   1      42.413  23.585  35.591  1.00  0.00    -0.200 F 
ENDBRANCH  79 102
ENDBRANCH  53  54
ENDBRANCH  46  48
ENDBRANCH  45  46
ENDBRANCH  44  45
ENDBRANCH  43  44
ENDBRANCH  42  43
ENDBRANCH  41  42
ENDBRANCH  40  41
ENDBRANCH  39  40
ENDBRANCH  38  39
ENDBRANCH   1  38
TORSDOF 28
ENDMDL
MODEL 3
REMARK VINA RESULT:      -8.1      8.355     14.625
REMARK SMILES NS(=O)(=O)c1ccc(-n2nc(C(=O)NCCCC(=O)OCCOCCOCCOCCOC(=O)c3ccc(-c4c5nc(c(-c6c(F)c(F)c(F)c(F)c6F)c6ccc([nH]6)c(-c6c(F)c(F)c(F)c(F)c6F)c6nc(c(-c7c(F)c(F)c(F)c(F)c7F)c7ccc4[nH]7)C=C6)C=C5)cc3)cc2-c2ccccc2)cc1
REMARK SMILES IDX 24 1 23 2 22 3 21 4 20 5 18 6 19 7 17 8 16 9 15 10 14 11
REMARK SMILES IDX 12 12 13 13 11 15 9 16 10 17 99 18 98 19 8 20 5 21 6 22
REMARK SMILES IDX 107 23 7 24 106 25 2 26 3 27 4 28 1 29 100 32 101 33 105 34
REMARK SMILES IDX 102 35 104 36 103 37 25 38 26 39 27 40 28 41 29 42 30 43
REMARK SMILES IDX 31 44 32 45 33 46 34 47 35 48 36 49 97 50 37 51 96 52 38 53
REMARK SMILES IDX 39 54 40 55 90 56 41 57 95 58 89 59 91 60 42 61 94 62 88 63
REMARK SMILES IDX 87 64 43 66 75 67 55 68 74 69 56 70 59 71 73 72 92 73 57 74
REMARK SMILES IDX 58 75 72 77 93 78 60 79 44 80 45 81 53 82 46 83 47 84 51 85
REMARK SMILES IDX 54 86 48 87 49 88 52 89 50 90 76 91 77 92 85 93 78 94 79 95
REMARK SMILES IDX 83 96 86 97 80 98 81 99 84 100 82 101 61 102 62 103 70 104
REMARK SMILES IDX 63 105 64 106 68 107 71 108 65 109 66 110 69 111 67 112
REMARK H PARENT 14 14 1 30 1 31 91 65 59 76
REMARK Flexibility Score: inf
ROOT
ATOM      1  C   UNL A   1      44.808  43.365  29.271  1.00  0.00     0.188 C 
ENDROOT
BRANCH   1   2
ATOM      2  O   UNL A   1      45.758  42.376  28.890  1.00  0.00    -0.376 OA
BRANCH   2   3
ATOM      3  C   UNL A   1      46.777  41.992  29.800  1.00  0.00     0.202 C 
BRANCH   3   4
ATOM      4  C   UNL A   1      48.146  41.576  29.251  1.00  0.00     0.261 C 
BRANCH   4   5
ATOM      5  O   UNL A   1      48.113  40.576  28.215  1.00  0.00    -0.463 OA
BRANCH   5   6
ATOM      6  C   UNL A   1      48.045  39.289  28.629  1.00  0.00     0.305 C 
ATOM      7  O   UNL A   1      49.020  38.588  28.877  1.00  0.00    -0.252 OA
BRANCH   6   8
ATOM      8  C   UNL A   1      46.639  38.729  28.725  1.00  0.00     0.124 C 
BRANCH   8   9
ATOM      9  C   UNL A   1      45.939  38.072  27.536  1.00  0.00     0.033 C 
BRANCH   9  10
ATOM     10  C   UNL A   1      45.613  38.945  26.322  1.00  0.00     0.117 C 
BRANCH  10  11
ATOM     11  N   UNL A   1      44.531  39.865  26.582  1.00  0.00    -0.351 N 
ATOM     12  C   UNL A   1      44.142  41.066  26.034  1.00  0.00     0.271 C 
ATOM     13  O   UNL A   1      43.166  41.585  26.588  1.00  0.00    -0.267 OA
ATOM     14  H   UNL A   1      43.941  39.568  27.312  1.00  0.00     0.163 HD
BRANCH  12  15
ATOM     15  C   UNL A   1      44.796  41.704  24.863  1.00  0.00     0.151 A 
ATOM     16  N   UNL A   1      44.811  42.719  22.969  1.00  0.00    -0.232 N 
ATOM     17  N   UNL A   1      44.042  42.477  24.046  1.00  0.00    -0.162 NA
ATOM     18  C   UNL A   1      46.141  42.437  23.220  1.00  0.00     0.075 A 
ATOM     19  C   UNL A   1      46.130  41.668  24.366  1.00  0.00     0.065 A 
BRANCH  16  20
ATOM     20  C   UNL A   1      44.256  43.178  21.749  1.00  0.00     0.065 A 
ATOM     21  C   UNL A   1      43.302  43.942  19.254  1.00  0.00     0.082 A 
ATOM     22  C   UNL A   1      42.797  42.788  19.853  1.00  0.00     0.024 A 
ATOM     23  C   UNL A   1      44.247  44.740  19.912  1.00  0.00     0.024 A 
ATOM     24  C   UNL A   1      43.282  42.403  21.098  1.00  0.00     0.030 A 
ATOM     25  C   UNL A   1      44.704  44.374  21.183  1.00  0.00     0.030 A 
BRANCH  21  26
ATOM     26  S   UNL A   1      42.784  44.364  17.620  1.00  0.00     0.238 S 
ATOM     27  O   UNL A   1      41.350  44.514  17.602  1.00  0.00    -0.207 OA
ATOM     28  O   UNL A   1      43.505  43.536  16.681  1.00  0.00    -0.207 OA
BRANCH  26  29
ATOM     29  N   UNL A   1      43.386  45.926  17.414  1.00  0.00    -0.225 NA
ATOM     30  H   UNL A   1      44.021  46.149  18.180  1.00  0.00     0.137 HD
ATOM     31  H   UNL A   1      42.613  46.591  17.409  1.00  0.00     0.137 HD
ENDBRANCH  26  29
ENDBRANCH  21  26
ENDBRANCH  16  20
BRANCH  18  32
ATOM     32  C   UNL A   1      47.238  42.921  22.390  1.00  0.00     0.000 A 
ATOM     33  C   UNL A   1      47.611  42.217  21.236  1.00  0.00     0.010 A 
ATOM     34  C   UNL A   1      47.992  44.020  22.792  1.00  0.00     0.010 A 
ATOM     35  C   UNL A   1      48.725  42.612  20.495  1.00  0.00     0.001 A 
ATOM     36  C   UNL A   1      49.121  44.396  22.063  1.00  0.00     0.001 A 
ATOM     37  C   UNL A   1      49.475  43.705  20.910  1.00  0.00     0.000 A 
ENDBRANCH  18  32
ENDBRANCH  12  15
ENDBRANCH  10  11
ENDBRANCH   9  10
ENDBRANCH   8   9
ENDBRANCH   6   8
ENDBRANCH   5   6
ENDBRANCH   4   5
ENDBRANCH   3   4
ENDBRANCH   2   3
ENDBRANCH   1   2
BRANCH   1  38
ATOM     38  C   UNL A   1      43.859  43.129  30.464  1.00  0.00     0.188 C 
BRANCH  38  39
ATOM     39  O   UNL A   1      43.121  41.920  30.442  1.00  0.00    -0.377 OA
BRANCH  39  40
ATOM     40  C   UNL A   1      42.280  41.724  31.577  1.00  0.00     0.188 C 
BRANCH  40  41
ATOM     41  C   UNL A   1      42.875  42.074  32.957  1.00  0.00     0.188 C 
BRANCH  41  42
ATOM     42  O   UNL A   1      43.357  40.939  33.676  1.00  0.00    -0.376 OA
BRANCH  42  43
ATOM     43  C   UNL A   1      43.464  39.701  32.984  1.00  0.00     0.202 C 
BRANCH  43  44
ATOM     44  C   UNL A   1      44.899  39.332  32.614  1.00  0.00     0.261 C 
BRANCH  44  45
ATOM     45  O   UNL A   1      45.020  38.049  32.007  1.00  0.00    -0.460 OA
BRANCH  45  46
ATOM     46  C   UNL A   1      46.186  37.395  32.195  1.00  0.00     0.338 C 
ATOM     47  O   UNL A   1      47.267  37.877  32.474  1.00  0.00    -0.246 OA
BRANCH  46  48
ATOM     48  C   UNL A   1      45.974  35.978  31.874  1.00  0.00     0.060 A 
ATOM     49  C   UNL A   1      45.570  35.688  30.570  1.00  0.00     0.016 A 
ATOM     50  C   UNL A   1      45.904  35.020  32.892  1.00  0.00     0.016 A 
ATOM     51  C   UNL A   1      44.824  34.548  30.355  1.00  0.00     0.010 A 
ATOM     52  C   UNL A   1      45.181  33.877  32.660  1.00  0.00     0.010 A 
ATOM     53  C   UNL A   1      44.537  33.723  31.443  1.00  0.00    -0.014 A 
BRANCH  53  54
ATOM     54  C   UNL A   1      43.472  32.755  31.320  1.00  0.00     0.031 A 
ATOM     55  C   UNL A   1      42.158  33.165  31.829  1.00  0.00     0.074 A 
ATOM     56  C   UNL A   1      43.625  31.563  30.714  1.00  0.00     0.049 A 
ATOM     57  N   UNL A   1      41.604  32.777  32.926  1.00  0.00    -0.248 NA
ATOM     58  C   UNL A   1      41.399  34.167  31.074  1.00  0.00     0.031 C 
ATOM     59  C   UNL A   1      44.714  31.097  29.854  1.00  0.00     0.029 A 
ATOM     60  N   UNL A   1      42.749  30.519  30.709  1.00  0.00    -0.354 N 
ATOM     61  C   UNL A   1      40.352  33.366  32.940  1.00  0.00     0.074 A 
ATOM     62  C   UNL A   1      40.324  34.310  31.849  1.00  0.00     0.031 C 
ATOM     63  C   UNL A   1      44.355  29.921  29.282  1.00  0.00     0.029 A 
ATOM     64  C   UNL A   1      43.086  29.489  29.848  1.00  0.00     0.049 A 
ATOM     65  H   UNL A   1      41.943  30.499  31.272  1.00  0.00     0.167 HD
ATOM     66  C   UNL A   1      39.354  32.886  33.729  1.00  0.00     0.037 A 
ATOM     67  C   UNL A   1      42.345  28.379  29.606  1.00  0.00     0.037 A 
ATOM     68  C   UNL A   1      39.840  31.966  34.723  1.00  0.00     0.049 A 
ATOM     69  C   UNL A   1      41.422  28.196  30.755  1.00  0.00     0.074 A 
ATOM     70  C   UNL A   1      40.742  32.054  35.766  1.00  0.00     0.029 A 
ATOM     71  N   UNL A   1      39.656  30.623  34.507  1.00  0.00    -0.354 N 
ATOM     72  N   UNL A   1      41.801  27.835  31.949  1.00  0.00    -0.248 NA
ATOM     73  C   UNL A   1      40.092  28.782  30.677  1.00  0.00     0.031 C 
ATOM     74  C   UNL A   1      41.396  30.787  35.808  1.00  0.00     0.029 A 
ATOM     75  C   UNL A   1      40.842  29.997  34.801  1.00  0.00     0.049 A 
ATOM     76  H   UNL A   1      38.828  30.190  34.199  1.00  0.00     0.167 HD
ATOM     77  C   UNL A   1      40.953  28.512  32.811  1.00  0.00     0.074 A 
ATOM     78  C   UNL A   1      39.851  28.973  31.976  1.00  0.00     0.031 C 
ATOM     79  C   UNL A   1      41.364  28.871  34.062  1.00  0.00     0.037 A 
BRANCH  66  80
ATOM     80  C   UNL A   1      37.902  33.020  33.396  1.00  0.00     0.064 A 
ATOM     81  C   UNL A   1      37.055  33.742  34.254  1.00  0.00     0.173 A 
ATOM     82  C   UNL A   1      37.270  32.249  32.399  1.00  0.00     0.173 A 
ATOM     83  F   UNL A   1      37.563  34.465  35.263  1.00  0.00    -0.203 F 
ATOM     84  C   UNL A   1      35.666  33.671  34.136  1.00  0.00     0.198 A 
ATOM     85  C   UNL A   1      35.887  32.227  32.247  1.00  0.00     0.198 A 
ATOM     86  F   UNL A   1      37.961  31.413  31.612  1.00  0.00    -0.203 F 
ATOM     87  F   UNL A   1      34.891  34.289  35.037  1.00  0.00    -0.200 F 
ATOM     88  C   UNL A   1      35.084  32.918  33.131  1.00  0.00     0.200 A 
ATOM     89  F   UNL A   1      35.341  31.469  31.285  1.00  0.00    -0.200 F 
ATOM     90  F   UNL A   1      33.751  32.816  33.044  1.00  0.00    -0.200 F 
ENDBRANCH  66  80
BRANCH  67  91
ATOM     91  C   UNL A   1      42.224  27.581  28.366  1.00  0.00     0.064 A 
ATOM     92  C   UNL A   1      42.014  28.188  27.118  1.00  0.00     0.173 A 
ATOM     93  C   UNL A   1      42.598  26.225  28.342  1.00  0.00     0.173 A 
ATOM     94  F   UNL A   1      41.692  29.488  27.046  1.00  0.00    -0.203 F 
ATOM     95  C   UNL A   1      42.205  27.489  25.921  1.00  0.00     0.198 A 
ATOM     96  C   UNL A   1      42.786  25.526  27.151  1.00  0.00     0.198 A 
ATOM     97  F   UNL A   1      42.884  25.579  29.477  1.00  0.00    -0.203 F 
ATOM     98  F   UNL A   1      42.060  28.122  24.748  1.00  0.00    -0.200 F 
ATOM     99  C   UNL A   1      42.603  26.163  25.939  1.00  0.00     0.200 A 
ATOM    100  F   UNL A   1      43.206  24.255  27.188  1.00  0.00    -0.200 F 
ATOM    101  F   UNL A   1      42.854  25.513  24.793  1.00  0.00    -0.200 F 
ENDBRANCH  67  91
BRANCH  79 102
ATOM    102  C   UNL A   1      42.618  28.231  34.585  1.00  0.00     0.064 A 
ATOM    103  C   UNL A   1      42.647  26.979  35.224  1.00  0.00     0.173 A 
ATOM    104  C   UNL A   1      43.847  28.853  34.328  1.00  0.00     0.173 A 
ATOM    105  F   UNL A   1      41.522  26.274  35.409  1.00  0.00    -0.203 F 
ATOM    106  C   UNL A   1      43.849  26.407  35.635  1.00  0.00     0.198 A 
ATOM    107  C   UNL A   1      45.048  28.261  34.706  1.00  0.00     0.198 A 
ATOM    108  F   UNL A   1      43.883  30.022  33.668  1.00  0.00    -0.203 F 
ATOM    109  F   UNL A   1      43.849  25.220  36.261  1.00  0.00    -0.200 F 
ATOM    110  C   UNL A   1      45.049  27.045  35.370  1.00  0.00     0.200 A 
ATOM    111  F   UNL A   1      46.210  28.858  34.403  1.00  0.00    -0.200 F 
ATOM    112  F   UNL A   1      46.208  26.476  35.733  1.00  0.00    -0.200 F 
ENDBRANCH  79 102
ENDBRANCH  53  54
ENDBRANCH  46  48
ENDBRANCH  45  46
ENDBRANCH  44  45
ENDBRANCH  43  44
ENDBRANCH  42  43
ENDBRANCH  41  42
ENDBRANCH  40  41
ENDBRANCH  39  40
ENDBRANCH  38  39
ENDBRANCH   1  38
TORSDOF 28
ENDMDL
