MODEL 1
REMARK VINA RESULT:      -8.6      0.000      0.000
REMARK SMILES Cc1ccc(NC(=O)C[C@H]([NH2+]Cc2cccnc2)C(=O)OCCOCCOCCOCCOC(=O)c2ccc(-c3c4nc(c(-c5c(F)c(F)c(F)c(F)c5F)c5ccc([nH]5)c(-c5c(F)c(F)c(F)c(F)c5F)c5nc(c(-c6c(F)c(F)c(F)c(F)c6F)c6ccc3[nH]6)C=C5)C=C4)cc2)cc1Cl
REMARK SMILES IDX 26 1 25 2 24 3 23 4 22 5 21 6 19 7 20 8 10 9 9 10 7 11 6 12
REMARK SMILES IDX 8 14 5 15 1 16 2 17 3 18 100 19 4 20 99 21 101 22 11 23
REMARK SMILES IDX 12 26 13 27 14 28 18 29 15 30 17 31 16 32 27 33 28 34 29 35
REMARK SMILES IDX 30 36 31 37 32 38 33 39 34 40 35 41 36 42 37 43 98 44 38 45
REMARK SMILES IDX 97 46 39 47 40 48 41 49 91 50 42 51 96 52 90 53 92 54 43 55
REMARK SMILES IDX 95 56 89 57 88 58 44 60 76 61 56 62 75 63 57 64 60 65 74 66
REMARK SMILES IDX 93 67 58 68 59 69 73 71 94 72 61 73 45 74 46 75 54 76 47 77
REMARK SMILES IDX 48 78 52 79 55 80 49 81 50 82 53 83 51 84 77 85 78 86 86 87
REMARK SMILES IDX 79 88 80 89 84 90 87 91 81 92 82 93 85 94 83 95 62 96 63 97
REMARK SMILES IDX 71 98 64 99 65 100 69 101 72 102 66 103 67 104 70 105 68 106
REMARK H PARENT 6 13 11 24 11 25 92 59 60 70
REMARK Flexibility Score: inf
ROOT
ATOM      1  C   UNL A   1      41.918  21.123  27.637  1.00  0.00     0.188 C 
ENDROOT
BRANCH   1   2
ATOM      2  C   UNL A   1      40.764  20.994  26.648  1.00  0.00     0.188 C 
BRANCH   2   3
ATOM      3  O   UNL A   1      39.617  21.829  26.721  1.00  0.00    -0.376 OA
BRANCH   3   4
ATOM      4  C   UNL A   1      38.711  21.919  25.637  1.00  0.00     0.202 C 
BRANCH   4   5
ATOM      5  C   UNL A   1      37.530  22.888  25.799  1.00  0.00     0.261 C 
BRANCH   5   6
ATOM      6  O   UNL A   1      36.617  23.063  24.694  1.00  0.00    -0.459 OA
BRANCH   6   7
ATOM      7  C   UNL A   1      35.573  22.193  24.599  1.00  0.00     0.365 C 
ATOM      8  O   UNL A   1      35.683  20.974  24.680  1.00  0.00    -0.245 OA
BRANCH   7   9
ATOM      9  C   UNL A   1      34.217  22.884  24.293  1.00  0.00     0.303 C 
BRANCH   9  10
ATOM     10  C   UNL A   1      34.426  24.391  24.239  1.00  0.00     0.177 C 
BRANCH  10  11
ATOM     11  C   UNL A   1      33.986  25.362  23.148  1.00  0.00     0.231 C 
ATOM     12  N   UNL A   1      33.346  26.551  23.227  1.00  0.00    -0.326 N 
ATOM     13  H   UNL A   1      32.880  26.738  22.381  1.00  0.00     0.169 HD
ATOM     14  O   UNL A   1      34.030  24.909  21.986  1.00  0.00    -0.274 OA
BRANCH  12  15
ATOM     15  C   UNL A   1      33.139  27.604  24.133  1.00  0.00     0.042 A 
ATOM     16  C   UNL A   1      32.150  30.825  26.880  1.00  0.00     0.046 C 
ATOM     17  C   UNL A   1      32.527  29.755  25.900  1.00  0.00    -0.032 A 
ATOM     18  C   UNL A   1      31.728  29.493  24.784  1.00  0.00     0.007 A 
ATOM     19  C   UNL A   1      33.648  28.952  26.096  1.00  0.00     0.046 A 
ATOM     20  C   UNL A   1      32.027  28.426  23.920  1.00  0.00     0.026 A 
ATOM     21  C   UNL A   1      33.974  27.945  25.175  1.00  0.00     0.047 A 
ATOM     22  Cl  UNL A   1      34.632  29.139  27.510  1.00  0.00    -0.084 Cl
ENDBRANCH  12  15
ENDBRANCH  10  11
ENDBRANCH   9  10
BRANCH   9  23
ATOM     23  N   UNL A   1      33.042  22.376  25.044  1.00  0.00    -0.330 N 
ATOM     24  H   UNL A   1      32.960  22.916  25.906  1.00  0.00     0.347 HD
ATOM     25  H   UNL A   1      33.213  21.383  25.203  1.00  0.00     0.347 HD
BRANCH  23  26
ATOM     26  C   UNL A   1      31.760  22.464  24.327  1.00  0.00     0.299 C 
BRANCH  26  27
ATOM     27  C   UNL A   1      31.005  23.747  24.586  1.00  0.00     0.024 A 
ATOM     28  C   UNL A   1      30.376  24.469  23.570  1.00  0.00     0.013 A 
ATOM     29  C   UNL A   1      30.917  24.278  25.875  1.00  0.00     0.120 A 
ATOM     30  C   UNL A   1      29.698  25.653  23.873  1.00  0.00     0.021 A 
ATOM     31  N   UNL A   1      30.276  25.429  26.198  1.00  0.00    -0.264 NA
ATOM     32  C   UNL A   1      29.676  26.087  25.187  1.00  0.00     0.111 A 
ENDBRANCH  26  27
ENDBRANCH  23  26
ENDBRANCH   9  23
ENDBRANCH   7   9
ENDBRANCH   6   7
ENDBRANCH   5   6
ENDBRANCH   4   5
ENDBRANCH   3   4
ENDBRANCH   2   3
ENDBRANCH   1   2
BRANCH   1  33
ATOM     33  O   UNL A   1      42.030  22.380  28.265  1.00  0.00    -0.377 OA
BRANCH  33  34
ATOM     34  C   UNL A   1      42.767  23.381  27.588  1.00  0.00     0.188 C 
BRANCH  34  35
ATOM     35  C   UNL A   1      42.197  24.800  27.638  1.00  0.00     0.188 C 
BRANCH  35  36
ATOM     36  O   UNL A   1      41.255  25.219  26.664  1.00  0.00    -0.376 OA
BRANCH  36  37
ATOM     37  C   UNL A   1      40.502  26.418  26.745  1.00  0.00     0.202 C 
BRANCH  37  38
ATOM     38  C   UNL A   1      40.888  27.661  27.561  1.00  0.00     0.261 C 
BRANCH  38  39
ATOM     39  O   UNL A   1      41.296  28.816  26.829  1.00  0.00    -0.460 OA
BRANCH  39  40
ATOM     40  C   UNL A   1      42.171  28.575  25.837  1.00  0.00     0.338 C 
ATOM     41  O   UNL A   1      41.939  28.563  24.628  1.00  0.00    -0.246 OA
BRANCH  40  42
ATOM     42  C   UNL A   1      43.530  28.466  26.381  1.00  0.00     0.060 A 
ATOM     43  C   UNL A   1      44.248  27.300  26.102  1.00  0.00     0.016 A 
ATOM     44  C   UNL A   1      44.045  29.431  27.250  1.00  0.00     0.016 A 
ATOM     45  C   UNL A   1      45.448  27.053  26.755  1.00  0.00     0.010 A 
ATOM     46  C   UNL A   1      45.254  29.185  27.906  1.00  0.00     0.010 A 
ATOM     47  C   UNL A   1      45.920  27.963  27.711  1.00  0.00    -0.014 A 
BRANCH  47  48
ATOM     48  C   UNL A   1      46.949  27.497  28.669  1.00  0.00     0.031 A 
ATOM     49  C   UNL A   1      46.490  26.906  29.976  1.00  0.00     0.074 A 
ATOM     50  C   UNL A   1      48.252  27.502  28.346  1.00  0.00     0.049 A 
ATOM     51  N   UNL A   1      47.193  26.381  30.948  1.00  0.00    -0.248 NA
ATOM     52  C   UNL A   1      45.037  26.906  30.222  1.00  0.00     0.031 C 
ATOM     53  C   UNL A   1      48.808  28.003  27.090  1.00  0.00     0.029 A 
ATOM     54  N   UNL A   1      49.343  27.059  29.048  1.00  0.00    -0.354 N 
ATOM     55  C   UNL A   1      46.272  25.993  31.913  1.00  0.00     0.074 A 
ATOM     56  C   UNL A   1      44.964  26.383  31.435  1.00  0.00     0.031 C 
ATOM     57  C   UNL A   1      50.141  27.835  27.109  1.00  0.00     0.029 A 
ATOM     58  C   UNL A   1      50.532  27.241  28.387  1.00  0.00     0.049 A 
ATOM     59  H   UNL A   1      49.279  26.649  29.941  1.00  0.00     0.167 HD
ATOM     60  C   UNL A   1      46.494  25.353  33.084  1.00  0.00     0.037 A 
ATOM     61  C   UNL A   1      51.791  26.965  28.780  1.00  0.00     0.037 A 
ATOM     62  C   UNL A   1      47.796  24.960  33.553  1.00  0.00     0.049 A 
ATOM     63  C   UNL A   1      52.017  26.313  30.120  1.00  0.00     0.074 A 
ATOM     64  C   UNL A   1      48.131  24.297  34.720  1.00  0.00     0.029 A 
ATOM     65  N   UNL A   1      48.983  25.202  32.875  1.00  0.00    -0.354 N 
ATOM     66  N   UNL A   1      51.140  25.927  31.016  1.00  0.00    -0.248 NA
ATOM     67  C   UNL A   1      53.412  26.046  30.497  1.00  0.00     0.031 C 
ATOM     68  C   UNL A   1      49.524  24.193  34.778  1.00  0.00     0.029 A 
ATOM     69  C   UNL A   1      50.054  24.725  33.615  1.00  0.00     0.049 A 
ATOM     70  H   UNL A   1      49.052  25.646  32.000  1.00  0.00     0.167 HD
ATOM     71  C   UNL A   1      51.872  25.342  32.043  1.00  0.00     0.074 A 
ATOM     72  C   UNL A   1      53.264  25.411  31.651  1.00  0.00     0.031 C 
ATOM     73  C   UNL A   1      51.433  24.793  33.204  1.00  0.00     0.037 A 
BRANCH  60  74
ATOM     74  C   UNL A   1      45.304  25.065  33.955  1.00  0.00     0.064 A 
ATOM     75  C   UNL A   1      44.925  25.920  35.003  1.00  0.00     0.173 A 
ATOM     76  C   UNL A   1      44.518  23.927  33.724  1.00  0.00     0.173 A 
ATOM     77  F   UNL A   1      45.653  27.013  35.279  1.00  0.00    -0.203 F 
ATOM     78  C   UNL A   1      43.822  25.629  35.801  1.00  0.00     0.198 A 
ATOM     79  C   UNL A   1      43.397  23.657  34.502  1.00  0.00     0.198 A 
ATOM     80  F   UNL A   1      44.834  23.076  32.736  1.00  0.00    -0.203 F 
ATOM     81  F   UNL A   1      43.512  26.431  36.829  1.00  0.00    -0.200 F 
ATOM     82  C   UNL A   1      43.055  24.503  35.546  1.00  0.00     0.200 A 
ATOM     83  F   UNL A   1      42.648  22.575  34.245  1.00  0.00    -0.200 F 
ATOM     84  F   UNL A   1      41.989  24.228  36.311  1.00  0.00    -0.200 F 
ENDBRANCH  60  74
BRANCH  61  85
ATOM     85  C   UNL A   1      52.936  27.307  27.896  1.00  0.00     0.064 A 
ATOM     86  C   UNL A   1      53.406  26.404  26.931  1.00  0.00     0.173 A 
ATOM     87  C   UNL A   1      53.604  28.535  28.018  1.00  0.00     0.173 A 
ATOM     88  F   UNL A   1      52.817  25.207  26.791  1.00  0.00    -0.203 F 
ATOM     89  C   UNL A   1      54.514  26.707  26.142  1.00  0.00     0.198 A 
ATOM     90  C   UNL A   1      54.691  28.849  27.207  1.00  0.00     0.198 A 
ATOM     91  F   UNL A   1      53.196  29.433  28.926  1.00  0.00    -0.203 F 
ATOM     92  F   UNL A   1      54.976  25.803  25.267  1.00  0.00    -0.200 F 
ATOM     93  C   UNL A   1      55.152  27.930  26.276  1.00  0.00     0.200 A 
ATOM     94  F   UNL A   1      55.296  30.037  27.332  1.00  0.00    -0.200 F 
ATOM     95  F   UNL A   1      56.217  28.219  25.518  1.00  0.00    -0.200 F 
ENDBRANCH  61  85
BRANCH  73  96
ATOM     96  C   UNL A   1      52.463  24.179  34.111  1.00  0.00     0.064 A 
ATOM     97  C   UNL A   1      52.840  22.832  34.002  1.00  0.00     0.173 A 
ATOM     98  C   UNL A   1      53.106  24.962  35.082  1.00  0.00     0.173 A 
ATOM     99  F   UNL A   1      52.250  22.036  33.098  1.00  0.00    -0.203 F 
ATOM    100  C   UNL A   1      53.791  22.284  34.858  1.00  0.00     0.198 A 
ATOM    101  C   UNL A   1      54.084  24.420  35.911  1.00  0.00     0.198 A 
ATOM    102  F   UNL A   1      52.794  26.260  35.221  1.00  0.00    -0.203 F 
ATOM    103  F   UNL A   1      54.091  20.980  34.777  1.00  0.00    -0.200 F 
ATOM    104  C   UNL A   1      54.417  23.079  35.807  1.00  0.00     0.200 A 
ATOM    105  F   UNL A   1      54.701  25.196  36.813  1.00  0.00    -0.200 F 
ATOM    106  F   UNL A   1      55.336  22.550  36.626  1.00  0.00    -0.200 F 
ENDBRANCH  73  96
ENDBRANCH  47  48
ENDBRANCH  40  42
ENDBRANCH  39  40
ENDBRANCH  38  39
ENDBRANCH  37  38
ENDBRANCH  36  37
ENDBRANCH  35  36
ENDBRANCH  34  35
ENDBRANCH  33  34
ENDBRANCH   1  33
TORSDOF 26
ENDMDL
MODEL 2
REMARK VINA RESULT:      -8.2      6.931     13.745
REMARK SMILES Cc1ccc(NC(=O)C[C@H]([NH2+]Cc2cccnc2)C(=O)OCCOCCOCCOCCOC(=O)c2ccc(-c3c4nc(c(-c5c(F)c(F)c(F)c(F)c5F)c5ccc([nH]5)c(-c5c(F)c(F)c(F)c(F)c5F)c5nc(c(-c6c(F)c(F)c(F)c(F)c6F)c6ccc3[nH]6)C=C5)C=C4)cc2)cc1Cl
REMARK SMILES IDX 26 1 25 2 24 3 23 4 22 5 21 6 19 7 20 8 10 9 9 10 7 11 6 12
REMARK SMILES IDX 8 14 5 15 1 16 2 17 3 18 100 19 4 20 99 21 101 22 11 23
REMARK SMILES IDX 12 26 13 27 14 28 18 29 15 30 17 31 16 32 27 33 28 34 29 35
REMARK SMILES IDX 30 36 31 37 32 38 33 39 34 40 35 41 36 42 37 43 98 44 38 45
REMARK SMILES IDX 97 46 39 47 40 48 41 49 91 50 42 51 96 52 90 53 92 54 43 55
REMARK SMILES IDX 95 56 89 57 88 58 44 60 76 61 56 62 75 63 57 64 60 65 74 66
REMARK SMILES IDX 93 67 58 68 59 69 73 71 94 72 61 73 45 74 46 75 54 76 47 77
REMARK SMILES IDX 48 78 52 79 55 80 49 81 50 82 53 83 51 84 77 85 78 86 86 87
REMARK SMILES IDX 79 88 80 89 84 90 87 91 81 92 82 93 85 94 83 95 62 96 63 97
REMARK SMILES IDX 71 98 64 99 65 100 69 101 72 102 66 103 67 104 70 105 68 106
REMARK H PARENT 6 13 11 24 11 25 92 59 60 70
REMARK Flexibility Score: inf
ROOT
ATOM      1  C   UNL A   1      46.717  28.612  30.205  1.00  0.00     0.188 C 
ENDROOT
BRANCH   1   2
ATOM      2  C   UNL A   1      47.502  29.910  30.368  1.00  0.00     0.188 C 
BRANCH   2   3
ATOM      3  O   UNL A   1      46.893  31.182  30.198  1.00  0.00    -0.376 OA
BRANCH   3   4
ATOM      4  C   UNL A   1      46.031  31.437  29.104  1.00  0.00     0.202 C 
BRANCH   4   5
ATOM      5  C   UNL A   1      45.195  32.725  29.165  1.00  0.00     0.261 C 
BRANCH   5   6
ATOM      6  O   UNL A   1      43.780  32.622  29.430  1.00  0.00    -0.459 OA
BRANCH   6   7
ATOM      7  C   UNL A   1      43.263  33.430  30.399  1.00  0.00     0.365 C 
ATOM      8  O   UNL A   1      42.375  33.094  31.174  1.00  0.00    -0.245 OA
BRANCH   7   9
ATOM      9  C   UNL A   1      43.850  34.867  30.384  1.00  0.00     0.303 C 
BRANCH   9  10
ATOM     10  C   UNL A   1      44.485  35.161  31.736  1.00  0.00     0.177 C 
BRANCH  10  11
ATOM     11  C   UNL A   1      43.898  35.958  32.897  1.00  0.00     0.231 C 
ATOM     12  N   UNL A   1      43.477  35.561  34.119  1.00  0.00    -0.326 N 
ATOM     13  H   UNL A   1      42.823  36.205  34.475  1.00  0.00     0.169 HD
ATOM     14  O   UNL A   1      43.553  37.124  32.618  1.00  0.00    -0.274 OA
BRANCH  12  15
ATOM     15  C   UNL A   1      43.677  34.522  35.042  1.00  0.00     0.042 A 
ATOM     16  C   UNL A   1      44.644  31.347  37.850  1.00  0.00     0.046 C 
ATOM     17  C   UNL A   1      44.275  32.400  36.849  1.00  0.00    -0.032 A 
ATOM     18  C   UNL A   1      45.097  32.660  35.748  1.00  0.00     0.007 A 
ATOM     19  C   UNL A   1      43.140  33.190  37.009  1.00  0.00     0.046 A 
ATOM     20  C   UNL A   1      44.804  33.712  34.864  1.00  0.00     0.026 A 
ATOM     21  C   UNL A   1      42.823  34.182  36.069  1.00  0.00     0.047 A 
ATOM     22  Cl  UNL A   1      42.126  33.007  38.403  1.00  0.00    -0.084 Cl
ENDBRANCH  12  15
ENDBRANCH  10  11
ENDBRANCH   9  10
BRANCH   9  23
ATOM     23  N   UNL A   1      42.988  35.917  29.783  1.00  0.00    -0.330 N 
ATOM     24  H   UNL A   1      42.918  36.687  30.448  1.00  0.00     0.347 HD
ATOM     25  H   UNL A   1      42.094  35.471  29.583  1.00  0.00     0.347 HD
BRANCH  23  26
ATOM     26  C   UNL A   1      43.472  36.462  28.505  1.00  0.00     0.299 C 
BRANCH  26  27
ATOM     27  C   UNL A   1      42.844  37.784  28.130  1.00  0.00     0.024 A 
ATOM     28  C   UNL A   1      42.172  37.984  26.922  1.00  0.00     0.013 A 
ATOM     29  C   UNL A   1      42.922  38.883  28.989  1.00  0.00     0.120 A 
ATOM     30  C   UNL A   1      41.618  39.233  26.632  1.00  0.00     0.021 A 
ATOM     31  N   UNL A   1      42.403  40.108  28.731  1.00  0.00    -0.264 NA
ATOM     32  C   UNL A   1      41.758  40.253  27.558  1.00  0.00     0.111 A 
ENDBRANCH  26  27
ENDBRANCH  23  26
ENDBRANCH   9  23
ENDBRANCH   7   9
ENDBRANCH   6   7
ENDBRANCH   5   6
ENDBRANCH   4   5
ENDBRANCH   3   4
ENDBRANCH   2   3
ENDBRANCH   1   2
BRANCH   1  33
ATOM     33  O   UNL A   1      46.804  28.016  28.930  1.00  0.00    -0.377 OA
BRANCH  33  34
ATOM     34  C   UNL A   1      46.117  26.794  28.738  1.00  0.00     0.188 C 
BRANCH  34  35
ATOM     35  C   UNL A   1      46.843  25.725  27.918  1.00  0.00     0.188 C 
BRANCH  35  36
ATOM     36  O   UNL A   1      47.374  26.050  26.644  1.00  0.00    -0.376 OA
BRANCH  36  37
ATOM     37  C   UNL A   1      47.326  25.191  25.517  1.00  0.00     0.202 C 
BRANCH  37  38
ATOM     38  C   UNL A   1      46.055  24.566  24.923  1.00  0.00     0.261 C 
BRANCH  38  39
ATOM     39  O   UNL A   1      44.928  25.425  24.757  1.00  0.00    -0.460 OA
BRANCH  39  40
ATOM     40  C   UNL A   1      43.737  24.842  24.980  1.00  0.00     0.338 C 
ATOM     41  O   UNL A   1      43.414  23.685  24.713  1.00  0.00    -0.246 OA
BRANCH  40  42
ATOM     42  C   UNL A   1      42.872  25.744  25.749  1.00  0.00     0.060 A 
ATOM     43  C   UNL A   1      43.381  27.003  26.083  1.00  0.00     0.016 A 
ATOM     44  C   UNL A   1      41.634  25.321  26.241  1.00  0.00     0.016 A 
ATOM     45  C   UNL A   1      42.694  27.812  26.978  1.00  0.00     0.010 A 
ATOM     46  C   UNL A   1      40.941  26.137  27.140  1.00  0.00     0.010 A 
ATOM     47  C   UNL A   1      41.506  27.352  27.561  1.00  0.00    -0.014 A 
BRANCH  47  48
ATOM     48  C   UNL A   1      41.025  28.029  28.789  1.00  0.00     0.031 A 
ATOM     49  C   UNL A   1      41.811  27.842  30.060  1.00  0.00     0.074 A 
ATOM     50  C   UNL A   1      39.978  28.869  28.753  1.00  0.00     0.049 A 
ATOM     51  N   UNL A   1      41.624  28.372  31.243  1.00  0.00    -0.248 NA
ATOM     52  C   UNL A   1      42.968  26.933  29.989  1.00  0.00     0.031 C 
ATOM     53  C   UNL A   1      39.174  29.165  27.570  1.00  0.00     0.029 A 
ATOM     54  N   UNL A   1      39.422  29.637  29.744  1.00  0.00    -0.354 N 
ATOM     55  C   UNL A   1      42.633  27.861  32.049  1.00  0.00     0.074 A 
ATOM     56  C   UNL A   1      43.404  26.945  31.238  1.00  0.00     0.031 C 
ATOM     57  C   UNL A   1      38.226  30.057  27.903  1.00  0.00     0.029 A 
ATOM     58  C   UNL A   1      38.342  30.372  29.326  1.00  0.00     0.049 A 
ATOM     59  H   UNL A   1      39.766  29.658  30.667  1.00  0.00     0.167 HD
ATOM     60  C   UNL A   1      42.905  28.144  33.344  1.00  0.00     0.037 A 
ATOM     61  C   UNL A   1      37.536  31.197  30.023  1.00  0.00     0.037 A 
ATOM     62  C   UNL A   1      42.141  29.062  34.145  1.00  0.00     0.049 A 
ATOM     63  C   UNL A   1      37.820  31.444  31.483  1.00  0.00     0.074 A 
ATOM     64  C   UNL A   1      42.338  29.428  35.465  1.00  0.00     0.029 A 
ATOM     65  N   UNL A   1      41.024  29.755  33.699  1.00  0.00    -0.354 N 
ATOM     66  N   UNL A   1      38.791  30.977  32.232  1.00  0.00    -0.248 NA
ATOM     67  C   UNL A   1      36.901  32.345  32.191  1.00  0.00     0.031 C 
ATOM     68  C   UNL A   1      41.306  30.296  35.835  1.00  0.00     0.029 A 
ATOM     69  C   UNL A   1      40.506  30.526  34.728  1.00  0.00     0.049 A 
ATOM     70  H   UNL A   1      40.656  29.706  32.788  1.00  0.00     0.167 HD
ATOM     71  C   UNL A   1      38.620  31.554  33.485  1.00  0.00     0.074 A 
ATOM     72  C   UNL A   1      37.461  32.416  33.390  1.00  0.00     0.031 C 
ATOM     73  C   UNL A   1      39.357  31.388  34.612  1.00  0.00     0.037 A 
BRANCH  60  74
ATOM     74  C   UNL A   1      44.061  27.428  33.983  1.00  0.00     0.064 A 
ATOM     75  C   UNL A   1      45.363  27.954  33.963  1.00  0.00     0.173 A 
ATOM     76  C   UNL A   1      43.860  26.207  34.643  1.00  0.00     0.173 A 
ATOM     77  F   UNL A   1      45.615  29.110  33.329  1.00  0.00    -0.203 F 
ATOM     78  C   UNL A   1      46.422  27.270  34.555  1.00  0.00     0.198 A 
ATOM     79  C   UNL A   1      44.914  25.543  35.263  1.00  0.00     0.198 A 
ATOM     80  F   UNL A   1      42.636  25.659  34.692  1.00  0.00    -0.203 F 
ATOM     81  F   UNL A   1      47.665  27.764  34.477  1.00  0.00    -0.200 F 
ATOM     82  C   UNL A   1      46.195  26.069  35.211  1.00  0.00     0.200 A 
ATOM     83  F   UNL A   1      44.690  24.389  35.908  1.00  0.00    -0.200 F 
ATOM     84  F   UNL A   1      47.213  25.415  35.787  1.00  0.00    -0.200 F 
ENDBRANCH  60  74
BRANCH  61  85
ATOM     85  C   UNL A   1      36.381  31.849  29.352  1.00  0.00     0.064 A 
ATOM     86  C   UNL A   1      35.293  31.099  28.881  1.00  0.00     0.173 A 
ATOM     87  C   UNL A   1      36.355  33.237  29.140  1.00  0.00     0.173 A 
ATOM     88  F   UNL A   1      35.282  29.767  29.038  1.00  0.00    -0.203 F 
ATOM     89  C   UNL A   1      34.238  31.708  28.205  1.00  0.00     0.198 A 
ATOM     90  C   UNL A   1      35.284  33.847  28.492  1.00  0.00     0.198 A 
ATOM     91  F   UNL A   1      37.370  34.000  29.569  1.00  0.00    -0.203 F 
ATOM     92  F   UNL A   1      33.239  30.959  27.717  1.00  0.00    -0.200 F 
ATOM     93  C   UNL A   1      34.231  33.081  28.015  1.00  0.00     0.200 A 
ATOM     94  F   UNL A   1      35.276  35.176  28.323  1.00  0.00    -0.200 F 
ATOM     95  F   UNL A   1      33.217  33.665  27.364  1.00  0.00    -0.200 F 
ENDBRANCH  61  85
BRANCH  73  96
ATOM     96  C   UNL A   1      38.964  32.193  35.820  1.00  0.00     0.064 A 
ATOM     97  C   UNL A   1      39.289  33.552  35.945  1.00  0.00     0.173 A 
ATOM     98  C   UNL A   1      38.220  31.600  36.852  1.00  0.00     0.173 A 
ATOM     99  F   UNL A   1      40.008  34.165  34.993  1.00  0.00    -0.203 F 
ATOM    100  C   UNL A   1      38.920  34.275  37.077  1.00  0.00     0.198 A 
ATOM    101  C   UNL A   1      37.819  32.336  37.963  1.00  0.00     0.198 A 
ATOM    102  F   UNL A   1      37.869  30.307  36.778  1.00  0.00    -0.203 F 
ATOM    103  F   UNL A   1      39.296  35.555  37.203  1.00  0.00    -0.200 F 
ATOM    104  C   UNL A   1      38.180  33.669  38.081  1.00  0.00     0.200 A 
ATOM    105  F   UNL A   1      37.087  31.753  38.923  1.00  0.00    -0.200 F 
ATOM    106  F   UNL A   1      37.821  34.368  39.166  1.00  0.00    -0.200 F 
ENDBRANCH  73  96
ENDBRANCH  47  48
ENDBRANCH  40  42
ENDBRANCH  39  40
ENDBRANCH  38  39
ENDBRANCH  37  38
ENDBRANCH  36  37
ENDBRANCH  35  36
ENDBRANCH  34  35
ENDBRANCH  33  34
ENDBRANCH   1  33
TORSDOF 26
ENDMDL
MODEL 3
REMARK VINA RESULT:      -7.9      6.285     11.225
REMARK SMILES Cc1ccc(NC(=O)C[C@H]([NH2+]Cc2cccnc2)C(=O)OCCOCCOCCOCCOC(=O)c2ccc(-c3c4nc(c(-c5c(F)c(F)c(F)c(F)c5F)c5ccc([nH]5)c(-c5c(F)c(F)c(F)c(F)c5F)c5nc(c(-c6c(F)c(F)c(F)c(F)c6F)c6ccc3[nH]6)C=C5)C=C4)cc2)cc1Cl
REMARK SMILES IDX 26 1 25 2 24 3 23 4 22 5 21 6 19 7 20 8 10 9 9 10 7 11 6 12
REMARK SMILES IDX 8 14 5 15 1 16 2 17 3 18 100 19 4 20 99 21 101 22 11 23
REMARK SMILES IDX 12 26 13 27 14 28 18 29 15 30 17 31 16 32 27 33 28 34 29 35
REMARK SMILES IDX 30 36 31 37 32 38 33 39 34 40 35 41 36 42 37 43 98 44 38 45
REMARK SMILES IDX 97 46 39 47 40 48 41 49 91 50 42 51 96 52 90 53 92 54 43 55
REMARK SMILES IDX 95 56 89 57 88 58 44 60 76 61 56 62 75 63 57 64 60 65 74 66
REMARK SMILES IDX 93 67 58 68 59 69 73 71 94 72 61 73 45 74 46 75 54 76 47 77
REMARK SMILES IDX 48 78 52 79 55 80 49 81 50 82 53 83 51 84 77 85 78 86 86 87
REMARK SMILES IDX 79 88 80 89 84 90 87 91 81 92 82 93 85 94 83 95 62 96 63 97
REMARK SMILES IDX 71 98 64 99 65 100 69 101 72 102 66 103 67 104 70 105 68 106
REMARK H PARENT 6 13 11 24 11 25 92 59 60 70
REMARK Flexibility Score: inf
ROOT
ATOM      1  C   UNL A   1      42.104  36.202  35.737  1.00  0.00     0.188 C 
ENDROOT
BRANCH   1   2
ATOM      2  C   UNL A   1      42.396  36.748  34.343  1.00  0.00     0.188 C 
BRANCH   2   3
ATOM      3  O   UNL A   1      43.711  36.774  33.807  1.00  0.00    -0.376 OA
BRANCH   3   4
ATOM      4  C   UNL A   1      43.929  36.742  32.408  1.00  0.00     0.202 C 
BRANCH   4   5
ATOM      5  C   UNL A   1      43.400  35.512  31.653  1.00  0.00     0.261 C 
BRANCH   5   6
ATOM      6  O   UNL A   1      43.098  35.637  30.247  1.00  0.00    -0.459 OA
BRANCH   6   7
ATOM      7  C   UNL A   1      42.852  34.489  29.554  1.00  0.00     0.365 C 
ATOM      8  O   UNL A   1      41.755  33.944  29.493  1.00  0.00    -0.245 OA
BRANCH   7   9
ATOM      9  C   UNL A   1      44.120  33.873  28.905  1.00  0.00     0.303 C 
BRANCH   9  10
ATOM     10  C   UNL A   1      44.385  34.564  27.574  1.00  0.00     0.177 C 
BRANCH  10  11
ATOM     11  C   UNL A   1      45.182  34.037  26.385  1.00  0.00     0.231 C 
ATOM     12  N   UNL A   1      46.461  33.607  26.298  1.00  0.00    -0.326 N 
ATOM     13  H   UNL A   1      46.783  33.696  25.372  1.00  0.00     0.169 HD
ATOM     14  O   UNL A   1      44.652  34.217  25.269  1.00  0.00    -0.274 OA
BRANCH  12  15
ATOM     15  C   UNL A   1      47.475  33.072  27.109  1.00  0.00     0.042 A 
ATOM     16  C   UNL A   1      50.761  31.289  29.327  1.00  0.00     0.046 C 
ATOM     17  C   UNL A   1      49.587  31.871  28.598  1.00  0.00    -0.032 A 
ATOM     18  C   UNL A   1      49.115  31.284  27.420  1.00  0.00     0.007 A 
ATOM     19  C   UNL A   1      48.967  33.039  29.033  1.00  0.00     0.046 A 
ATOM     20  C   UNL A   1      48.079  31.884  26.684  1.00  0.00     0.026 A 
ATOM     21  C   UNL A   1      47.881  33.576  28.326  1.00  0.00     0.047 A 
ATOM     22  Cl  UNL A   1      49.560  33.889  30.422  1.00  0.00    -0.084 Cl
ENDBRANCH  12  15
ENDBRANCH  10  11
ENDBRANCH   9  10
BRANCH   9  23
ATOM     23  N   UNL A   1      44.221  32.393  28.947  1.00  0.00    -0.330 N 
ATOM     24  H   UNL A   1      44.059  32.092  29.908  1.00  0.00     0.347 HD
ATOM     25  H   UNL A   1      45.152  32.161  28.601  1.00  0.00     0.347 HD
BRANCH  23  26
ATOM     26  C   UNL A   1      43.270  31.680  28.080  1.00  0.00     0.299 C 
BRANCH  26  27
ATOM     27  C   UNL A   1      43.833  30.419  27.468  1.00  0.00     0.024 A 
ATOM     28  C   UNL A   1      43.058  29.539  26.709  1.00  0.00     0.013 A 
ATOM     29  C   UNL A   1      45.173  30.069  27.652  1.00  0.00     0.120 A 
ATOM     30  C   UNL A   1      43.636  28.384  26.175  1.00  0.00     0.021 A 
ATOM     31  N   UNL A   1      45.758  28.952  27.155  1.00  0.00    -0.264 NA
ATOM     32  C   UNL A   1      44.975  28.137  26.422  1.00  0.00     0.111 A 
ENDBRANCH  26  27
ENDBRANCH  23  26
ENDBRANCH   9  23
ENDBRANCH   7   9
ENDBRANCH   6   7
ENDBRANCH   5   6
ENDBRANCH   4   5
ENDBRANCH   3   4
ENDBRANCH   2   3
ENDBRANCH   1   2
BRANCH   1  33
ATOM     33  O   UNL A   1      40.962  35.380  35.831  1.00  0.00    -0.377 OA
BRANCH  33  34
ATOM     34  C   UNL A   1      40.229  35.151  34.642  1.00  0.00     0.188 C 
BRANCH  34  35
ATOM     35  C   UNL A   1      38.793  34.653  34.812  1.00  0.00     0.188 C 
BRANCH  35  36
ATOM     36  O   UNL A   1      37.828  34.917  33.805  1.00  0.00    -0.376 OA
BRANCH  36  37
ATOM     37  C   UNL A   1      37.812  34.292  32.533  1.00  0.00     0.202 C 
BRANCH  37  38
ATOM     38  C   UNL A   1      36.562  34.054  31.671  1.00  0.00     0.261 C 
BRANCH  38  39
ATOM     39  O   UNL A   1      36.636  33.014  30.697  1.00  0.00    -0.460 OA
BRANCH  39  40
ATOM     40  C   UNL A   1      36.462  31.773  31.182  1.00  0.00     0.338 C 
ATOM     41  O   UNL A   1      35.453  31.321  31.722  1.00  0.00    -0.246 OA
BRANCH  40  42
ATOM     42  C   UNL A   1      37.619  30.935  30.847  1.00  0.00     0.060 A 
ATOM     43  C   UNL A   1      38.034  29.994  31.794  1.00  0.00     0.016 A 
ATOM     44  C   UNL A   1      38.361  31.150  29.683  1.00  0.00     0.016 A 
ATOM     45  C   UNL A   1      39.237  29.322  31.622  1.00  0.00     0.010 A 
ATOM     46  C   UNL A   1      39.570  30.473  29.507  1.00  0.00     0.010 A 
ATOM     47  C   UNL A   1      40.042  29.611  30.511  1.00  0.00    -0.014 A 
BRANCH  47  48
ATOM     48  C   UNL A   1      41.467  29.208  30.560  1.00  0.00     0.031 A 
ATOM     49  C   UNL A   1      41.876  27.948  29.843  1.00  0.00     0.074 A 
ATOM     50  C   UNL A   1      42.391  29.993  31.137  1.00  0.00     0.049 A 
ATOM     51  N   UNL A   1      43.065  27.421  29.695  1.00  0.00    -0.248 NA
ATOM     52  C   UNL A   1      40.796  27.177  29.205  1.00  0.00     0.031 C 
ATOM     53  C   UNL A   1      42.119  31.258  31.816  1.00  0.00     0.029 A 
ATOM     54  N   UNL A   1      43.751  29.843  31.231  1.00  0.00    -0.354 N 
ATOM     55  C   UNL A   1      42.874  26.263  28.953  1.00  0.00     0.074 A 
ATOM     56  C   UNL A   1      41.453  26.136  28.718  1.00  0.00     0.031 C 
ATOM     57  C   UNL A   1      43.279  31.773  32.255  1.00  0.00     0.029 A 
ATOM     58  C   UNL A   1      44.370  30.861  31.911  1.00  0.00     0.049 A 
ATOM     59  H   UNL A   1      44.236  29.077  30.846  1.00  0.00     0.167 HD
ATOM     60  C   UNL A   1      43.801  25.391  28.492  1.00  0.00     0.037 A 
ATOM     61  C   UNL A   1      45.669  31.026  32.225  1.00  0.00     0.037 A 
ATOM     62  C   UNL A   1      45.215  25.524  28.720  1.00  0.00     0.049 A 
ATOM     63  C   UNL A   1      46.675  30.005  31.757  1.00  0.00     0.074 A 
ATOM     64  C   UNL A   1      46.242  24.703  28.289  1.00  0.00     0.029 A 
ATOM     65  N   UNL A   1      45.801  26.546  29.454  1.00  0.00    -0.354 N 
ATOM     66  N   UNL A   1      46.490  28.926  31.034  1.00  0.00    -0.248 NA
ATOM     67  C   UNL A   1      48.075  30.234  32.139  1.00  0.00     0.031 C 
ATOM     68  C   UNL A   1      47.442  25.194  28.811  1.00  0.00     0.029 A 
ATOM     69  C   UNL A   1      47.173  26.360  29.509  1.00  0.00     0.049 A 
ATOM     70  H   UNL A   1      45.314  27.292  29.872  1.00  0.00     0.167 HD
ATOM     71  C   UNL A   1      47.750  28.370  30.846  1.00  0.00     0.074 A 
ATOM     72  C   UNL A   1      48.693  29.239  31.519  1.00  0.00     0.031 C 
ATOM     73  C   UNL A   1      48.098  27.243  30.175  1.00  0.00     0.037 A 
BRANCH  60  74
ATOM     74  C   UNL A   1      43.311  24.200  27.718  1.00  0.00     0.064 A 
ATOM     75  C   UNL A   1      42.721  23.094  28.351  1.00  0.00     0.173 A 
ATOM     76  C   UNL A   1      43.415  24.174  26.320  1.00  0.00     0.173 A 
ATOM     77  F   UNL A   1      42.614  23.060  29.688  1.00  0.00    -0.203 F 
ATOM     78  C   UNL A   1      42.280  21.998  27.614  1.00  0.00     0.198 A 
ATOM     79  C   UNL A   1      42.943  23.091  25.584  1.00  0.00     0.198 A 
ATOM     80  F   UNL A   1      43.971  25.204  25.663  1.00  0.00    -0.203 F 
ATOM     81  F   UNL A   1      41.769  20.931  28.244  1.00  0.00    -0.200 F 
ATOM     82  C   UNL A   1      42.384  22.000  26.232  1.00  0.00     0.200 A 
ATOM     83  F   UNL A   1      43.032  23.102  24.246  1.00  0.00    -0.200 F 
ATOM     84  F   UNL A   1      41.953  20.948  25.523  1.00  0.00    -0.200 F 
ENDBRANCH  60  74
BRANCH  61  85
ATOM     85  C   UNL A   1      46.096  32.202  33.027  1.00  0.00     0.064 A 
ATOM     86  C   UNL A   1      46.145  32.150  34.428  1.00  0.00     0.173 A 
ATOM     87  C   UNL A   1      46.437  33.416  32.409  1.00  0.00     0.173 A 
ATOM     88  F   UNL A   1      45.806  31.021  35.068  1.00  0.00    -0.203 F 
ATOM     89  C   UNL A   1      46.494  33.272  35.178  1.00  0.00     0.198 A 
ATOM     90  C   UNL A   1      46.816  34.526  33.159  1.00  0.00     0.198 A 
ATOM     91  F   UNL A   1      46.405  33.520  31.073  1.00  0.00    -0.203 F 
ATOM     92  F   UNL A   1      46.478  33.209  36.517  1.00  0.00    -0.200 F 
ATOM     93  C   UNL A   1      46.834  34.456  34.544  1.00  0.00     0.200 A 
ATOM     94  F   UNL A   1      47.156  35.664  32.541  1.00  0.00    -0.200 F 
ATOM     95  F   UNL A   1      47.167  35.534  35.266  1.00  0.00    -0.200 F 
ENDBRANCH  61  85
BRANCH  73  96
ATOM     96  C   UNL A   1      49.562  26.913  30.090  1.00  0.00     0.064 A 
ATOM     97  C   UNL A   1      50.382  27.425  29.074  1.00  0.00     0.173 A 
ATOM     98  C   UNL A   1      50.159  26.096  31.064  1.00  0.00     0.173 A 
ATOM     99  F   UNL A   1      49.861  28.202  28.113  1.00  0.00    -0.203 F 
ATOM    100  C   UNL A   1      51.735  27.099  29.013  1.00  0.00     0.198 A 
ATOM    101  C   UNL A   1      51.519  25.804  31.021  1.00  0.00     0.198 A 
ATOM    102  F   UNL A   1      49.425  25.589  32.066  1.00  0.00    -0.203 F 
ATOM    103  F   UNL A   1      52.485  27.550  27.998  1.00  0.00    -0.200 F 
ATOM    104  C   UNL A   1      52.304  26.295  29.989  1.00  0.00     0.200 A 
ATOM    105  F   UNL A   1      52.070  25.043  31.977  1.00  0.00    -0.200 F 
ATOM    106  F   UNL A   1      53.606  25.987  29.931  1.00  0.00    -0.200 F 
ENDBRANCH  73  96
ENDBRANCH  47  48
ENDBRANCH  40  42
ENDBRANCH  39  40
ENDBRANCH  38  39
ENDBRANCH  37  38
ENDBRANCH  36  37
ENDBRANCH  35  36
ENDBRANCH  34  35
ENDBRANCH  33  34
ENDBRANCH   1  33
TORSDOF 26
ENDMDL
