MODEL 1
REMARK VINA RESULT:     -11.0      0.000      0.000
REMARK SMILES C[N@H+]([C@@H]1CCOC2(CCCC2)C1)C(C)(C)C(=O)OCCOCCOCCOCCOC(=O)c1ccc(-c2c3nc(c(-c4c(F)c(F)c(F)c(F)c4F)c4ccc([nH]4)c(-c4c(F)c(F)c(F)c(F)c4F)c4nc(c(-c5c(F)c(F)c(F)c(F)c5F)c5ccc2[nH]5)C=C4)C=C3)cc1
REMARK SMILES IDX 24 1 23 2 22 3 21 4 20 5 19 6 18 7 16 8 17 9 13 10 14 11
REMARK SMILES IDX 15 12 2 13 1 14 3 16 4 17 12 18 5 19 7 20 6 21 8 22 11 23
REMARK SMILES IDX 9 24 10 25 25 26 26 27 27 28 28 29 29 30 30 31 31 32 32 33
REMARK SMILES IDX 33 34 34 35 95 36 35 37 94 38 36 39 37 40 38 41 88 42 39 43
REMARK SMILES IDX 93 44 87 45 89 46 40 47 92 48 86 49 85 50 41 52 73 53 53 54
REMARK SMILES IDX 72 55 54 56 57 57 71 58 90 59 55 60 56 61 70 63 91 64 58 65
REMARK SMILES IDX 42 66 43 67 51 68 44 69 45 70 49 71 52 72 46 73 47 74 50 75
REMARK SMILES IDX 48 76 74 77 75 78 83 79 76 80 77 81 81 82 84 83 78 84 79 85
REMARK SMILES IDX 82 86 80 87 59 88 60 89 68 90 61 91 62 92 66 93 69 94 63 95
REMARK SMILES IDX 64 96 67 97 65 98
REMARK H PARENT 2 15 89 51 57 62
REMARK Flexibility Score: inf
ROOT
ATOM      1  O   UNL A   1      40.831  21.159  27.507  1.00  0.00    -0.377 OA
ENDROOT
BRANCH   1   2
ATOM      2  C   UNL A   1      39.940  21.355  26.424  1.00  0.00     0.188 C 
BRANCH   2   3
ATOM      3  C   UNL A   1      39.010  22.576  26.410  1.00  0.00     0.188 C 
BRANCH   3   4
ATOM      4  O   UNL A   1      37.972  22.482  25.451  1.00  0.00    -0.376 OA
BRANCH   4   5
ATOM      5  C   UNL A   1      37.253  21.263  25.374  1.00  0.00     0.202 C 
BRANCH   5   6
ATOM      6  C   UNL A   1      35.876  21.264  24.680  1.00  0.00     0.261 C 
BRANCH   6   7
ATOM      7  O   UNL A   1      35.115  22.481  24.756  1.00  0.00    -0.459 OA
BRANCH   7   8
ATOM      8  C   UNL A   1      34.775  23.026  23.561  1.00  0.00     0.367 C 
ATOM      9  O   UNL A   1      35.635  23.324  22.738  1.00  0.00    -0.245 OA
BRANCH   8  10
ATOM     10  C   UNL A   1      33.236  23.295  23.409  1.00  0.00     0.190 C 
ATOM     11  C   UNL A   1      32.614  22.700  24.698  1.00  0.00     0.092 C 
ATOM     12  C   UNL A   1      32.549  22.418  22.309  1.00  0.00     0.092 C 
BRANCH  10  13
ATOM     13  N   UNL A   1      32.894  24.785  23.261  1.00  0.00    -0.321 N 
ATOM     14  C   UNL A   1      32.789  25.217  21.861  1.00  0.00     0.333 C 
ATOM     15  H   UNL A   1      31.973  24.795  23.699  1.00  0.00     0.349 HD
BRANCH  13  16
ATOM     16  C   UNL A   1      33.647  25.791  24.081  1.00  0.00     0.189 C 
ATOM     17  C   UNL A   1      33.502  25.633  25.605  1.00  0.00     0.093 C 
ATOM     18  C   UNL A   1      33.232  27.280  23.858  1.00  0.00     0.100 C 
ATOM     19  C   UNL A   1      32.060  25.867  26.022  1.00  0.00     0.167 C 
ATOM     20  C   UNL A   1      31.801  27.582  24.339  1.00  0.00     0.074 C 
ATOM     21  O   UNL A   1      31.639  27.190  25.712  1.00  0.00    -0.375 OA
ATOM     22  C   UNL A   1      31.508  29.102  24.324  1.00  0.00     0.036 C 
ATOM     23  C   UNL A   1      30.707  26.976  23.435  1.00  0.00     0.036 C 
ATOM     24  C   UNL A   1      30.311  29.301  23.402  1.00  0.00     0.003 C 
ATOM     25  C   UNL A   1      29.571  27.979  23.460  1.00  0.00     0.003 C 
ENDBRANCH  13  16
ENDBRANCH  10  13
ENDBRANCH   8  10
ENDBRANCH   7   8
ENDBRANCH   6   7
ENDBRANCH   5   6
ENDBRANCH   4   5
ENDBRANCH   3   4
ENDBRANCH   2   3
ENDBRANCH   1   2
BRANCH   1  26
ATOM     26  C   UNL A   1      41.726  20.058  27.465  1.00  0.00     0.188 C 
BRANCH  26  27
ATOM     27  C   UNL A   1      41.994  19.297  26.147  1.00  0.00     0.188 C 
BRANCH  27  28
ATOM     28  O   UNL A   1      42.798  19.975  25.197  1.00  0.00    -0.376 OA
BRANCH  28  29
ATOM     29  C   UNL A   1      44.150  20.230  25.554  1.00  0.00     0.202 C 
BRANCH  29  30
ATOM     30  C   UNL A   1      44.650  21.677  25.402  1.00  0.00     0.261 C 
BRANCH  30  31
ATOM     31  O   UNL A   1      43.676  22.704  25.646  1.00  0.00    -0.460 OA
BRANCH  31  32
ATOM     32  C   UNL A   1      43.974  23.950  25.228  1.00  0.00     0.338 C 
ATOM     33  O   UNL A   1      44.606  24.273  24.237  1.00  0.00    -0.246 OA
BRANCH  32  34
ATOM     34  C   UNL A   1      43.228  24.896  26.078  1.00  0.00     0.060 A 
ATOM     35  C   UNL A   1      43.516  26.266  25.992  1.00  0.00     0.016 A 
ATOM     36  C   UNL A   1      42.239  24.429  26.946  1.00  0.00     0.016 A 
ATOM     37  C   UNL A   1      42.841  27.173  26.805  1.00  0.00     0.010 A 
ATOM     38  C   UNL A   1      41.588  25.334  27.786  1.00  0.00     0.010 A 
ATOM     39  C   UNL A   1      41.918  26.700  27.747  1.00  0.00    -0.014 A 
BRANCH  39  40
ATOM     40  C   UNL A   1      41.507  27.580  28.865  1.00  0.00     0.031 A 
ATOM     41  C   UNL A   1      42.289  27.482  30.145  1.00  0.00     0.074 A 
ATOM     42  C   UNL A   1      40.491  28.450  28.749  1.00  0.00     0.049 A 
ATOM     43  N   UNL A   1      42.084  28.068  31.296  1.00  0.00    -0.248 NA
ATOM     44  C   UNL A   1      43.466  26.596  30.123  1.00  0.00     0.031 C 
ATOM     45  C   UNL A   1      39.703  28.679  27.541  1.00  0.00     0.029 A 
ATOM     46  N   UNL A   1      39.942  29.299  29.678  1.00  0.00    -0.354 N 
ATOM     47  C   UNL A   1      43.099  27.617  32.130  1.00  0.00     0.074 A 
ATOM     48  C   UNL A   1      43.899  26.684  31.369  1.00  0.00     0.031 C 
ATOM     49  C   UNL A   1      38.758  29.599  27.807  1.00  0.00     0.029 A 
ATOM     50  C   UNL A   1      38.850  29.990  29.213  1.00  0.00     0.049 A 
ATOM     51  H   UNL A   1      40.298  29.403  30.589  1.00  0.00     0.167 HD
ATOM     52  C   UNL A   1      43.346  27.959  33.416  1.00  0.00     0.037 A 
ATOM     53  C   UNL A   1      38.010  30.817  29.867  1.00  0.00     0.037 A 
ATOM     54  C   UNL A   1      42.542  28.880  34.171  1.00  0.00     0.049 A 
ATOM     55  C   UNL A   1      38.248  31.101  31.331  1.00  0.00     0.074 A 
ATOM     56  C   UNL A   1      42.698  29.287  35.482  1.00  0.00     0.029 A 
ATOM     57  N   UNL A   1      41.423  29.534  33.677  1.00  0.00    -0.354 N 
ATOM     58  N   UNL A   1      39.210  30.680  32.116  1.00  0.00    -0.248 NA
ATOM     59  C   UNL A   1      37.279  31.981  32.002  1.00  0.00     0.031 C 
ATOM     60  C   UNL A   1      41.641  30.144  35.801  1.00  0.00     0.029 A 
ATOM     61  C   UNL A   1      40.868  30.327  34.666  1.00  0.00     0.049 A 
ATOM     62  H   UNL A   1      41.076  29.447  32.759  1.00  0.00     0.167 HD
ATOM     63  C   UNL A   1      38.990  31.277  33.351  1.00  0.00     0.074 A 
ATOM     64  C   UNL A   1      37.806  32.097  33.212  1.00  0.00     0.031 C 
ATOM     65  C   UNL A   1      39.704  31.162  34.498  1.00  0.00     0.037 A 
BRANCH  52  66
ATOM     66  C   UNL A   1      44.518  27.311  34.094  1.00  0.00     0.064 A 
ATOM     67  C   UNL A   1      45.786  27.910  34.108  1.00  0.00     0.173 A 
ATOM     68  C   UNL A   1      44.362  26.089  34.765  1.00  0.00     0.173 A 
ATOM     69  F   UNL A   1      45.994  29.069  33.464  1.00  0.00    -0.203 F 
ATOM     70  C   UNL A   1      46.860  27.301  34.752  1.00  0.00     0.198 A 
ATOM     71  C   UNL A   1      45.429  25.499  35.436  1.00  0.00     0.198 A 
ATOM     72  F   UNL A   1      43.171  25.472  34.780  1.00  0.00    -0.203 F 
ATOM     73  F   UNL A   1      48.073  27.869  34.713  1.00  0.00    -0.200 F 
ATOM     74  C   UNL A   1      46.678  26.102  35.424  1.00  0.00     0.200 A 
ATOM     75  F   UNL A   1      45.248  24.346  36.096  1.00  0.00    -0.200 F 
ATOM     76  F   UNL A   1      47.708  25.522  36.055  1.00  0.00    -0.200 F 
ENDBRANCH  52  66
BRANCH  53  77
ATOM     77  C   UNL A   1      36.850  31.428  29.161  1.00  0.00     0.064 A 
ATOM     78  C   UNL A   1      36.826  32.797  28.856  1.00  0.00     0.173 A 
ATOM     79  C   UNL A   1      35.717  30.669  28.829  1.00  0.00     0.173 A 
ATOM     80  F   UNL A   1      37.873  33.572  29.177  1.00  0.00    -0.203 F 
ATOM     81  C   UNL A   1      35.703  33.388  28.279  1.00  0.00     0.198 A 
ATOM     82  C   UNL A   1      34.610  31.255  28.220  1.00  0.00     0.198 A 
ATOM     83  F   UNL A   1      35.683  29.357  29.101  1.00  0.00    -0.203 F 
ATOM     84  F   UNL A   1      35.684  34.710  28.061  1.00  0.00    -0.200 F 
ATOM     85  C   UNL A   1      34.598  32.616  27.958  1.00  0.00     0.200 A 
ATOM     86  F   UNL A   1      33.548  30.503  27.900  1.00  0.00    -0.200 F 
ATOM     87  F   UNL A   1      33.517  33.186  27.409  1.00  0.00    -0.200 F 
ENDBRANCH  53  77
BRANCH  65  88
ATOM     88  C   UNL A   1      39.277  31.993  35.675  1.00  0.00     0.064 A 
ATOM     89  C   UNL A   1      39.690  33.323  35.836  1.00  0.00     0.173 A 
ATOM     90  C   UNL A   1      38.390  31.462  36.626  1.00  0.00     0.173 A 
ATOM     91  F   UNL A   1      40.544  33.876  34.963  1.00  0.00    -0.203 F 
ATOM     92  C   UNL A   1      39.252  34.082  36.920  1.00  0.00     0.198 A 
ATOM     93  C   UNL A   1      37.926  32.234  37.686  1.00  0.00     0.198 A 
ATOM     94  F   UNL A   1      37.955  30.197  36.512  1.00  0.00    -0.203 F 
ATOM     95  F   UNL A   1      39.699  35.335  37.081  1.00  0.00    -0.200 F 
ATOM     96  C   UNL A   1      38.364  33.541  37.837  1.00  0.00     0.200 A 
ATOM     97  F   UNL A   1      37.052  31.715  38.559  1.00  0.00    -0.200 F 
ATOM     98  F   UNL A   1      37.934  34.277  38.871  1.00  0.00    -0.200 F 
ENDBRANCH  65  88
ENDBRANCH  39  40
ENDBRANCH  32  34
ENDBRANCH  31  32
ENDBRANCH  30  31
ENDBRANCH  29  30
ENDBRANCH  28  29
ENDBRANCH  27  28
ENDBRANCH  26  27
ENDBRANCH   1  26
TORSDOF 22
ENDMDL
MODEL 2
REMARK VINA RESULT:     -10.4      0.934      2.156
REMARK SMILES C[N@H+]([C@@H]1CCOC2(CCCC2)C1)C(C)(C)C(=O)OCCOCCOCCOCCOC(=O)c1ccc(-c2c3nc(c(-c4c(F)c(F)c(F)c(F)c4F)c4ccc([nH]4)c(-c4c(F)c(F)c(F)c(F)c4F)c4nc(c(-c5c(F)c(F)c(F)c(F)c5F)c5ccc2[nH]5)C=C4)C=C3)cc1
REMARK SMILES IDX 24 1 23 2 22 3 21 4 20 5 19 6 18 7 16 8 17 9 13 10 14 11
REMARK SMILES IDX 15 12 2 13 1 14 3 16 4 17 12 18 5 19 7 20 6 21 8 22 11 23
REMARK SMILES IDX 9 24 10 25 25 26 26 27 27 28 28 29 29 30 30 31 31 32 32 33
REMARK SMILES IDX 33 34 34 35 95 36 35 37 94 38 36 39 37 40 38 41 88 42 39 43
REMARK SMILES IDX 93 44 87 45 89 46 40 47 92 48 86 49 85 50 41 52 73 53 53 54
REMARK SMILES IDX 72 55 54 56 57 57 71 58 90 59 55 60 56 61 70 63 91 64 58 65
REMARK SMILES IDX 42 66 43 67 51 68 44 69 45 70 49 71 52 72 46 73 47 74 50 75
REMARK SMILES IDX 48 76 74 77 75 78 83 79 76 80 77 81 81 82 84 83 78 84 79 85
REMARK SMILES IDX 82 86 80 87 59 88 60 89 68 90 61 91 62 92 66 93 69 94 63 95
REMARK SMILES IDX 64 96 67 97 65 98
REMARK H PARENT 2 15 89 51 57 62
REMARK Flexibility Score: inf
ROOT
ATOM      1  O   UNL A   1      39.274  22.170  26.406  1.00  0.00    -0.377 OA
ENDROOT
BRANCH   1   2
ATOM      2  C   UNL A   1      37.891  22.235  26.107  1.00  0.00     0.188 C 
BRANCH   2   3
ATOM      3  C   UNL A   1      37.397  21.894  24.695  1.00  0.00     0.188 C 
BRANCH   3   4
ATOM      4  O   UNL A   1      37.096  23.037  23.912  1.00  0.00    -0.376 OA
BRANCH   4   5
ATOM      5  C   UNL A   1      36.006  22.950  23.011  1.00  0.00     0.202 C 
BRANCH   5   6
ATOM      6  C   UNL A   1      34.681  23.639  23.393  1.00  0.00     0.261 C 
BRANCH   6   7
ATOM      7  O   UNL A   1      34.097  23.267  24.654  1.00  0.00    -0.459 OA
BRANCH   7   8
ATOM      8  C   UNL A   1      33.449  24.264  25.307  1.00  0.00     0.367 C 
ATOM      9  O   UNL A   1      34.064  25.230  25.749  1.00  0.00    -0.245 OA
BRANCH   8  10
ATOM     10  C   UNL A   1      31.914  23.996  25.496  1.00  0.00     0.190 C 
ATOM     11  C   UNL A   1      31.769  23.641  26.998  1.00  0.00     0.092 C 
ATOM     12  C   UNL A   1      31.418  22.673  24.823  1.00  0.00     0.092 C 
BRANCH  10  13
ATOM     13  N   UNL A   1      31.039  25.202  25.121  1.00  0.00    -0.321 N 
ATOM     14  C   UNL A   1      30.058  25.547  26.158  1.00  0.00     0.333 C 
ATOM     15  H   UNL A   1      31.758  25.924  25.067  1.00  0.00     0.349 HD
BRANCH  13  16
ATOM     16  C   UNL A   1      30.425  25.261  23.754  1.00  0.00     0.189 C 
ATOM     17  C   UNL A   1      31.422  25.172  22.585  1.00  0.00     0.093 C 
ATOM     18  C   UNL A   1      29.643  26.573  23.428  1.00  0.00     0.100 C 
ATOM     19  C   UNL A   1      32.347  26.376  22.592  1.00  0.00     0.167 C 
ATOM     20  C   UNL A   1      30.555  27.811  23.350  1.00  0.00     0.074 C 
ATOM     21  O   UNL A   1      31.623  27.588  22.414  1.00  0.00    -0.375 OA
ATOM     22  C   UNL A   1      29.794  29.040  22.796  1.00  0.00     0.036 C 
ATOM     23  C   UNL A   1      31.082  28.276  24.723  1.00  0.00     0.036 C 
ATOM     24  C   UNL A   1      29.881  30.119  23.869  1.00  0.00     0.003 C 
ATOM     25  C   UNL A   1      31.151  29.788  24.630  1.00  0.00     0.003 C 
ENDBRANCH  13  16
ENDBRANCH  10  13
ENDBRANCH   8  10
ENDBRANCH   7   8
ENDBRANCH   6   7
ENDBRANCH   5   6
ENDBRANCH   4   5
ENDBRANCH   3   4
ENDBRANCH   2   3
ENDBRANCH   1   2
BRANCH   1  26
ATOM     26  C   UNL A   1      39.988  20.986  26.082  1.00  0.00     0.188 C 
BRANCH  26  27
ATOM     27  C   UNL A   1      41.388  20.711  26.678  1.00  0.00     0.188 C 
BRANCH  27  28
ATOM     28  O   UNL A   1      42.273  19.972  25.855  1.00  0.00    -0.376 OA
BRANCH  28  29
ATOM     29  C   UNL A   1      43.571  20.512  25.647  1.00  0.00     0.202 C 
BRANCH  29  30
ATOM     30  C   UNL A   1      43.650  21.922  25.038  1.00  0.00     0.261 C 
BRANCH  30  31
ATOM     31  O   UNL A   1      43.843  22.997  25.971  1.00  0.00    -0.460 OA
BRANCH  31  32
ATOM     32  C   UNL A   1      44.000  24.236  25.464  1.00  0.00     0.338 C 
ATOM     33  O   UNL A   1      44.534  24.549  24.412  1.00  0.00    -0.246 OA
BRANCH  32  34
ATOM     34  C   UNL A   1      43.232  25.166  26.311  1.00  0.00     0.060 A 
ATOM     35  C   UNL A   1      43.575  26.525  26.319  1.00  0.00     0.016 A 
ATOM     36  C   UNL A   1      42.168  24.695  27.083  1.00  0.00     0.016 A 
ATOM     37  C   UNL A   1      42.879  27.415  27.133  1.00  0.00     0.010 A 
ATOM     38  C   UNL A   1      41.495  25.580  27.925  1.00  0.00     0.010 A 
ATOM     39  C   UNL A   1      41.876  26.933  27.983  1.00  0.00    -0.014 A 
BRANCH  39  40
ATOM     40  C   UNL A   1      41.420  27.769  29.117  1.00  0.00     0.031 A 
ATOM     41  C   UNL A   1      42.187  27.663  30.406  1.00  0.00     0.074 A 
ATOM     42  C   UNL A   1      40.378  28.610  29.007  1.00  0.00     0.049 A 
ATOM     43  N   UNL A   1      41.946  28.212  31.568  1.00  0.00    -0.248 NA
ATOM     44  C   UNL A   1      43.391  26.816  30.379  1.00  0.00     0.031 C 
ATOM     45  C   UNL A   1      39.602  28.845  27.793  1.00  0.00     0.029 A 
ATOM     46  N   UNL A   1      39.789  29.416  29.949  1.00  0.00    -0.354 N 
ATOM     47  C   UNL A   1      42.962  27.771  32.406  1.00  0.00     0.074 A 
ATOM     48  C   UNL A   1      43.803  26.885  31.634  1.00  0.00     0.031 C 
ATOM     49  C   UNL A   1      38.623  29.727  28.069  1.00  0.00     0.029 A 
ATOM     50  C   UNL A   1      38.682  30.083  29.485  1.00  0.00     0.049 A 
ATOM     51  H   UNL A   1      40.128  29.507  30.868  1.00  0.00     0.167 HD
ATOM     52  C   UNL A   1      43.179  28.087  33.703  1.00  0.00     0.037 A 
ATOM     53  C   UNL A   1      37.807  30.866  30.147  1.00  0.00     0.037 A 
ATOM     54  C   UNL A   1      42.336  28.962  34.469  1.00  0.00     0.049 A 
ATOM     55  C   UNL A   1      38.014  31.119  31.622  1.00  0.00     0.074 A 
ATOM     56  C   UNL A   1      42.459  29.339  35.793  1.00  0.00     0.029 A 
ATOM     57  N   UNL A   1      41.203  29.593  33.975  1.00  0.00    -0.354 N 
ATOM     58  N   UNL A   1      38.978  30.708  32.411  1.00  0.00    -0.248 NA
ATOM     59  C   UNL A   1      37.007  31.950  32.300  1.00  0.00     0.031 C 
ATOM     60  C   UNL A   1      41.370  30.154  36.118  1.00  0.00     0.029 A 
ATOM     61  C   UNL A   1      40.608  30.342  34.976  1.00  0.00     0.049 A 
ATOM     62  H   UNL A   1      40.872  29.519  33.051  1.00  0.00     0.167 HD
ATOM     63  C   UNL A   1      38.720  31.265  33.657  1.00  0.00     0.074 A 
ATOM     64  C   UNL A   1      37.512  32.050  33.521  1.00  0.00     0.031 C 
ATOM     65  C   UNL A   1      39.421  31.143  34.812  1.00  0.00     0.037 A 
BRANCH  52  66
ATOM     66  C   UNL A   1      44.362  27.460  34.383  1.00  0.00     0.064 A 
ATOM     67  C   UNL A   1      45.596  28.118  34.473  1.00  0.00     0.173 A 
ATOM     68  C   UNL A   1      44.247  26.195  34.979  1.00  0.00     0.173 A 
ATOM     69  F   UNL A   1      45.765  29.321  33.901  1.00  0.00    -0.203 F 
ATOM     70  C   UNL A   1      46.680  27.526  35.117  1.00  0.00     0.198 A 
ATOM     71  C   UNL A   1      45.322  25.620  35.651  1.00  0.00     0.198 A 
ATOM     72  F   UNL A   1      43.089  25.521  34.920  1.00  0.00    -0.203 F 
ATOM     73  F   UNL A   1      47.863  28.155  35.150  1.00  0.00    -0.200 F 
ATOM     74  C   UNL A   1      46.539  26.283  35.714  1.00  0.00     0.200 A 
ATOM     75  F   UNL A   1      45.180  24.424  36.240  1.00  0.00    -0.200 F 
ATOM     76  F   UNL A   1      47.578  25.719  36.345  1.00  0.00    -0.200 F 
ENDBRANCH  52  66
BRANCH  53  77
ATOM     77  C   UNL A   1      36.637  31.457  29.439  1.00  0.00     0.064 A 
ATOM     78  C   UNL A   1      35.585  30.650  28.982  1.00  0.00     0.173 A 
ATOM     79  C   UNL A   1      36.576  32.830  29.153  1.00  0.00     0.173 A 
ATOM     80  F   UNL A   1      35.609  29.329  29.206  1.00  0.00    -0.203 F 
ATOM     81  C   UNL A   1      34.535  31.188  28.238  1.00  0.00     0.198 A 
ATOM     82  C   UNL A   1      35.508  33.370  28.440  1.00  0.00     0.198 A 
ATOM     83  F   UNL A   1      37.556  33.646  29.562  1.00  0.00    -0.203 F 
ATOM     84  F   UNL A   1      33.579  30.382  27.757  1.00  0.00    -0.200 F 
ATOM     85  C   UNL A   1      34.495  32.547  27.972  1.00  0.00     0.200 A 
ATOM     86  F   UNL A   1      35.467  34.687  28.195  1.00  0.00    -0.200 F 
ATOM     87  F   UNL A   1      33.489  33.062  27.252  1.00  0.00    -0.200 F 
ENDBRANCH  53  77
BRANCH  65  88
ATOM     88  C   UNL A   1      38.950  31.929  36.003  1.00  0.00     0.064 A 
ATOM     89  C   UNL A   1      38.146  31.359  37.001  1.00  0.00     0.173 A 
ATOM     90  C   UNL A   1      39.362  33.261  36.173  1.00  0.00     0.173 A 
ATOM     91  F   UNL A   1      37.716  30.095  36.883  1.00  0.00    -0.203 F 
ATOM     92  C   UNL A   1      37.751  32.103  38.111  1.00  0.00     0.198 A 
ATOM     93  C   UNL A   1      38.994  33.989  37.301  1.00  0.00     0.198 A 
ATOM     94  F   UNL A   1      40.141  33.851  35.253  1.00  0.00    -0.203 F 
ATOM     95  F   UNL A   1      36.941  31.554  39.027  1.00  0.00    -0.200 F 
ATOM     96  C   UNL A   1      38.183  33.412  38.265  1.00  0.00     0.200 A 
ATOM     97  F   UNL A   1      39.431  35.246  37.457  1.00  0.00    -0.200 F 
ATOM     98  F   UNL A   1      37.811  34.119  39.340  1.00  0.00    -0.200 F 
ENDBRANCH  65  88
ENDBRANCH  39  40
ENDBRANCH  32  34
ENDBRANCH  31  32
ENDBRANCH  30  31
ENDBRANCH  29  30
ENDBRANCH  28  29
ENDBRANCH  27  28
ENDBRANCH  26  27
ENDBRANCH   1  26
TORSDOF 22
ENDMDL
MODEL 3
REMARK VINA RESULT:      -9.9      1.158      7.267
REMARK SMILES C[N@H+]([C@@H]1CCOC2(CCCC2)C1)C(C)(C)C(=O)OCCOCCOCCOCCOC(=O)c1ccc(-c2c3nc(c(-c4c(F)c(F)c(F)c(F)c4F)c4ccc([nH]4)c(-c4c(F)c(F)c(F)c(F)c4F)c4nc(c(-c5c(F)c(F)c(F)c(F)c5F)c5ccc2[nH]5)C=C4)C=C3)cc1
REMARK SMILES IDX 24 1 23 2 22 3 21 4 20 5 19 6 18 7 16 8 17 9 13 10 14 11
REMARK SMILES IDX 15 12 2 13 1 14 3 16 4 17 12 18 5 19 7 20 6 21 8 22 11 23
REMARK SMILES IDX 9 24 10 25 25 26 26 27 27 28 28 29 29 30 30 31 31 32 32 33
REMARK SMILES IDX 33 34 34 35 95 36 35 37 94 38 36 39 37 40 38 41 88 42 39 43
REMARK SMILES IDX 93 44 87 45 89 46 40 47 92 48 86 49 85 50 41 52 73 53 53 54
REMARK SMILES IDX 72 55 54 56 57 57 71 58 90 59 55 60 56 61 70 63 91 64 58 65
REMARK SMILES IDX 42 66 43 67 51 68 44 69 45 70 49 71 52 72 46 73 47 74 50 75
REMARK SMILES IDX 48 76 74 77 75 78 83 79 76 80 77 81 81 82 84 83 78 84 79 85
REMARK SMILES IDX 82 86 80 87 59 88 60 89 68 90 61 91 62 92 66 93 69 94 63 95
REMARK SMILES IDX 64 96 67 97 65 98
REMARK H PARENT 2 15 89 51 57 62
REMARK Flexibility Score: inf
ROOT
ATOM      1  O   UNL A   1      40.601  21.596  27.093  1.00  0.00    -0.377 OA
ENDROOT
BRANCH   1   2
ATOM      2  C   UNL A   1      39.472  22.274  26.575  1.00  0.00     0.188 C 
BRANCH   2   3
ATOM      3  C   UNL A   1      39.272  23.766  26.874  1.00  0.00     0.188 C 
BRANCH   3   4
ATOM      4  O   UNL A   1      37.986  24.244  26.520  1.00  0.00    -0.376 OA
BRANCH   4   5
ATOM      5  C   UNL A   1      37.355  23.664  25.391  1.00  0.00     0.202 C 
BRANCH   5   6
ATOM      6  C   UNL A   1      35.883  23.221  25.520  1.00  0.00     0.261 C 
BRANCH   6   7
ATOM      7  O   UNL A   1      34.906  24.011  24.820  1.00  0.00    -0.459 OA
BRANCH   7   8
ATOM      8  C   UNL A   1      34.398  23.440  23.699  1.00  0.00     0.367 C 
ATOM      9  O   UNL A   1      35.115  23.205  22.731  1.00  0.00    -0.245 OA
BRANCH   8  10
ATOM     10  C   UNL A   1      32.845  23.214  23.759  1.00  0.00     0.190 C 
ATOM     11  C   UNL A   1      32.641  22.284  24.983  1.00  0.00     0.092 C 
ATOM     12  C   UNL A   1      32.295  22.315  22.601  1.00  0.00     0.092 C 
BRANCH  10  13
ATOM     13  N   UNL A   1      32.049  24.519  23.910  1.00  0.00    -0.321 N 
ATOM     14  C   UNL A   1      31.075  24.477  25.007  1.00  0.00     0.333 C 
ATOM     15  H   UNL A   1      32.810  25.157  24.143  1.00  0.00     0.349 HD
BRANCH  13  16
ATOM     16  C   UNL A   1      31.460  25.160  22.687  1.00  0.00     0.189 C 
ATOM     17  C   UNL A   1      32.469  25.502  21.577  1.00  0.00     0.093 C 
ATOM     18  C   UNL A   1      30.749  26.529  22.928  1.00  0.00     0.100 C 
ATOM     19  C   UNL A   1      33.453  26.550  22.067  1.00  0.00     0.167 C 
ATOM     20  C   UNL A   1      31.723  27.643  23.353  1.00  0.00     0.074 C 
ATOM     21  O   UNL A   1      32.793  27.765  22.401  1.00  0.00    -0.375 OA
ATOM     22  C   UNL A   1      31.033  29.029  23.351  1.00  0.00     0.036 C 
ATOM     23  C   UNL A   1      32.251  27.483  24.794  1.00  0.00     0.036 C 
ATOM     24  C   UNL A   1      31.156  29.574  24.770  1.00  0.00     0.003 C 
ATOM     25  C   UNL A   1      32.397  28.897  25.322  1.00  0.00     0.003 C 
ENDBRANCH  13  16
ENDBRANCH  10  13
ENDBRANCH   8  10
ENDBRANCH   7   8
ENDBRANCH   6   7
ENDBRANCH   5   6
ENDBRANCH   4   5
ENDBRANCH   3   4
ENDBRANCH   2   3
ENDBRANCH   1   2
BRANCH   1  26
ATOM     26  C   UNL A   1      41.536  21.032  26.185  1.00  0.00     0.188 C 
BRANCH  26  27
ATOM     27  C   UNL A   1      42.768  21.834  25.707  1.00  0.00     0.188 C 
BRANCH  27  28
ATOM     28  O   UNL A   1      43.924  21.069  25.413  1.00  0.00    -0.376 OA
BRANCH  28  29
ATOM     29  C   UNL A   1      44.996  21.737  24.762  1.00  0.00     0.202 C 
BRANCH  29  30
ATOM     30  C   UNL A   1      44.642  22.990  23.943  1.00  0.00     0.261 C 
BRANCH  30  31
ATOM     31  O   UNL A   1      44.056  24.074  24.680  1.00  0.00    -0.460 OA
BRANCH  31  32
ATOM     32  C   UNL A   1      44.891  24.873  25.375  1.00  0.00     0.338 C 
ATOM     33  O   UNL A   1      46.074  25.083  25.159  1.00  0.00    -0.246 OA
BRANCH  32  34
ATOM     34  C   UNL A   1      44.081  25.626  26.349  1.00  0.00     0.060 A 
ATOM     35  C   UNL A   1      44.253  27.014  26.452  1.00  0.00     0.016 A 
ATOM     36  C   UNL A   1      43.147  24.962  27.146  1.00  0.00     0.016 A 
ATOM     37  C   UNL A   1      43.517  27.740  27.386  1.00  0.00     0.010 A 
ATOM     38  C   UNL A   1      42.436  25.684  28.105  1.00  0.00     0.010 A 
ATOM     39  C   UNL A   1      42.650  27.066  28.255  1.00  0.00    -0.014 A 
BRANCH  39  40
ATOM     40  C   UNL A   1      42.183  27.746  29.485  1.00  0.00     0.031 A 
ATOM     41  C   UNL A   1      40.897  28.520  29.400  1.00  0.00     0.074 A 
ATOM     42  C   UNL A   1      42.859  27.666  30.643  1.00  0.00     0.049 A 
ATOM     43  N   UNL A   1      40.316  29.275  30.297  1.00  0.00    -0.248 NA
ATOM     44  C   UNL A   1      40.166  28.432  28.124  1.00  0.00     0.031 C 
ATOM     45  C   UNL A   1      44.079  26.894  30.861  1.00  0.00     0.029 A 
ATOM     46  N   UNL A   1      42.610  28.259  31.855  1.00  0.00    -0.354 N 
ATOM     47  C   UNL A   1      39.162  29.753  29.691  1.00  0.00     0.074 A 
ATOM     48  C   UNL A   1      39.137  29.234  28.342  1.00  0.00     0.031 C 
ATOM     49  C   UNL A   1      44.484  27.075  32.132  1.00  0.00     0.029 A 
ATOM     50  C   UNL A   1      43.575  28.006  32.799  1.00  0.00     0.049 A 
ATOM     51  H   UNL A   1      41.816  28.813  32.031  1.00  0.00     0.167 HD
ATOM     52  C   UNL A   1      38.201  30.547  30.217  1.00  0.00     0.037 A 
ATOM     53  C   UNL A   1      43.714  28.500  34.045  1.00  0.00     0.037 A 
ATOM     54  C   UNL A   1      38.235  31.068  31.556  1.00  0.00     0.049 A 
ATOM     55  C   UNL A   1      42.682  29.468  34.573  1.00  0.00     0.074 A 
ATOM     56  C   UNL A   1      37.319  31.891  32.185  1.00  0.00     0.029 A 
ATOM     57  N   UNL A   1      39.246  30.817  32.472  1.00  0.00    -0.354 N 
ATOM     58  N   UNL A   1      41.588  29.913  34.002  1.00  0.00    -0.248 NA
ATOM     59  C   UNL A   1      42.904  30.003  35.925  1.00  0.00     0.031 C 
ATOM     60  C   UNL A   1      37.803  32.184  33.463  1.00  0.00     0.029 A 
ATOM     61  C   UNL A   1      38.985  31.487  33.655  1.00  0.00     0.049 A 
ATOM     62  H   UNL A   1      40.032  30.248  32.305  1.00  0.00     0.167 HD
ATOM     63  C   UNL A   1      40.974  30.738  34.936  1.00  0.00     0.074 A 
ATOM     64  C   UNL A   1      41.811  30.727  36.116  1.00  0.00     0.031 C 
ATOM     65  C   UNL A   1      39.817  31.439  34.831  1.00  0.00     0.037 A 
BRANCH  52  66
ATOM     66  C   UNL A   1      37.049  30.924  29.333  1.00  0.00     0.064 A 
ATOM     67  C   UNL A   1      36.018  30.019  29.039  1.00  0.00     0.173 A 
ATOM     68  C   UNL A   1      36.959  32.217  28.797  1.00  0.00     0.173 A 
ATOM     69  F   UNL A   1      36.066  28.763  29.509  1.00  0.00    -0.203 F 
ATOM     70  C   UNL A   1      34.950  30.389  28.226  1.00  0.00     0.198 A 
ATOM     71  C   UNL A   1      35.873  32.594  28.012  1.00  0.00     0.198 A 
ATOM     72  F   UNL A   1      37.919  33.120  29.045  1.00  0.00    -0.203 F 
ATOM     73  F   UNL A   1      34.000  29.493  27.921  1.00  0.00    -0.200 F 
ATOM     74  C   UNL A   1      34.873  31.678  27.722  1.00  0.00     0.200 A 
ATOM     75  F   UNL A   1      35.794  33.845  27.537  1.00  0.00    -0.200 F 
ATOM     76  F   UNL A   1      33.838  32.038  26.950  1.00  0.00    -0.200 F 
ENDBRANCH  52  66
BRANCH  53  77
ATOM     77  C   UNL A   1      44.881  28.113  34.885  1.00  0.00     0.064 A 
ATOM     78  C   UNL A   1      44.809  27.023  35.766  1.00  0.00     0.173 A 
ATOM     79  C   UNL A   1      46.070  28.858  34.868  1.00  0.00     0.173 A 
ATOM     80  F   UNL A   1      43.686  26.295  35.840  1.00  0.00    -0.203 F 
ATOM     81  C   UNL A   1      45.868  26.716  36.620  1.00  0.00     0.198 A 
ATOM     82  C   UNL A   1      47.140  28.527  35.698  1.00  0.00     0.198 A 
ATOM     83  F   UNL A   1      46.193  29.910  34.049  1.00  0.00    -0.203 F 
ATOM     84  F   UNL A   1      45.745  25.711  37.499  1.00  0.00    -0.200 F 
ATOM     85  C   UNL A   1      47.033  27.464  36.582  1.00  0.00     0.200 A 
ATOM     86  F   UNL A   1      48.269  29.246  35.649  1.00  0.00    -0.200 F 
ATOM     87  F   UNL A   1      48.047  27.172  37.408  1.00  0.00    -0.200 F 
ENDBRANCH  53  77
BRANCH  65  88
ATOM     88  C   UNL A   1      39.344  32.193  36.042  1.00  0.00     0.064 A 
ATOM     89  C   UNL A   1      39.757  33.506  36.309  1.00  0.00     0.173 A 
ATOM     90  C   UNL A   1      38.414  31.608  36.916  1.00  0.00     0.173 A 
ATOM     91  F   UNL A   1      40.652  34.109  35.512  1.00  0.00    -0.203 F 
ATOM     92  C   UNL A   1      39.277  34.194  37.422  1.00  0.00     0.198 A 
ATOM     93  C   UNL A   1      37.910  32.311  38.005  1.00  0.00     0.198 A 
ATOM     94  F   UNL A   1      37.977  30.357  36.699  1.00  0.00    -0.203 F 
ATOM     95  F   UNL A   1      39.724  35.430  37.686  1.00  0.00    -0.200 F 
ATOM     96  C   UNL A   1      38.347  33.600  38.262  1.00  0.00     0.200 A 
ATOM     97  F   UNL A   1      36.996  31.742  38.803  1.00  0.00    -0.200 F 
ATOM     98  F   UNL A   1      37.878  34.269  39.324  1.00  0.00    -0.200 F 
ENDBRANCH  65  88
ENDBRANCH  39  40
ENDBRANCH  32  34
ENDBRANCH  31  32
ENDBRANCH  30  31
ENDBRANCH  29  30
ENDBRANCH  28  29
ENDBRANCH  27  28
ENDBRANCH  26  27
ENDBRANCH   1  26
TORSDOF 22
ENDMDL
