MODEL 1
REMARK VINA RESULT:      -9.3      0.000      0.000
REMARK SMILES CCN1C(=O)N/C(=C/c2cc(Cl)c(OCc3cccc(C(=O)OCCOCCOCCOCCOC(=O)c4ccc(-c5c6nc(c(-c7c(F)c(F)c(F)c(F)c7F)c7ccc([nH]7)c(-c7c(F)c(F)c(F)c(F)c7F)c7nc(c(-c8c(F)c(F)c(F)c(F)c8F)c8ccc5[nH]8)C=C7)C=C6)cc4)c3)c(OC)c2)C1=O
REMARK SMILES IDX 27 1 26 2 25 3 24 4 23 5 21 6 22 7 20 8 16 9 17 10 101 11
REMARK SMILES IDX 18 12 19 13 15 14 14 15 13 16 9 17 10 18 105 19 11 20 102 21
REMARK SMILES IDX 12 22 8 23 3 24 4 25 106 26 5 27 6 28 7 29 107 30 2 32 1 33
REMARK SMILES IDX 103 34 104 35 28 36 29 37 30 38 31 39 32 40 33 41 34 42
REMARK SMILES IDX 35 43 36 44 37 45 38 46 39 47 100 48 40 49 99 50 41 51 42 52
REMARK SMILES IDX 43 53 93 54 44 55 98 56 92 57 94 58 45 59 97 60 91 61 90 62
REMARK SMILES IDX 46 64 78 65 58 66 77 67 59 68 62 69 76 70 95 71 60 72 61 73
REMARK SMILES IDX 75 75 96 76 63 77 47 78 48 79 56 80 49 81 50 82 54 83 57 84
REMARK SMILES IDX 51 85 52 86 55 87 53 88 79 89 80 90 88 91 81 92 82 93 86 94
REMARK SMILES IDX 89 95 83 96 84 97 87 98 85 99 64 100 65 101 73 102 66 103
REMARK SMILES IDX 67 104 71 105 74 106 68 107 69 108 72 109 70 110
REMARK H PARENT 6 31 94 63 62 74
REMARK Flexibility Score: inf
ROOT
ATOM      1  C   UNL A   1      33.520  28.415  22.464  1.00  0.00     0.188 C 
ENDROOT
BRANCH   1   2
ATOM      2  O   UNL A   1      33.973  27.099  22.200  1.00  0.00    -0.376 OA
BRANCH   2   3
ATOM      3  C   UNL A   1      33.065  26.153  21.670  1.00  0.00     0.202 C 
BRANCH   3   4
ATOM      4  C   UNL A   1      33.248  24.660  21.992  1.00  0.00     0.261 C 
BRANCH   4   5
ATOM      5  O   UNL A   1      32.998  24.262  23.345  1.00  0.00    -0.460 OA
BRANCH   5   6
ATOM      6  C   UNL A   1      32.027  23.344  23.562  1.00  0.00     0.338 C 
ATOM      7  O   UNL A   1      30.856  23.436  23.244  1.00  0.00    -0.246 OA
BRANCH   6   8
ATOM      8  C   UNL A   1      32.698  22.101  24.021  1.00  0.00     0.060 A 
ATOM      9  C   UNL A   1      34.599  20.956  25.034  1.00  0.00    -0.010 A 
ATOM     10  C   UNL A   1      34.095  19.742  24.546  1.00  0.00     0.007 A 
ATOM     11  C   UNL A   1      33.915  22.144  24.715  1.00  0.00     0.023 A 
ATOM     12  C   UNL A   1      32.871  19.697  23.872  1.00  0.00     0.001 A 
ATOM     13  C   UNL A   1      32.157  20.872  23.633  1.00  0.00     0.016 A 
BRANCH   9  14
ATOM     14  C   UNL A   1      35.846  21.051  25.897  1.00  0.00     0.265 C 
BRANCH  14  15
ATOM     15  O   UNL A   1      37.083  21.455  25.304  1.00  0.00    -0.483 OA
BRANCH  15  16
ATOM     16  C   UNL A   1      37.906  22.412  25.838  1.00  0.00     0.180 A 
ATOM     17  C   UNL A   1      39.731  23.999  27.285  1.00  0.00    -0.018 A 
ATOM     18  C   UNL A   1      38.517  24.533  26.847  1.00  0.00     0.033 A 
ATOM     19  C   UNL A   1      40.092  22.710  26.899  1.00  0.00     0.058 A 
ATOM     20  C   UNL A   1      37.616  23.757  26.106  1.00  0.00     0.087 A 
ATOM     21  C   UNL A   1      39.193  21.919  26.173  1.00  0.00     0.162 A 
ATOM     22  Cl  UNL A   1      36.223  24.604  25.530  1.00  0.00    -0.080 Cl
BRANCH  17  23
ATOM     23  C   UNL A   1      40.586  24.758  28.200  1.00  0.00     0.040 C 
ATOM     24  N   UNL A   1      43.206  26.515  26.486  1.00  0.00    -0.259 N 
ATOM     25  C   UNL A   1      43.460  26.792  27.816  1.00  0.00     0.328 C 
ATOM     26  C   UNL A   1      42.087  25.733  26.360  1.00  0.00     0.278 C 
ATOM     27  O   UNL A   1      44.389  27.432  28.278  1.00  0.00    -0.248 OA
ATOM     28  N   UNL A   1      42.472  26.187  28.575  1.00  0.00    -0.303 N 
ATOM     29  C   UNL A   1      41.614  25.501  27.769  1.00  0.00     0.109 C 
ATOM     30  O   UNL A   1      41.560  25.308  25.343  1.00  0.00    -0.267 OA
ATOM     31  H   UNL A   1      42.400  26.244  29.555  1.00  0.00     0.172 HD
BRANCH  24  32
ATOM     32  C   UNL A   1      44.114  26.924  25.428  1.00  0.00     0.127 C 
ATOM     33  C   UNL A   1      45.276  25.987  25.141  1.00  0.00     0.028 C 
ENDBRANCH  24  32
ENDBRANCH  17  23
BRANCH  21  34
ATOM     34  O   UNL A   1      39.464  20.623  25.795  1.00  0.00    -0.493 OA
ATOM     35  C   UNL A   1      40.684  20.052  26.252  1.00  0.00     0.278 C 
ENDBRANCH  21  34
ENDBRANCH  15  16
ENDBRANCH  14  15
ENDBRANCH   9  14
ENDBRANCH   6   8
ENDBRANCH   5   6
ENDBRANCH   4   5
ENDBRANCH   3   4
ENDBRANCH   2   3
ENDBRANCH   1   2
BRANCH   1  36
ATOM     36  C   UNL A   1      32.193  28.460  23.252  1.00  0.00     0.188 C 
BRANCH  36  37
ATOM     37  O   UNL A   1      32.038  29.454  24.255  1.00  0.00    -0.377 OA
BRANCH  37  38
ATOM     38  C   UNL A   1      31.788  29.067  25.604  1.00  0.00     0.188 C 
BRANCH  38  39
ATOM     39  C   UNL A   1      32.127  29.982  26.807  1.00  0.00     0.188 C 
BRANCH  39  40
ATOM     40  O   UNL A   1      33.357  29.697  27.449  1.00  0.00    -0.376 OA
BRANCH  40  41
ATOM     41  C   UNL A   1      34.277  30.755  27.630  1.00  0.00     0.202 C 
BRANCH  41  42
ATOM     42  C   UNL A   1      35.763  30.381  27.717  1.00  0.00     0.261 C 
BRANCH  42  43
ATOM     43  O   UNL A   1      36.460  30.831  28.888  1.00  0.00    -0.460 OA
BRANCH  43  44
ATOM     44  C   UNL A   1      37.624  30.215  29.188  1.00  0.00     0.338 C 
ATOM     45  O   UNL A   1      37.893  29.036  29.057  1.00  0.00    -0.246 OA
BRANCH  44  46
ATOM     46  C   UNL A   1      38.603  31.265  29.539  1.00  0.00     0.060 A 
ATOM     47  C   UNL A   1      39.902  30.893  29.908  1.00  0.00     0.016 A 
ATOM     48  C   UNL A   1      38.239  32.612  29.491  1.00  0.00     0.016 A 
ATOM     49  C   UNL A   1      40.833  31.868  30.266  1.00  0.00     0.010 A 
ATOM     50  C   UNL A   1      39.164  33.587  29.871  1.00  0.00     0.010 A 
ATOM     51  C   UNL A   1      40.453  33.217  30.293  1.00  0.00    -0.014 A 
BRANCH  51  52
ATOM     52  C   UNL A   1      41.331  34.213  30.952  1.00  0.00     0.031 A 
ATOM     53  C   UNL A   1      41.305  34.302  32.453  1.00  0.00     0.074 A 
ATOM     54  C   UNL A   1      42.148  35.010  30.241  1.00  0.00     0.049 A 
ATOM     55  N   UNL A   1      41.941  35.120  33.252  1.00  0.00    -0.248 NA
ATOM     56  C   UNL A   1      40.437  33.336  33.145  1.00  0.00     0.031 C 
ATOM     57  C   UNL A   1      42.291  34.991  28.788  1.00  0.00     0.029 A 
ATOM     58  N   UNL A   1      43.005  35.999  30.653  1.00  0.00    -0.354 N 
ATOM     59  C   UNL A   1      41.540  34.775  34.537  1.00  0.00     0.074 A 
ATOM     60  C   UNL A   1      40.585  33.697  34.411  1.00  0.00     0.031 C 
ATOM     61  C   UNL A   1      43.173  35.938  28.426  1.00  0.00     0.029 A 
ATOM     62  C   UNL A   1      43.630  36.651  29.620  1.00  0.00     0.049 A 
ATOM     63  H   UNL A   1      43.157  36.221  31.601  1.00  0.00     0.167 HD
ATOM     64  C   UNL A   1      41.942  35.305  35.716  1.00  0.00     0.037 A 
ATOM     65  C   UNL A   1      44.452  37.717  29.637  1.00  0.00     0.037 A 
ATOM     66  C   UNL A   1      42.892  36.380  35.836  1.00  0.00     0.049 A 
ATOM     67  C   UNL A   1      44.830  38.339  30.960  1.00  0.00     0.074 A 
ATOM     68  C   UNL A   1      43.384  36.971  36.986  1.00  0.00     0.029 A 
ATOM     69  N   UNL A   1      43.482  37.034  34.765  1.00  0.00    -0.354 N 
ATOM     70  N   UNL A   1      44.476  37.988  32.173  1.00  0.00    -0.248 NA
ATOM     71  C   UNL A   1      45.727  39.502  30.914  1.00  0.00     0.031 C 
ATOM     72  C   UNL A   1      44.218  38.029  36.609  1.00  0.00     0.029 A 
ATOM     73  C   UNL A   1      44.308  38.048  35.226  1.00  0.00     0.049 A 
ATOM     74  H   UNL A   1      43.337  36.812  33.817  1.00  0.00     0.167 HD
ATOM     75  C   UNL A   1      45.130  38.863  33.032  1.00  0.00     0.074 A 
ATOM     76  C   UNL A   1      45.915  39.752  32.201  1.00  0.00     0.031 C 
ATOM     77  C   UNL A   1      45.087  38.924  34.387  1.00  0.00     0.037 A 
BRANCH  64  78
ATOM     78  C   UNL A   1      41.322  34.756  36.970  1.00  0.00     0.064 A 
ATOM     79  C   UNL A   1      40.163  35.314  37.532  1.00  0.00     0.173 A 
ATOM     80  C   UNL A   1      41.885  33.639  37.606  1.00  0.00     0.173 A 
ATOM     81  F   UNL A   1      39.592  36.391  36.973  1.00  0.00    -0.203 F 
ATOM     82  C   UNL A   1      39.612  34.793  38.701  1.00  0.00     0.198 A 
ATOM     83  C   UNL A   1      41.311  33.100  38.753  1.00  0.00     0.198 A 
ATOM     84  F   UNL A   1      42.991  33.063  37.109  1.00  0.00    -0.203 F 
ATOM     85  F   UNL A   1      38.539  35.377  39.252  1.00  0.00    -0.200 F 
ATOM     86  C   UNL A   1      40.181  33.683  39.306  1.00  0.00     0.200 A 
ATOM     87  F   UNL A   1      41.855  32.017  39.327  1.00  0.00    -0.200 F 
ATOM     88  F   UNL A   1      39.646  33.179  40.426  1.00  0.00    -0.200 F 
ENDBRANCH  64  78
BRANCH  65  89
ATOM     89  C   UNL A   1      44.968  38.280  28.360  1.00  0.00     0.064 A 
ATOM     90  C   UNL A   1      44.234  39.229  27.635  1.00  0.00     0.173 A 
ATOM     91  C   UNL A   1      46.197  37.863  27.828  1.00  0.00     0.173 A 
ATOM     92  F   UNL A   1      43.040  39.639  28.086  1.00  0.00    -0.203 F 
ATOM     93  C   UNL A   1      44.700  39.725  26.419  1.00  0.00     0.198 A 
ATOM     94  C   UNL A   1      46.678  38.384  26.628  1.00  0.00     0.198 A 
ATOM     95  F   UNL A   1      46.938  36.953  28.478  1.00  0.00    -0.203 F 
ATOM     96  F   UNL A   1      43.954  40.592  25.721  1.00  0.00    -0.200 F 
ATOM     97  C   UNL A   1      45.925  39.308  25.920  1.00  0.00     0.200 A 
ATOM     98  F   UNL A   1      47.868  37.988  26.156  1.00  0.00    -0.200 F 
ATOM     99  F   UNL A   1      46.374  39.788  24.752  1.00  0.00    -0.200 F 
ENDBRANCH  65  89
BRANCH  77 100
ATOM    100  C   UNL A   1      45.946  39.957  35.064  1.00  0.00     0.064 A 
ATOM    101  C   UNL A   1      47.284  39.705  35.402  1.00  0.00     0.173 A 
ATOM    102  C   UNL A   1      45.431  41.234  35.342  1.00  0.00     0.173 A 
ATOM    103  F   UNL A   1      47.825  38.500  35.169  1.00  0.00    -0.203 F 
ATOM    104  C   UNL A   1      48.062  40.679  36.025  1.00  0.00     0.198 A 
ATOM    105  C   UNL A   1      46.222  42.216  35.930  1.00  0.00     0.198 A 
ATOM    106  F   UNL A   1      44.162  41.534  35.030  1.00  0.00    -0.203 F 
ATOM    107  F   UNL A   1      49.320  40.396  36.391  1.00  0.00    -0.200 F 
ATOM    108  C   UNL A   1      47.533  41.936  36.280  1.00  0.00     0.200 A 
ATOM    109  F   UNL A   1      45.714  43.436  36.157  1.00  0.00    -0.200 F 
ATOM    110  F   UNL A   1      48.286  42.874  36.871  1.00  0.00    -0.200 F 
ENDBRANCH  77 100
ENDBRANCH  51  52
ENDBRANCH  44  46
ENDBRANCH  43  44
ENDBRANCH  42  43
ENDBRANCH  41  42
ENDBRANCH  40  41
ENDBRANCH  39  40
ENDBRANCH  38  39
ENDBRANCH  37  38
ENDBRANCH  36  37
ENDBRANCH   1  36
TORSDOF 26
ENDMDL
MODEL 2
REMARK VINA RESULT:      -9.1      5.537      8.927
REMARK SMILES CCN1C(=O)N/C(=C/c2cc(Cl)c(OCc3cccc(C(=O)OCCOCCOCCOCCOC(=O)c4ccc(-c5c6nc(c(-c7c(F)c(F)c(F)c(F)c7F)c7ccc([nH]7)c(-c7c(F)c(F)c(F)c(F)c7F)c7nc(c(-c8c(F)c(F)c(F)c(F)c8F)c8ccc5[nH]8)C=C7)C=C6)cc4)c3)c(OC)c2)C1=O
REMARK SMILES IDX 27 1 26 2 25 3 24 4 23 5 21 6 22 7 20 8 16 9 17 10 101 11
REMARK SMILES IDX 18 12 19 13 15 14 14 15 13 16 9 17 10 18 105 19 11 20 102 21
REMARK SMILES IDX 12 22 8 23 3 24 4 25 106 26 5 27 6 28 7 29 107 30 2 32 1 33
REMARK SMILES IDX 103 34 104 35 28 36 29 37 30 38 31 39 32 40 33 41 34 42
REMARK SMILES IDX 35 43 36 44 37 45 38 46 39 47 100 48 40 49 99 50 41 51 42 52
REMARK SMILES IDX 43 53 93 54 44 55 98 56 92 57 94 58 45 59 97 60 91 61 90 62
REMARK SMILES IDX 46 64 78 65 58 66 77 67 59 68 62 69 76 70 95 71 60 72 61 73
REMARK SMILES IDX 75 75 96 76 63 77 47 78 48 79 56 80 49 81 50 82 54 83 57 84
REMARK SMILES IDX 51 85 52 86 55 87 53 88 79 89 80 90 88 91 81 92 82 93 86 94
REMARK SMILES IDX 89 95 83 96 84 97 87 98 85 99 64 100 65 101 73 102 66 103
REMARK SMILES IDX 67 104 71 105 74 106 68 107 69 108 72 109 70 110
REMARK H PARENT 6 31 94 63 62 74
REMARK Flexibility Score: inf
ROOT
ATOM      1  C   UNL A   1      32.060  28.985  24.131  1.00  0.00     0.188 C 
ENDROOT
BRANCH   1   2
ATOM      2  O   UNL A   1      31.991  27.613  23.784  1.00  0.00    -0.376 OA
BRANCH   2   3
ATOM      3  C   UNL A   1      33.039  27.044  23.023  1.00  0.00     0.202 C 
BRANCH   3   4
ATOM      4  C   UNL A   1      33.647  25.698  23.453  1.00  0.00     0.261 C 
BRANCH   4   5
ATOM      5  O   UNL A   1      32.806  24.546  23.320  1.00  0.00    -0.460 OA
BRANCH   5   6
ATOM      6  C   UNL A   1      32.875  23.846  22.163  1.00  0.00     0.338 C 
ATOM      7  O   UNL A   1      33.292  24.250  21.093  1.00  0.00    -0.246 OA
BRANCH   6   8
ATOM      8  C   UNL A   1      32.597  22.425  22.497  1.00  0.00     0.060 A 
ATOM      9  C   UNL A   1      32.962  20.452  23.883  1.00  0.00    -0.010 A 
ATOM     10  C   UNL A   1      32.346  19.674  22.893  1.00  0.00     0.007 A 
ATOM     11  C   UNL A   1      33.132  21.829  23.646  1.00  0.00     0.023 A 
ATOM     12  C   UNL A   1      31.794  20.272  21.756  1.00  0.00     0.001 A 
ATOM     13  C   UNL A   1      31.894  21.651  21.570  1.00  0.00     0.016 A 
BRANCH   9  14
ATOM     14  C   UNL A   1      33.451  19.882  25.204  1.00  0.00     0.265 C 
BRANCH  14  15
ATOM     15  O   UNL A   1      33.957  20.765  26.208  1.00  0.00    -0.483 OA
BRANCH  15  16
ATOM     16  C   UNL A   1      35.174  21.390  26.129  1.00  0.00     0.180 A 
ATOM     17  C   UNL A   1      37.389  23.111  25.855  1.00  0.00    -0.018 A 
ATOM     18  C   UNL A   1      37.426  21.816  25.333  1.00  0.00     0.033 A 
ATOM     19  C   UNL A   1      36.295  23.509  26.621  1.00  0.00     0.058 A 
ATOM     20  C   UNL A   1      36.339  20.947  25.486  1.00  0.00     0.087 A 
ATOM     21  C   UNL A   1      35.195  22.656  26.767  1.00  0.00     0.162 A 
ATOM     22  Cl  UNL A   1      36.595  19.342  24.897  1.00  0.00    -0.080 Cl
BRANCH  17  23
ATOM     23  C   UNL A   1      38.455  24.065  25.544  1.00  0.00     0.040 C 
ATOM     24  N   UNL A   1      41.599  23.133  27.005  1.00  0.00    -0.259 N 
ATOM     25  C   UNL A   1      41.882  24.340  26.396  1.00  0.00     0.328 C 
ATOM     26  C   UNL A   1      40.291  22.779  26.794  1.00  0.00     0.278 C 
ATOM     27  O   UNL A   1      42.936  24.953  26.412  1.00  0.00    -0.248 OA
ATOM     28  N   UNL A   1      40.732  24.777  25.759  1.00  0.00    -0.303 N 
ATOM     29  C   UNL A   1      39.712  23.900  25.974  1.00  0.00     0.109 C 
ATOM     30  O   UNL A   1      39.698  21.778  27.169  1.00  0.00    -0.267 OA
ATOM     31  H   UNL A   1      40.662  25.603  25.227  1.00  0.00     0.172 HD
BRANCH  24  32
ATOM     32  C   UNL A   1      42.568  22.449  27.845  1.00  0.00     0.127 C 
ATOM     33  C   UNL A   1      42.710  22.967  29.266  1.00  0.00     0.028 C 
ENDBRANCH  24  32
ENDBRANCH  17  23
BRANCH  21  34
ATOM     34  O   UNL A   1      34.063  23.000  27.473  1.00  0.00    -0.493 OA
ATOM     35  C   UNL A   1      33.123  23.847  26.824  1.00  0.00     0.278 C 
ENDBRANCH  21  34
ENDBRANCH  15  16
ENDBRANCH  14  15
ENDBRANCH   9  14
ENDBRANCH   6   8
ENDBRANCH   5   6
ENDBRANCH   4   5
ENDBRANCH   3   4
ENDBRANCH   2   3
ENDBRANCH   1   2
BRANCH   1  36
ATOM     36  C   UNL A   1      31.788  29.253  25.627  1.00  0.00     0.188 C 
BRANCH  36  37
ATOM     37  O   UNL A   1      32.264  30.466  26.192  1.00  0.00    -0.377 OA
BRANCH  37  38
ATOM     38  C   UNL A   1      33.320  30.436  27.149  1.00  0.00     0.188 C 
BRANCH  38  39
ATOM     39  C   UNL A   1      33.876  31.721  27.812  1.00  0.00     0.188 C 
BRANCH  39  40
ATOM     40  O   UNL A   1      33.030  32.854  27.727  1.00  0.00    -0.376 OA
BRANCH  40  41
ATOM     41  C   UNL A   1      33.515  34.089  28.218  1.00  0.00     0.202 C 
BRANCH  41  42
ATOM     42  C   UNL A   1      33.807  34.176  29.722  1.00  0.00     0.261 C 
BRANCH  42  43
ATOM     43  O   UNL A   1      33.317  35.346  30.393  1.00  0.00    -0.460 OA
BRANCH  43  44
ATOM     44  C   UNL A   1      33.001  35.221  31.700  1.00  0.00     0.338 C 
ATOM     45  O   UNL A   1      31.902  35.338  32.211  1.00  0.00    -0.246 OA
BRANCH  44  46
ATOM     46  C   UNL A   1      34.204  34.727  32.402  1.00  0.00     0.060 A 
ATOM     47  C   UNL A   1      35.402  35.445  32.292  1.00  0.00     0.016 A 
ATOM     48  C   UNL A   1      34.141  33.566  33.175  1.00  0.00     0.016 A 
ATOM     49  C   UNL A   1      36.554  34.981  32.928  1.00  0.00     0.010 A 
ATOM     50  C   UNL A   1      35.300  33.091  33.793  1.00  0.00     0.010 A 
ATOM     51  C   UNL A   1      36.518  33.777  33.643  1.00  0.00    -0.014 A 
BRANCH  51  52
ATOM     52  C   UNL A   1      37.787  33.134  34.061  1.00  0.00     0.031 A 
ATOM     53  C   UNL A   1      38.415  32.131  33.133  1.00  0.00     0.074 A 
ATOM     54  C   UNL A   1      38.381  33.443  35.226  1.00  0.00     0.049 A 
ATOM     55  N   UNL A   1      39.490  31.403  33.294  1.00  0.00    -0.248 NA
ATOM     56  C   UNL A   1      37.730  31.918  31.848  1.00  0.00     0.031 C 
ATOM     57  C   UNL A   1      37.892  34.425  36.189  1.00  0.00     0.029 A 
ATOM     58  N   UNL A   1      39.526  32.947  35.799  1.00  0.00    -0.354 N 
ATOM     59  C   UNL A   1      39.602  30.640  32.139  1.00  0.00     0.074 A 
ATOM     60  C   UNL A   1      38.472  30.968  31.300  1.00  0.00     0.031 C 
ATOM     61  C   UNL A   1      38.724  34.450  37.244  1.00  0.00     0.029 A 
ATOM     62  C   UNL A   1      39.784  33.462  37.044  1.00  0.00     0.049 A 
ATOM     63  H   UNL A   1      40.107  32.286  35.357  1.00  0.00     0.167 HD
ATOM     64  C   UNL A   1      40.568  29.752  31.806  1.00  0.00     0.037 A 
ATOM     65  C   UNL A   1      40.750  33.148  37.930  1.00  0.00     0.037 A 
ATOM     66  C   UNL A   1      41.690  29.427  32.647  1.00  0.00     0.049 A 
ATOM     67  C   UNL A   1      41.775  32.102  37.567  1.00  0.00     0.074 A 
ATOM     68  C   UNL A   1      42.737  28.559  32.390  1.00  0.00     0.029 A 
ATOM     69  N   UNL A   1      41.903  29.947  33.914  1.00  0.00    -0.354 N 
ATOM     70  N   UNL A   1      41.897  31.408  36.461  1.00  0.00    -0.248 NA
ATOM     71  C   UNL A   1      42.801  31.800  38.575  1.00  0.00     0.031 C 
ATOM     72  C   UNL A   1      43.545  28.502  33.531  1.00  0.00     0.029 A 
ATOM     73  C   UNL A   1      43.046  29.391  34.468  1.00  0.00     0.049 A 
ATOM     74  H   UNL A   1      41.328  30.613  34.357  1.00  0.00     0.167 HD
ATOM     75  C   UNL A   1      43.026  30.615  36.627  1.00  0.00     0.074 A 
ATOM     76  C   UNL A   1      43.562  30.925  37.935  1.00  0.00     0.031 C 
ATOM     77  C   UNL A   1      43.572  29.713  35.772  1.00  0.00     0.037 A 
BRANCH  64  78
ATOM     78  C   UNL A   1      40.429  29.037  30.491  1.00  0.00     0.064 A 
ATOM     79  C   UNL A   1      39.689  27.852  30.364  1.00  0.00     0.173 A 
ATOM     80  C   UNL A   1      41.030  29.561  29.336  1.00  0.00     0.173 A 
ATOM     81  F   UNL A   1      39.106  27.299  31.439  1.00  0.00    -0.203 F 
ATOM     82  C   UNL A   1      39.582  27.202  29.136  1.00  0.00     0.198 A 
ATOM     83  C   UNL A   1      40.891  28.928  28.104  1.00  0.00     0.198 A 
ATOM     84  F   UNL A   1      41.745  30.693  29.399  1.00  0.00    -0.203 F 
ATOM     85  F   UNL A   1      38.919  26.040  29.050  1.00  0.00    -0.200 F 
ATOM     86  C   UNL A   1      40.177  27.744  28.007  1.00  0.00     0.200 A 
ATOM     87  F   UNL A   1      41.453  29.462  27.011  1.00  0.00    -0.200 F 
ATOM     88  F   UNL A   1      40.067  27.121  26.825  1.00  0.00    -0.200 F 
ENDBRANCH  64  78
BRANCH  65  89
ATOM     89  C   UNL A   1      40.789  33.821  39.256  1.00  0.00     0.064 A 
ATOM     90  C   UNL A   1      40.052  33.330  40.343  1.00  0.00     0.173 A 
ATOM     91  C   UNL A   1      41.551  34.982  39.458  1.00  0.00     0.173 A 
ATOM     92  F   UNL A   1      39.286  32.240  40.194  1.00  0.00    -0.203 F 
ATOM     93  C   UNL A   1      40.060  33.985  41.574  1.00  0.00     0.198 A 
ATOM     94  C   UNL A   1      41.584  35.617  40.698  1.00  0.00     0.198 A 
ATOM     95  F   UNL A   1      42.271  35.497  38.451  1.00  0.00    -0.203 F 
ATOM     96  F   UNL A   1      39.304  33.524  42.579  1.00  0.00    -0.200 F 
ATOM     97  C   UNL A   1      40.831  35.123  41.752  1.00  0.00     0.200 A 
ATOM     98  F   UNL A   1      42.341  36.709  40.870  1.00  0.00    -0.200 F 
ATOM     99  F   UNL A   1      40.841  35.750  42.936  1.00  0.00    -0.200 F 
ENDBRANCH  65  89
BRANCH  77 100
ATOM    100  C   UNL A   1      44.839  29.026  36.203  1.00  0.00     0.064 A 
ATOM    101  C   UNL A   1      46.101  29.611  36.016  1.00  0.00     0.173 A 
ATOM    102  C   UNL A   1      44.785  27.780  36.849  1.00  0.00     0.173 A 
ATOM    103  F   UNL A   1      46.213  30.795  35.396  1.00  0.00    -0.203 F 
ATOM    104  C   UNL A   1      47.261  28.957  36.427  1.00  0.00     0.198 A 
ATOM    105  C   UNL A   1      45.943  27.149  37.291  1.00  0.00     0.198 A 
ATOM    106  F   UNL A   1      43.605  27.180  37.063  1.00  0.00    -0.203 F 
ATOM    107  F   UNL A   1      48.459  29.509  36.185  1.00  0.00    -0.200 F 
ATOM    108  C   UNL A   1      47.181  27.732  37.071  1.00  0.00     0.200 A 
ATOM    109  F   UNL A   1      45.861  25.973  37.932  1.00  0.00    -0.200 F 
ATOM    110  F   UNL A   1      48.297  27.110  37.474  1.00  0.00    -0.200 F 
ENDBRANCH  77 100
ENDBRANCH  51  52
ENDBRANCH  44  46
ENDBRANCH  43  44
ENDBRANCH  42  43
ENDBRANCH  41  42
ENDBRANCH  40  41
ENDBRANCH  39  40
ENDBRANCH  38  39
ENDBRANCH  37  38
ENDBRANCH  36  37
ENDBRANCH   1  36
TORSDOF 26
ENDMDL
MODEL 3
REMARK VINA RESULT:      -8.6      5.579      9.707
REMARK SMILES CCN1C(=O)N/C(=C/c2cc(Cl)c(OCc3cccc(C(=O)OCCOCCOCCOCCOC(=O)c4ccc(-c5c6nc(c(-c7c(F)c(F)c(F)c(F)c7F)c7ccc([nH]7)c(-c7c(F)c(F)c(F)c(F)c7F)c7nc(c(-c8c(F)c(F)c(F)c(F)c8F)c8ccc5[nH]8)C=C7)C=C6)cc4)c3)c(OC)c2)C1=O
REMARK SMILES IDX 27 1 26 2 25 3 24 4 23 5 21 6 22 7 20 8 16 9 17 10 101 11
REMARK SMILES IDX 18 12 19 13 15 14 14 15 13 16 9 17 10 18 105 19 11 20 102 21
REMARK SMILES IDX 12 22 8 23 3 24 4 25 106 26 5 27 6 28 7 29 107 30 2 32 1 33
REMARK SMILES IDX 103 34 104 35 28 36 29 37 30 38 31 39 32 40 33 41 34 42
REMARK SMILES IDX 35 43 36 44 37 45 38 46 39 47 100 48 40 49 99 50 41 51 42 52
REMARK SMILES IDX 43 53 93 54 44 55 98 56 92 57 94 58 45 59 97 60 91 61 90 62
REMARK SMILES IDX 46 64 78 65 58 66 77 67 59 68 62 69 76 70 95 71 60 72 61 73
REMARK SMILES IDX 75 75 96 76 63 77 47 78 48 79 56 80 49 81 50 82 54 83 57 84
REMARK SMILES IDX 51 85 52 86 55 87 53 88 79 89 80 90 88 91 81 92 82 93 86 94
REMARK SMILES IDX 89 95 83 96 84 97 87 98 85 99 64 100 65 101 73 102 66 103
REMARK SMILES IDX 67 104 71 105 74 106 68 107 69 108 72 109 70 110
REMARK H PARENT 6 31 94 63 62 74
REMARK Flexibility Score: inf
ROOT
ATOM      1  C   UNL A   1      34.992  33.048  29.324  1.00  0.00     0.188 C 
ENDROOT
BRANCH   1   2
ATOM      2  O   UNL A   1      36.061  33.016  28.396  1.00  0.00    -0.376 OA
BRANCH   2   3
ATOM      3  C   UNL A   1      37.111  32.088  28.589  1.00  0.00     0.202 C 
BRANCH   3   4
ATOM      4  C   UNL A   1      38.292  32.455  29.505  1.00  0.00     0.261 C 
BRANCH   4   5
ATOM      5  O   UNL A   1      38.758  31.428  30.388  1.00  0.00    -0.460 OA
BRANCH   5   6
ATOM      6  C   UNL A   1      38.429  30.148  30.095  1.00  0.00     0.338 C 
ATOM      7  O   UNL A   1      37.329  29.639  30.199  1.00  0.00    -0.246 OA
BRANCH   6   8
ATOM      8  C   UNL A   1      39.589  29.554  29.381  1.00  0.00     0.060 A 
ATOM      9  C   UNL A   1      40.578  27.776  28.035  1.00  0.00    -0.010 A 
ATOM     10  C   UNL A   1      41.848  28.275  28.357  1.00  0.00     0.007 A 
ATOM     11  C   UNL A   1      39.449  28.397  28.604  1.00  0.00     0.023 A 
ATOM     12  C   UNL A   1      41.986  29.441  29.115  1.00  0.00     0.001 A 
ATOM     13  C   UNL A   1      40.857  30.097  29.605  1.00  0.00     0.016 A 
BRANCH   9  14
ATOM     14  C   UNL A   1      40.358  26.601  27.097  1.00  0.00     0.265 C 
BRANCH  14  15
ATOM     15  O   UNL A   1      39.391  25.603  27.433  1.00  0.00    -0.483 OA
BRANCH  15  16
ATOM     16  C   UNL A   1      39.588  24.260  27.249  1.00  0.00     0.180 A 
ATOM     17  C   UNL A   1      40.505  21.631  26.808  1.00  0.00    -0.018 A 
ATOM     18  C   UNL A   1      39.310  22.073  26.235  1.00  0.00     0.033 A 
ATOM     19  C   UNL A   1      41.183  22.459  27.701  1.00  0.00     0.058 A 
ATOM     20  C   UNL A   1      38.836  23.369  26.470  1.00  0.00     0.087 A 
ATOM     21  C   UNL A   1      40.728  23.763  27.930  1.00  0.00     0.162 A 
ATOM     22  Cl  UNL A   1      37.282  23.714  25.796  1.00  0.00    -0.080 Cl
BRANCH  17  23
ATOM     23  C   UNL A   1      41.078  20.341  26.422  1.00  0.00     0.040 C 
ATOM     24  N   UNL A   1      44.437  20.647  25.190  1.00  0.00    -0.259 N 
ATOM     25  C   UNL A   1      44.171  19.299  25.045  1.00  0.00     0.328 C 
ATOM     26  C   UNL A   1      43.363  21.294  25.747  1.00  0.00     0.278 C 
ATOM     27  O   UNL A   1      44.894  18.446  24.559  1.00  0.00    -0.248 OA
ATOM     28  N   UNL A   1      42.897  19.059  25.533  1.00  0.00    -0.303 N 
ATOM     29  C   UNL A   1      42.327  20.223  25.954  1.00  0.00     0.109 C 
ATOM     30  O   UNL A   1      43.246  22.477  26.031  1.00  0.00    -0.267 OA
ATOM     31  H   UNL A   1      42.465  18.175  25.570  1.00  0.00     0.172 HD
BRANCH  24  32
ATOM     32  C   UNL A   1      45.658  21.249  24.685  1.00  0.00     0.127 C 
ATOM     33  C   UNL A   1      45.494  22.525  23.876  1.00  0.00     0.028 C 
ENDBRANCH  24  32
ENDBRANCH  17  23
BRANCH  21  34
ATOM     34  O   UNL A   1      41.372  24.650  28.764  1.00  0.00    -0.493 OA
ATOM     35  C   UNL A   1      42.683  24.305  29.196  1.00  0.00     0.278 C 
ENDBRANCH  21  34
ENDBRANCH  15  16
ENDBRANCH  14  15
ENDBRANCH   9  14
ENDBRANCH   6   8
ENDBRANCH   5   6
ENDBRANCH   4   5
ENDBRANCH   3   4
ENDBRANCH   2   3
ENDBRANCH   1   2
BRANCH   1  36
ATOM     36  C   UNL A   1      34.399  34.459  29.530  1.00  0.00     0.188 C 
BRANCH  36  37
ATOM     37  O   UNL A   1      34.145  34.896  30.857  1.00  0.00    -0.377 OA
BRANCH  37  38
ATOM     38  C   UNL A   1      34.931  34.389  31.933  1.00  0.00     0.188 C 
BRANCH  38  39
ATOM     39  C   UNL A   1      34.336  33.486  33.043  1.00  0.00     0.188 C 
BRANCH  39  40
ATOM     40  O   UNL A   1      35.254  33.079  34.041  1.00  0.00    -0.376 OA
BRANCH  40  41
ATOM     41  C   UNL A   1      35.637  34.024  35.022  1.00  0.00     0.202 C 
BRANCH  41  42
ATOM     42  C   UNL A   1      36.931  33.740  35.797  1.00  0.00     0.261 C 
BRANCH  42  43
ATOM     43  O   UNL A   1      38.156  34.008  35.099  1.00  0.00    -0.460 OA
BRANCH  43  44
ATOM     44  C   UNL A   1      39.298  33.961  35.819  1.00  0.00     0.338 C 
ATOM     45  O   UNL A   1      39.490  34.410  36.933  1.00  0.00    -0.246 OA
BRANCH  44  46
ATOM     46  C   UNL A   1      40.247  33.095  35.089  1.00  0.00     0.060 A 
ATOM     47  C   UNL A   1      41.602  33.115  35.442  1.00  0.00     0.016 A 
ATOM     48  C   UNL A   1      39.793  32.258  34.067  1.00  0.00     0.016 A 
ATOM     49  C   UNL A   1      42.516  32.322  34.748  1.00  0.00     0.010 A 
ATOM     50  C   UNL A   1      40.712  31.481  33.359  1.00  0.00     0.010 A 
ATOM     51  C   UNL A   1      42.081  31.536  33.672  1.00  0.00    -0.014 A 
BRANCH  51  52
ATOM     52  C   UNL A   1      43.077  30.935  32.754  1.00  0.00     0.031 A 
ATOM     53  C   UNL A   1      43.583  29.552  33.059  1.00  0.00     0.074 A 
ATOM     54  C   UNL A   1      43.512  31.589  31.663  1.00  0.00     0.049 A 
ATOM     55  N   UNL A   1      44.486  28.838  32.438  1.00  0.00    -0.248 NA
ATOM     56  C   UNL A   1      42.990  28.888  34.231  1.00  0.00     0.031 C 
ATOM     57  C   UNL A   1      43.068  32.914  31.240  1.00  0.00     0.029 A 
ATOM     58  N   UNL A   1      44.437  31.223  30.717  1.00  0.00    -0.354 N 
ATOM     59  C   UNL A   1      44.576  27.648  33.150  1.00  0.00     0.074 A 
ATOM     60  C   UNL A   1      43.662  27.748  34.266  1.00  0.00     0.031 C 
ATOM     61  C   UNL A   1      43.733  33.259  30.124  1.00  0.00     0.029 A 
ATOM     62  C   UNL A   1      44.673  32.194  29.776  1.00  0.00     0.049 A 
ATOM     63  H   UNL A   1      44.888  30.347  30.714  1.00  0.00     0.167 HD
ATOM     64  C   UNL A   1      45.346  26.565  32.889  1.00  0.00     0.037 A 
ATOM     65  C   UNL A   1      45.566  32.225  28.767  1.00  0.00     0.037 A 
ATOM     66  C   UNL A   1      46.257  26.472  31.778  1.00  0.00     0.049 A 
ATOM     67  C   UNL A   1      46.466  31.036  28.539  1.00  0.00     0.074 A 
ATOM     68  C   UNL A   1      47.064  25.409  31.412  1.00  0.00     0.029 A 
ATOM     69  N   UNL A   1      46.490  27.486  30.862  1.00  0.00    -0.354 N 
ATOM     70  N   UNL A   1      46.525  29.901  29.193  1.00  0.00    -0.248 NA
ATOM     71  C   UNL A   1      47.422  31.132  27.427  1.00  0.00     0.031 C 
ATOM     72  C   UNL A   1      47.837  25.807  30.316  1.00  0.00     0.029 A 
ATOM     73  C   UNL A   1      47.456  27.088  29.951  1.00  0.00     0.049 A 
ATOM     74  H   UNL A   1      46.038  28.361  30.858  1.00  0.00     0.167 HD
ATOM     75  C   UNL A   1      47.495  29.139  28.555  1.00  0.00     0.074 A 
ATOM     76  C   UNL A   1      47.989  29.935  27.451  1.00  0.00     0.031 C 
ATOM     77  C   UNL A   1      47.937  27.890  28.853  1.00  0.00     0.037 A 
BRANCH  64  78
ATOM     78  C   UNL A   1      45.268  25.411  33.849  1.00  0.00     0.064 A 
ATOM     79  C   UNL A   1      45.975  25.403  35.060  1.00  0.00     0.173 A 
ATOM     80  C   UNL A   1      44.453  24.306  33.558  1.00  0.00     0.173 A 
ATOM     81  F   UNL A   1      46.780  26.427  35.382  1.00  0.00    -0.203 F 
ATOM     82  C   UNL A   1      45.894  24.316  35.930  1.00  0.00     0.198 A 
ATOM     83  C   UNL A   1      44.347  23.239  34.445  1.00  0.00     0.198 A 
ATOM     84  F   UNL A   1      43.752  24.264  32.415  1.00  0.00    -0.203 F 
ATOM     85  F   UNL A   1      46.623  24.305  37.054  1.00  0.00    -0.200 F 
ATOM     86  C   UNL A   1      45.075  23.240  35.625  1.00  0.00     0.200 A 
ATOM     87  F   UNL A   1      43.543  22.207  34.155  1.00  0.00    -0.200 F 
ATOM     88  F   UNL A   1      44.992  22.199  36.465  1.00  0.00    -0.200 F 
ENDBRANCH  64  78
BRANCH  65  89
ATOM     89  C   UNL A   1      45.667  33.431  27.901  1.00  0.00     0.064 A 
ATOM     90  C   UNL A   1      44.971  33.515  26.687  1.00  0.00     0.173 A 
ATOM     91  C   UNL A   1      46.479  34.517  28.262  1.00  0.00     0.173 A 
ATOM     92  F   UNL A   1      44.205  32.492  26.283  1.00  0.00    -0.203 F 
ATOM     93  C   UNL A   1      45.099  34.628  25.858  1.00  0.00     0.198 A 
ATOM     94  C   UNL A   1      46.580  35.644  27.449  1.00  0.00     0.198 A 
ATOM     95  F   UNL A   1      47.170  34.487  29.411  1.00  0.00    -0.203 F 
ATOM     96  F   UNL A   1      44.465  34.659  24.679  1.00  0.00    -0.200 F 
ATOM     97  C   UNL A   1      45.898  35.695  26.243  1.00  0.00     0.200 A 
ATOM     98  F   UNL A   1      47.342  36.678  27.831  1.00  0.00    -0.200 F 
ATOM     99  F   UNL A   1      46.017  36.766  25.448  1.00  0.00    -0.200 F 
ENDBRANCH  65  89
BRANCH  77 100
ATOM    100  C   UNL A   1      48.976  27.286  27.948  1.00  0.00     0.064 A 
ATOM    101  C   UNL A   1      48.643  26.722  26.708  1.00  0.00     0.173 A 
ATOM    102  C   UNL A   1      50.332  27.309  28.314  1.00  0.00     0.173 A 
ATOM    103  F   UNL A   1      47.363  26.663  26.313  1.00  0.00    -0.203 F 
ATOM    104  C   UNL A   1      49.623  26.171  25.885  1.00  0.00     0.198 A 
ATOM    105  C   UNL A   1      51.312  26.792  27.472  1.00  0.00     0.198 A 
ATOM    106  F   UNL A   1      50.708  27.847  29.483  1.00  0.00    -0.203 F 
ATOM    107  F   UNL A   1      49.275  25.585  24.731  1.00  0.00    -0.200 F 
ATOM    108  C   UNL A   1      50.957  26.214  26.264  1.00  0.00     0.200 A 
ATOM    109  F   UNL A   1      52.602  26.854  27.832  1.00  0.00    -0.200 F 
ATOM    110  F   UNL A   1      51.900  25.693  25.467  1.00  0.00    -0.200 F 
ENDBRANCH  77 100
ENDBRANCH  51  52
ENDBRANCH  44  46
ENDBRANCH  43  44
ENDBRANCH  42  43
ENDBRANCH  41  42
ENDBRANCH  40  41
ENDBRANCH  39  40
ENDBRANCH  38  39
ENDBRANCH  37  38
ENDBRANCH  36  37
ENDBRANCH   1  36
TORSDOF 26
ENDMDL
