MODEL 1
REMARK VINA RESULT:     -10.2      0.000      0.000
REMARK SMILES C[NH+]1CCC(C(=O)N2C[C@@H](C(=O)OCCOCCOCCOCCOC(=O)c3ccc(-c4c5nc(c(-c6c(F)c(F)c(F)c(F)c6F)c6ccc([nH]6)c(-c6c(F)c(F)c(F)c(F)c6F)c6nc(c(-c7c(F)c(F)c(F)c(F)c7F)c7ccc4[nH]7)C=C6)C=C5)cc3)[C@H](c3ccc4c(c3)OCO4)C2)CC1
REMARK SMILES IDX 19 1 18 2 17 3 16 4 15 5 14 6 13 7 11 8 12 9 10 10 8 11 9 12
REMARK SMILES IDX 101 13 91 14 6 15 7 16 5 17 1 18 2 19 3 20 103 21 4 23
REMARK SMILES IDX 102 24 92 25 93 26 97 27 94 28 96 29 95 30 98 31 100 32
REMARK SMILES IDX 99 33 20 34 21 35 22 36 23 37 24 38 25 39 26 40 27 41 28 42
REMARK SMILES IDX 29 43 90 44 30 45 89 46 31 47 32 48 33 49 83 50 34 51 88 52
REMARK SMILES IDX 82 53 84 54 35 55 87 56 81 57 80 58 36 60 68 61 48 62 67 63
REMARK SMILES IDX 49 64 52 65 66 66 85 67 50 68 51 69 65 71 86 72 53 73 37 74
REMARK SMILES IDX 38 75 46 76 39 77 40 78 44 79 47 80 41 81 42 82 45 83 43 84
REMARK SMILES IDX 69 85 70 86 78 87 71 88 72 89 76 90 79 91 73 92 74 93 77 94
REMARK SMILES IDX 75 95 54 96 55 97 63 98 56 99 57 100 61 101 64 102 58 103
REMARK SMILES IDX 59 104 62 105 60 106
REMARK H PARENT 2 22 84 59 52 70
REMARK Flexibility Score: inf
ROOT
ATOM      1  O   UNL A   1      35.088  33.074  28.530  1.00  0.00    -0.377 OA
ENDROOT
BRANCH   1   2
ATOM      2  C   UNL A   1      35.863  31.996  28.040  1.00  0.00     0.188 C 
BRANCH   2   3
ATOM      3  C   UNL A   1      35.144  30.631  28.134  1.00  0.00     0.188 C 
BRANCH   3   4
ATOM      4  O   UNL A   1      34.292  30.207  27.085  1.00  0.00    -0.376 OA
BRANCH   4   5
ATOM      5  C   UNL A   1      32.894  30.449  27.060  1.00  0.00     0.202 C 
BRANCH   5   6
ATOM      6  C   UNL A   1      31.862  29.683  26.220  1.00  0.00     0.261 C 
BRANCH   6   7
ATOM      7  O   UNL A   1      32.153  29.524  24.841  1.00  0.00    -0.463 OA
BRANCH   7   8
ATOM      8  C   UNL A   1      32.680  28.341  24.442  1.00  0.00     0.311 C 
ATOM      9  O   UNL A   1      33.744  28.189  23.866  1.00  0.00    -0.252 OA
BRANCH   8  10
ATOM     10  C   UNL A   1      31.734  27.244  24.844  1.00  0.00     0.128 C 
ATOM     11  N   UNL A   1      31.553  25.055  25.522  1.00  0.00    -0.341 N 
ATOM     12  C   UNL A   1      32.432  26.184  25.660  1.00  0.00     0.135 C 
ATOM     13  C   UNL A   1      30.984  25.058  24.173  1.00  0.00     0.128 C 
ATOM     14  C   UNL A   1      31.131  26.506  23.630  1.00  0.00     0.055 C 
BRANCH  11  15
ATOM     15  C   UNL A   1      31.683  23.888  26.245  1.00  0.00     0.226 C 
ATOM     16  O   UNL A   1      31.227  23.797  27.386  1.00  0.00    -0.275 OA
BRANCH  15  17
ATOM     17  C   UNL A   1      32.636  22.802  25.716  1.00  0.00     0.090 C 
ATOM     18  C   UNL A   1      34.491  19.025  24.819  1.00  0.00     0.332 C 
ATOM     19  N   UNL A   1      33.709  20.095  25.440  1.00  0.00    -0.337 N 
ATOM     20  C   UNL A   1      32.684  20.580  24.507  1.00  0.00     0.262 C 
ATOM     21  C   UNL A   1      34.578  21.199  25.878  1.00  0.00     0.262 C 
ATOM     22  H   UNL A   1      33.247  19.718  26.268  1.00  0.00     0.347 HD
ATOM     23  C   UNL A   1      31.802  21.634  25.172  1.00  0.00     0.075 C 
ATOM     24  C   UNL A   1      33.754  22.271  26.614  1.00  0.00     0.075 C 
ENDBRANCH  15  17
ENDBRANCH  11  15
BRANCH  14  25
ATOM     25  C   UNL A   1      29.908  27.307  23.177  1.00  0.00    -0.038 A 
ATOM     26  C   UNL A   1      28.605  27.088  23.670  1.00  0.00     0.008 A 
ATOM     27  C   UNL A   1      30.137  28.448  22.372  1.00  0.00     0.054 A 
ATOM     28  C   UNL A   1      27.590  28.041  23.483  1.00  0.00     0.051 A 
ATOM     29  C   UNL A   1      29.157  29.411  22.296  1.00  0.00     0.166 A 
ATOM     30  C   UNL A   1      27.918  29.219  22.850  1.00  0.00     0.165 A 
ATOM     31  O   UNL A   1      29.310  30.662  21.782  1.00  0.00    -0.454 OA
ATOM     32  O   UNL A   1      27.135  30.326  22.743  1.00  0.00    -0.454 OA
ATOM     33  C   UNL A   1      28.119  31.286  22.305  1.00  0.00     0.468 C 
ENDBRANCH  14  25
ENDBRANCH   8  10
ENDBRANCH   7   8
ENDBRANCH   6   7
ENDBRANCH   5   6
ENDBRANCH   4   5
ENDBRANCH   3   4
ENDBRANCH   2   3
ENDBRANCH   1   2
BRANCH   1  34
ATOM     34  C   UNL A   1      35.799  34.135  29.158  1.00  0.00     0.188 C 
BRANCH  34  35
ATOM     35  C   UNL A   1      37.197  33.860  29.755  1.00  0.00     0.188 C 
BRANCH  35  36
ATOM     36  O   UNL A   1      37.202  33.686  31.164  1.00  0.00    -0.376 OA
BRANCH  36  37
ATOM     37  C   UNL A   1      35.985  33.416  31.836  1.00  0.00     0.202 C 
BRANCH  37  38
ATOM     38  C   UNL A   1      35.787  31.992  32.378  1.00  0.00     0.261 C 
BRANCH  38  39
ATOM     39  O   UNL A   1      36.341  30.935  31.582  1.00  0.00    -0.460 OA
BRANCH  39  40
ATOM     40  C   UNL A   1      37.273  30.147  32.154  1.00  0.00     0.338 C 
ATOM     41  O   UNL A   1      37.087  29.224  32.930  1.00  0.00    -0.246 OA
BRANCH  40  42
ATOM     42  C   UNL A   1      38.571  30.471  31.530  1.00  0.00     0.060 A 
ATOM     43  C   UNL A   1      39.663  30.789  32.350  1.00  0.00     0.016 A 
ATOM     44  C   UNL A   1      38.713  30.446  30.141  1.00  0.00     0.016 A 
ATOM     45  C   UNL A   1      40.894  31.113  31.779  1.00  0.00     0.010 A 
ATOM     46  C   UNL A   1      39.940  30.796  29.571  1.00  0.00     0.010 A 
ATOM     47  C   UNL A   1      41.025  31.162  30.386  1.00  0.00    -0.014 A 
BRANCH  47  48
ATOM     48  C   UNL A   1      42.228  31.780  29.779  1.00  0.00     0.031 A 
ATOM     49  C   UNL A   1      43.355  30.877  29.359  1.00  0.00     0.074 A 
ATOM     50  C   UNL A   1      42.323  33.109  29.601  1.00  0.00     0.049 A 
ATOM     51  N   UNL A   1      44.538  31.182  28.890  1.00  0.00    -0.248 NA
ATOM     52  C   UNL A   1      43.115  29.430  29.490  1.00  0.00     0.031 C 
ATOM     53  C   UNL A   1      41.282  34.082  29.928  1.00  0.00     0.029 A 
ATOM     54  N   UNL A   1      43.358  33.871  29.117  1.00  0.00    -0.354 N 
ATOM     55  C   UNL A   1      45.187  29.969  28.691  1.00  0.00     0.074 A 
ATOM     56  C   UNL A   1      44.277  28.925  29.104  1.00  0.00     0.031 C 
ATOM     57  C   UNL A   1      41.743  35.317  29.659  1.00  0.00     0.029 A 
ATOM     58  C   UNL A   1      43.122  35.223  29.180  1.00  0.00     0.049 A 
ATOM     59  H   UNL A   1      44.189  33.485  28.758  1.00  0.00     0.167 HD
ATOM     60  C   UNL A   1      46.430  29.751  28.206  1.00  0.00     0.037 A 
ATOM     61  C   UNL A   1      43.941  36.260  28.918  1.00  0.00     0.037 A 
ATOM     62  C   UNL A   1      47.328  30.794  27.786  1.00  0.00     0.049 A 
ATOM     63  C   UNL A   1      45.347  35.989  28.438  1.00  0.00     0.074 A 
ATOM     64  C   UNL A   1      48.594  30.673  27.241  1.00  0.00     0.029 A 
ATOM     65  N   UNL A   1      47.060  32.152  27.880  1.00  0.00    -0.354 N 
ATOM     66  N   UNL A   1      45.941  34.841  28.214  1.00  0.00    -0.248 NA
ATOM     67  C   UNL A   1      46.198  37.159  28.173  1.00  0.00     0.031 C 
ATOM     68  C   UNL A   1      49.120  31.956  27.070  1.00  0.00     0.029 A 
ATOM     69  C   UNL A   1      48.154  32.879  27.437  1.00  0.00     0.049 A 
ATOM     70  H   UNL A   1      46.219  32.541  28.210  1.00  0.00     0.167 HD
ATOM     71  C   UNL A   1      47.215  35.151  27.751  1.00  0.00     0.074 A 
ATOM     72  C   UNL A   1      47.303  36.595  27.711  1.00  0.00     0.031 C 
ATOM     73  C   UNL A   1      48.223  34.317  27.393  1.00  0.00     0.037 A 
BRANCH  60  74
ATOM     74  C   UNL A   1      46.918  28.333  28.133  1.00  0.00     0.064 A 
ATOM     75  C   UNL A   1      46.755  27.549  26.983  1.00  0.00     0.173 A 
ATOM     76  C   UNL A   1      47.614  27.776  29.216  1.00  0.00     0.173 A 
ATOM     77  F   UNL A   1      46.083  28.029  25.925  1.00  0.00    -0.203 F 
ATOM     78  C   UNL A   1      47.260  26.251  26.925  1.00  0.00     0.198 A 
ATOM     79  C   UNL A   1      48.145  26.491  29.143  1.00  0.00     0.198 A 
ATOM     80  F   UNL A   1      47.798  28.484  30.341  1.00  0.00    -0.203 F 
ATOM     81  F   UNL A   1      47.060  25.505  25.829  1.00  0.00    -0.200 F 
ATOM     82  C   UNL A   1      47.963  25.728  28.000  1.00  0.00     0.200 A 
ATOM     83  F   UNL A   1      48.836  25.994  30.177  1.00  0.00    -0.200 F 
ATOM     84  F   UNL A   1      48.464  24.487  27.935  1.00  0.00    -0.200 F 
ENDBRANCH  60  74
BRANCH  61  85
ATOM     85  C   UNL A   1      43.478  37.658  29.141  1.00  0.00     0.064 A 
ATOM     86  C   UNL A   1      43.813  38.361  30.307  1.00  0.00     0.173 A 
ATOM     87  C   UNL A   1      42.645  38.302  28.214  1.00  0.00     0.173 A 
ATOM     88  F   UNL A   1      44.586  37.782  31.238  1.00  0.00    -0.203 F 
ATOM     89  C   UNL A   1      43.306  39.636  30.552  1.00  0.00     0.198 A 
ATOM     90  C   UNL A   1      42.170  39.592  28.441  1.00  0.00     0.198 A 
ATOM     91  F   UNL A   1      42.293  37.679  27.080  1.00  0.00    -0.203 F 
ATOM     92  F   UNL A   1      43.590  40.256  31.706  1.00  0.00    -0.200 F 
ATOM     93  C   UNL A   1      42.489  40.252  29.617  1.00  0.00     0.200 A 
ATOM     94  F   UNL A   1      41.396  40.189  27.526  1.00  0.00    -0.200 F 
ATOM     95  F   UNL A   1      42.000  41.477  29.853  1.00  0.00    -0.200 F 
ENDBRANCH  61  85
BRANCH  73  96
ATOM     96  C   UNL A   1      49.492  34.938  26.880  1.00  0.00     0.064 A 
ATOM     97  C   UNL A   1      49.632  35.346  25.546  1.00  0.00     0.173 A 
ATOM     98  C   UNL A   1      50.569  35.168  27.752  1.00  0.00     0.173 A 
ATOM     99  F   UNL A   1      48.639  35.139  24.668  1.00  0.00    -0.203 F 
ATOM    100  C   UNL A   1      50.814  35.932  25.096  1.00  0.00     0.198 A 
ATOM    101  C   UNL A   1      51.733  35.788  27.307  1.00  0.00     0.198 A 
ATOM    102  F   UNL A   1      50.486  34.807  29.041  1.00  0.00    -0.203 F 
ATOM    103  F   UNL A   1      50.944  36.264  23.804  1.00  0.00    -0.200 F 
ATOM    104  C   UNL A   1      51.858  36.161  25.978  1.00  0.00     0.200 A 
ATOM    105  F   UNL A   1      52.734  36.026  28.168  1.00  0.00    -0.200 F 
ATOM    106  F   UNL A   1      52.990  36.735  25.546  1.00  0.00    -0.200 F 
ENDBRANCH  73  96
ENDBRANCH  47  48
ENDBRANCH  40  42
ENDBRANCH  39  40
ENDBRANCH  38  39
ENDBRANCH  37  38
ENDBRANCH  36  37
ENDBRANCH  35  36
ENDBRANCH  34  35
ENDBRANCH   1  34
TORSDOF 23
ENDMDL
MODEL 2
REMARK VINA RESULT:     -10.1      2.157      3.313
REMARK SMILES C[NH+]1CCC(C(=O)N2C[C@@H](C(=O)OCCOCCOCCOCCOC(=O)c3ccc(-c4c5nc(c(-c6c(F)c(F)c(F)c(F)c6F)c6ccc([nH]6)c(-c6c(F)c(F)c(F)c(F)c6F)c6nc(c(-c7c(F)c(F)c(F)c(F)c7F)c7ccc4[nH]7)C=C6)C=C5)cc3)[C@H](c3ccc4c(c3)OCO4)C2)CC1
REMARK SMILES IDX 19 1 18 2 17 3 16 4 15 5 14 6 13 7 11 8 12 9 10 10 8 11 9 12
REMARK SMILES IDX 101 13 91 14 6 15 7 16 5 17 1 18 2 19 3 20 103 21 4 23
REMARK SMILES IDX 102 24 92 25 93 26 97 27 94 28 96 29 95 30 98 31 100 32
REMARK SMILES IDX 99 33 20 34 21 35 22 36 23 37 24 38 25 39 26 40 27 41 28 42
REMARK SMILES IDX 29 43 90 44 30 45 89 46 31 47 32 48 33 49 83 50 34 51 88 52
REMARK SMILES IDX 82 53 84 54 35 55 87 56 81 57 80 58 36 60 68 61 48 62 67 63
REMARK SMILES IDX 49 64 52 65 66 66 85 67 50 68 51 69 65 71 86 72 53 73 37 74
REMARK SMILES IDX 38 75 46 76 39 77 40 78 44 79 47 80 41 81 42 82 45 83 43 84
REMARK SMILES IDX 69 85 70 86 78 87 71 88 72 89 76 90 79 91 73 92 74 93 77 94
REMARK SMILES IDX 75 95 54 96 55 97 63 98 56 99 57 100 61 101 64 102 58 103
REMARK SMILES IDX 59 104 62 105 60 106
REMARK H PARENT 2 22 84 59 52 70
REMARK Flexibility Score: inf
ROOT
ATOM      1  O   UNL A   1      33.875  33.994  30.673  1.00  0.00    -0.377 OA
ENDROOT
BRANCH   1   2
ATOM      2  C   UNL A   1      33.860  34.492  29.348  1.00  0.00     0.188 C 
BRANCH   2   3
ATOM      3  C   UNL A   1      34.496  33.527  28.323  1.00  0.00     0.188 C 
BRANCH   3   4
ATOM      4  O   UNL A   1      34.462  32.129  28.551  1.00  0.00    -0.376 OA
BRANCH   4   5
ATOM      5  C   UNL A   1      34.215  31.171  27.534  1.00  0.00     0.202 C 
BRANCH   5   6
ATOM      6  C   UNL A   1      32.893  30.426  27.300  1.00  0.00     0.261 C 
BRANCH   6   7
ATOM      7  O   UNL A   1      32.976  29.174  26.638  1.00  0.00    -0.463 OA
BRANCH   7   8
ATOM      8  C   UNL A   1      31.922  28.330  26.756  1.00  0.00     0.311 C 
ATOM      9  O   UNL A   1      31.249  28.161  27.761  1.00  0.00    -0.252 OA
BRANCH   8  10
ATOM     10  C   UNL A   1      31.713  27.646  25.435  1.00  0.00     0.128 C 
ATOM     11  N   UNL A   1      32.640  26.261  23.851  1.00  0.00    -0.341 N 
ATOM     12  C   UNL A   1      32.630  26.459  25.275  1.00  0.00     0.135 C 
ATOM     13  C   UNL A   1      32.578  27.567  23.191  1.00  0.00     0.128 C 
ATOM     14  C   UNL A   1      32.012  28.568  24.234  1.00  0.00     0.055 C 
BRANCH  11  15
ATOM     15  C   UNL A   1      33.209  25.169  23.233  1.00  0.00     0.226 C 
ATOM     16  O   UNL A   1      33.550  25.218  22.049  1.00  0.00    -0.275 OA
BRANCH  15  17
ATOM     17  C   UNL A   1      33.164  23.811  23.956  1.00  0.00     0.090 C 
ATOM     18  C   UNL A   1      33.389  19.612  24.861  1.00  0.00     0.332 C 
ATOM     19  N   UNL A   1      33.256  20.897  24.173  1.00  0.00    -0.337 N 
ATOM     20  C   UNL A   1      34.484  21.686  24.334  1.00  0.00     0.262 C 
ATOM     21  C   UNL A   1      32.088  21.643  24.667  1.00  0.00     0.262 C 
ATOM     22  H   UNL A   1      33.111  20.717  23.179  1.00  0.00     0.347 HD
ATOM     23  C   UNL A   1      34.395  22.991  23.547  1.00  0.00     0.075 C 
ATOM     24  C   UNL A   1      31.907  22.946  23.867  1.00  0.00     0.075 C 
ENDBRANCH  15  17
ENDBRANCH  11  15
BRANCH  14  25
ATOM     25  C   UNL A   1      30.736  29.366  23.951  1.00  0.00    -0.038 A 
ATOM     26  C   UNL A   1      30.389  30.551  24.632  1.00  0.00     0.008 A 
ATOM     27  C   UNL A   1      29.975  29.000  22.816  1.00  0.00     0.054 A 
ATOM     28  C   UNL A   1      29.404  31.415  24.128  1.00  0.00     0.051 A 
ATOM     29  C   UNL A   1      29.093  29.914  22.288  1.00  0.00     0.166 A 
ATOM     30  C   UNL A   1      28.824  31.099  22.920  1.00  0.00     0.165 A 
ATOM     31  O   UNL A   1      28.481  29.818  21.075  1.00  0.00    -0.454 OA
ATOM     32  O   UNL A   1      27.999  31.893  22.185  1.00  0.00    -0.454 OA
ATOM     33  C   UNL A   1      28.013  31.176  20.933  1.00  0.00     0.468 C 
ENDBRANCH  14  25
ENDBRANCH   8  10
ENDBRANCH   7   8
ENDBRANCH   6   7
ENDBRANCH   5   6
ENDBRANCH   4   5
ENDBRANCH   3   4
ENDBRANCH   2   3
ENDBRANCH   1   2
BRANCH   1  34
ATOM     34  C   UNL A   1      34.195  34.927  31.699  1.00  0.00     0.188 C 
BRANCH  34  35
ATOM     35  C   UNL A   1      33.994  34.526  33.177  1.00  0.00     0.188 C 
BRANCH  35  36
ATOM     36  O   UNL A   1      34.777  33.415  33.588  1.00  0.00    -0.376 OA
BRANCH  36  37
ATOM     37  C   UNL A   1      36.122  33.620  33.980  1.00  0.00     0.202 C 
BRANCH  37  38
ATOM     38  C   UNL A   1      37.190  32.755  33.294  1.00  0.00     0.261 C 
BRANCH  38  39
ATOM     39  O   UNL A   1      38.213  33.467  32.584  1.00  0.00    -0.460 OA
BRANCH  39  40
ATOM     40  C   UNL A   1      38.156  33.460  31.238  1.00  0.00     0.338 C 
ATOM     41  O   UNL A   1      37.196  33.176  30.539  1.00  0.00    -0.246 OA
BRANCH  40  42
ATOM     42  C   UNL A   1      39.416  34.045  30.736  1.00  0.00     0.060 A 
ATOM     43  C   UNL A   1      39.473  34.514  29.417  1.00  0.00     0.016 A 
ATOM     44  C   UNL A   1      40.531  34.141  31.571  1.00  0.00     0.016 A 
ATOM     45  C   UNL A   1      40.658  35.055  28.919  1.00  0.00     0.010 A 
ATOM     46  C   UNL A   1      41.725  34.660  31.063  1.00  0.00     0.010 A 
ATOM     47  C   UNL A   1      41.802  35.089  29.726  1.00  0.00    -0.014 A 
BRANCH  47  48
ATOM     48  C   UNL A   1      43.123  35.388  29.122  1.00  0.00     0.031 A 
ATOM     49  C   UNL A   1      44.044  34.236  28.827  1.00  0.00     0.074 A 
ATOM     50  C   UNL A   1      43.500  36.647  28.841  1.00  0.00     0.049 A 
ATOM     51  N   UNL A   1      45.276  34.246  28.387  1.00  0.00    -0.248 NA
ATOM     52  C   UNL A   1      43.501  32.888  29.066  1.00  0.00     0.031 C 
ATOM     53  C   UNL A   1      42.680  37.840  29.042  1.00  0.00     0.029 A 
ATOM     54  N   UNL A   1      44.684  37.130  28.341  1.00  0.00    -0.354 N 
ATOM     55  C   UNL A   1      45.660  32.912  28.315  1.00  0.00     0.074 A 
ATOM     56  C   UNL A   1      44.540  32.120  28.772  1.00  0.00     0.031 C 
ATOM     57  C   UNL A   1      43.397  38.923  28.692  1.00  0.00     0.029 A 
ATOM     58  C   UNL A   1      44.737  38.502  28.283  1.00  0.00     0.049 A 
ATOM     59  H   UNL A   1      45.424  36.550  28.051  1.00  0.00     0.167 HD
ATOM     60  C   UNL A   1      46.841  32.398  27.904  1.00  0.00     0.037 A 
ATOM     61  C   UNL A   1      45.763  39.319  27.973  1.00  0.00     0.037 A 
ATOM     62  C   UNL A   1      47.949  33.190  27.439  1.00  0.00     0.049 A 
ATOM     63  C   UNL A   1      47.092  38.720  27.578  1.00  0.00     0.074 A 
ATOM     64  C   UNL A   1      49.174  32.761  26.961  1.00  0.00     0.029 A 
ATOM     65  N   UNL A   1      47.971  34.577  27.410  1.00  0.00    -0.354 N 
ATOM     66  N   UNL A   1      47.435  37.459  27.474  1.00  0.00    -0.248 NA
ATOM     67  C   UNL A   1      48.176  39.660  27.255  1.00  0.00     0.031 C 
ATOM     68  C   UNL A   1      49.963  33.886  26.709  1.00  0.00     0.029 A 
ATOM     69  C   UNL A   1      49.204  35.018  26.957  1.00  0.00     0.049 A 
ATOM     70  H   UNL A   1      47.223  35.160  27.670  1.00  0.00     0.167 HD
ATOM     71  C   UNL A   1      48.758  37.455  27.043  1.00  0.00     0.074 A 
ATOM     72  C   UNL A   1      49.149  38.839  26.889  1.00  0.00     0.031 C 
ATOM     73  C   UNL A   1      49.576  36.401  26.798  1.00  0.00     0.037 A 
BRANCH  60  74
ATOM     74  C   UNL A   1      47.021  30.909  27.968  1.00  0.00     0.064 A 
ATOM     75  C   UNL A   1      46.752  30.079  26.871  1.00  0.00     0.173 A 
ATOM     76  C   UNL A   1      47.530  30.315  29.133  1.00  0.00     0.173 A 
ATOM     77  F   UNL A   1      46.249  30.595  25.739  1.00  0.00    -0.203 F 
ATOM     78  C   UNL A   1      46.973  28.705  26.943  1.00  0.00     0.198 A 
ATOM     79  C   UNL A   1      47.780  28.947  29.190  1.00  0.00     0.198 A 
ATOM     80  F   UNL A   1      47.804  31.064  30.212  1.00  0.00    -0.203 F 
ATOM     81  F   UNL A   1      46.674  27.925  25.894  1.00  0.00    -0.200 F 
ATOM     82  C   UNL A   1      47.497  28.142  28.097  1.00  0.00     0.200 A 
ATOM     83  F   UNL A   1      48.299  28.408  30.302  1.00  0.00    -0.200 F 
ATOM     84  F   UNL A   1      47.726  26.824  28.158  1.00  0.00    -0.200 F 
ENDBRANCH  60  74
BRANCH  61  85
ATOM     85  C   UNL A   1      45.599  40.797  28.061  1.00  0.00     0.064 A 
ATOM     86  C   UNL A   1      45.842  41.489  29.256  1.00  0.00     0.173 A 
ATOM     87  C   UNL A   1      45.144  41.542  26.963  1.00  0.00     0.173 A 
ATOM     88  F   UNL A   1      46.256  40.821  30.343  1.00  0.00    -0.203 F 
ATOM     89  C   UNL A   1      45.605  42.859  29.358  1.00  0.00     0.198 A 
ATOM     90  C   UNL A   1      44.943  42.918  27.054  1.00  0.00     0.198 A 
ATOM     91  F   UNL A   1      44.895  40.933  25.793  1.00  0.00    -0.203 F 
ATOM     92  F   UNL A   1      45.783  43.480  30.531  1.00  0.00    -0.200 F 
ATOM     93  C   UNL A   1      45.159  43.572  28.256  1.00  0.00     0.200 A 
ATOM     94  F   UNL A   1      44.530  43.605  25.981  1.00  0.00    -0.200 F 
ATOM     95  F   UNL A   1      44.929  44.889  28.355  1.00  0.00    -0.200 F 
ENDBRANCH  61  85
BRANCH  73  96
ATOM     96  C   UNL A   1      50.960  36.696  26.292  1.00  0.00     0.064 A 
ATOM     97  C   UNL A   1      52.032  36.939  27.163  1.00  0.00     0.173 A 
ATOM     98  C   UNL A   1      51.226  36.690  24.913  1.00  0.00     0.173 A 
ATOM     99  F   UNL A   1      51.831  36.969  28.490  1.00  0.00    -0.203 F 
ATOM    100  C   UNL A   1      53.310  37.197  26.672  1.00  0.00     0.198 A 
ATOM    101  C   UNL A   1      52.512  36.910  24.428  1.00  0.00     0.198 A 
ATOM    102  F   UNL A   1      50.240  36.452  24.035  1.00  0.00    -0.203 F 
ATOM    103  F   UNL A   1      54.307  37.481  27.522  1.00  0.00    -0.200 F 
ATOM    104  C   UNL A   1      53.550  37.173  25.307  1.00  0.00     0.200 A 
ATOM    105  F   UNL A   1      52.745  36.866  23.109  1.00  0.00    -0.200 F 
ATOM    106  F   UNL A   1      54.783  37.409  24.838  1.00  0.00    -0.200 F 
ENDBRANCH  73  96
ENDBRANCH  47  48
ENDBRANCH  40  42
ENDBRANCH  39  40
ENDBRANCH  38  39
ENDBRANCH  37  38
ENDBRANCH  36  37
ENDBRANCH  35  36
ENDBRANCH  34  35
ENDBRANCH   1  34
TORSDOF 23
ENDMDL
MODEL 3
REMARK VINA RESULT:      -9.9      2.078      7.456
REMARK SMILES C[NH+]1CCC(C(=O)N2C[C@@H](C(=O)OCCOCCOCCOCCOC(=O)c3ccc(-c4c5nc(c(-c6c(F)c(F)c(F)c(F)c6F)c6ccc([nH]6)c(-c6c(F)c(F)c(F)c(F)c6F)c6nc(c(-c7c(F)c(F)c(F)c(F)c7F)c7ccc4[nH]7)C=C6)C=C5)cc3)[C@H](c3ccc4c(c3)OCO4)C2)CC1
REMARK SMILES IDX 19 1 18 2 17 3 16 4 15 5 14 6 13 7 11 8 12 9 10 10 8 11 9 12
REMARK SMILES IDX 101 13 91 14 6 15 7 16 5 17 1 18 2 19 3 20 103 21 4 23
REMARK SMILES IDX 102 24 92 25 93 26 97 27 94 28 96 29 95 30 98 31 100 32
REMARK SMILES IDX 99 33 20 34 21 35 22 36 23 37 24 38 25 39 26 40 27 41 28 42
REMARK SMILES IDX 29 43 90 44 30 45 89 46 31 47 32 48 33 49 83 50 34 51 88 52
REMARK SMILES IDX 82 53 84 54 35 55 87 56 81 57 80 58 36 60 68 61 48 62 67 63
REMARK SMILES IDX 49 64 52 65 66 66 85 67 50 68 51 69 65 71 86 72 53 73 37 74
REMARK SMILES IDX 38 75 46 76 39 77 40 78 44 79 47 80 41 81 42 82 45 83 43 84
REMARK SMILES IDX 69 85 70 86 78 87 71 88 72 89 76 90 79 91 73 92 74 93 77 94
REMARK SMILES IDX 75 95 54 96 55 97 63 98 56 99 57 100 61 101 64 102 58 103
REMARK SMILES IDX 59 104 62 105 60 106
REMARK H PARENT 2 22 84 59 52 70
REMARK Flexibility Score: inf
ROOT
ATOM      1  O   UNL A   1      33.741  33.740  30.380  1.00  0.00    -0.377 OA
ENDROOT
BRANCH   1   2
ATOM      2  C   UNL A   1      33.864  34.139  29.028  1.00  0.00     0.188 C 
BRANCH   2   3
ATOM      3  C   UNL A   1      34.411  33.025  28.107  1.00  0.00     0.188 C 
BRANCH   3   4
ATOM      4  O   UNL A   1      33.996  31.683  28.297  1.00  0.00    -0.376 OA
BRANCH   4   5
ATOM      5  C   UNL A   1      33.729  30.784  27.233  1.00  0.00     0.202 C 
BRANCH   5   6
ATOM      6  C   UNL A   1      32.437  29.978  27.038  1.00  0.00     0.261 C 
BRANCH   6   7
ATOM      7  O   UNL A   1      32.559  28.728  26.378  1.00  0.00    -0.463 OA
BRANCH   7   8
ATOM      8  C   UNL A   1      31.670  27.758  26.702  1.00  0.00     0.311 C 
ATOM      9  O   UNL A   1      30.945  27.750  27.683  1.00  0.00    -0.252 OA
BRANCH   8  10
ATOM     10  C   UNL A   1      31.719  26.697  25.638  1.00  0.00     0.128 C 
ATOM     11  N   UNL A   1      33.021  25.107  24.607  1.00  0.00    -0.341 N 
ATOM     12  C   UNL A   1      32.820  25.700  25.902  1.00  0.00     0.135 C 
ATOM     13  C   UNL A   1      32.834  26.135  23.582  1.00  0.00     0.128 C 
ATOM     14  C   UNL A   1      32.007  27.274  24.236  1.00  0.00     0.055 C 
BRANCH  11  15
ATOM     15  C   UNL A   1      33.817  24.004  24.384  1.00  0.00     0.226 C 
ATOM     16  O   UNL A   1      34.895  24.110  23.796  1.00  0.00    -0.275 OA
BRANCH  15  17
ATOM     17  C   UNL A   1      33.222  22.608  24.637  1.00  0.00     0.090 C 
ATOM     18  C   UNL A   1      32.757  18.405  25.428  1.00  0.00     0.332 C 
ATOM     19  N   UNL A   1      33.280  19.709  25.019  1.00  0.00    -0.337 N 
ATOM     20  C   UNL A   1      33.364  20.606  26.179  1.00  0.00     0.262 C 
ATOM     21  C   UNL A   1      32.450  20.303  23.959  1.00  0.00     0.262 C 
ATOM     22  H   UNL A   1      34.218  19.576  24.640  1.00  0.00     0.347 HD
ATOM     23  C   UNL A   1      33.992  21.941  25.785  1.00  0.00     0.075 C 
ATOM     24  C   UNL A   1      33.067  21.627  23.474  1.00  0.00     0.075 C 
ENDBRANCH  15  17
ENDBRANCH  11  15
BRANCH  14  25
ATOM     25  C   UNL A   1      30.665  27.714  23.646  1.00  0.00    -0.038 A 
ATOM     26  C   UNL A   1      29.471  26.977  23.785  1.00  0.00     0.008 A 
ATOM     27  C   UNL A   1      30.586  29.019  23.105  1.00  0.00     0.054 A 
ATOM     28  C   UNL A   1      28.222  27.564  23.522  1.00  0.00     0.051 A 
ATOM     29  C   UNL A   1      29.348  29.601  22.957  1.00  0.00     0.166 A 
ATOM     30  C   UNL A   1      28.194  28.895  23.175  1.00  0.00     0.165 A 
ATOM     31  O   UNL A   1      29.114  30.916  22.695  1.00  0.00    -0.454 OA
ATOM     32  O   UNL A   1      27.088  29.681  23.066  1.00  0.00    -0.454 OA
ATOM     33  C   UNL A   1      27.710  30.982  23.022  1.00  0.00     0.468 C 
ENDBRANCH  14  25
ENDBRANCH   8  10
ENDBRANCH   7   8
ENDBRANCH   6   7
ENDBRANCH   5   6
ENDBRANCH   4   5
ENDBRANCH   3   4
ENDBRANCH   2   3
ENDBRANCH   1   2
BRANCH   1  34
ATOM     34  C   UNL A   1      34.156  34.684  31.361  1.00  0.00     0.188 C 
BRANCH  34  35
ATOM     35  C   UNL A   1      34.012  34.334  32.859  1.00  0.00     0.188 C 
BRANCH  35  36
ATOM     36  O   UNL A   1      34.722  33.169  33.253  1.00  0.00    -0.376 OA
BRANCH  36  37
ATOM     37  C   UNL A   1      36.099  33.265  33.563  1.00  0.00     0.202 C 
BRANCH  37  38
ATOM     38  C   UNL A   1      37.080  32.540  32.630  1.00  0.00     0.261 C 
BRANCH  38  39
ATOM     39  O   UNL A   1      38.213  33.305  32.193  1.00  0.00    -0.460 OA
BRANCH  39  40
ATOM     40  C   UNL A   1      38.174  33.817  30.946  1.00  0.00     0.338 C 
ATOM     41  O   UNL A   1      37.185  34.025  30.262  1.00  0.00    -0.246 OA
BRANCH  40  42
ATOM     42  C   UNL A   1      39.538  34.270  30.610  1.00  0.00     0.060 A 
ATOM     43  C   UNL A   1      39.803  34.737  29.315  1.00  0.00     0.016 A 
ATOM     44  C   UNL A   1      40.549  34.246  31.573  1.00  0.00     0.016 A 
ATOM     45  C   UNL A   1      41.089  35.154  28.972  1.00  0.00     0.010 A 
ATOM     46  C   UNL A   1      41.842  34.640  31.221  1.00  0.00     0.010 A 
ATOM     47  C   UNL A   1      42.124  35.065  29.910  1.00  0.00    -0.014 A 
BRANCH  47  48
ATOM     48  C   UNL A   1      43.532  35.227  29.475  1.00  0.00     0.031 A 
ATOM     49  C   UNL A   1      44.063  36.622  29.297  1.00  0.00     0.074 A 
ATOM     50  C   UNL A   1      44.323  34.165  29.243  1.00  0.00     0.049 A 
ATOM     51  N   UNL A   1      45.224  37.021  28.842  1.00  0.00    -0.248 NA
ATOM     52  C   UNL A   1      43.159  37.719  29.682  1.00  0.00     0.031 C 
ATOM     53  C   UNL A   1      43.936  32.767  29.420  1.00  0.00     0.029 A 
ATOM     54  N   UNL A   1      45.617  34.103  28.787  1.00  0.00    -0.354 N 
ATOM     55  C   UNL A   1      45.180  38.410  28.868  1.00  0.00     0.074 A 
ATOM     56  C   UNL A   1      43.876  38.787  29.365  1.00  0.00     0.031 C 
ATOM     57  C   UNL A   1      44.964  31.982  29.051  1.00  0.00     0.029 A 
ATOM     58  C   UNL A   1      46.064  32.821  28.574  1.00  0.00     0.049 A 
ATOM     59  H   UNL A   1      46.172  34.900  28.627  1.00  0.00     0.167 HD
ATOM     60  C   UNL A   1      46.144  39.288  28.508  1.00  0.00     0.037 A 
ATOM     61  C   UNL A   1      47.212  32.382  28.022  1.00  0.00     0.037 A 
ATOM     62  C   UNL A   1      47.444  38.907  28.024  1.00  0.00     0.049 A 
ATOM     63  C   UNL A   1      48.246  33.385  27.570  1.00  0.00     0.074 A 
ATOM     64  C   UNL A   1      48.505  39.722  27.673  1.00  0.00     0.029 A 
ATOM     65  N   UNL A   1      47.854  37.599  27.808  1.00  0.00    -0.354 N 
ATOM     66  N   UNL A   1      48.215  34.695  27.634  1.00  0.00    -0.248 NA
ATOM     67  C   UNL A   1      49.477  32.849  26.970  1.00  0.00     0.031 C 
ATOM     68  C   UNL A   1      49.532  38.914  27.178  1.00  0.00     0.029 A 
ATOM     69  C   UNL A   1      49.140  37.589  27.292  1.00  0.00     0.049 A 
ATOM     70  H   UNL A   1      47.314  36.799  27.994  1.00  0.00     0.167 HD
ATOM     71  C   UNL A   1      49.429  35.134  27.116  1.00  0.00     0.074 A 
ATOM     72  C   UNL A   1      50.180  33.951  26.759  1.00  0.00     0.031 C 
ATOM     73  C   UNL A   1      49.881  36.402  26.950  1.00  0.00     0.037 A 
BRANCH  60  74
ATOM     74  C   UNL A   1      45.825  40.752  28.587  1.00  0.00     0.064 A 
ATOM     75  C   UNL A   1      45.269  41.452  27.507  1.00  0.00     0.173 A 
ATOM     76  C   UNL A   1      46.025  41.450  29.788  1.00  0.00     0.173 A 
ATOM     77  F   UNL A   1      45.072  40.836  26.331  1.00  0.00    -0.203 F 
ATOM     78  C   UNL A   1      44.938  42.801  27.622  1.00  0.00     0.198 A 
ATOM     79  C   UNL A   1      45.664  42.788  29.909  1.00  0.00     0.198 A 
ATOM     80  F   UNL A   1      46.555  40.827  30.853  1.00  0.00    -0.203 F 
ATOM     81  F   UNL A   1      44.442  43.459  26.565  1.00  0.00    -0.200 F 
ATOM     82  C   UNL A   1      45.125  43.464  28.825  1.00  0.00     0.200 A 
ATOM     83  F   UNL A   1      45.832  43.423  31.078  1.00  0.00    -0.200 F 
ATOM     84  F   UNL A   1      44.789  44.756  28.940  1.00  0.00    -0.200 F 
ENDBRANCH  60  74
BRANCH  61  85
ATOM     85  C   UNL A   1      47.439  30.924  27.821  1.00  0.00     0.064 A 
ATOM     86  C   UNL A   1      46.938  30.256  26.694  1.00  0.00     0.173 A 
ATOM     87  C   UNL A   1      48.118  30.157  28.779  1.00  0.00     0.173 A 
ATOM     88  F   UNL A   1      46.260  30.937  25.758  1.00  0.00    -0.203 F 
ATOM     89  C   UNL A   1      47.078  28.876  26.552  1.00  0.00     0.198 A 
ATOM     90  C   UNL A   1      48.290  28.784  28.618  1.00  0.00     0.198 A 
ATOM     91  F   UNL A   1      48.619  30.743  29.877  1.00  0.00    -0.203 F 
ATOM     92  F   UNL A   1      46.531  28.256  25.498  1.00  0.00    -0.200 F 
ATOM     93  C   UNL A   1      47.757  28.142  27.512  1.00  0.00     0.200 A 
ATOM     94  F   UNL A   1      48.964  28.083  29.540  1.00  0.00    -0.200 F 
ATOM     95  F   UNL A   1      47.890  26.815  27.376  1.00  0.00    -0.200 F 
ENDBRANCH  61  85
BRANCH  73  96
ATOM     96  C   UNL A   1      51.269  36.581  26.402  1.00  0.00     0.064 A 
ATOM     97  C   UNL A   1      52.396  36.623  27.235  1.00  0.00     0.173 A 
ATOM     98  C   UNL A   1      51.477  36.665  25.016  1.00  0.00     0.173 A 
ATOM     99  F   UNL A   1      52.254  36.559  28.568  1.00  0.00    -0.203 F 
ATOM    100  C   UNL A   1      53.676  36.776  26.704  1.00  0.00     0.198 A 
ATOM    101  C   UNL A   1      52.759  36.779  24.487  1.00  0.00     0.198 A 
ATOM    102  F   UNL A   1      50.435  36.619  24.171  1.00  0.00    -0.203 F 
ATOM    103  F   UNL A   1      54.732  36.869  27.523  1.00  0.00    -0.200 F 
ATOM    104  C   UNL A   1      53.856  36.844  25.331  1.00  0.00     0.200 A 
ATOM    105  F   UNL A   1      52.932  36.825  23.158  1.00  0.00    -0.200 F 
ATOM    106  F   UNL A   1      55.088  36.980  24.821  1.00  0.00    -0.200 F 
ENDBRANCH  73  96
ENDBRANCH  47  48
ENDBRANCH  40  42
ENDBRANCH  39  40
ENDBRANCH  38  39
ENDBRANCH  37  38
ENDBRANCH  36  37
ENDBRANCH  35  36
ENDBRANCH  34  35
ENDBRANCH   1  34
TORSDOF 23
ENDMDL
