MODEL 1
REMARK VINA RESULT:      -9.5      0.000      0.000
REMARK SMILES [NH3+][C@H](C(=O)OCCOCCOCCOCCOC(=O)c1ccc(-c2c3nc(c(-c4c(F)c(F)c(F)c(F)c4F)c4ccc([nH]4)c(-c4c(F)c(F)c(F)c(F)c4F)c4nc(c(-c5c(F)c(F)c(F)c(F)c5F)c5ccc2[nH]5)C=C4)C=C3)cc1)c1ccc(Cl)c(OC(F)(F)F)c1
REMARK SMILES IDX 10 1 9 2 8 3 7 4 6 5 5 6 3 7 4 8 2 9 1 10 83 14 84 15 94 16
REMARK SMILES IDX 85 17 88 18 86 19 87 20 89 21 90 22 91 23 92 24 93 25 11 26
REMARK SMILES IDX 12 27 13 28 14 29 15 30 16 31 17 32 18 33 19 34 20 35 21 36
REMARK SMILES IDX 82 37 22 38 81 39 23 40 24 41 25 42 75 43 26 44 80 45 74 46
REMARK SMILES IDX 76 47 27 48 79 49 73 50 72 51 28 53 60 54 40 55 59 56 41 57
REMARK SMILES IDX 44 58 58 59 77 60 42 61 43 62 57 64 78 65 45 66 29 67 30 68
REMARK SMILES IDX 38 69 31 70 32 71 36 72 39 73 33 74 34 75 37 76 35 77 61 78
REMARK SMILES IDX 62 79 70 80 63 81 64 82 68 83 71 84 65 85 66 86 69 87 67 88
REMARK SMILES IDX 46 89 47 90 55 91 48 92 49 93 53 94 56 95 50 96 51 97 54 98
REMARK SMILES IDX 52 99
REMARK H PARENT 1 11 1 12 1 13 76 52 44 63
REMARK Flexibility Score: inf
ROOT
ATOM      1  C   UNL A   1      37.239  23.543  25.753  1.00  0.00     0.188 C 
ENDROOT
BRANCH   1   2
ATOM      2  C   UNL A   1      35.908  22.754  25.707  1.00  0.00     0.188 C 
BRANCH   2   3
ATOM      3  O   UNL A   1      34.997  23.156  26.725  1.00  0.00    -0.376 OA
BRANCH   3   4
ATOM      4  C   UNL A   1      33.719  23.623  26.321  1.00  0.00     0.202 C 
BRANCH   4   5
ATOM      5  C   UNL A   1      32.692  22.538  25.990  1.00  0.00     0.261 C 
BRANCH   5   6
ATOM      6  O   UNL A   1      32.118  22.636  24.673  1.00  0.00    -0.459 OA
BRANCH   6   7
ATOM      7  C   UNL A   1      32.715  21.999  23.636  1.00  0.00     0.369 C 
ATOM      8  O   UNL A   1      33.677  22.462  23.032  1.00  0.00    -0.245 OA
BRANCH   7   9
ATOM      9  C   UNL A   1      32.177  20.558  23.413  1.00  0.00     0.323 C 
BRANCH   9  10
ATOM     10  N   UNL A   1      31.858  20.329  21.984  1.00  0.00    -0.342 N 
ATOM     11  H   UNL A   1      31.040  20.881  21.726  1.00  0.00     0.345 HD
ATOM     12  H   UNL A   1      31.662  19.340  21.834  1.00  0.00     0.345 HD
ATOM     13  H   UNL A   1      32.653  20.609  21.408  1.00  0.00     0.345 HD
ENDBRANCH   9  10
BRANCH   9  14
ATOM     14  C   UNL A   1      32.953  19.363  23.976  1.00  0.00     0.025 A 
ATOM     15  C   UNL A   1      34.261  19.596  24.448  1.00  0.00     0.012 A 
ATOM     16  C   UNL A   1      32.493  18.035  23.970  1.00  0.00     0.059 A 
ATOM     17  C   UNL A   1      35.085  18.546  24.852  1.00  0.00     0.025 A 
ATOM     18  C   UNL A   1      33.312  16.963  24.363  1.00  0.00     0.148 A 
ATOM     19  C   UNL A   1      34.618  17.236  24.791  1.00  0.00     0.083 A 
ATOM     20  Cl  UNL A   1      35.708  15.966  25.225  1.00  0.00    -0.080 Cl
BRANCH  18  21
ATOM     21  O   UNL A   1      32.945  15.644  24.330  1.00  0.00    -0.404 OA
BRANCH  21  22
ATOM     22  C   UNL A   1      32.495  15.029  25.523  1.00  0.00     0.573 C 
ATOM     23  F   UNL A   1      33.220  13.924  25.797  1.00  0.00    -0.132 F 
ATOM     24  F   UNL A   1      32.565  15.878  26.572  1.00  0.00    -0.132 F 
ATOM     25  F   UNL A   1      31.205  14.663  25.370  1.00  0.00    -0.132 F 
ENDBRANCH  21  22
ENDBRANCH  18  21
ENDBRANCH   9  14
ENDBRANCH   7   9
ENDBRANCH   6   7
ENDBRANCH   5   6
ENDBRANCH   4   5
ENDBRANCH   3   4
ENDBRANCH   2   3
ENDBRANCH   1   2
BRANCH   1  26
ATOM     26  O   UNL A   1      38.437  22.820  25.990  1.00  0.00    -0.377 OA
BRANCH  26  27
ATOM     27  C   UNL A   1      39.288  23.357  26.983  1.00  0.00     0.188 C 
BRANCH  27  28
ATOM     28  C   UNL A   1      40.622  22.595  27.129  1.00  0.00     0.188 C 
BRANCH  28  29
ATOM     29  O   UNL A   1      40.899  21.407  26.402  1.00  0.00    -0.376 OA
BRANCH  29  30
ATOM     30  C   UNL A   1      41.511  20.270  26.986  1.00  0.00     0.202 C 
BRANCH  30  31
ATOM     31  C   UNL A   1      42.253  19.189  26.183  1.00  0.00     0.261 C 
BRANCH  31  32
ATOM     32  O   UNL A   1      42.757  19.557  24.901  1.00  0.00    -0.460 OA
BRANCH  32  33
ATOM     33  C   UNL A   1      44.105  19.630  24.809  1.00  0.00     0.338 C 
ATOM     34  O   UNL A   1      44.877  18.762  24.467  1.00  0.00    -0.246 OA
BRANCH  33  35
ATOM     35  C   UNL A   1      44.484  21.040  25.027  1.00  0.00     0.060 A 
ATOM     36  C   UNL A   1      45.352  21.341  26.086  1.00  0.00     0.016 A 
ATOM     37  C   UNL A   1      44.007  22.047  24.187  1.00  0.00     0.016 A 
ATOM     38  C   UNL A   1      45.744  22.653  26.313  1.00  0.00     0.010 A 
ATOM     39  C   UNL A   1      44.358  23.371  24.446  1.00  0.00     0.010 A 
ATOM     40  C   UNL A   1      45.201  23.677  25.529  1.00  0.00    -0.014 A 
BRANCH  40  41
ATOM     41  C   UNL A   1      45.319  25.070  26.004  1.00  0.00     0.031 A 
ATOM     42  C   UNL A   1      46.668  25.723  25.915  1.00  0.00     0.074 A 
ATOM     43  C   UNL A   1      44.253  25.745  26.460  1.00  0.00     0.049 A 
ATOM     44  N   UNL A   1      47.046  26.911  26.308  1.00  0.00    -0.248 NA
ATOM     45  C   UNL A   1      47.739  24.922  25.298  1.00  0.00     0.031 C 
ATOM     46  C   UNL A   1      42.890  25.225  26.534  1.00  0.00     0.029 A 
ATOM     47  N   UNL A   1      44.161  27.019  26.960  1.00  0.00    -0.354 N 
ATOM     48  C   UNL A   1      48.394  26.996  25.990  1.00  0.00     0.074 A 
ATOM     49  C   UNL A   1      48.780  25.732  25.404  1.00  0.00     0.031 C 
ATOM     50  C   UNL A   1      42.096  26.167  27.073  1.00  0.00     0.029 A 
ATOM     51  C   UNL A   1      42.904  27.339  27.410  1.00  0.00     0.049 A 
ATOM     52  H   UNL A   1      44.921  27.642  26.991  1.00  0.00     0.167 HD
ATOM     53  C   UNL A   1      49.233  28.042  26.165  1.00  0.00     0.037 A 
ATOM     54  C   UNL A   1      42.475  28.443  28.050  1.00  0.00     0.037 A 
ATOM     55  C   UNL A   1      48.842  29.290  26.762  1.00  0.00     0.049 A 
ATOM     56  C   UNL A   1      43.452  29.561  28.317  1.00  0.00     0.074 A 
ATOM     57  C   UNL A   1      49.611  30.416  26.990  1.00  0.00     0.029 A 
ATOM     58  N   UNL A   1      47.569  29.569  27.239  1.00  0.00    -0.354 N 
ATOM     59  N   UNL A   1      44.722  29.649  28.001  1.00  0.00    -0.248 NA
ATOM     60  C   UNL A   1      42.933  30.738  29.028  1.00  0.00     0.031 C 
ATOM     61  C   UNL A   1      48.820  31.354  27.660  1.00  0.00     0.029 A 
ATOM     62  C   UNL A   1      47.538  30.841  27.786  1.00  0.00     0.049 A 
ATOM     63  H   UNL A   1      46.801  28.954  27.196  1.00  0.00     0.167 HD
ATOM     64  C   UNL A   1      45.144  30.897  28.443  1.00  0.00     0.074 A 
ATOM     65  C   UNL A   1      43.989  31.538  29.036  1.00  0.00     0.031 C 
ATOM     66  C   UNL A   1      46.373  31.465  28.363  1.00  0.00     0.037 A 
BRANCH  53  67
ATOM     67  C   UNL A   1      50.660  27.862  25.738  1.00  0.00     0.064 A 
ATOM     68  C   UNL A   1      51.062  28.038  24.404  1.00  0.00     0.173 A 
ATOM     69  C   UNL A   1      51.644  27.526  26.680  1.00  0.00     0.173 A 
ATOM     70  F   UNL A   1      50.158  28.340  23.461  1.00  0.00    -0.203 F 
ATOM     71  C   UNL A   1      52.390  27.857  24.028  1.00  0.00     0.198 A 
ATOM     72  C   UNL A   1      52.976  27.380  26.306  1.00  0.00     0.198 A 
ATOM     73  F   UNL A   1      51.313  27.345  27.968  1.00  0.00    -0.203 F 
ATOM     74  F   UNL A   1      52.741  27.978  22.739  1.00  0.00    -0.200 F 
ATOM     75  C   UNL A   1      53.347  27.537  24.979  1.00  0.00     0.200 A 
ATOM     76  F   UNL A   1      53.901  27.084  27.228  1.00  0.00    -0.200 F 
ATOM     77  F   UNL A   1      54.626  27.372  24.615  1.00  0.00    -0.200 F 
ENDBRANCH  53  67
BRANCH  54  78
ATOM     78  C   UNL A   1      41.063  28.540  28.503  1.00  0.00     0.064 A 
ATOM     79  C   UNL A   1      40.679  28.117  29.783  1.00  0.00     0.173 A 
ATOM     80  C   UNL A   1      40.061  29.034  27.654  1.00  0.00     0.173 A 
ATOM     81  F   UNL A   1      41.594  27.614  30.624  1.00  0.00    -0.203 F 
ATOM     82  C   UNL A   1      39.345  28.160  30.186  1.00  0.00     0.198 A 
ATOM     83  C   UNL A   1      38.733  29.108  28.070  1.00  0.00     0.198 A 
ATOM     84  F   UNL A   1      40.373  29.452  26.418  1.00  0.00    -0.203 F 
ATOM     85  F   UNL A   1      38.998  27.697  31.395  1.00  0.00    -0.200 F 
ATOM     86  C   UNL A   1      38.375  28.661  29.332  1.00  0.00     0.200 A 
ATOM     87  F   UNL A   1      37.802  29.607  27.245  1.00  0.00    -0.200 F 
ATOM     88  F   UNL A   1      37.093  28.704  29.721  1.00  0.00    -0.200 F 
ENDBRANCH  54  78
BRANCH  66  89
ATOM     89  C   UNL A   1      46.526  32.865  28.888  1.00  0.00     0.064 A 
ATOM     90  C   UNL A   1      46.297  33.989  28.081  1.00  0.00     0.173 A 
ATOM     91  C   UNL A   1      46.858  33.082  30.235  1.00  0.00     0.173 A 
ATOM     92  F   UNL A   1      45.988  33.837  26.784  1.00  0.00    -0.203 F 
ATOM     93  C   UNL A   1      46.427  35.277  28.594  1.00  0.00     0.198 A 
ATOM     94  C   UNL A   1      46.949  34.371  30.753  1.00  0.00     0.198 A 
ATOM     95  F   UNL A   1      47.076  32.043  31.054  1.00  0.00    -0.203 F 
ATOM     96  F   UNL A   1      46.257  36.336  27.789  1.00  0.00    -0.200 F 
ATOM     97  C   UNL A   1      46.743  35.467  29.930  1.00  0.00     0.200 A 
ATOM     98  F   UNL A   1      47.236  34.550  32.050  1.00  0.00    -0.200 F 
ATOM     99  F   UNL A   1      46.857  36.707  30.424  1.00  0.00    -0.200 F 
ENDBRANCH  66  89
ENDBRANCH  40  41
ENDBRANCH  33  35
ENDBRANCH  32  33
ENDBRANCH  31  32
ENDBRANCH  30  31
ENDBRANCH  29  30
ENDBRANCH  28  29
ENDBRANCH  27  28
ENDBRANCH  26  27
ENDBRANCH   1  26
TORSDOF 24
ENDMDL
MODEL 2
REMARK VINA RESULT:      -9.3      6.005     11.145
REMARK SMILES [NH3+][C@H](C(=O)OCCOCCOCCOCCOC(=O)c1ccc(-c2c3nc(c(-c4c(F)c(F)c(F)c(F)c4F)c4ccc([nH]4)c(-c4c(F)c(F)c(F)c(F)c4F)c4nc(c(-c5c(F)c(F)c(F)c(F)c5F)c5ccc2[nH]5)C=C4)C=C3)cc1)c1ccc(Cl)c(OC(F)(F)F)c1
REMARK SMILES IDX 10 1 9 2 8 3 7 4 6 5 5 6 3 7 4 8 2 9 1 10 83 14 84 15 94 16
REMARK SMILES IDX 85 17 88 18 86 19 87 20 89 21 90 22 91 23 92 24 93 25 11 26
REMARK SMILES IDX 12 27 13 28 14 29 15 30 16 31 17 32 18 33 19 34 20 35 21 36
REMARK SMILES IDX 82 37 22 38 81 39 23 40 24 41 25 42 75 43 26 44 80 45 74 46
REMARK SMILES IDX 76 47 27 48 79 49 73 50 72 51 28 53 60 54 40 55 59 56 41 57
REMARK SMILES IDX 44 58 58 59 77 60 42 61 43 62 57 64 78 65 45 66 29 67 30 68
REMARK SMILES IDX 38 69 31 70 32 71 36 72 39 73 33 74 34 75 37 76 35 77 61 78
REMARK SMILES IDX 62 79 70 80 63 81 64 82 68 83 71 84 65 85 66 86 69 87 67 88
REMARK SMILES IDX 46 89 47 90 55 91 48 92 49 93 53 94 56 95 50 96 51 97 54 98
REMARK SMILES IDX 52 99
REMARK H PARENT 1 11 1 12 1 13 76 52 44 63
REMARK Flexibility Score: inf
ROOT
ATOM      1  C   UNL A   1      33.239  27.890  24.372  1.00  0.00     0.188 C 
ENDROOT
BRANCH   1   2
ATOM      2  C   UNL A   1      32.502  27.061  23.293  1.00  0.00     0.188 C 
BRANCH   2   3
ATOM      3  O   UNL A   1      31.403  26.325  23.822  1.00  0.00    -0.376 OA
BRANCH   3   4
ATOM      4  C   UNL A   1      31.427  26.006  25.205  1.00  0.00     0.202 C 
BRANCH   4   5
ATOM      5  C   UNL A   1      31.564  24.519  25.538  1.00  0.00     0.261 C 
BRANCH   5   6
ATOM      6  O   UNL A   1      32.390  24.233  26.682  1.00  0.00    -0.459 OA
BRANCH   6   7
ATOM      7  C   UNL A   1      32.582  22.946  27.061  1.00  0.00     0.369 C 
ATOM      8  O   UNL A   1      31.801  22.339  27.787  1.00  0.00    -0.245 OA
BRANCH   7   9
ATOM      9  C   UNL A   1      33.783  22.271  26.343  1.00  0.00     0.323 C 
BRANCH   9  10
ATOM     10  N   UNL A   1      34.770  21.765  27.327  1.00  0.00    -0.342 N 
ATOM     11  H   UNL A   1      35.599  21.432  26.834  1.00  0.00     0.345 HD
ATOM     12  H   UNL A   1      34.358  20.999  27.859  1.00  0.00     0.345 HD
ATOM     13  H   UNL A   1      35.033  22.519  27.963  1.00  0.00     0.345 HD
ENDBRANCH   9  10
BRANCH   9  14
ATOM     14  C   UNL A   1      33.525  21.212  25.266  1.00  0.00     0.025 A 
ATOM     15  C   UNL A   1      32.589  21.519  24.258  1.00  0.00     0.012 A 
ATOM     16  C   UNL A   1      34.082  19.921  25.263  1.00  0.00     0.059 A 
ATOM     17  C   UNL A   1      32.195  20.566  23.319  1.00  0.00     0.025 A 
ATOM     18  C   UNL A   1      33.691  18.945  24.331  1.00  0.00     0.148 A 
ATOM     19  C   UNL A   1      32.730  19.282  23.368  1.00  0.00     0.083 A 
ATOM     20  Cl  UNL A   1      32.147  18.117  22.231  1.00  0.00    -0.080 Cl
BRANCH  18  21
ATOM     21  O   UNL A   1      34.153  17.656  24.305  1.00  0.00    -0.404 OA
BRANCH  21  22
ATOM     22  C   UNL A   1      33.466  16.668  25.050  1.00  0.00     0.573 C 
ATOM     23  F   UNL A   1      32.351  17.180  25.613  1.00  0.00    -0.132 F 
ATOM     24  F   UNL A   1      33.130  15.612  24.278  1.00  0.00    -0.132 F 
ATOM     25  F   UNL A   1      34.272  16.220  26.036  1.00  0.00    -0.132 F 
ENDBRANCH  21  22
ENDBRANCH  18  21
ENDBRANCH   9  14
ENDBRANCH   7   9
ENDBRANCH   6   7
ENDBRANCH   5   6
ENDBRANCH   4   5
ENDBRANCH   3   4
ENDBRANCH   2   3
ENDBRANCH   1   2
BRANCH   1  26
ATOM     26  O   UNL A   1      33.017  29.292  24.406  1.00  0.00    -0.377 OA
BRANCH  26  27
ATOM     27  C   UNL A   1      31.775  29.701  24.942  1.00  0.00     0.188 C 
BRANCH  27  28
ATOM     28  C   UNL A   1      31.771  29.804  26.481  1.00  0.00     0.188 C 
BRANCH  28  29
ATOM     29  O   UNL A   1      32.099  31.007  27.160  1.00  0.00    -0.376 OA
BRANCH  29  30
ATOM     30  C   UNL A   1      33.421  31.339  27.550  1.00  0.00     0.202 C 
BRANCH  30  31
ATOM     31  C   UNL A   1      33.958  32.778  27.621  1.00  0.00     0.261 C 
BRANCH  31  32
ATOM     32  O   UNL A   1      33.005  33.823  27.799  1.00  0.00    -0.460 OA
BRANCH  32  33
ATOM     33  C   UNL A   1      33.260  34.670  28.824  1.00  0.00     0.338 C 
ATOM     34  O   UNL A   1      32.622  35.640  29.167  1.00  0.00    -0.246 OA
BRANCH  33  35
ATOM     35  C   UNL A   1      34.384  34.099  29.594  1.00  0.00     0.060 A 
ATOM     36  C   UNL A   1      35.690  34.357  29.158  1.00  0.00     0.016 A 
ATOM     37  C   UNL A   1      34.150  33.339  30.741  1.00  0.00     0.016 A 
ATOM     38  C   UNL A   1      36.773  33.851  29.865  1.00  0.00     0.010 A 
ATOM     39  C   UNL A   1      35.235  32.787  31.422  1.00  0.00     0.010 A 
ATOM     40  C   UNL A   1      36.545  33.018  30.965  1.00  0.00    -0.014 A 
BRANCH  40  41
ATOM     41  C   UNL A   1      37.660  32.193  31.471  1.00  0.00     0.031 A 
ATOM     42  C   UNL A   1      38.183  32.500  32.844  1.00  0.00     0.074 A 
ATOM     43  C   UNL A   1      38.163  31.179  30.750  1.00  0.00     0.049 A 
ATOM     44  N   UNL A   1      39.180  31.962  33.495  1.00  0.00    -0.248 NA
ATOM     45  C   UNL A   1      37.483  33.564  33.584  1.00  0.00     0.031 C 
ATOM     46  C   UNL A   1      37.690  30.761  29.432  1.00  0.00     0.029 A 
ATOM     47  N   UNL A   1      39.197  30.323  31.030  1.00  0.00    -0.354 N 
ATOM     48  C   UNL A   1      39.228  32.622  34.715  1.00  0.00     0.074 A 
ATOM     49  C   UNL A   1      38.185  33.624  34.704  1.00  0.00     0.031 C 
ATOM     50  C   UNL A   1      38.450  29.738  29.005  1.00  0.00     0.029 A 
ATOM     51  C   UNL A   1      39.481  29.456  30.005  1.00  0.00     0.049 A 
ATOM     52  H   UNL A   1      39.687  30.331  31.883  1.00  0.00     0.167 HD
ATOM     53  C   UNL A   1      40.065  32.405  35.754  1.00  0.00     0.037 A 
ATOM     54  C   UNL A   1      40.480  28.563  29.885  1.00  0.00     0.037 A 
ATOM     55  C   UNL A   1      41.109  31.416  35.748  1.00  0.00     0.049 A 
ATOM     56  C   UNL A   1      41.459  28.402  31.022  1.00  0.00     0.074 A 
ATOM     57  C   UNL A   1      42.016  31.112  36.747  1.00  0.00     0.029 A 
ATOM     58  N   UNL A   1      41.390  30.576  34.680  1.00  0.00    -0.354 N 
ATOM     59  N   UNL A   1      41.494  29.014  32.182  1.00  0.00    -0.248 NA
ATOM     60  C   UNL A   1      42.536  27.421  30.834  1.00  0.00     0.031 C 
ATOM     61  C   UNL A   1      42.885  30.131  36.260  1.00  0.00     0.029 A 
ATOM     62  C   UNL A   1      42.476  29.773  34.985  1.00  0.00     0.049 A 
ATOM     63  H   UNL A   1      40.892  30.555  33.830  1.00  0.00     0.167 HD
ATOM     64  C   UNL A   1      42.572  28.472  32.872  1.00  0.00     0.074 A 
ATOM     65  C   UNL A   1      43.155  27.469  32.006  1.00  0.00     0.031 C 
ATOM     66  C   UNL A   1      43.036  28.772  34.110  1.00  0.00     0.037 A 
BRANCH  53  67
ATOM     67  C   UNL A   1      39.906  33.279  36.964  1.00  0.00     0.064 A 
ATOM     68  C   UNL A   1      40.672  34.441  37.144  1.00  0.00     0.173 A 
ATOM     69  C   UNL A   1      38.960  32.958  37.949  1.00  0.00     0.173 A 
ATOM     70  F   UNL A   1      41.605  34.782  36.242  1.00  0.00    -0.203 F 
ATOM     71  C   UNL A   1      40.515  35.233  38.278  1.00  0.00     0.198 A 
ATOM     72  C   UNL A   1      38.781  33.771  39.064  1.00  0.00     0.198 A 
ATOM     73  F   UNL A   1      38.203  31.857  37.827  1.00  0.00    -0.203 F 
ATOM     74  F   UNL A   1      41.295  36.309  38.455  1.00  0.00    -0.200 F 
ATOM     75  C   UNL A   1      39.565  34.903  39.232  1.00  0.00     0.200 A 
ATOM     76  F   UNL A   1      37.854  33.457  39.979  1.00  0.00    -0.200 F 
ATOM     77  F   UNL A   1      39.409  35.671  40.319  1.00  0.00    -0.200 F 
ENDBRANCH  53  67
BRANCH  54  78
ATOM     78  C   UNL A   1      40.623  27.767  28.638  1.00  0.00     0.064 A 
ATOM     79  C   UNL A   1      41.373  28.243  27.553  1.00  0.00     0.173 A 
ATOM     80  C   UNL A   1      39.990  26.523  28.494  1.00  0.00     0.173 A 
ATOM     81  F   UNL A   1      41.977  29.437  27.631  1.00  0.00    -0.203 F 
ATOM     82  C   UNL A   1      41.462  27.519  26.366  1.00  0.00     0.198 A 
ATOM     83  C   UNL A   1      40.108  25.784  27.319  1.00  0.00     0.198 A 
ATOM     84  F   UNL A   1      39.259  26.021  29.501  1.00  0.00    -0.203 F 
ATOM     85  F   UNL A   1      42.139  28.024  25.326  1.00  0.00    -0.200 F 
ATOM     86  C   UNL A   1      40.834  26.288  26.252  1.00  0.00     0.200 A 
ATOM     87  F   UNL A   1      39.511  24.588  27.220  1.00  0.00    -0.200 F 
ATOM     88  F   UNL A   1      40.923  25.591  25.111  1.00  0.00    -0.200 F 
ENDBRANCH  54  78
BRANCH  66  89
ATOM     89  C   UNL A   1      44.204  27.978  34.624  1.00  0.00     0.064 A 
ATOM     90  C   UNL A   1      44.038  26.729  35.241  1.00  0.00     0.173 A 
ATOM     91  C   UNL A   1      45.513  28.454  34.451  1.00  0.00     0.173 A 
ATOM     92  F   UNL A   1      42.808  26.233  35.440  1.00  0.00    -0.203 F 
ATOM     93  C   UNL A   1      45.137  26.003  35.693  1.00  0.00     0.198 A 
ATOM     94  C   UNL A   1      46.610  27.708  34.871  1.00  0.00     0.198 A 
ATOM     95  F   UNL A   1      45.729  29.638  33.858  1.00  0.00    -0.203 F 
ATOM     96  F   UNL A   1      44.950  24.837  36.327  1.00  0.00    -0.200 F 
ATOM     97  C   UNL A   1      46.421  26.488  35.499  1.00  0.00     0.200 A 
ATOM     98  F   UNL A   1      47.851  28.171  34.665  1.00  0.00    -0.200 F 
ATOM     99  F   UNL A   1      47.477  25.782  35.926  1.00  0.00    -0.200 F 
ENDBRANCH  66  89
ENDBRANCH  40  41
ENDBRANCH  33  35
ENDBRANCH  32  33
ENDBRANCH  31  32
ENDBRANCH  30  31
ENDBRANCH  29  30
ENDBRANCH  28  29
ENDBRANCH  27  28
ENDBRANCH  26  27
ENDBRANCH   1  26
TORSDOF 24
ENDMDL
MODEL 3
REMARK VINA RESULT:      -9.2      6.210     10.549
REMARK SMILES [NH3+][C@H](C(=O)OCCOCCOCCOCCOC(=O)c1ccc(-c2c3nc(c(-c4c(F)c(F)c(F)c(F)c4F)c4ccc([nH]4)c(-c4c(F)c(F)c(F)c(F)c4F)c4nc(c(-c5c(F)c(F)c(F)c(F)c5F)c5ccc2[nH]5)C=C4)C=C3)cc1)c1ccc(Cl)c(OC(F)(F)F)c1
REMARK SMILES IDX 10 1 9 2 8 3 7 4 6 5 5 6 3 7 4 8 2 9 1 10 83 14 84 15 94 16
REMARK SMILES IDX 85 17 88 18 86 19 87 20 89 21 90 22 91 23 92 24 93 25 11 26
REMARK SMILES IDX 12 27 13 28 14 29 15 30 16 31 17 32 18 33 19 34 20 35 21 36
REMARK SMILES IDX 82 37 22 38 81 39 23 40 24 41 25 42 75 43 26 44 80 45 74 46
REMARK SMILES IDX 76 47 27 48 79 49 73 50 72 51 28 53 60 54 40 55 59 56 41 57
REMARK SMILES IDX 44 58 58 59 77 60 42 61 43 62 57 64 78 65 45 66 29 67 30 68
REMARK SMILES IDX 38 69 31 70 32 71 36 72 39 73 33 74 34 75 37 76 35 77 61 78
REMARK SMILES IDX 62 79 70 80 63 81 64 82 68 83 71 84 65 85 66 86 69 87 67 88
REMARK SMILES IDX 46 89 47 90 55 91 48 92 49 93 53 94 56 95 50 96 51 97 54 98
REMARK SMILES IDX 52 99
REMARK H PARENT 1 11 1 12 1 13 76 52 44 63
REMARK Flexibility Score: inf
ROOT
ATOM      1  C   UNL A   1      33.058  27.694  24.317  1.00  0.00     0.188 C 
ENDROOT
BRANCH   1   2
ATOM      2  C   UNL A   1      32.243  27.066  23.162  1.00  0.00     0.188 C 
BRANCH   2   3
ATOM      3  O   UNL A   1      30.946  26.643  23.572  1.00  0.00    -0.376 OA
BRANCH   3   4
ATOM      4  C   UNL A   1      30.719  26.461  24.961  1.00  0.00     0.202 C 
BRANCH   4   5
ATOM      5  C   UNL A   1      30.793  25.016  25.460  1.00  0.00     0.261 C 
BRANCH   5   6
ATOM      6  O   UNL A   1      31.603  24.827  26.636  1.00  0.00    -0.459 OA
BRANCH   6   7
ATOM      7  C   UNL A   1      32.091  23.595  26.918  1.00  0.00     0.369 C 
ATOM      8  O   UNL A   1      31.540  22.818  27.691  1.00  0.00    -0.245 OA
BRANCH   7   9
ATOM      9  C   UNL A   1      33.306  23.202  26.032  1.00  0.00     0.323 C 
BRANCH   9  10
ATOM     10  N   UNL A   1      34.540  23.095  26.845  1.00  0.00    -0.342 N 
ATOM     11  H   UNL A   1      34.464  22.296  27.474  1.00  0.00     0.345 HD
ATOM     12  H   UNL A   1      34.662  23.948  27.391  1.00  0.00     0.345 HD
ATOM     13  H   UNL A   1      35.344  22.968  26.229  1.00  0.00     0.345 HD
ENDBRANCH   9  10
BRANCH   9  14
ATOM     14  C   UNL A   1      33.197  22.003  25.083  1.00  0.00     0.025 A 
ATOM     15  C   UNL A   1      32.532  22.199  23.857  1.00  0.00     0.012 A 
ATOM     16  C   UNL A   1      33.628  20.700  25.387  1.00  0.00     0.059 A 
ATOM     17  C   UNL A   1      32.270  21.135  22.994  1.00  0.00     0.025 A 
ATOM     18  C   UNL A   1      33.364  19.613  24.536  1.00  0.00     0.148 A 
ATOM     19  C   UNL A   1      32.668  19.847  23.342  1.00  0.00     0.083 A 
ATOM     20  Cl  UNL A   1      32.246  18.552  22.277  1.00  0.00    -0.080 Cl
BRANCH  18  21
ATOM     21  O   UNL A   1      33.708  18.313  24.797  1.00  0.00    -0.404 OA
BRANCH  21  22
ATOM     22  C   UNL A   1      32.827  17.514  25.563  1.00  0.00     0.573 C 
ATOM     23  F   UNL A   1      32.581  18.083  26.762  1.00  0.00    -0.132 F 
ATOM     24  F   UNL A   1      31.657  17.311  24.919  1.00  0.00    -0.132 F 
ATOM     25  F   UNL A   1      33.397  16.308  25.775  1.00  0.00    -0.132 F 
ENDBRANCH  21  22
ENDBRANCH  18  21
ENDBRANCH   9  14
ENDBRANCH   7   9
ENDBRANCH   6   7
ENDBRANCH   5   6
ENDBRANCH   4   5
ENDBRANCH   3   4
ENDBRANCH   2   3
ENDBRANCH   1   2
BRANCH   1  26
ATOM     26  O   UNL A   1      33.157  29.108  24.375  1.00  0.00    -0.377 OA
BRANCH  26  27
ATOM     27  C   UNL A   1      31.968  29.791  24.717  1.00  0.00     0.188 C 
BRANCH  27  28
ATOM     28  C   UNL A   1      31.704  29.846  26.236  1.00  0.00     0.188 C 
BRANCH  28  29
ATOM     29  O   UNL A   1      32.178  30.909  27.049  1.00  0.00    -0.376 OA
BRANCH  29  30
ATOM     30  C   UNL A   1      33.494  30.951  27.576  1.00  0.00     0.202 C 
BRANCH  30  31
ATOM     31  C   UNL A   1      34.349  32.227  27.644  1.00  0.00     0.261 C 
BRANCH  31  32
ATOM     32  O   UNL A   1      33.693  33.467  27.394  1.00  0.00    -0.460 OA
BRANCH  32  33
ATOM     33  C   UNL A   1      33.547  34.272  28.472  1.00  0.00     0.338 C 
ATOM     34  O   UNL A   1      32.634  35.028  28.721  1.00  0.00    -0.246 OA
BRANCH  33  35
ATOM     35  C   UNL A   1      34.629  33.937  29.419  1.00  0.00     0.060 A 
ATOM     36  C   UNL A   1      35.945  34.275  29.074  1.00  0.00     0.016 A 
ATOM     37  C   UNL A   1      34.347  33.318  30.638  1.00  0.00     0.016 A 
ATOM     38  C   UNL A   1      36.988  33.990  29.945  1.00  0.00     0.010 A 
ATOM     39  C   UNL A   1      35.399  32.985  31.490  1.00  0.00     0.010 A 
ATOM     40  C   UNL A   1      36.723  33.293  31.129  1.00  0.00    -0.014 A 
BRANCH  40  41
ATOM     41  C   UNL A   1      37.850  32.671  31.852  1.00  0.00     0.031 A 
ATOM     42  C   UNL A   1      38.507  31.479  31.219  1.00  0.00     0.074 A 
ATOM     43  C   UNL A   1      38.300  33.175  33.011  1.00  0.00     0.049 A 
ATOM     44  N   UNL A   1      39.476  30.726  31.669  1.00  0.00    -0.248 NA
ATOM     45  C   UNL A   1      37.998  31.081  29.895  1.00  0.00     0.031 C 
ATOM     46  C   UNL A   1      37.772  34.361  33.681  1.00  0.00     0.029 A 
ATOM     47  N   UNL A   1      39.304  32.736  33.835  1.00  0.00    -0.354 N 
ATOM     48  C   UNL A   1      39.688  29.767  30.688  1.00  0.00     0.074 A 
ATOM     49  C   UNL A   1      38.728  30.009  29.634  1.00  0.00     0.031 C 
ATOM     50  C   UNL A   1      38.444  34.544  34.830  1.00  0.00     0.029 A 
ATOM     51  C   UNL A   1      39.423  33.469  34.989  1.00  0.00     0.049 A 
ATOM     52  H   UNL A   1      39.883  31.970  33.619  1.00  0.00     0.167 HD
ATOM     53  C   UNL A   1      40.610  28.778  30.667  1.00  0.00     0.037 A 
ATOM     54  C   UNL A   1      40.215  33.266  36.059  1.00  0.00     0.037 A 
ATOM     55  C   UNL A   1      41.551  28.538  31.727  1.00  0.00     0.049 A 
ATOM     56  C   UNL A   1      41.172  32.100  36.052  1.00  0.00     0.074 A 
ATOM     57  C   UNL A   1      42.527  27.563  31.810  1.00  0.00     0.029 A 
ATOM     58  N   UNL A   1      41.622  29.279  32.898  1.00  0.00    -0.354 N 
ATOM     59  N   UNL A   1      41.384  31.204  35.118  1.00  0.00    -0.248 NA
ATOM     60  C   UNL A   1      42.004  31.920  37.250  1.00  0.00     0.031 C 
ATOM     61  C   UNL A   1      43.148  27.675  33.057  1.00  0.00     0.029 A 
ATOM     62  C   UNL A   1      42.608  28.765  33.723  1.00  0.00     0.049 A 
ATOM     63  H   UNL A   1      41.055  30.055  33.111  1.00  0.00     0.167 HD
ATOM     64  C   UNL A   1      42.392  30.377  35.599  1.00  0.00     0.074 A 
ATOM     65  C   UNL A   1      42.760  30.888  36.903  1.00  0.00     0.031 C 
ATOM     66  C   UNL A   1      42.966  29.295  35.015  1.00  0.00     0.037 A 
BRANCH  53  67
ATOM     67  C   UNL A   1      40.615  27.864  29.476  1.00  0.00     0.064 A 
ATOM     68  C   UNL A   1      41.507  28.045  28.408  1.00  0.00     0.173 A 
ATOM     69  C   UNL A   1      39.726  26.780  29.413  1.00  0.00     0.173 A 
ATOM     70  F   UNL A   1      42.363  29.077  28.410  1.00  0.00    -0.203 F 
ATOM     71  C   UNL A   1      41.489  27.190  27.308  1.00  0.00     0.198 A 
ATOM     72  C   UNL A   1      39.735  25.908  28.328  1.00  0.00     0.198 A 
ATOM     73  F   UNL A   1      38.852  26.563  30.407  1.00  0.00    -0.203 F 
ATOM     74  F   UNL A   1      42.313  27.414  26.275  1.00  0.00    -0.200 F 
ATOM     75  C   UNL A   1      40.610  26.119  27.273  1.00  0.00     0.200 A 
ATOM     76  F   UNL A   1      38.894  24.866  28.302  1.00  0.00    -0.200 F 
ATOM     77  F   UNL A   1      40.600  25.292  26.218  1.00  0.00    -0.200 F 
ENDBRANCH  53  67
BRANCH  54  78
ATOM     78  C   UNL A   1      40.123  34.171  37.235  1.00  0.00     0.064 A 
ATOM     79  C   UNL A   1      39.193  33.941  38.258  1.00  0.00     0.173 A 
ATOM     80  C   UNL A   1      40.948  35.301  37.348  1.00  0.00     0.173 A 
ATOM     81  F   UNL A   1      38.365  32.889  38.186  1.00  0.00    -0.203 F 
ATOM     82  C   UNL A   1      39.072  34.820  39.334  1.00  0.00     0.198 A 
ATOM     83  C   UNL A   1      40.850  36.159  38.441  1.00  0.00     0.198 A 
ATOM     84  F   UNL A   1      41.855  35.568  36.396  1.00  0.00    -0.203 F 
ATOM     85  F   UNL A   1      38.137  34.606  40.269  1.00  0.00    -0.200 F 
ATOM     86  C   UNL A   1      39.905  35.925  39.427  1.00  0.00     0.200 A 
ATOM     87  F   UNL A   1      41.667  37.218  38.532  1.00  0.00    -0.200 F 
ATOM     88  F   UNL A   1      39.791  36.767  40.463  1.00  0.00    -0.200 F 
ENDBRANCH  54  78
BRANCH  66  89
ATOM     89  C   UNL A   1      44.082  28.617  35.758  1.00  0.00     0.064 A 
ATOM     90  C   UNL A   1      45.422  28.996  35.593  1.00  0.00     0.173 A 
ATOM     91  C   UNL A   1      43.798  27.603  36.687  1.00  0.00     0.173 A 
ATOM     92  F   UNL A   1      45.748  29.952  34.710  1.00  0.00    -0.203 F 
ATOM     93  C   UNL A   1      46.437  28.365  36.306  1.00  0.00     0.198 A 
ATOM     94  C   UNL A   1      44.812  27.001  37.426  1.00  0.00     0.198 A 
ATOM     95  F   UNL A   1      42.532  27.209  36.893  1.00  0.00    -0.203 F 
ATOM     96  F   UNL A   1      47.715  28.708  36.092  1.00  0.00    -0.200 F 
ATOM     97  C   UNL A   1      46.131  27.375  37.228  1.00  0.00     0.200 A 
ATOM     98  F   UNL A   1      44.511  26.058  38.330  1.00  0.00    -0.200 F 
ATOM     99  F   UNL A   1      47.110  26.777  37.921  1.00  0.00    -0.200 F 
ENDBRANCH  66  89
ENDBRANCH  40  41
ENDBRANCH  33  35
ENDBRANCH  32  33
ENDBRANCH  31  32
ENDBRANCH  30  31
ENDBRANCH  29  30
ENDBRANCH  28  29
ENDBRANCH  27  28
ENDBRANCH  26  27
ENDBRANCH   1  26
TORSDOF 24
ENDMDL
