MODEL 1
REMARK VINA RESULT:      -9.8      0.000      0.000
REMARK SMILES CC(=O)Oc1ccccc1C(=O)OCCOCCOCCOCCOC(=O)c1ccc(-c2c3nc(c(-c4c(F)c(F)c(F)c(F)c4F)c4ccc([nH]4)c(-c4c(F)c(F)c(F)c(F)c4F)c4nc(c(-c5c(F)c(F)c(F)c(F)c5F)c5ccc2[nH]5)C=C4)C=C3)cc1
REMARK SMILES IDX 19 1 18 2 17 3 16 4 15 5 14 6 13 7 11 8 12 9 10 10 5 11 6 12
REMARK SMILES IDX 7 13 9 14 8 15 4 16 2 17 1 18 3 19 20 20 21 21 22 22 23 23
REMARK SMILES IDX 24 24 25 25 26 26 27 27 28 28 29 29 90 30 30 31 89 32 31 33
REMARK SMILES IDX 32 34 33 35 83 36 34 37 88 38 82 39 84 40 35 41 87 42 81 43
REMARK SMILES IDX 80 44 36 46 68 47 48 48 67 49 49 50 52 51 66 52 85 53 50 54
REMARK SMILES IDX 51 55 65 57 86 58 53 59 37 60 38 61 46 62 39 63 40 64 44 65
REMARK SMILES IDX 47 66 41 67 42 68 45 69 43 70 69 71 70 72 78 73 71 74 72 75
REMARK SMILES IDX 76 76 79 77 73 78 74 79 77 80 75 81 54 82 55 83 63 84 56 85
REMARK SMILES IDX 57 86 61 87 64 88 58 89 59 90 62 91 60 92
REMARK H PARENT 84 45 52 56
REMARK Flexibility Score: inf
ROOT
ATOM      1  O   UNL A   1      34.161  20.979  24.864  1.00  0.00    -0.377 OA
ENDROOT
BRANCH   1   2
ATOM      2  C   UNL A   1      33.718  22.321  24.715  1.00  0.00     0.188 C 
BRANCH   2   3
ATOM      3  C   UNL A   1      32.919  22.664  23.438  1.00  0.00     0.188 C 
BRANCH   3   4
ATOM      4  O   UNL A   1      32.922  24.041  23.121  1.00  0.00    -0.376 OA
BRANCH   4   5
ATOM      5  C   UNL A   1      32.931  24.483  21.778  1.00  0.00     0.202 C 
BRANCH   5   6
ATOM      6  C   UNL A   1      32.386  25.852  21.349  1.00  0.00     0.261 C 
BRANCH   6   7
ATOM      7  O   UNL A   1      33.061  26.996  21.868  1.00  0.00    -0.460 OA
BRANCH   7   8
ATOM      8  C   UNL A   1      32.773  27.361  23.135  1.00  0.00     0.342 C 
ATOM      9  O   UNL A   1      33.581  27.533  24.032  1.00  0.00    -0.246 OA
BRANCH   8  10
ATOM     10  C   UNL A   1      31.344  27.757  23.215  1.00  0.00     0.102 A 
ATOM     11  C   UNL A   1      30.328  27.020  23.847  1.00  0.00     0.145 A 
ATOM     12  C   UNL A   1      28.998  27.453  23.791  1.00  0.00     0.048 A 
ATOM     13  C   UNL A   1      28.664  28.601  23.072  1.00  0.00     0.004 A 
ATOM     14  C   UNL A   1      30.987  28.906  22.486  1.00  0.00     0.019 A 
ATOM     15  C   UNL A   1      29.654  29.314  22.401  1.00  0.00     0.001 A 
BRANCH  11  16
ATOM     16  O   UNL A   1      30.488  25.719  24.367  1.00  0.00    -0.426 OA
BRANCH  16  17
ATOM     17  C   UNL A   1      30.519  25.509  25.739  1.00  0.00     0.308 C 
ATOM     18  C   UNL A   1      31.951  25.429  26.185  1.00  0.00     0.139 C 
ATOM     19  O   UNL A   1      29.548  25.398  26.474  1.00  0.00    -0.252 OA
ENDBRANCH  16  17
ENDBRANCH  11  16
ENDBRANCH   8  10
ENDBRANCH   7   8
ENDBRANCH   6   7
ENDBRANCH   5   6
ENDBRANCH   4   5
ENDBRANCH   3   4
ENDBRANCH   2   3
ENDBRANCH   1   2
BRANCH   1  20
ATOM     20  C   UNL A   1      35.521  20.715  25.208  1.00  0.00     0.188 C 
BRANCH  20  21
ATOM     21  C   UNL A   1      36.648  21.771  25.079  1.00  0.00     0.188 C 
BRANCH  21  22
ATOM     22  O   UNL A   1      37.948  21.238  24.903  1.00  0.00    -0.376 OA
BRANCH  22  23
ATOM     23  C   UNL A   1      38.155  19.862  25.154  1.00  0.00     0.202 C 
BRANCH  23  24
ATOM     24  C   UNL A   1      39.570  19.433  25.563  1.00  0.00     0.261 C 
BRANCH  24  25
ATOM     25  O   UNL A   1      40.462  20.489  25.951  1.00  0.00    -0.460 OA
BRANCH  25  26
ATOM     26  C   UNL A   1      40.804  20.560  27.254  1.00  0.00     0.338 C 
ATOM     27  O   UNL A   1      41.049  19.632  28.009  1.00  0.00    -0.246 OA
BRANCH  26  28
ATOM     28  C   UNL A   1      41.008  21.984  27.581  1.00  0.00     0.060 A 
ATOM     29  C   UNL A   1      40.216  22.954  26.953  1.00  0.00     0.016 A 
ATOM     30  C   UNL A   1      41.979  22.356  28.512  1.00  0.00     0.016 A 
ATOM     31  C   UNL A   1      40.417  24.306  27.231  1.00  0.00     0.010 A 
ATOM     32  C   UNL A   1      42.195  23.711  28.775  1.00  0.00     0.010 A 
ATOM     33  C   UNL A   1      41.439  24.693  28.109  1.00  0.00    -0.014 A 
BRANCH  33  34
ATOM     34  C   UNL A   1      41.855  26.113  28.180  1.00  0.00     0.031 A 
ATOM     35  C   UNL A   1      43.191  26.490  27.599  1.00  0.00     0.074 A 
ATOM     36  C   UNL A   1      41.067  27.051  28.733  1.00  0.00     0.049 A 
ATOM     37  N   UNL A   1      43.808  27.644  27.605  1.00  0.00    -0.248 NA
ATOM     38  C   UNL A   1      43.933  25.413  26.922  1.00  0.00     0.031 C 
ATOM     39  C   UNL A   1      39.735  26.819  29.284  1.00  0.00     0.029 A 
ATOM     40  N   UNL A   1      41.285  28.392  28.929  1.00  0.00    -0.354 N 
ATOM     41  C   UNL A   1      45.009  27.429  26.941  1.00  0.00     0.074 A 
ATOM     42  C   UNL A   1      45.052  26.030  26.576  1.00  0.00     0.031 C 
ATOM     43  C   UNL A   1      39.258  27.978  29.772  1.00  0.00     0.029 A 
ATOM     44  C   UNL A   1      40.267  29.023  29.601  1.00  0.00     0.049 A 
ATOM     45  H   UNL A   1      42.095  28.858  28.617  1.00  0.00     0.167 HD
ATOM     46  C   UNL A   1      45.985  28.322  26.653  1.00  0.00     0.037 A 
ATOM     47  C   UNL A   1      40.179  30.291  30.051  1.00  0.00     0.037 A 
ATOM     48  C   UNL A   1      45.939  29.713  27.021  1.00  0.00     0.049 A 
ATOM     49  C   UNL A   1      41.321  31.245  29.794  1.00  0.00     0.074 A 
ATOM     50  C   UNL A   1      46.873  30.703  26.768  1.00  0.00     0.029 A 
ATOM     51  N   UNL A   1      44.906  30.308  27.729  1.00  0.00    -0.354 N 
ATOM     52  N   UNL A   1      42.444  31.044  29.148  1.00  0.00    -0.248 NA
ATOM     53  C   UNL A   1      41.180  32.607  30.331  1.00  0.00     0.031 C 
ATOM     54  C   UNL A   1      46.433  31.882  27.376  1.00  0.00     0.029 A 
ATOM     55  C   UNL A   1      45.192  31.645  27.947  1.00  0.00     0.049 A 
ATOM     56  H   UNL A   1      44.090  29.848  28.032  1.00  0.00     0.167 HD
ATOM     57  C   UNL A   1      43.121  32.257  29.166  1.00  0.00     0.074 A 
ATOM     58  C   UNL A   1      42.277  33.194  29.877  1.00  0.00     0.031 C 
ATOM     59  C   UNL A   1      44.333  32.570  28.643  1.00  0.00     0.037 A 
BRANCH  46  60
ATOM     60  C   UNL A   1      47.199  27.818  25.928  1.00  0.00     0.064 A 
ATOM     61  C   UNL A   1      48.324  27.338  26.617  1.00  0.00     0.173 A 
ATOM     62  C   UNL A   1      47.221  27.776  24.527  1.00  0.00     0.173 A 
ATOM     63  F   UNL A   1      48.361  27.370  27.957  1.00  0.00    -0.203 F 
ATOM     64  C   UNL A   1      49.434  26.856  25.927  1.00  0.00     0.198 A 
ATOM     65  C   UNL A   1      48.319  27.263  23.841  1.00  0.00     0.198 A 
ATOM     66  F   UNL A   1      46.172  28.222  23.819  1.00  0.00    -0.203 F 
ATOM     67  F   UNL A   1      50.515  26.447  26.604  1.00  0.00    -0.200 F 
ATOM     68  C   UNL A   1      49.427  26.811  24.541  1.00  0.00     0.200 A 
ATOM     69  F   UNL A   1      48.304  27.207  22.502  1.00  0.00    -0.200 F 
ATOM     70  F   UNL A   1      50.491  26.334  23.879  1.00  0.00    -0.200 F 
ENDBRANCH  46  60
BRANCH  47  71
ATOM     71  C   UNL A   1      38.980  30.738  30.811  1.00  0.00     0.064 A 
ATOM     72  C   UNL A   1      38.921  30.622  32.207  1.00  0.00     0.173 A 
ATOM     73  C   UNL A   1      37.850  31.246  30.154  1.00  0.00     0.173 A 
ATOM     74  F   UNL A   1      39.965  30.117  32.882  1.00  0.00    -0.203 F 
ATOM     75  C   UNL A   1      37.768  30.967  32.912  1.00  0.00     0.198 A 
ATOM     76  C   UNL A   1      36.710  31.623  30.863  1.00  0.00     0.198 A 
ATOM     77  F   UNL A   1      37.849  31.377  28.819  1.00  0.00    -0.203 F 
ATOM     78  F   UNL A   1      37.718  30.784  34.238  1.00  0.00    -0.200 F 
ATOM     79  C   UNL A   1      36.666  31.472  32.240  1.00  0.00     0.200 A 
ATOM     80  F   UNL A   1      35.654  32.124  30.210  1.00  0.00    -0.200 F 
ATOM     81  F   UNL A   1      35.558  31.799  32.918  1.00  0.00    -0.200 F 
ENDBRANCH  47  71
BRANCH  59  82
ATOM     82  C   UNL A   1      44.799  33.994  28.769  1.00  0.00     0.064 A 
ATOM     83  C   UNL A   1      44.470  34.970  27.817  1.00  0.00     0.173 A 
ATOM     84  C   UNL A   1      45.549  34.396  29.886  1.00  0.00     0.173 A 
ATOM     85  F   UNL A   1      43.766  34.638  26.725  1.00  0.00    -0.203 F 
ATOM     86  C   UNL A   1      44.902  36.286  27.962  1.00  0.00     0.198 A 
ATOM     87  C   UNL A   1      45.947  35.720  30.046  1.00  0.00     0.198 A 
ATOM     88  F   UNL A   1      45.883  33.506  30.833  1.00  0.00    -0.203 F 
ATOM     89  F   UNL A   1      44.623  37.189  27.012  1.00  0.00    -0.200 F 
ATOM     90  C   UNL A   1      45.631  36.662  29.080  1.00  0.00     0.200 A 
ATOM     91  F   UNL A   1      46.635  36.084  31.137  1.00  0.00    -0.200 F 
ATOM     92  F   UNL A   1      46.037  37.931  29.222  1.00  0.00    -0.200 F 
ENDBRANCH  59  82
ENDBRANCH  33  34
ENDBRANCH  26  28
ENDBRANCH  25  26
ENDBRANCH  24  25
ENDBRANCH  23  24
ENDBRANCH  22  23
ENDBRANCH  21  22
ENDBRANCH  20  21
ENDBRANCH   1  20
TORSDOF 22
ENDMDL
MODEL 2
REMARK VINA RESULT:      -9.7      2.035      7.443
REMARK SMILES CC(=O)Oc1ccccc1C(=O)OCCOCCOCCOCCOC(=O)c1ccc(-c2c3nc(c(-c4c(F)c(F)c(F)c(F)c4F)c4ccc([nH]4)c(-c4c(F)c(F)c(F)c(F)c4F)c4nc(c(-c5c(F)c(F)c(F)c(F)c5F)c5ccc2[nH]5)C=C4)C=C3)cc1
REMARK SMILES IDX 19 1 18 2 17 3 16 4 15 5 14 6 13 7 11 8 12 9 10 10 5 11 6 12
REMARK SMILES IDX 7 13 9 14 8 15 4 16 2 17 1 18 3 19 20 20 21 21 22 22 23 23
REMARK SMILES IDX 24 24 25 25 26 26 27 27 28 28 29 29 90 30 30 31 89 32 31 33
REMARK SMILES IDX 32 34 33 35 83 36 34 37 88 38 82 39 84 40 35 41 87 42 81 43
REMARK SMILES IDX 80 44 36 46 68 47 48 48 67 49 49 50 52 51 66 52 85 53 50 54
REMARK SMILES IDX 51 55 65 57 86 58 53 59 37 60 38 61 46 62 39 63 40 64 44 65
REMARK SMILES IDX 47 66 41 67 42 68 45 69 43 70 69 71 70 72 78 73 71 74 72 75
REMARK SMILES IDX 76 76 79 77 73 78 74 79 77 80 75 81 54 82 55 83 63 84 56 85
REMARK SMILES IDX 57 86 61 87 64 88 58 89 59 90 62 91 60 92
REMARK H PARENT 84 45 52 56
REMARK Flexibility Score: inf
ROOT
ATOM      1  O   UNL A   1      34.046  20.824  25.263  1.00  0.00    -0.377 OA
ENDROOT
BRANCH   1   2
ATOM      2  C   UNL A   1      33.321  21.910  24.703  1.00  0.00     0.188 C 
BRANCH   2   3
ATOM      3  C   UNL A   1      32.555  21.645  23.388  1.00  0.00     0.188 C 
BRANCH   3   4
ATOM      4  O   UNL A   1      32.311  22.813  22.630  1.00  0.00    -0.376 OA
BRANCH   4   5
ATOM      5  C   UNL A   1      33.256  23.864  22.581  1.00  0.00     0.202 C 
BRANCH   5   6
ATOM      6  C   UNL A   1      32.913  25.309  22.969  1.00  0.00     0.261 C 
BRANCH   6   7
ATOM      7  O   UNL A   1      32.628  25.548  24.345  1.00  0.00    -0.460 OA
BRANCH   7   8
ATOM      8  C   UNL A   1      31.373  25.931  24.660  1.00  0.00     0.342 C 
ATOM      9  O   UNL A   1      30.379  25.224  24.627  1.00  0.00    -0.246 OA
BRANCH   8  10
ATOM     10  C   UNL A   1      31.417  27.278  25.283  1.00  0.00     0.102 A 
ATOM     11  C   UNL A   1      31.341  28.499  24.592  1.00  0.00     0.145 A 
ATOM     12  C   UNL A   1      31.472  29.712  25.278  1.00  0.00     0.048 A 
ATOM     13  C   UNL A   1      31.720  29.718  26.651  1.00  0.00     0.004 A 
ATOM     14  C   UNL A   1      31.677  27.302  26.665  1.00  0.00     0.019 A 
ATOM     15  C   UNL A   1      31.846  28.514  27.340  1.00  0.00     0.001 A 
BRANCH  11  16
ATOM     16  O   UNL A   1      31.365  28.626  23.188  1.00  0.00    -0.426 OA
BRANCH  16  17
ATOM     17  C   UNL A   1      30.231  29.034  22.498  1.00  0.00     0.308 C 
ATOM     18  C   UNL A   1      29.041  28.299  23.047  1.00  0.00     0.139 C 
ATOM     19  O   UNL A   1      30.194  29.850  21.589  1.00  0.00    -0.252 OA
ENDBRANCH  16  17
ENDBRANCH  11  16
ENDBRANCH   8  10
ENDBRANCH   7   8
ENDBRANCH   6   7
ENDBRANCH   5   6
ENDBRANCH   4   5
ENDBRANCH   3   4
ENDBRANCH   2   3
ENDBRANCH   1   2
BRANCH   1  20
ATOM     20  C   UNL A   1      35.372  21.032  25.749  1.00  0.00     0.188 C 
BRANCH  20  21
ATOM     21  C   UNL A   1      36.413  21.918  25.018  1.00  0.00     0.188 C 
BRANCH  21  22
ATOM     22  O   UNL A   1      37.686  21.322  24.844  1.00  0.00    -0.376 OA
BRANCH  22  23
ATOM     23  C   UNL A   1      37.771  19.911  24.785  1.00  0.00     0.202 C 
BRANCH  23  24
ATOM     24  C   UNL A   1      38.982  19.256  25.462  1.00  0.00     0.261 C 
BRANCH  24  25
ATOM     25  O   UNL A   1      39.882  20.145  26.140  1.00  0.00    -0.460 OA
BRANCH  25  26
ATOM     26  C   UNL A   1      41.192  19.826  26.126  1.00  0.00     0.338 C 
ATOM     27  O   UNL A   1      41.700  18.793  25.719  1.00  0.00    -0.246 OA
BRANCH  26  28
ATOM     28  C   UNL A   1      41.945  21.028  26.531  1.00  0.00     0.060 A 
ATOM     29  C   UNL A   1      42.185  21.263  27.892  1.00  0.00     0.016 A 
ATOM     30  C   UNL A   1      42.416  21.919  25.564  1.00  0.00     0.016 A 
ATOM     31  C   UNL A   1      42.871  22.410  28.291  1.00  0.00     0.010 A 
ATOM     32  C   UNL A   1      43.083  23.078  25.966  1.00  0.00     0.010 A 
ATOM     33  C   UNL A   1      43.283  23.345  27.332  1.00  0.00    -0.014 A 
BRANCH  33  34
ATOM     34  C   UNL A   1      43.736  24.691  27.758  1.00  0.00     0.031 A 
ATOM     35  C   UNL A   1      42.689  25.719  28.091  1.00  0.00     0.074 A 
ATOM     36  C   UNL A   1      45.041  24.995  27.861  1.00  0.00     0.049 A 
ATOM     37  N   UNL A   1      42.829  26.979  28.413  1.00  0.00    -0.248 NA
ATOM     38  C   UNL A   1      41.290  25.259  28.051  1.00  0.00     0.031 C 
ATOM     39  C   UNL A   1      46.147  24.072  27.613  1.00  0.00     0.029 A 
ATOM     40  N   UNL A   1      45.655  26.176  28.193  1.00  0.00    -0.354 N 
ATOM     41  C   UNL A   1      41.542  27.462  28.606  1.00  0.00     0.074 A 
ATOM     42  C   UNL A   1      40.630  26.372  28.333  1.00  0.00     0.031 C 
ATOM     43  C   UNL A   1      47.308  24.728  27.787  1.00  0.00     0.029 A 
ATOM     44  C   UNL A   1      47.026  26.124  28.121  1.00  0.00     0.049 A 
ATOM     45  H   UNL A   1      45.160  26.985  28.459  1.00  0.00     0.167 HD
ATOM     46  C   UNL A   1      41.154  28.702  28.987  1.00  0.00     0.037 A 
ATOM     47  C   UNL A   1      47.940  27.102  28.277  1.00  0.00     0.037 A 
ATOM     48  C   UNL A   1      42.064  29.784  29.256  1.00  0.00     0.049 A 
ATOM     49  C   UNL A   1      47.477  28.498  28.615  1.00  0.00     0.074 A 
ATOM     50  C   UNL A   1      41.772  31.076  29.657  1.00  0.00     0.029 A 
ATOM     51  N   UNL A   1      43.443  29.702  29.141  1.00  0.00    -0.354 N 
ATOM     52  N   UNL A   1      46.261  28.945  28.818  1.00  0.00    -0.248 NA
ATOM     53  C   UNL A   1      48.518  29.528  28.747  1.00  0.00     0.031 C 
ATOM     54  C   UNL A   1      42.971  31.792  29.725  1.00  0.00     0.029 A 
ATOM     55  C   UNL A   1      44.016  30.928  29.435  1.00  0.00     0.049 A 
ATOM     56  H   UNL A   1      43.942  28.892  28.887  1.00  0.00     0.167 HD
ATOM     57  C   UNL A   1      46.393  30.291  29.139  1.00  0.00     0.074 A 
ATOM     58  C   UNL A   1      47.810  30.586  29.116  1.00  0.00     0.031 C 
ATOM     59  C   UNL A   1      45.430  31.202  29.425  1.00  0.00     0.037 A 
BRANCH  46  60
ATOM     60  C   UNL A   1      39.681  28.965  29.110  1.00  0.00     0.064 A 
ATOM     61  C   UNL A   1      39.014  28.873  30.341  1.00  0.00     0.173 A 
ATOM     62  C   UNL A   1      38.935  29.354  27.987  1.00  0.00     0.173 A 
ATOM     63  F   UNL A   1      39.676  28.489  31.442  1.00  0.00    -0.203 F 
ATOM     64  C   UNL A   1      37.649  29.140  30.438  1.00  0.00     0.198 A 
ATOM     65  C   UNL A   1      37.579  29.653  28.094  1.00  0.00     0.198 A 
ATOM     66  F   UNL A   1      39.524  29.458  26.786  1.00  0.00    -0.203 F 
ATOM     67  F   UNL A   1      37.024  29.000  31.614  1.00  0.00    -0.200 F 
ATOM     68  C   UNL A   1      36.937  29.538  29.317  1.00  0.00     0.200 A 
ATOM     69  F   UNL A   1      36.895  30.051  27.013  1.00  0.00    -0.200 F 
ATOM     70  F   UNL A   1      35.627  29.807  29.415  1.00  0.00    -0.200 F 
ENDBRANCH  46  60
BRANCH  47  71
ATOM     71  C   UNL A   1      49.389  26.812  28.096  1.00  0.00     0.064 A 
ATOM     72  C   UNL A   1      50.215  26.526  29.194  1.00  0.00     0.173 A 
ATOM     73  C   UNL A   1      49.989  26.862  26.829  1.00  0.00     0.173 A 
ATOM     74  F   UNL A   1      49.696  26.493  30.430  1.00  0.00    -0.203 F 
ATOM     75  C   UNL A   1      51.586  26.332  29.034  1.00  0.00     0.198 A 
ATOM     76  C   UNL A   1      51.355  26.633  26.666  1.00  0.00     0.198 A 
ATOM     77  F   UNL A   1      49.249  27.133  25.744  1.00  0.00    -0.203 F 
ATOM     78  F   UNL A   1      52.360  26.125  30.108  1.00  0.00    -0.200 F 
ATOM     79  C   UNL A   1      52.154  26.381  27.770  1.00  0.00     0.200 A 
ATOM     80  F   UNL A   1      51.895  26.668  25.441  1.00  0.00    -0.200 F 
ATOM     81  F   UNL A   1      53.473  26.198  27.618  1.00  0.00    -0.200 F 
ENDBRANCH  47  71
BRANCH  59  82
ATOM     82  C   UNL A   1      45.874  32.591  29.792  1.00  0.00     0.064 A 
ATOM     83  C   UNL A   1      46.002  33.607  28.833  1.00  0.00     0.173 A 
ATOM     84  C   UNL A   1      46.129  32.921  31.133  1.00  0.00     0.173 A 
ATOM     85  F   UNL A   1      45.781  33.344  27.537  1.00  0.00    -0.203 F 
ATOM     86  C   UNL A   1      46.401  34.890  29.199  1.00  0.00     0.198 A 
ATOM     87  C   UNL A   1      46.492  34.213  31.499  1.00  0.00     0.198 A 
ATOM     88  F   UNL A   1      46.011  31.991  32.093  1.00  0.00    -0.203 F 
ATOM     89  F   UNL A   1      46.571  35.830  28.259  1.00  0.00    -0.200 F 
ATOM     90  C   UNL A   1      46.636  35.195  30.531  1.00  0.00     0.200 A 
ATOM     91  F   UNL A   1      46.699  34.509  32.790  1.00  0.00    -0.200 F 
ATOM     92  F   UNL A   1      47.011  36.433  30.882  1.00  0.00    -0.200 F 
ENDBRANCH  59  82
ENDBRANCH  33  34
ENDBRANCH  26  28
ENDBRANCH  25  26
ENDBRANCH  24  25
ENDBRANCH  23  24
ENDBRANCH  22  23
ENDBRANCH  21  22
ENDBRANCH  20  21
ENDBRANCH   1  20
TORSDOF 22
ENDMDL
MODEL 3
REMARK VINA RESULT:      -9.7      1.040      2.260
REMARK SMILES CC(=O)Oc1ccccc1C(=O)OCCOCCOCCOCCOC(=O)c1ccc(-c2c3nc(c(-c4c(F)c(F)c(F)c(F)c4F)c4ccc([nH]4)c(-c4c(F)c(F)c(F)c(F)c4F)c4nc(c(-c5c(F)c(F)c(F)c(F)c5F)c5ccc2[nH]5)C=C4)C=C3)cc1
REMARK SMILES IDX 19 1 18 2 17 3 16 4 15 5 14 6 13 7 11 8 12 9 10 10 5 11 6 12
REMARK SMILES IDX 7 13 9 14 8 15 4 16 2 17 1 18 3 19 20 20 21 21 22 22 23 23
REMARK SMILES IDX 24 24 25 25 26 26 27 27 28 28 29 29 90 30 30 31 89 32 31 33
REMARK SMILES IDX 32 34 33 35 83 36 34 37 88 38 82 39 84 40 35 41 87 42 81 43
REMARK SMILES IDX 80 44 36 46 68 47 48 48 67 49 49 50 52 51 66 52 85 53 50 54
REMARK SMILES IDX 51 55 65 57 86 58 53 59 37 60 38 61 46 62 39 63 40 64 44 65
REMARK SMILES IDX 47 66 41 67 42 68 45 69 43 70 69 71 70 72 78 73 71 74 72 75
REMARK SMILES IDX 76 76 79 77 73 78 74 79 77 80 75 81 54 82 55 83 63 84 56 85
REMARK SMILES IDX 57 86 61 87 64 88 58 89 59 90 62 91 60 92
REMARK H PARENT 84 45 52 56
REMARK Flexibility Score: inf
ROOT
ATOM      1  O   UNL A   1      34.475  20.799  24.686  1.00  0.00    -0.377 OA
ENDROOT
BRANCH   1   2
ATOM      2  C   UNL A   1      34.225  21.950  23.890  1.00  0.00     0.188 C 
BRANCH   2   3
ATOM      3  C   UNL A   1      32.930  22.740  24.177  1.00  0.00     0.188 C 
BRANCH   3   4
ATOM      4  O   UNL A   1      32.190  22.235  25.271  1.00  0.00    -0.376 OA
BRANCH   4   5
ATOM      5  C   UNL A   1      31.963  23.020  26.425  1.00  0.00     0.202 C 
BRANCH   5   6
ATOM      6  C   UNL A   1      30.745  23.941  26.579  1.00  0.00     0.261 C 
BRANCH   6   7
ATOM      7  O   UNL A   1      31.012  25.338  26.686  1.00  0.00    -0.460 OA
BRANCH   7   8
ATOM      8  C   UNL A   1      30.421  26.151  25.786  1.00  0.00     0.342 C 
ATOM      9  O   UNL A   1      29.412  25.901  25.149  1.00  0.00    -0.246 OA
BRANCH   8  10
ATOM     10  C   UNL A   1      31.047  27.496  25.861  1.00  0.00     0.102 A 
ATOM     11  C   UNL A   1      31.202  28.384  24.783  1.00  0.00     0.145 A 
ATOM     12  C   UNL A   1      31.880  29.597  24.955  1.00  0.00     0.048 A 
ATOM     13  C   UNL A   1      32.443  29.916  26.190  1.00  0.00     0.004 A 
ATOM     14  C   UNL A   1      31.630  27.829  27.096  1.00  0.00     0.019 A 
ATOM     15  C   UNL A   1      32.338  29.023  27.254  1.00  0.00     0.001 A 
BRANCH  11  16
ATOM     16  O   UNL A   1      30.923  28.066  23.438  1.00  0.00    -0.426 OA
BRANCH  16  17
ATOM     17  C   UNL A   1      30.191  28.940  22.645  1.00  0.00     0.308 C 
ATOM     18  C   UNL A   1      28.762  28.929  23.105  1.00  0.00     0.139 C 
ATOM     19  O   UNL A   1      30.626  29.610  21.719  1.00  0.00    -0.252 OA
ENDBRANCH  16  17
ENDBRANCH  11  16
ENDBRANCH   8  10
ENDBRANCH   7   8
ENDBRANCH   6   7
ENDBRANCH   5   6
ENDBRANCH   4   5
ENDBRANCH   3   4
ENDBRANCH   2   3
ENDBRANCH   1   2
BRANCH   1  20
ATOM     20  C   UNL A   1      35.817  20.442  25.016  1.00  0.00     0.188 C 
BRANCH  20  21
ATOM     21  C   UNL A   1      36.938  21.487  25.252  1.00  0.00     0.188 C 
BRANCH  21  22
ATOM     22  O   UNL A   1      38.256  20.991  25.103  1.00  0.00    -0.376 OA
BRANCH  22  23
ATOM     23  C   UNL A   1      38.578  19.740  25.676  1.00  0.00     0.202 C 
BRANCH  23  24
ATOM     24  C   UNL A   1      40.043  19.293  25.598  1.00  0.00     0.261 C 
BRANCH  24  25
ATOM     25  O   UNL A   1      41.024  20.281  25.950  1.00  0.00    -0.460 OA
BRANCH  25  26
ATOM     26  C   UNL A   1      41.324  20.413  27.258  1.00  0.00     0.338 C 
ATOM     27  O   UNL A   1      41.597  19.525  28.050  1.00  0.00    -0.246 OA
BRANCH  26  28
ATOM     28  C   UNL A   1      41.442  21.856  27.540  1.00  0.00     0.060 A 
ATOM     29  C   UNL A   1      40.822  22.778  26.686  1.00  0.00     0.016 A 
ATOM     30  C   UNL A   1      42.161  22.295  28.654  1.00  0.00     0.016 A 
ATOM     31  C   UNL A   1      40.949  24.146  26.925  1.00  0.00     0.010 A 
ATOM     32  C   UNL A   1      42.306  23.665  28.882  1.00  0.00     0.010 A 
ATOM     33  C   UNL A   1      41.729  24.596  27.999  1.00  0.00    -0.014 A 
BRANCH  33  34
ATOM     34  C   UNL A   1      42.115  26.025  28.085  1.00  0.00     0.031 A 
ATOM     35  C   UNL A   1      43.437  26.439  27.498  1.00  0.00     0.074 A 
ATOM     36  C   UNL A   1      41.311  26.938  28.657  1.00  0.00     0.049 A 
ATOM     37  N   UNL A   1      44.028  27.606  27.513  1.00  0.00    -0.248 NA
ATOM     38  C   UNL A   1      44.197  25.388  26.800  1.00  0.00     0.031 C 
ATOM     39  C   UNL A   1      39.989  26.668  29.217  1.00  0.00     0.029 A 
ATOM     40  N   UNL A   1      41.501  28.281  28.869  1.00  0.00    -0.354 N 
ATOM     41  C   UNL A   1      45.228  27.427  26.837  1.00  0.00     0.074 A 
ATOM     42  C   UNL A   1      45.299  26.034  26.453  1.00  0.00     0.031 C 
ATOM     43  C   UNL A   1      39.491  27.810  29.724  1.00  0.00     0.029 A 
ATOM     44  C   UNL A   1      40.475  28.880  29.558  1.00  0.00     0.049 A 
ATOM     45  H   UNL A   1      42.297  28.769  28.556  1.00  0.00     0.167 HD
ATOM     46  C   UNL A   1      46.181  28.345  26.552  1.00  0.00     0.037 A 
ATOM     47  C   UNL A   1      40.363  30.139  30.025  1.00  0.00     0.037 A 
ATOM     48  C   UNL A   1      46.107  29.730  26.939  1.00  0.00     0.049 A 
ATOM     49  C   UNL A   1      41.481  31.122  29.772  1.00  0.00     0.074 A 
ATOM     50  C   UNL A   1      47.016  30.744  26.691  1.00  0.00     0.029 A 
ATOM     51  N   UNL A   1      45.067  30.292  27.664  1.00  0.00    -0.354 N 
ATOM     52  N   UNL A   1      42.602  30.954  29.113  1.00  0.00    -0.248 NA
ATOM     53  C   UNL A   1      41.314  32.473  30.328  1.00  0.00     0.031 C 
ATOM     54  C   UNL A   1      46.555  31.904  27.319  1.00  0.00     0.029 A 
ATOM     55  C   UNL A   1      45.326  31.633  27.897  1.00  0.00     0.049 A 
ATOM     56  H   UNL A   1      44.265  29.810  27.968  1.00  0.00     0.167 HD
ATOM     57  C   UNL A   1      43.253  32.182  29.142  1.00  0.00     0.074 A 
ATOM     58  C   UNL A   1      42.394  33.090  29.872  1.00  0.00     0.031 C 
ATOM     59  C   UNL A   1      44.453  32.529  28.612  1.00  0.00     0.037 A 
BRANCH  46  60
ATOM     60  C   UNL A   1      47.400  27.878  25.811  1.00  0.00     0.064 A 
ATOM     61  C   UNL A   1      48.565  27.479  26.483  1.00  0.00     0.173 A 
ATOM     62  C   UNL A   1      47.387  27.789  24.411  1.00  0.00     0.173 A 
ATOM     63  F   UNL A   1      48.636  27.560  27.820  1.00  0.00    -0.203 F 
ATOM     64  C   UNL A   1      49.680  27.030  25.778  1.00  0.00     0.198 A 
ATOM     65  C   UNL A   1      48.491  27.308  23.712  1.00  0.00     0.198 A 
ATOM     66  F   UNL A   1      46.298  28.157  23.719  1.00  0.00    -0.203 F 
ATOM     67  F   UNL A   1      50.798  26.699  26.438  1.00  0.00    -0.200 F 
ATOM     68  C   UNL A   1      49.638  26.936  24.395  1.00  0.00     0.200 A 
ATOM     69  F   UNL A   1      48.443  27.205  22.377  1.00  0.00    -0.200 F 
ATOM     70  F   UNL A   1      50.707  26.491  23.720  1.00  0.00    -0.200 F 
ENDBRANCH  46  60
BRANCH  47  71
ATOM     71  C   UNL A   1      39.161  30.549  30.801  1.00  0.00     0.064 A 
ATOM     72  C   UNL A   1      39.089  30.348  32.188  1.00  0.00     0.173 A 
ATOM     73  C   UNL A   1      38.041  31.107  30.167  1.00  0.00     0.173 A 
ATOM     74  F   UNL A   1      40.123  29.793  32.838  1.00  0.00    -0.203 F 
ATOM     75  C   UNL A   1      37.932  30.659  32.903  1.00  0.00     0.198 A 
ATOM     76  C   UNL A   1      36.898  31.450  30.889  1.00  0.00     0.198 A 
ATOM     77  F   UNL A   1      38.053  31.320  28.843  1.00  0.00    -0.203 F 
ATOM     78  F   UNL A   1      37.869  30.395  34.215  1.00  0.00    -0.200 F 
ATOM     79  C   UNL A   1      36.841  31.214  32.254  1.00  0.00     0.200 A 
ATOM     80  F   UNL A   1      35.852  31.999  30.259  1.00  0.00    -0.200 F 
ATOM     81  F   UNL A   1      35.729  31.510  32.941  1.00  0.00    -0.200 F 
ENDBRANCH  47  71
BRANCH  59  82
ATOM     82  C   UNL A   1      44.888  33.961  28.753  1.00  0.00     0.064 A 
ATOM     83  C   UNL A   1      45.698  34.390  29.815  1.00  0.00     0.173 A 
ATOM     84  C   UNL A   1      44.525  34.909  27.783  1.00  0.00     0.173 A 
ATOM     85  F   UNL A   1      46.064  33.529  30.776  1.00  0.00    -0.203 F 
ATOM     86  C   UNL A   1      46.099  35.720  29.917  1.00  0.00     0.198 A 
ATOM     87  C   UNL A   1      44.959  36.228  27.868  1.00  0.00     0.198 A 
ATOM     88  F   UNL A   1      43.761  34.551  26.739  1.00  0.00    -0.203 F 
ATOM     89  F   UNL A   1      46.827  36.119  30.970  1.00  0.00    -0.200 F 
ATOM     90  C   UNL A   1      45.738  36.635  28.940  1.00  0.00     0.200 A 
ATOM     91  F   UNL A   1      44.625  37.105  26.911  1.00  0.00    -0.200 F 
ATOM     92  F   UNL A   1      46.135  37.911  29.035  1.00  0.00    -0.200 F 
ENDBRANCH  59  82
ENDBRANCH  33  34
ENDBRANCH  26  28
ENDBRANCH  25  26
ENDBRANCH  24  25
ENDBRANCH  23  24
ENDBRANCH  22  23
ENDBRANCH  21  22
ENDBRANCH  20  21
ENDBRANCH   1  20
TORSDOF 22
ENDMDL
