MODEL 1
REMARK VINA RESULT:      -9.4      0.000      0.000
REMARK SMILES COc1ccc([C@H]2CC(c3ccccc3)=NN2C(=O)CCCC(=O)OCCOCCOCCOCCOC(=O)c2ccc(-c3c4nc(c(-c5c(F)c(F)c(F)c(F)c5F)c5ccc([nH]5)c(-c5c(F)c(F)c(F)c(F)c5F)c5nc(c(-c6c(F)c(F)c(F)c(F)c6F)c6ccc3[nH]6)C=C5)C=C4)cc2)cc1
REMARK SMILES IDX 29 1 28 2 27 3 26 4 25 5 23 6 24 7 22 8 21 9 20 10 18 11
REMARK SMILES IDX 19 12 17 13 7 14 8 15 9 16 16 17 6 18 3 19 4 20 104 21 5 22
REMARK SMILES IDX 103 23 2 24 1 25 10 26 11 27 15 28 12 29 14 30 13 31 30 32
REMARK SMILES IDX 31 33 32 34 33 35 34 36 35 37 36 38 37 39 38 40 39 41 40 42
REMARK SMILES IDX 41 43 102 44 42 45 101 46 43 47 44 48 45 49 95 50 46 51
REMARK SMILES IDX 100 52 94 53 96 54 47 55 99 56 93 57 92 58 48 60 80 61 60 62
REMARK SMILES IDX 79 63 61 64 64 65 78 66 97 67 62 68 63 69 77 71 98 72 65 73
REMARK SMILES IDX 49 74 50 75 58 76 51 77 52 78 56 79 59 80 53 81 54 82 57 83
REMARK SMILES IDX 55 84 81 85 82 86 90 87 83 88 84 89 88 90 91 91 85 92 86 93
REMARK SMILES IDX 89 94 87 95 66 96 67 97 75 98 68 99 69 100 73 101 76 102
REMARK SMILES IDX 70 103 71 104 74 105 72 106
REMARK H PARENT 96 59 64 70
REMARK Flexibility Score: inf
ROOT
ATOM      1  C   UNL A   1      33.425  20.703  26.779  1.00  0.00     0.188 C 
ENDROOT
BRANCH   1   2
ATOM      2  O   UNL A   1      33.096  21.947  27.391  1.00  0.00    -0.376 OA
BRANCH   2   3
ATOM      3  C   UNL A   1      32.705  23.016  26.538  1.00  0.00     0.202 C 
BRANCH   3   4
ATOM      4  C   UNL A   1      31.293  23.614  26.756  1.00  0.00     0.261 C 
BRANCH   4   5
ATOM      5  O   UNL A   1      31.158  25.035  26.592  1.00  0.00    -0.463 OA
BRANCH   5   6
ATOM      6  C   UNL A   1      29.899  25.440  26.336  1.00  0.00     0.305 C 
ATOM      7  O   UNL A   1      28.932  24.914  26.875  1.00  0.00    -0.252 OA
BRANCH   6   8
ATOM      8  C   UNL A   1      29.779  26.598  25.363  1.00  0.00     0.123 C 
BRANCH   8   9
ATOM      9  C   UNL A   1      28.811  26.478  24.224  1.00  0.00     0.022 C 
BRANCH   9  10
ATOM     10  C   UNL A   1      29.123  27.475  23.126  1.00  0.00     0.103 C 
BRANCH  10  11
ATOM     11  C   UNL A   1      30.287  28.451  23.326  1.00  0.00     0.243 C 
ATOM     12  O   UNL A   1      29.989  29.657  23.291  1.00  0.00    -0.273 OA
BRANCH  11  13
ATOM     13  N   UNL A   1      31.558  28.042  23.731  1.00  0.00    -0.225 N 
ATOM     14  C   UNL A   1      32.847  28.716  24.114  1.00  0.00     0.147 C 
ATOM     15  C   UNL A   1      33.905  27.632  24.062  1.00  0.00     0.091 C 
ATOM     16  C   UNL A   1      33.044  26.475  23.706  1.00  0.00     0.071 C 
ATOM     17  N   UNL A   1      31.782  26.692  23.550  1.00  0.00    -0.174 NA
BRANCH  14  18
ATOM     18  C   UNL A   1      32.906  29.403  25.488  1.00  0.00    -0.023 A 
ATOM     19  C   UNL A   1      33.521  31.126  27.625  1.00  0.00     0.118 A 
ATOM     20  C   UNL A   1      34.341  30.034  27.374  1.00  0.00     0.047 A 
ATOM     21  C   UNL A   1      32.336  31.289  26.908  1.00  0.00     0.047 A 
ATOM     22  C   UNL A   1      34.000  29.143  26.350  1.00  0.00     0.010 A 
ATOM     23  C   UNL A   1      32.021  30.427  25.850  1.00  0.00     0.010 A 
BRANCH  19  24
ATOM     24  O   UNL A   1      33.944  32.153  28.424  1.00  0.00    -0.497 OA
ATOM     25  C   UNL A   1      34.937  32.955  27.794  1.00  0.00     0.278 C 
ENDBRANCH  19  24
ENDBRANCH  14  18
BRANCH  16  26
ATOM     26  C   UNL A   1      33.644  25.170  23.487  1.00  0.00    -0.002 A 
ATOM     27  C   UNL A   1      33.038  24.295  22.587  1.00  0.00     0.010 A 
ATOM     28  C   UNL A   1      34.799  24.828  24.185  1.00  0.00     0.010 A 
ATOM     29  C   UNL A   1      33.609  23.045  22.376  1.00  0.00     0.001 A 
ATOM     30  C   UNL A   1      35.355  23.571  23.982  1.00  0.00     0.001 A 
ATOM     31  C   UNL A   1      34.762  22.684  23.079  1.00  0.00     0.000 A 
ENDBRANCH  16  26
ENDBRANCH  11  13
ENDBRANCH  10  11
ENDBRANCH   9  10
ENDBRANCH   8   9
ENDBRANCH   6   8
ENDBRANCH   5   6
ENDBRANCH   4   5
ENDBRANCH   3   4
ENDBRANCH   2   3
ENDBRANCH   1   2
BRANCH   1  32
ATOM     32  C   UNL A   1      32.727  20.455  25.434  1.00  0.00     0.188 C 
BRANCH  32  33
ATOM     33  O   UNL A   1      32.302  19.128  25.144  1.00  0.00    -0.377 OA
BRANCH  33  34
ATOM     34  C   UNL A   1      33.283  18.088  25.205  1.00  0.00     0.188 C 
BRANCH  34  35
ATOM     35  C   UNL A   1      34.448  18.127  24.196  1.00  0.00     0.188 C 
BRANCH  35  36
ATOM     36  O   UNL A   1      35.720  18.370  24.763  1.00  0.00    -0.376 OA
BRANCH  36  37
ATOM     37  C   UNL A   1      36.237  19.690  24.720  1.00  0.00     0.202 C 
BRANCH  37  38
ATOM     38  C   UNL A   1      37.760  19.901  24.648  1.00  0.00     0.261 C 
BRANCH  38  39
ATOM     39  O   UNL A   1      38.376  20.706  25.672  1.00  0.00    -0.460 OA
BRANCH  39  40
ATOM     40  C   UNL A   1      37.753  21.826  26.116  1.00  0.00     0.338 C 
ATOM     41  O   UNL A   1      36.622  21.941  26.501  1.00  0.00    -0.246 OA
BRANCH  40  42
ATOM     42  C   UNL A   1      38.803  22.868  26.255  1.00  0.00     0.060 A 
ATOM     43  C   UNL A   1      39.925  22.610  27.059  1.00  0.00     0.016 A 
ATOM     44  C   UNL A   1      38.688  24.081  25.578  1.00  0.00     0.016 A 
ATOM     45  C   UNL A   1      40.925  23.573  27.202  1.00  0.00     0.010 A 
ATOM     46  C   UNL A   1      39.666  25.062  25.756  1.00  0.00     0.010 A 
ATOM     47  C   UNL A   1      40.771  24.822  26.593  1.00  0.00    -0.014 A 
BRANCH  47  48
ATOM     48  C   UNL A   1      41.616  25.961  27.025  1.00  0.00     0.031 A 
ATOM     49  C   UNL A   1      40.998  26.973  27.949  1.00  0.00     0.074 A 
ATOM     50  C   UNL A   1      42.884  26.107  26.609  1.00  0.00     0.049 A 
ATOM     51  N   UNL A   1      41.474  28.115  28.376  1.00  0.00    -0.248 NA
ATOM     52  C   UNL A   1      39.654  26.651  28.459  1.00  0.00     0.031 C 
ATOM     53  C   UNL A   1      43.614  25.164  25.765  1.00  0.00     0.029 A 
ATOM     54  N   UNL A   1      43.779  27.125  26.832  1.00  0.00    -0.354 N 
ATOM     55  C   UNL A   1      40.484  28.649  29.190  1.00  0.00     0.074 A 
ATOM     56  C   UNL A   1      39.376  27.722  29.184  1.00  0.00     0.031 C 
ATOM     57  C   UNL A   1      44.839  25.663  25.517  1.00  0.00     0.029 A 
ATOM     58  C   UNL A   1      44.961  26.977  26.150  1.00  0.00     0.049 A 
ATOM     59  H   UNL A   1      43.589  27.889  27.424  1.00  0.00     0.167 HD
ATOM     60  C   UNL A   1      40.501  29.811  29.882  1.00  0.00     0.037 A 
ATOM     61  C   UNL A   1      46.001  27.826  26.024  1.00  0.00     0.037 A 
ATOM     62  C   UNL A   1      41.601  30.737  29.876  1.00  0.00     0.049 A 
ATOM     63  C   UNL A   1      45.952  29.166  26.719  1.00  0.00     0.074 A 
ATOM     64  C   UNL A   1      41.722  31.936  30.554  1.00  0.00     0.029 A 
ATOM     65  N   UNL A   1      42.766  30.570  29.141  1.00  0.00    -0.354 N 
ATOM     66  N   UNL A   1      45.027  29.659  27.506  1.00  0.00    -0.248 NA
ATOM     67  C   UNL A   1      47.092  30.069  26.501  1.00  0.00     0.031 C 
ATOM     68  C   UNL A   1      42.934  32.525  30.181  1.00  0.00     0.029 A 
ATOM     69  C   UNL A   1      43.596  31.663  29.321  1.00  0.00     0.049 A 
ATOM     70  H   UNL A   1      42.970  29.791  28.576  1.00  0.00     0.167 HD
ATOM     71  C   UNL A   1      45.482  30.913  27.896  1.00  0.00     0.074 A 
ATOM     72  C   UNL A   1      46.775  31.101  27.271  1.00  0.00     0.031 C 
ATOM     73  C   UNL A   1      44.886  31.828  28.700  1.00  0.00     0.037 A 
BRANCH  60  74
ATOM     74  C   UNL A   1      39.273  30.165  30.670  1.00  0.00     0.064 A 
ATOM     75  C   UNL A   1      38.270  30.992  30.143  1.00  0.00     0.173 A 
ATOM     76  C   UNL A   1      39.089  29.649  31.961  1.00  0.00     0.173 A 
ATOM     77  F   UNL A   1      38.407  31.527  28.921  1.00  0.00    -0.203 F 
ATOM     78  C   UNL A   1      37.139  31.310  30.891  1.00  0.00     0.198 A 
ATOM     79  C   UNL A   1      37.944  29.942  32.693  1.00  0.00     0.198 A 
ATOM     80  F   UNL A   1      40.019  28.853  32.511  1.00  0.00    -0.203 F 
ATOM     81  F   UNL A   1      36.217  32.141  30.389  1.00  0.00    -0.200 F 
ATOM     82  C   UNL A   1      36.973  30.778  32.162  1.00  0.00     0.200 A 
ATOM     83  F   UNL A   1      37.779  29.418  33.915  1.00  0.00    -0.200 F 
ATOM     84  F   UNL A   1      35.881  31.078  32.877  1.00  0.00    -0.200 F 
ENDBRANCH  60  74
BRANCH  61  85
ATOM     85  C   UNL A   1      47.169  27.458  25.178  1.00  0.00     0.064 A 
ATOM     86  C   UNL A   1      47.231  27.833  23.829  1.00  0.00     0.173 A 
ATOM     87  C   UNL A   1      48.229  26.694  25.691  1.00  0.00     0.173 A 
ATOM     88  F   UNL A   1      46.229  28.537  23.283  1.00  0.00    -0.203 F 
ATOM     89  C   UNL A   1      48.299  27.444  23.021  1.00  0.00     0.198 A 
ATOM     90  C   UNL A   1      49.310  26.332  24.890  1.00  0.00     0.198 A 
ATOM     91  F   UNL A   1      48.215  26.300  26.973  1.00  0.00    -0.203 F 
ATOM     92  F   UNL A   1      48.307  27.774  21.722  1.00  0.00    -0.200 F 
ATOM     93  C   UNL A   1      49.340  26.699  23.554  1.00  0.00     0.200 A 
ATOM     94  F   UNL A   1      50.319  25.619  25.410  1.00  0.00    -0.200 F 
ATOM     95  F   UNL A   1      50.367  26.328  22.777  1.00  0.00    -0.200 F 
ENDBRANCH  61  85
BRANCH  73  96
ATOM     96  C   UNL A   1      45.630  33.101  28.985  1.00  0.00     0.064 A 
ATOM     97  C   UNL A   1      46.562  33.191  30.030  1.00  0.00     0.173 A 
ATOM     98  C   UNL A   1      45.462  34.222  28.157  1.00  0.00     0.173 A 
ATOM     99  F   UNL A   1      46.751  32.154  30.858  1.00  0.00    -0.203 F 
ATOM    100  C   UNL A   1      47.286  34.362  30.244  1.00  0.00     0.198 A 
ATOM    101  C   UNL A   1      46.210  35.379  28.354  1.00  0.00     0.198 A 
ATOM    102  F   UNL A   1      44.590  34.186  27.138  1.00  0.00    -0.203 F 
ATOM    103  F   UNL A   1      48.143  34.439  31.271  1.00  0.00    -0.200 F 
ATOM    104  C   UNL A   1      47.117  35.451  29.400  1.00  0.00     0.200 A 
ATOM    105  F   UNL A   1      46.058  36.423  27.527  1.00  0.00    -0.200 F 
ATOM    106  F   UNL A   1      47.828  36.569  29.597  1.00  0.00    -0.200 F 
ENDBRANCH  73  96
ENDBRANCH  47  48
ENDBRANCH  40  42
ENDBRANCH  39  40
ENDBRANCH  38  39
ENDBRANCH  37  38
ENDBRANCH  36  37
ENDBRANCH  35  36
ENDBRANCH  34  35
ENDBRANCH  33  34
ENDBRANCH  32  33
ENDBRANCH   1  32
TORSDOF 27
ENDMDL
MODEL 2
REMARK VINA RESULT:      -9.1      1.941      3.961
REMARK SMILES COc1ccc([C@H]2CC(c3ccccc3)=NN2C(=O)CCCC(=O)OCCOCCOCCOCCOC(=O)c2ccc(-c3c4nc(c(-c5c(F)c(F)c(F)c(F)c5F)c5ccc([nH]5)c(-c5c(F)c(F)c(F)c(F)c5F)c5nc(c(-c6c(F)c(F)c(F)c(F)c6F)c6ccc3[nH]6)C=C5)C=C4)cc2)cc1
REMARK SMILES IDX 29 1 28 2 27 3 26 4 25 5 23 6 24 7 22 8 21 9 20 10 18 11
REMARK SMILES IDX 19 12 17 13 7 14 8 15 9 16 16 17 6 18 3 19 4 20 104 21 5 22
REMARK SMILES IDX 103 23 2 24 1 25 10 26 11 27 15 28 12 29 14 30 13 31 30 32
REMARK SMILES IDX 31 33 32 34 33 35 34 36 35 37 36 38 37 39 38 40 39 41 40 42
REMARK SMILES IDX 41 43 102 44 42 45 101 46 43 47 44 48 45 49 95 50 46 51
REMARK SMILES IDX 100 52 94 53 96 54 47 55 99 56 93 57 92 58 48 60 80 61 60 62
REMARK SMILES IDX 79 63 61 64 64 65 78 66 97 67 62 68 63 69 77 71 98 72 65 73
REMARK SMILES IDX 49 74 50 75 58 76 51 77 52 78 56 79 59 80 53 81 54 82 57 83
REMARK SMILES IDX 55 84 81 85 82 86 90 87 83 88 84 89 88 90 91 91 85 92 86 93
REMARK SMILES IDX 89 94 87 95 66 96 67 97 75 98 68 99 69 100 73 101 76 102
REMARK SMILES IDX 70 103 71 104 74 105 72 106
REMARK H PARENT 96 59 64 70
REMARK Flexibility Score: inf
ROOT
ATOM      1  C   UNL A   1      33.295  21.034  26.966  1.00  0.00     0.188 C 
ENDROOT
BRANCH   1   2
ATOM      2  O   UNL A   1      32.892  22.177  27.715  1.00  0.00    -0.376 OA
BRANCH   2   3
ATOM      3  C   UNL A   1      32.829  23.422  27.030  1.00  0.00     0.202 C 
BRANCH   3   4
ATOM      4  C   UNL A   1      31.421  24.010  26.762  1.00  0.00     0.261 C 
BRANCH   4   5
ATOM      5  O   UNL A   1      31.305  25.443  26.766  1.00  0.00    -0.463 OA
BRANCH   5   6
ATOM      6  C   UNL A   1      30.287  25.911  26.020  1.00  0.00     0.305 C 
ATOM      7  O   UNL A   1      29.352  25.193  25.683  1.00  0.00    -0.252 OA
BRANCH   6   8
ATOM      8  C   UNL A   1      30.374  27.383  25.660  1.00  0.00     0.123 C 
BRANCH   8   9
ATOM      9  C   UNL A   1      30.229  27.776  24.220  1.00  0.00     0.022 C 
BRANCH   9  10
ATOM     10  C   UNL A   1      30.627  29.223  24.000  1.00  0.00     0.103 C 
BRANCH  10  11
ATOM     11  C   UNL A   1      31.476  29.924  25.065  1.00  0.00     0.243 C 
ATOM     12  O   UNL A   1      30.920  30.858  25.667  1.00  0.00    -0.273 OA
BRANCH  11  13
ATOM     13  N   UNL A   1      32.708  29.432  25.497  1.00  0.00    -0.225 N 
ATOM     14  C   UNL A   1      33.326  28.076  25.706  1.00  0.00     0.147 C 
ATOM     15  C   UNL A   1      34.559  28.316  26.554  1.00  0.00     0.091 C 
ATOM     16  C   UNL A   1      34.492  29.796  26.660  1.00  0.00     0.071 C 
ATOM     17  N   UNL A   1      33.511  30.396  26.073  1.00  0.00    -0.174 NA
BRANCH  14  18
ATOM     18  C   UNL A   1      33.731  27.281  24.453  1.00  0.00    -0.023 A 
ATOM     19  C   UNL A   1      33.707  25.657  22.157  1.00  0.00     0.118 A 
ATOM     20  C   UNL A   1      33.829  25.066  23.407  1.00  0.00     0.047 A 
ATOM     21  C   UNL A   1      33.729  27.045  22.036  1.00  0.00     0.047 A 
ATOM     22  C   UNL A   1      33.903  25.878  24.544  1.00  0.00     0.010 A 
ATOM     23  C   UNL A   1      33.752  27.859  23.177  1.00  0.00     0.010 A 
BRANCH  19  24
ATOM     24  O   UNL A   1      33.370  24.913  21.059  1.00  0.00    -0.497 OA
ATOM     25  C   UNL A   1      32.431  25.580  20.222  1.00  0.00     0.278 C 
ENDBRANCH  19  24
ENDBRANCH  14  18
BRANCH  16  26
ATOM     26  C   UNL A   1      35.478  30.508  27.454  1.00  0.00    -0.002 A 
ATOM     27  C   UNL A   1      36.663  29.857  27.794  1.00  0.00     0.010 A 
ATOM     28  C   UNL A   1      35.211  31.814  27.857  1.00  0.00     0.010 A 
ATOM     29  C   UNL A   1      37.608  30.536  28.555  1.00  0.00     0.001 A 
ATOM     30  C   UNL A   1      36.153  32.479  28.631  1.00  0.00     0.001 A 
ATOM     31  C   UNL A   1      37.348  31.843  28.977  1.00  0.00     0.000 A 
ENDBRANCH  16  26
ENDBRANCH  11  13
ENDBRANCH  10  11
ENDBRANCH   9  10
ENDBRANCH   8   9
ENDBRANCH   6   8
ENDBRANCH   5   6
ENDBRANCH   4   5
ENDBRANCH   3   4
ENDBRANCH   2   3
ENDBRANCH   1   2
BRANCH   1  32
ATOM     32  C   UNL A   1      32.598  20.890  25.605  1.00  0.00     0.188 C 
BRANCH  32  33
ATOM     33  O   UNL A   1      32.443  19.578  25.076  1.00  0.00    -0.377 OA
BRANCH  33  34
ATOM     34  C   UNL A   1      33.593  18.727  25.067  1.00  0.00     0.188 C 
BRANCH  34  35
ATOM     35  C   UNL A   1      34.853  19.211  24.323  1.00  0.00     0.188 C 
BRANCH  35  36
ATOM     36  O   UNL A   1      35.876  19.722  25.154  1.00  0.00    -0.376 OA
BRANCH  36  37
ATOM     37  C   UNL A   1      36.314  21.055  24.945  1.00  0.00     0.202 C 
BRANCH  37  38
ATOM     38  C   UNL A   1      37.819  21.372  25.000  1.00  0.00     0.261 C 
BRANCH  38  39
ATOM     39  O   UNL A   1      38.295  22.184  26.091  1.00  0.00    -0.460 OA
BRANCH  39  40
ATOM     40  C   UNL A   1      37.966  23.498  26.148  1.00  0.00     0.338 C 
ATOM     41  O   UNL A   1      36.880  23.996  26.031  1.00  0.00    -0.246 OA
BRANCH  40  42
ATOM     42  C   UNL A   1      39.181  24.220  26.609  1.00  0.00     0.060 A 
ATOM     43  C   UNL A   1      39.886  23.735  27.721  1.00  0.00     0.016 A 
ATOM     44  C   UNL A   1      39.629  25.353  25.931  1.00  0.00     0.016 A 
ATOM     45  C   UNL A   1      41.031  24.395  28.171  1.00  0.00     0.010 A 
ATOM     46  C   UNL A   1      40.748  26.039  26.407  1.00  0.00     0.010 A 
ATOM     47  C   UNL A   1      41.434  25.580  27.547  1.00  0.00    -0.014 A 
BRANCH  47  48
ATOM     48  C   UNL A   1      42.402  26.476  28.222  1.00  0.00     0.031 A 
ATOM     49  C   UNL A   1      41.858  27.461  29.220  1.00  0.00     0.074 A 
ATOM     50  C   UNL A   1      43.718  26.433  27.959  1.00  0.00     0.049 A 
ATOM     51  N   UNL A   1      42.466  28.429  29.854  1.00  0.00    -0.248 NA
ATOM     52  C   UNL A   1      40.426  27.334  29.542  1.00  0.00     0.031 C 
ATOM     53  C   UNL A   1      44.373  25.485  27.062  1.00  0.00     0.029 A 
ATOM     54  N   UNL A   1      44.740  27.230  28.416  1.00  0.00    -0.354 N 
ATOM     55  C   UNL A   1      41.491  29.032  30.637  1.00  0.00     0.074 A 
ATOM     56  C   UNL A   1      40.249  28.337  30.386  1.00  0.00     0.031 C 
ATOM     57  C   UNL A   1      45.686  25.773  27.011  1.00  0.00     0.029 A 
ATOM     58  C   UNL A   1      45.954  26.950  27.839  1.00  0.00     0.049 A 
ATOM     59  H   UNL A   1      44.613  27.934  29.092  1.00  0.00     0.167 HD
ATOM     60  C   UNL A   1      41.621  30.074  31.490  1.00  0.00     0.037 A 
ATOM     61  C   UNL A   1      47.132  27.599  27.942  1.00  0.00     0.037 A 
ATOM     62  C   UNL A   1      42.856  30.770  31.729  1.00  0.00     0.049 A 
ATOM     63  C   UNL A   1      47.228  28.825  28.818  1.00  0.00     0.074 A 
ATOM     64  C   UNL A   1      43.097  31.830  32.584  1.00  0.00     0.029 A 
ATOM     65  N   UNL A   1      44.056  30.482  31.095  1.00  0.00    -0.354 N 
ATOM     66  N   UNL A   1      46.311  29.379  29.574  1.00  0.00    -0.248 NA
ATOM     67  C   UNL A   1      48.524  29.519  28.848  1.00  0.00     0.031 C 
ATOM     68  C   UNL A   1      44.429  32.223  32.423  1.00  0.00     0.029 A 
ATOM     69  C   UNL A   1      45.034  31.369  31.515  1.00  0.00     0.049 A 
ATOM     70  H   UNL A   1      44.192  29.757  30.445  1.00  0.00     0.167 HD
ATOM     71  C   UNL A   1      46.924  30.466  30.188  1.00  0.00     0.074 A 
ATOM     72  C   UNL A   1      48.296  30.486  29.727  1.00  0.00     0.031 C 
ATOM     73  C   UNL A   1      46.399  31.367  31.054  1.00  0.00     0.037 A 
BRANCH  60  74
ATOM     74  C   UNL A   1      40.385  30.548  32.197  1.00  0.00     0.064 A 
ATOM     75  C   UNL A   1      39.931  29.943  33.378  1.00  0.00     0.173 A 
ATOM     76  C   UNL A   1      39.658  31.638  31.696  1.00  0.00     0.173 A 
ATOM     77  F   UNL A   1      40.579  28.885  33.888  1.00  0.00    -0.203 F 
ATOM     78  C   UNL A   1      38.781  30.397  34.018  1.00  0.00     0.198 A 
ATOM     79  C   UNL A   1      38.528  32.109  32.355  1.00  0.00     0.198 A 
ATOM     80  F   UNL A   1      40.050  32.252  30.569  1.00  0.00    -0.203 F 
ATOM     81  F   UNL A   1      38.338  29.773  35.118  1.00  0.00    -0.200 F 
ATOM     82  C   UNL A   1      38.086  31.484  33.511  1.00  0.00     0.200 A 
ATOM     83  F   UNL A   1      37.864  33.168  31.871  1.00  0.00    -0.200 F 
ATOM     84  F   UNL A   1      36.983  31.925  34.133  1.00  0.00    -0.200 F 
ENDBRANCH  60  74
BRANCH  61  85
ATOM     85  C   UNL A   1      48.314  27.129  27.170  1.00  0.00     0.064 A 
ATOM     86  C   UNL A   1      48.582  27.623  25.886  1.00  0.00     0.173 A 
ATOM     87  C   UNL A   1      49.180  26.152  27.686  1.00  0.00     0.173 A 
ATOM     88  F   UNL A   1      47.767  28.535  25.336  1.00  0.00    -0.203 F 
ATOM     89  C   UNL A   1      49.658  27.145  25.140  1.00  0.00     0.198 A 
ATOM     90  C   UNL A   1      50.274  25.697  26.951  1.00  0.00     0.198 A 
ATOM     91  F   UNL A   1      48.964  25.639  28.906  1.00  0.00    -0.203 F 
ATOM     92  F   UNL A   1      49.861  27.598  23.895  1.00  0.00    -0.200 F 
ATOM     93  C   UNL A   1      50.507  26.187  25.676  1.00  0.00     0.200 A 
ATOM     94  F   UNL A   1      51.096  24.778  27.475  1.00  0.00    -0.200 F 
ATOM     95  F   UNL A   1      51.543  25.731  24.958  1.00  0.00    -0.200 F 
ENDBRANCH  61  85
BRANCH  73  96
ATOM     96  C   UNL A   1      47.310  32.431  31.596  1.00  0.00     0.064 A 
ATOM     97  C   UNL A   1      47.431  33.683  30.975  1.00  0.00     0.173 A 
ATOM     98  C   UNL A   1      48.015  32.220  32.791  1.00  0.00     0.173 A 
ATOM     99  F   UNL A   1      46.790  33.932  29.824  1.00  0.00    -0.203 F 
ATOM    100  C   UNL A   1      48.237  34.679  31.524  1.00  0.00     0.198 A 
ATOM    101  C   UNL A   1      48.794  33.228  33.353  1.00  0.00     0.198 A 
ATOM    102  F   UNL A   1      47.928  31.043  33.430  1.00  0.00    -0.203 F 
ATOM    103  F   UNL A   1      48.367  35.855  30.895  1.00  0.00    -0.200 F 
ATOM    104  C   UNL A   1      48.908  34.454  32.718  1.00  0.00     0.200 A 
ATOM    105  F   UNL A   1      49.427  33.015  34.516  1.00  0.00    -0.200 F 
ATOM    106  F   UNL A   1      49.667  35.420  33.253  1.00  0.00    -0.200 F 
ENDBRANCH  73  96
ENDBRANCH  47  48
ENDBRANCH  40  42
ENDBRANCH  39  40
ENDBRANCH  38  39
ENDBRANCH  37  38
ENDBRANCH  36  37
ENDBRANCH  35  36
ENDBRANCH  34  35
ENDBRANCH  33  34
ENDBRANCH  32  33
ENDBRANCH   1  32
TORSDOF 27
ENDMDL
MODEL 3
REMARK VINA RESULT:      -8.7      1.793      3.763
REMARK SMILES COc1ccc([C@H]2CC(c3ccccc3)=NN2C(=O)CCCC(=O)OCCOCCOCCOCCOC(=O)c2ccc(-c3c4nc(c(-c5c(F)c(F)c(F)c(F)c5F)c5ccc([nH]5)c(-c5c(F)c(F)c(F)c(F)c5F)c5nc(c(-c6c(F)c(F)c(F)c(F)c6F)c6ccc3[nH]6)C=C5)C=C4)cc2)cc1
REMARK SMILES IDX 29 1 28 2 27 3 26 4 25 5 23 6 24 7 22 8 21 9 20 10 18 11
REMARK SMILES IDX 19 12 17 13 7 14 8 15 9 16 16 17 6 18 3 19 4 20 104 21 5 22
REMARK SMILES IDX 103 23 2 24 1 25 10 26 11 27 15 28 12 29 14 30 13 31 30 32
REMARK SMILES IDX 31 33 32 34 33 35 34 36 35 37 36 38 37 39 38 40 39 41 40 42
REMARK SMILES IDX 41 43 102 44 42 45 101 46 43 47 44 48 45 49 95 50 46 51
REMARK SMILES IDX 100 52 94 53 96 54 47 55 99 56 93 57 92 58 48 60 80 61 60 62
REMARK SMILES IDX 79 63 61 64 64 65 78 66 97 67 62 68 63 69 77 71 98 72 65 73
REMARK SMILES IDX 49 74 50 75 58 76 51 77 52 78 56 79 59 80 53 81 54 82 57 83
REMARK SMILES IDX 55 84 81 85 82 86 90 87 83 88 84 89 88 90 91 91 85 92 86 93
REMARK SMILES IDX 89 94 87 95 66 96 67 97 75 98 68 99 69 100 73 101 76 102
REMARK SMILES IDX 70 103 71 104 74 105 72 106
REMARK H PARENT 96 59 64 70
REMARK Flexibility Score: inf
ROOT
ATOM      1  C   UNL A   1      33.088  21.102  27.327  1.00  0.00     0.188 C 
ENDROOT
BRANCH   1   2
ATOM      2  O   UNL A   1      32.753  22.346  27.937  1.00  0.00    -0.376 OA
BRANCH   2   3
ATOM      3  C   UNL A   1      32.711  23.496  27.102  1.00  0.00     0.202 C 
BRANCH   3   4
ATOM      4  C   UNL A   1      31.322  23.941  26.580  1.00  0.00     0.261 C 
BRANCH   4   5
ATOM      5  O   UNL A   1      30.911  25.282  26.893  1.00  0.00    -0.463 OA
BRANCH   5   6
ATOM      6  C   UNL A   1      29.893  25.733  26.136  1.00  0.00     0.305 C 
ATOM      7  O   UNL A   1      28.871  25.074  25.972  1.00  0.00    -0.252 OA
BRANCH   6   8
ATOM      8  C   UNL A   1      30.097  27.112  25.535  1.00  0.00     0.123 C 
BRANCH   8   9
ATOM      9  C   UNL A   1      30.037  27.257  24.043  1.00  0.00     0.022 C 
BRANCH   9  10
ATOM     10  C   UNL A   1      30.722  28.530  23.584  1.00  0.00     0.103 C 
BRANCH  10  11
ATOM     11  C   UNL A   1      31.473  29.375  24.618  1.00  0.00     0.243 C 
ATOM     12  O   UNL A   1      30.881  30.397  25.008  1.00  0.00    -0.273 OA
BRANCH  11  13
ATOM     13  N   UNL A   1      32.639  28.942  25.249  1.00  0.00    -0.225 N 
ATOM     14  C   UNL A   1      33.205  27.624  25.703  1.00  0.00     0.147 C 
ATOM     15  C   UNL A   1      34.337  27.971  26.650  1.00  0.00     0.091 C 
ATOM     16  C   UNL A   1      34.284  29.453  26.553  1.00  0.00     0.071 C 
ATOM     17  N   UNL A   1      33.387  29.972  25.784  1.00  0.00    -0.174 NA
BRANCH  14  18
ATOM     18  C   UNL A   1      33.737  26.671  24.621  1.00  0.00    -0.023 A 
ATOM     19  C   UNL A   1      34.061  24.527  22.828  1.00  0.00     0.118 A 
ATOM     20  C   UNL A   1      34.517  24.398  24.133  1.00  0.00     0.047 A 
ATOM     21  C   UNL A   1      33.569  25.752  22.378  1.00  0.00     0.047 A 
ATOM     22  C   UNL A   1      34.410  25.486  25.007  1.00  0.00     0.010 A 
ATOM     23  C   UNL A   1      33.416  26.826  23.266  1.00  0.00     0.010 A 
BRANCH  19  24
ATOM     24  O   UNL A   1      33.902  23.429  22.028  1.00  0.00    -0.497 OA
ATOM     25  C   UNL A   1      32.827  22.600  22.455  1.00  0.00     0.278 C 
ENDBRANCH  19  24
ENDBRANCH  14  18
BRANCH  16  26
ATOM     26  C   UNL A   1      35.185  30.261  27.356  1.00  0.00    -0.002 A 
ATOM     27  C   UNL A   1      34.733  31.488  27.841  1.00  0.00     0.010 A 
ATOM     28  C   UNL A   1      36.470  29.792  27.614  1.00  0.00     0.010 A 
ATOM     29  C   UNL A   1      35.594  32.264  28.609  1.00  0.00     0.001 A 
ATOM     30  C   UNL A   1      37.329  30.581  28.369  1.00  0.00     0.001 A 
ATOM     31  C   UNL A   1      36.891  31.812  28.866  1.00  0.00     0.000 A 
ENDBRANCH  16  26
ENDBRANCH  11  13
ENDBRANCH  10  11
ENDBRANCH   9  10
ENDBRANCH   8   9
ENDBRANCH   6   8
ENDBRANCH   5   6
ENDBRANCH   4   5
ENDBRANCH   3   4
ENDBRANCH   2   3
ENDBRANCH   1   2
BRANCH   1  32
ATOM     32  C   UNL A   1      32.578  20.945  25.887  1.00  0.00     0.188 C 
BRANCH  32  33
ATOM     33  O   UNL A   1      32.462  19.626  25.366  1.00  0.00    -0.377 OA
BRANCH  33  34
ATOM     34  C   UNL A   1      33.670  18.896  25.130  1.00  0.00     0.188 C 
BRANCH  34  35
ATOM     35  C   UNL A   1      34.821  19.612  24.396  1.00  0.00     0.188 C 
BRANCH  35  36
ATOM     36  O   UNL A   1      35.791  20.202  25.239  1.00  0.00    -0.376 OA
BRANCH  36  37
ATOM     37  C   UNL A   1      36.520  21.318  24.754  1.00  0.00     0.202 C 
BRANCH  37  38
ATOM     38  C   UNL A   1      38.045  21.366  24.953  1.00  0.00     0.261 C 
BRANCH  38  39
ATOM     39  O   UNL A   1      38.548  22.050  26.117  1.00  0.00    -0.460 OA
BRANCH  39  40
ATOM     40  C   UNL A   1      38.163  23.325  26.370  1.00  0.00     0.338 C 
ATOM     41  O   UNL A   1      37.047  23.759  26.455  1.00  0.00    -0.246 OA
BRANCH  40  42
ATOM     42  C   UNL A   1      39.391  24.072  26.750  1.00  0.00     0.060 A 
ATOM     43  C   UNL A   1      40.080  23.711  27.919  1.00  0.00     0.016 A 
ATOM     44  C   UNL A   1      39.868  25.104  25.943  1.00  0.00     0.016 A 
ATOM     45  C   UNL A   1      41.236  24.396  28.295  1.00  0.00     0.010 A 
ATOM     46  C   UNL A   1      41.000  25.818  26.342  1.00  0.00     0.010 A 
ATOM     47  C   UNL A   1      41.669  25.486  27.534  1.00  0.00    -0.014 A 
BRANCH  47  48
ATOM     48  C   UNL A   1      42.653  26.438  28.104  1.00  0.00     0.031 A 
ATOM     49  C   UNL A   1      42.139  27.485  29.052  1.00  0.00     0.074 A 
ATOM     50  C   UNL A   1      43.958  26.388  27.789  1.00  0.00     0.049 A 
ATOM     51  N   UNL A   1      42.761  28.502  29.590  1.00  0.00    -0.248 NA
ATOM     52  C   UNL A   1      40.724  27.368  29.442  1.00  0.00     0.031 C 
ATOM     53  C   UNL A   1      44.587  25.385  26.934  1.00  0.00     0.029 A 
ATOM     54  N   UNL A   1      44.988  27.225  28.145  1.00  0.00    -0.354 N 
ATOM     55  C   UNL A   1      41.812  29.149  30.369  1.00  0.00     0.074 A 
ATOM     56  C   UNL A   1      40.569  28.426  30.220  1.00  0.00     0.031 C 
ATOM     57  C   UNL A   1      45.893  25.681  26.807  1.00  0.00     0.029 A 
ATOM     58  C   UNL A   1      46.180  26.916  27.539  1.00  0.00     0.049 A 
ATOM     59  H   UNL A   1      44.880  27.974  28.775  1.00  0.00     0.167 HD
ATOM     60  C   UNL A   1      41.964  30.249  31.141  1.00  0.00     0.037 A 
ATOM     61  C   UNL A   1      47.353  27.581  27.546  1.00  0.00     0.037 A 
ATOM     62  C   UNL A   1      43.199  30.972  31.278  1.00  0.00     0.049 A 
ATOM     63  C   UNL A   1      47.471  28.867  28.329  1.00  0.00     0.074 A 
ATOM     64  C   UNL A   1      43.462  32.092  32.046  1.00  0.00     0.029 A 
ATOM     65  N   UNL A   1      44.376  30.652  30.616  1.00  0.00    -0.354 N 
ATOM     66  N   UNL A   1      46.580  29.465  29.082  1.00  0.00    -0.248 NA
ATOM     67  C   UNL A   1      48.759  29.574  28.256  1.00  0.00     0.031 C 
ATOM     68  C   UNL A   1      44.781  32.485  31.801  1.00  0.00     0.029 A 
ATOM     69  C   UNL A   1      45.359  31.575  30.931  1.00  0.00     0.049 A 
ATOM     70  H   UNL A   1      44.494  29.884  30.013  1.00  0.00     0.167 HD
ATOM     71  C   UNL A   1      47.203  30.598  29.592  1.00  0.00     0.074 A 
ATOM     72  C   UNL A   1      48.555  30.598  29.073  1.00  0.00     0.031 C 
ATOM     73  C   UNL A   1      46.704  31.553  30.414  1.00  0.00     0.037 A 
BRANCH  60  74
ATOM     74  C   UNL A   1      40.753  30.761  31.864  1.00  0.00     0.064 A 
ATOM     75  C   UNL A   1      39.910  31.730  31.300  1.00  0.00     0.173 A 
ATOM     76  C   UNL A   1      40.419  30.256  33.130  1.00  0.00     0.173 A 
ATOM     77  F   UNL A   1      40.195  32.259  30.101  1.00  0.00    -0.203 F 
ATOM     78  C   UNL A   1      38.791  32.193  31.988  1.00  0.00     0.198 A 
ATOM     79  C   UNL A   1      39.284  30.697  33.800  1.00  0.00     0.198 A 
ATOM     80  F   UNL A   1      41.193  29.327  33.713  1.00  0.00    -0.203 F 
ATOM     81  F   UNL A   1      38.027  33.154  31.453  1.00  0.00    -0.200 F 
ATOM     82  C   UNL A   1      38.474  31.670  33.233  1.00  0.00     0.200 A 
ATOM     83  F   UNL A   1      38.972  30.182  34.998  1.00  0.00    -0.200 F 
ATOM     84  F   UNL A   1      37.393  32.110  33.891  1.00  0.00    -0.200 F 
ENDBRANCH  60  74
BRANCH  61  85
ATOM     85  C   UNL A   1      48.509  27.069  26.760  1.00  0.00     0.064 A 
ATOM     86  C   UNL A   1      49.466  26.230  27.346  1.00  0.00     0.173 A 
ATOM     87  C   UNL A   1      48.698  27.436  25.419  1.00  0.00     0.173 A 
ATOM     88  F   UNL A   1      49.348  25.875  28.634  1.00  0.00    -0.203 F 
ATOM     89  C   UNL A   1      50.578  25.793  26.627  1.00  0.00     0.198 A 
ATOM     90  C   UNL A   1      49.793  26.973  24.692  1.00  0.00     0.198 A 
ATOM     91  F   UNL A   1      47.816  28.245  24.813  1.00  0.00    -0.203 F 
ATOM     92  F   UNL A   1      51.504  25.032  27.227  1.00  0.00    -0.200 F 
ATOM     93  C   UNL A   1      50.736  26.160  25.298  1.00  0.00     0.200 A 
ATOM     94  F   UNL A   1      49.938  27.323  23.407  1.00  0.00    -0.200 F 
ATOM     95  F   UNL A   1      51.804  25.736  24.608  1.00  0.00    -0.200 F 
ENDBRANCH  61  85
BRANCH  73  96
ATOM     96  C   UNL A   1      47.623  32.662  30.841  1.00  0.00     0.064 A 
ATOM     97  C   UNL A   1      48.444  32.544  31.972  1.00  0.00     0.173 A 
ATOM     98  C   UNL A   1      47.737  33.826  30.065  1.00  0.00     0.173 A 
ATOM     99  F   UNL A   1      48.365  31.458  32.755  1.00  0.00    -0.203 F 
ATOM    100  C   UNL A   1      49.333  33.559  32.319  1.00  0.00     0.198 A 
ATOM    101  C   UNL A   1      48.649  34.824  30.397  1.00  0.00     0.198 A 
ATOM    102  F   UNL A   1      46.982  33.985  28.967  1.00  0.00    -0.203 F 
ATOM    103  F   UNL A   1      50.081  33.443  33.426  1.00  0.00    -0.200 F 
ATOM    104  C   UNL A   1      49.443  34.693  31.526  1.00  0.00     0.200 A 
ATOM    105  F   UNL A   1      48.766  35.910  29.619  1.00  0.00    -0.200 F 
ATOM    106  F   UNL A   1      50.312  35.659  31.853  1.00  0.00    -0.200 F 
ENDBRANCH  73  96
ENDBRANCH  47  48
ENDBRANCH  40  42
ENDBRANCH  39  40
ENDBRANCH  38  39
ENDBRANCH  37  38
ENDBRANCH  36  37
ENDBRANCH  35  36
ENDBRANCH  34  35
ENDBRANCH  33  34
ENDBRANCH  32  33
ENDBRANCH   1  32
TORSDOF 27
ENDMDL
