MODEL 1
REMARK VINA RESULT:     -11.5      0.000      0.000
REMARK SMILES O=C(OCCOCCOCCOCCOC(=O)[C@@H]1C=C[C@H](NC(=O)C2CCOCC2)C1)c1ccc(-c2c3nc(c(-c4c(F)c(F)c(F)c(F)c4F)c4ccc([nH]4)c(-c4c(F)c(F)c(F)c(F)c4F)c4nc(c(-c5c(F)c(F)c(F)c(F)c5F)c5ccc2[nH]5)C=C4)C=C3)cc1
REMARK SMILES IDX 9 1 8 2 7 3 6 4 5 5 4 6 3 7 2 8 1 9 32 10 33 11 94 12 34 13
REMARK SMILES IDX 93 14 35 15 36 16 37 17 87 18 38 19 92 20 86 21 88 22 39 23
REMARK SMILES IDX 91 24 85 25 84 26 40 28 72 29 52 30 71 31 53 32 56 33 70 34
REMARK SMILES IDX 89 35 54 36 55 37 69 39 90 40 57 41 41 42 42 43 50 44 43 45
REMARK SMILES IDX 44 46 48 47 51 48 45 49 46 50 49 51 47 52 73 53 74 54 82 55
REMARK SMILES IDX 75 56 76 57 80 58 83 59 77 60 78 61 81 62 79 63 58 64 59 65
REMARK SMILES IDX 67 66 60 67 61 68 65 69 68 70 62 71 63 72 66 73 64 74 10 75
REMARK SMILES IDX 11 76 12 77 13 78 14 79 15 80 16 81 17 82 18 83 19 84 31 85
REMARK SMILES IDX 20 86 21 87 22 88 23 89 24 91 25 92 26 93 30 94 27 95 29 96
REMARK SMILES IDX 28 97
REMARK H PARENT 88 27 56 38 22 90
REMARK Flexibility Score: inf
ROOT
ATOM      1  O   UNL A   1      30.984  26.083  26.732  1.00  0.00    -0.377 OA
ENDROOT
BRANCH   1   2
ATOM      2  C   UNL A   1      31.408  27.433  26.905  1.00  0.00     0.188 C 
BRANCH   2   3
ATOM      3  C   UNL A   1      32.853  27.703  26.503  1.00  0.00     0.188 C 
BRANCH   3   4
ATOM      4  O   UNL A   1      32.967  28.935  25.800  1.00  0.00    -0.376 OA
BRANCH   4   5
ATOM      5  C   UNL A   1      31.775  29.726  25.731  1.00  0.00     0.202 C 
BRANCH   5   6
ATOM      6  C   UNL A   1      31.906  31.056  26.468  1.00  0.00     0.261 C 
BRANCH   6   7
ATOM      7  O   UNL A   1      32.907  30.912  27.482  1.00  0.00    -0.460 OA
BRANCH   7   8
ATOM      8  C   UNL A   1      33.664  32.011  27.718  1.00  0.00     0.338 C 
ATOM      9  O   UNL A   1      33.289  33.174  27.780  1.00  0.00    -0.246 OA
BRANCH   8  10
ATOM     10  C   UNL A   1      35.046  31.532  27.877  1.00  0.00     0.060 A 
ATOM     11  C   UNL A   1      35.254  30.157  28.041  1.00  0.00     0.016 A 
ATOM     12  C   UNL A   1      36.103  32.430  28.002  1.00  0.00     0.016 A 
ATOM     13  C   UNL A   1      36.452  29.682  28.502  1.00  0.00     0.010 A 
ATOM     14  C   UNL A   1      37.331  31.952  28.459  1.00  0.00     0.010 A 
ATOM     15  C   UNL A   1      37.468  30.589  28.778  1.00  0.00    -0.014 A 
BRANCH  15  16
ATOM     16  C   UNL A   1      38.523  30.092  29.670  1.00  0.00     0.031 A 
ATOM     17  C   UNL A   1      39.576  29.208  29.067  1.00  0.00     0.074 A 
ATOM     18  C   UNL A   1      38.655  30.628  30.893  1.00  0.00     0.049 A 
ATOM     19  N   UNL A   1      40.559  28.577  29.646  1.00  0.00    -0.248 NA
ATOM     20  C   UNL A   1      39.523  29.024  27.604  1.00  0.00     0.031 C 
ATOM     21  C   UNL A   1      37.793  31.674  31.450  1.00  0.00     0.029 A 
ATOM     22  N   UNL A   1      39.589  30.408  31.863  1.00  0.00    -0.354 N 
ATOM     23  C   UNL A   1      41.200  27.878  28.632  1.00  0.00     0.074 A 
ATOM     24  C   UNL A   1      40.513  28.172  27.397  1.00  0.00     0.031 C 
ATOM     25  C   UNL A   1      38.250  32.015  32.664  1.00  0.00     0.029 A 
ATOM     26  C   UNL A   1      39.368  31.142  33.000  1.00  0.00     0.049 A 
ATOM     27  H   UNL A   1      40.344  29.785  31.758  1.00  0.00     0.167 HD
ATOM     28  C   UNL A   1      42.262  27.050  28.748  1.00  0.00     0.037 A 
ATOM     29  C   UNL A   1      39.973  31.054  34.197  1.00  0.00     0.037 A 
ATOM     30  C   UNL A   1      42.921  26.814  30.002  1.00  0.00     0.049 A 
ATOM     31  C   UNL A   1      41.067  30.031  34.337  1.00  0.00     0.074 A 
ATOM     32  C   UNL A   1      43.942  25.936  30.303  1.00  0.00     0.029 A 
ATOM     33  N   UNL A   1      42.609  27.492  31.177  1.00  0.00    -0.354 N 
ATOM     34  N   UNL A   1      41.590  29.249  33.420  1.00  0.00    -0.248 NA
ATOM     35  C   UNL A   1      41.634  29.853  35.676  1.00  0.00     0.031 C 
ATOM     36  C   UNL A   1      44.215  26.050  31.671  1.00  0.00     0.029 A 
ATOM     37  C   UNL A   1      43.404  27.037  32.212  1.00  0.00     0.049 A 
ATOM     38  H   UNL A   1      41.921  28.193  31.260  1.00  0.00     0.167 HD
ATOM     39  C   UNL A   1      42.557  28.494  34.064  1.00  0.00     0.074 A 
ATOM     40  C   UNL A   1      42.560  28.931  35.449  1.00  0.00     0.031 C 
ATOM     41  C   UNL A   1      43.365  27.523  33.570  1.00  0.00     0.037 A 
BRANCH  28  42
ATOM     42  C   UNL A   1      42.673  26.285  27.524  1.00  0.00     0.064 A 
ATOM     43  C   UNL A   1      42.115  25.042  27.188  1.00  0.00     0.173 A 
ATOM     44  C   UNL A   1      43.693  26.787  26.701  1.00  0.00     0.173 A 
ATOM     45  F   UNL A   1      41.161  24.501  27.960  1.00  0.00    -0.203 F 
ATOM     46  C   UNL A   1      42.588  24.315  26.096  1.00  0.00     0.198 A 
ATOM     47  C   UNL A   1      44.145  26.070  25.595  1.00  0.00     0.198 A 
ATOM     48  F   UNL A   1      44.272  27.964  26.981  1.00  0.00    -0.203 F 
ATOM     49  F   UNL A   1      42.087  23.099  25.834  1.00  0.00    -0.200 F 
ATOM     50  C   UNL A   1      43.600  24.830  25.300  1.00  0.00     0.200 A 
ATOM     51  F   UNL A   1      45.123  26.570  24.827  1.00  0.00    -0.200 F 
ATOM     52  F   UNL A   1      44.062  24.124  24.259  1.00  0.00    -0.200 F 
ENDBRANCH  28  42
BRANCH  29  53
ATOM     53  C   UNL A   1      39.496  31.874  35.341  1.00  0.00     0.064 A 
ATOM     54  C   UNL A   1      38.566  31.374  36.261  1.00  0.00     0.173 A 
ATOM     55  C   UNL A   1      39.962  33.186  35.538  1.00  0.00     0.173 A 
ATOM     56  F   UNL A   1      38.072  30.136  36.108  1.00  0.00    -0.203 F 
ATOM     57  C   UNL A   1      38.109  32.157  37.321  1.00  0.00     0.198 A 
ATOM     58  C   UNL A   1      39.532  33.954  36.617  1.00  0.00     0.198 A 
ATOM     59  F   UNL A   1      40.851  33.720  34.688  1.00  0.00    -0.203 F 
ATOM     60  F   UNL A   1      37.180  31.671  38.157  1.00  0.00    -0.200 F 
ATOM     61  C   UNL A   1      38.598  33.443  37.503  1.00  0.00     0.200 A 
ATOM     62  F   UNL A   1      40.020  35.189  36.794  1.00  0.00    -0.200 F 
ATOM     63  F   UNL A   1      38.158  34.193  38.522  1.00  0.00    -0.200 F 
ENDBRANCH  29  53
BRANCH  41  64
ATOM     64  C   UNL A   1      44.334  26.907  34.531  1.00  0.00     0.064 A 
ATOM     65  C   UNL A   1      44.051  25.699  35.182  1.00  0.00     0.173 A 
ATOM     66  C   UNL A   1      45.579  27.511  34.758  1.00  0.00     0.173 A 
ATOM     67  F   UNL A   1      42.865  25.097  35.006  1.00  0.00    -0.203 F 
ATOM     68  C   UNL A   1      44.976  25.126  36.047  1.00  0.00     0.198 A 
ATOM     69  C   UNL A   1      46.514  26.918  35.598  1.00  0.00     0.198 A 
ATOM     70  F   UNL A   1      45.892  28.665  34.149  1.00  0.00    -0.203 F 
ATOM     71  F   UNL A   1      44.673  23.993  36.695  1.00  0.00    -0.200 F 
ATOM     72  C   UNL A   1      46.210  25.730  36.246  1.00  0.00     0.200 A 
ATOM     73  F   UNL A   1      47.711  27.494  35.777  1.00  0.00    -0.200 F 
ATOM     74  F   UNL A   1      47.106  25.169  37.070  1.00  0.00    -0.200 F 
ENDBRANCH  41  64
ENDBRANCH  15  16
ENDBRANCH   8  10
ENDBRANCH   7   8
ENDBRANCH   6   7
ENDBRANCH   5   6
ENDBRANCH   4   5
ENDBRANCH   3   4
ENDBRANCH   2   3
ENDBRANCH   1   2
BRANCH   1  75
ATOM     75  C   UNL A   1      29.966  25.865  25.759  1.00  0.00     0.188 C 
BRANCH  75  76
ATOM     76  C   UNL A   1      30.149  26.393  24.333  1.00  0.00     0.188 C 
BRANCH  76  77
ATOM     77  O   UNL A   1      31.405  26.098  23.767  1.00  0.00    -0.376 OA
BRANCH  77  78
ATOM     78  C   UNL A   1      31.594  26.306  22.378  1.00  0.00     0.202 C 
BRANCH  78  79
ATOM     79  C   UNL A   1      32.892  25.948  21.612  1.00  0.00     0.261 C 
BRANCH  79  80
ATOM     80  O   UNL A   1      33.874  25.163  22.314  1.00  0.00    -0.463 OA
BRANCH  80  81
ATOM     81  C   UNL A   1      33.648  23.832  22.438  1.00  0.00     0.312 C 
ATOM     82  O   UNL A   1      33.440  23.088  21.484  1.00  0.00    -0.252 OA
BRANCH  81  83
ATOM     83  C   UNL A   1      33.701  23.294  23.883  1.00  0.00     0.124 C 
ATOM     84  C   UNL A   1      34.792  22.375  24.331  1.00  0.00    -0.014 C 
ATOM     85  C   UNL A   1      32.446  22.459  24.189  1.00  0.00     0.048 C 
ATOM     86  C   UNL A   1      34.366  21.126  24.561  1.00  0.00    -0.006 C 
ATOM     87  C   UNL A   1      32.888  21.015  24.424  1.00  0.00     0.106 C 
BRANCH  87  88
ATOM     88  N   UNL A   1      32.527  19.932  23.525  1.00  0.00    -0.350 N 
ATOM     89  C   UNL A   1      32.618  18.588  23.424  1.00  0.00     0.223 C 
ATOM     90  H   UNL A   1      32.068  20.296  22.734  1.00  0.00     0.164 HD
ATOM     91  O   UNL A   1      32.172  18.106  22.377  1.00  0.00    -0.275 OA
BRANCH  89  92
ATOM     92  C   UNL A   1      33.211  17.692  24.495  1.00  0.00     0.083 C 
ATOM     93  C   UNL A   1      34.571  17.100  24.107  1.00  0.00     0.042 C 
ATOM     94  C   UNL A   1      32.254  16.510  24.761  1.00  0.00     0.042 C 
ATOM     95  C   UNL A   1      35.051  16.160  25.210  1.00  0.00     0.161 C 
ATOM     96  C   UNL A   1      32.843  15.543  25.775  1.00  0.00     0.161 C 
ATOM     97  O   UNL A   1      34.127  15.083  25.369  1.00  0.00    -0.381 OA
ENDBRANCH  89  92
ENDBRANCH  87  88
ENDBRANCH  81  83
ENDBRANCH  80  81
ENDBRANCH  79  80
ENDBRANCH  78  79
ENDBRANCH  77  78
ENDBRANCH  76  77
ENDBRANCH  75  76
ENDBRANCH   1  75
TORSDOF 22
ENDMDL
MODEL 2
REMARK VINA RESULT:     -10.6      3.329      8.919
REMARK SMILES O=C(OCCOCCOCCOCCOC(=O)[C@@H]1C=C[C@H](NC(=O)C2CCOCC2)C1)c1ccc(-c2c3nc(c(-c4c(F)c(F)c(F)c(F)c4F)c4ccc([nH]4)c(-c4c(F)c(F)c(F)c(F)c4F)c4nc(c(-c5c(F)c(F)c(F)c(F)c5F)c5ccc2[nH]5)C=C4)C=C3)cc1
REMARK SMILES IDX 9 1 8 2 7 3 6 4 5 5 4 6 3 7 2 8 1 9 32 10 33 11 94 12 34 13
REMARK SMILES IDX 93 14 35 15 36 16 37 17 87 18 38 19 92 20 86 21 88 22 39 23
REMARK SMILES IDX 91 24 85 25 84 26 40 28 72 29 52 30 71 31 53 32 56 33 70 34
REMARK SMILES IDX 89 35 54 36 55 37 69 39 90 40 57 41 41 42 42 43 50 44 43 45
REMARK SMILES IDX 44 46 48 47 51 48 45 49 46 50 49 51 47 52 73 53 74 54 82 55
REMARK SMILES IDX 75 56 76 57 80 58 83 59 77 60 78 61 81 62 79 63 58 64 59 65
REMARK SMILES IDX 67 66 60 67 61 68 65 69 68 70 62 71 63 72 66 73 64 74 10 75
REMARK SMILES IDX 11 76 12 77 13 78 14 79 15 80 16 81 17 82 18 83 19 84 31 85
REMARK SMILES IDX 20 86 21 87 22 88 23 89 24 91 25 92 26 93 30 94 27 95 29 96
REMARK SMILES IDX 28 97
REMARK H PARENT 88 27 56 38 22 90
REMARK Flexibility Score: inf
ROOT
ATOM      1  O   UNL A   1      39.505  22.768  26.744  1.00  0.00    -0.377 OA
ENDROOT
BRANCH   1   2
ATOM      2  C   UNL A   1      40.809  22.384  27.173  1.00  0.00     0.188 C 
BRANCH   2   3
ATOM      3  C   UNL A   1      41.547  21.458  26.214  1.00  0.00     0.188 C 
BRANCH   3   4
ATOM      4  O   UNL A   1      42.372  22.197  25.321  1.00  0.00    -0.376 OA
BRANCH   4   5
ATOM      5  C   UNL A   1      43.784  22.011  25.477  1.00  0.00     0.202 C 
BRANCH   5   6
ATOM      6  C   UNL A   1      44.560  23.323  25.437  1.00  0.00     0.261 C 
BRANCH   6   7
ATOM      7  O   UNL A   1      43.662  24.366  25.041  1.00  0.00    -0.460 OA
BRANCH   7   8
ATOM      8  C   UNL A   1      44.163  25.624  25.098  1.00  0.00     0.338 C 
ATOM      9  O   UNL A   1      45.224  26.024  24.638  1.00  0.00    -0.246 OA
BRANCH   8  10
ATOM     10  C   UNL A   1      43.177  26.426  25.839  1.00  0.00     0.060 A 
ATOM     11  C   UNL A   1      43.504  27.752  26.148  1.00  0.00     0.016 A 
ATOM     12  C   UNL A   1      42.016  25.845  26.341  1.00  0.00     0.016 A 
ATOM     13  C   UNL A   1      42.790  28.446  27.087  1.00  0.00     0.010 A 
ATOM     14  C   UNL A   1      41.275  26.551  27.289  1.00  0.00     0.010 A 
ATOM     15  C   UNL A   1      41.717  27.818  27.709  1.00  0.00    -0.014 A 
BRANCH  15  16
ATOM     16  C   UNL A   1      41.297  28.415  28.982  1.00  0.00     0.031 A 
ATOM     17  C   UNL A   1      40.005  29.178  28.993  1.00  0.00     0.074 A 
ATOM     18  C   UNL A   1      41.925  28.060  30.114  1.00  0.00     0.049 A 
ATOM     19  N   UNL A   1      39.454  29.864  29.956  1.00  0.00    -0.248 NA
ATOM     20  C   UNL A   1      39.212  29.150  27.749  1.00  0.00     0.031 C 
ATOM     21  C   UNL A   1      43.051  27.125  30.192  1.00  0.00     0.029 A 
ATOM     22  N   UNL A   1      41.676  28.397  31.412  1.00  0.00    -0.354 N 
ATOM     23  C   UNL A   1      38.290  30.394  29.417  1.00  0.00     0.074 A 
ATOM     24  C   UNL A   1      38.195  29.941  28.051  1.00  0.00     0.031 C 
ATOM     25  C   UNL A   1      43.387  26.954  31.479  1.00  0.00     0.029 A 
ATOM     26  C   UNL A   1      42.567  27.841  32.294  1.00  0.00     0.049 A 
ATOM     27  H   UNL A   1      40.933  28.980  31.688  1.00  0.00     0.167 HD
ATOM     28  C   UNL A   1      37.397  31.207  30.026  1.00  0.00     0.037 A 
ATOM     29  C   UNL A   1      42.729  28.087  33.605  1.00  0.00     0.037 A 
ATOM     30  C   UNL A   1      37.532  31.607  31.398  1.00  0.00     0.049 A 
ATOM     31  C   UNL A   1      41.804  29.095  34.231  1.00  0.00     0.074 A 
ATOM     32  C   UNL A   1      36.771  32.497  32.129  1.00  0.00     0.029 A 
ATOM     33  N   UNL A   1      38.513  31.114  32.253  1.00  0.00    -0.354 N 
ATOM     34  N   UNL A   1      40.782  29.724  33.695  1.00  0.00    -0.248 NA
ATOM     35  C   UNL A   1      42.067  29.453  35.627  1.00  0.00     0.031 C 
ATOM     36  C   UNL A   1      37.322  32.576  33.414  1.00  0.00     0.029 A 
ATOM     37  C   UNL A   1      38.391  31.696  33.500  1.00  0.00     0.049 A 
ATOM     38  H   UNL A   1      39.196  30.448  32.006  1.00  0.00     0.167 HD
ATOM     39  C   UNL A   1      40.270  30.543  34.689  1.00  0.00     0.074 A 
ATOM     40  C   UNL A   1      41.084  30.311  35.868  1.00  0.00     0.031 C 
ATOM     41  C   UNL A   1      39.230  31.414  34.640  1.00  0.00     0.037 A 
BRANCH  28  42
ATOM     42  C   UNL A   1      36.298  31.777  29.177  1.00  0.00     0.064 A 
ATOM     43  C   UNL A   1      36.247  33.132  28.820  1.00  0.00     0.173 A 
ATOM     44  C   UNL A   1      35.241  30.951  28.762  1.00  0.00     0.173 A 
ATOM     45  F   UNL A   1      37.213  33.972  29.219  1.00  0.00    -0.203 F 
ATOM     46  C   UNL A   1      35.161  33.647  28.111  1.00  0.00     0.198 A 
ATOM     47  C   UNL A   1      34.172  31.463  28.031  1.00  0.00     0.198 A 
ATOM     48  F   UNL A   1      35.232  29.649  29.087  1.00  0.00    -0.203 F 
ATOM     49  F   UNL A   1      35.100  34.958  27.840  1.00  0.00    -0.200 F 
ATOM     50  C   UNL A   1      34.127  32.811  27.716  1.00  0.00     0.200 A 
ATOM     51  F   UNL A   1      33.174  30.653  27.651  1.00  0.00    -0.200 F 
ATOM     52  F   UNL A   1      33.079  33.310  27.046  1.00  0.00    -0.200 F 
ENDBRANCH  28  42
BRANCH  29  53
ATOM     53  C   UNL A   1      43.843  27.454  34.356  1.00  0.00     0.064 A 
ATOM     54  C   UNL A   1      43.692  26.206  34.973  1.00  0.00     0.173 A 
ATOM     55  C   UNL A   1      45.092  28.089  34.477  1.00  0.00     0.173 A 
ATOM     56  F   UNL A   1      42.515  25.565  34.908  1.00  0.00    -0.203 F 
ATOM     57  C   UNL A   1      44.736  25.627  35.694  1.00  0.00     0.198 A 
ATOM     58  C   UNL A   1      46.145  27.494  35.167  1.00  0.00     0.198 A 
ATOM     59  F   UNL A   1      45.295  29.287  33.910  1.00  0.00    -0.203 F 
ATOM     60  F   UNL A   1      44.547  24.455  36.318  1.00  0.00    -0.200 F 
ATOM     61  C   UNL A   1      45.964  26.267  35.784  1.00  0.00     0.200 A 
ATOM     62  F   UNL A   1      47.332  28.112  35.236  1.00  0.00    -0.200 F 
ATOM     63  F   UNL A   1      46.966  25.709  36.475  1.00  0.00    -0.200 F 
ENDBRANCH  29  53
BRANCH  41  64
ATOM     64  C   UNL A   1      38.908  32.140  35.908  1.00  0.00     0.064 A 
ATOM     65  C   UNL A   1      39.304  33.468  36.112  1.00  0.00     0.173 A 
ATOM     66  C   UNL A   1      38.148  31.511  36.904  1.00  0.00     0.173 A 
ATOM     67  F   UNL A   1      40.047  34.101  35.190  1.00  0.00    -0.203 F 
ATOM     68  C   UNL A   1      38.968  34.137  37.283  1.00  0.00     0.198 A 
ATOM     69  C   UNL A   1      37.786  32.194  38.060  1.00  0.00     0.198 A 
ATOM     70  F   UNL A   1      37.742  30.242  36.747  1.00  0.00    -0.203 F 
ATOM     71  F   UNL A   1      39.392  35.393  37.481  1.00  0.00    -0.200 F 
ATOM     72  C   UNL A   1      38.201  33.503  38.250  1.00  0.00     0.200 A 
ATOM     73  F   UNL A   1      37.032  31.586  38.986  1.00  0.00    -0.200 F 
ATOM     74  F   UNL A   1      37.866  34.155  39.373  1.00  0.00    -0.200 F 
ENDBRANCH  41  64
ENDBRANCH  15  16
ENDBRANCH   8  10
ENDBRANCH   7   8
ENDBRANCH   6   7
ENDBRANCH   5   6
ENDBRANCH   4   5
ENDBRANCH   3   4
ENDBRANCH   2   3
ENDBRANCH   1   2
BRANCH   1  75
ATOM     75  C   UNL A   1      38.754  21.776  26.050  1.00  0.00     0.188 C 
BRANCH  75  76
ATOM     76  C   UNL A   1      37.690  22.197  25.034  1.00  0.00     0.188 C 
BRANCH  76  77
ATOM     77  O   UNL A   1      36.386  21.769  25.355  1.00  0.00    -0.376 OA
BRANCH  77  78
ATOM     78  C   UNL A   1      35.529  22.654  26.056  1.00  0.00     0.202 C 
BRANCH  78  79
ATOM     79  C   UNL A   1      34.511  22.209  27.135  1.00  0.00     0.261 C 
BRANCH  79  80
ATOM     80  O   UNL A   1      33.140  22.054  26.720  1.00  0.00    -0.463 OA
BRANCH  80  81
ATOM     81  C   UNL A   1      32.883  21.207  25.694  1.00  0.00     0.312 C 
ATOM     82  O   UNL A   1      33.190  20.019  25.701  1.00  0.00    -0.252 OA
BRANCH  81  83
ATOM     83  C   UNL A   1      32.135  21.839  24.501  1.00  0.00     0.124 C 
ATOM     84  C   UNL A   1      32.786  22.869  23.634  1.00  0.00    -0.014 C 
ATOM     85  C   UNL A   1      30.885  22.590  24.990  1.00  0.00     0.048 C 
ATOM     86  C   UNL A   1      32.261  24.092  23.787  1.00  0.00    -0.006 C 
ATOM     87  C   UNL A   1      31.085  24.077  24.697  1.00  0.00     0.106 C 
BRANCH  87  88
ATOM     88  N   UNL A   1      31.227  25.067  25.751  1.00  0.00    -0.350 N 
ATOM     89  C   UNL A   1      31.192  26.405  25.934  1.00  0.00     0.223 C 
ATOM     90  H   UNL A   1      31.406  24.618  26.608  1.00  0.00     0.164 HD
ATOM     91  O   UNL A   1      31.433  26.788  27.084  1.00  0.00    -0.275 OA
BRANCH  89  92
ATOM     92  C   UNL A   1      30.875  27.406  24.839  1.00  0.00     0.083 C 
ATOM     93  C   UNL A   1      29.683  26.996  23.967  1.00  0.00     0.042 C 
ATOM     94  C   UNL A   1      32.098  27.550  23.906  1.00  0.00     0.042 C 
ATOM     95  C   UNL A   1      29.487  28.022  22.855  1.00  0.00     0.161 C 
ATOM     96  C   UNL A   1      31.800  28.488  22.749  1.00  0.00     0.161 C 
ATOM     97  O   UNL A   1      30.648  28.069  22.025  1.00  0.00    -0.381 OA
ENDBRANCH  89  92
ENDBRANCH  87  88
ENDBRANCH  81  83
ENDBRANCH  80  81
ENDBRANCH  79  80
ENDBRANCH  78  79
ENDBRANCH  77  78
ENDBRANCH  76  77
ENDBRANCH  75  76
ENDBRANCH   1  75
TORSDOF 22
ENDMDL
MODEL 3
REMARK VINA RESULT:     -10.5      3.370      8.989
REMARK SMILES O=C(OCCOCCOCCOCCOC(=O)[C@@H]1C=C[C@H](NC(=O)C2CCOCC2)C1)c1ccc(-c2c3nc(c(-c4c(F)c(F)c(F)c(F)c4F)c4ccc([nH]4)c(-c4c(F)c(F)c(F)c(F)c4F)c4nc(c(-c5c(F)c(F)c(F)c(F)c5F)c5ccc2[nH]5)C=C4)C=C3)cc1
REMARK SMILES IDX 9 1 8 2 7 3 6 4 5 5 4 6 3 7 2 8 1 9 32 10 33 11 94 12 34 13
REMARK SMILES IDX 93 14 35 15 36 16 37 17 87 18 38 19 92 20 86 21 88 22 39 23
REMARK SMILES IDX 91 24 85 25 84 26 40 28 72 29 52 30 71 31 53 32 56 33 70 34
REMARK SMILES IDX 89 35 54 36 55 37 69 39 90 40 57 41 41 42 42 43 50 44 43 45
REMARK SMILES IDX 44 46 48 47 51 48 45 49 46 50 49 51 47 52 73 53 74 54 82 55
REMARK SMILES IDX 75 56 76 57 80 58 83 59 77 60 78 61 81 62 79 63 58 64 59 65
REMARK SMILES IDX 67 66 60 67 61 68 65 69 68 70 62 71 63 72 66 73 64 74 10 75
REMARK SMILES IDX 11 76 12 77 13 78 14 79 15 80 16 81 17 82 18 83 19 84 31 85
REMARK SMILES IDX 20 86 21 87 22 88 23 89 24 91 25 92 26 93 30 94 27 95 29 96
REMARK SMILES IDX 28 97
REMARK H PARENT 88 27 56 38 22 90
REMARK Flexibility Score: inf
ROOT
ATOM      1  O   UNL A   1      40.512  20.596  27.000  1.00  0.00    -0.377 OA
ENDROOT
BRANCH   1   2
ATOM      2  C   UNL A   1      41.930  20.663  27.116  1.00  0.00     0.188 C 
BRANCH   2   3
ATOM      3  C   UNL A   1      42.695  19.960  26.000  1.00  0.00     0.188 C 
BRANCH   3   4
ATOM      4  O   UNL A   1      43.594  20.852  25.354  1.00  0.00    -0.376 OA
BRANCH   4   5
ATOM      5  C   UNL A   1      43.038  22.104  24.935  1.00  0.00     0.202 C 
BRANCH   5   6
ATOM      6  C   UNL A   1      43.808  23.303  25.478  1.00  0.00     0.261 C 
BRANCH   6   7
ATOM      7  O   UNL A   1      43.014  24.478  25.273  1.00  0.00    -0.460 OA
BRANCH   7   8
ATOM      8  C   UNL A   1      43.695  25.650  25.256  1.00  0.00     0.338 C 
ATOM      9  O   UNL A   1      44.789  25.868  24.752  1.00  0.00    -0.246 OA
BRANCH   8  10
ATOM     10  C   UNL A   1      42.860  26.621  25.979  1.00  0.00     0.060 A 
ATOM     11  C   UNL A   1      43.463  27.801  26.434  1.00  0.00     0.016 A 
ATOM     12  C   UNL A   1      41.547  26.316  26.325  1.00  0.00     0.016 A 
ATOM     13  C   UNL A   1      42.844  28.587  27.367  1.00  0.00     0.010 A 
ATOM     14  C   UNL A   1      40.903  27.120  27.267  1.00  0.00     0.010 A 
ATOM     15  C   UNL A   1      41.591  28.206  27.836  1.00  0.00    -0.014 A 
BRANCH  15  16
ATOM     16  C   UNL A   1      41.197  28.804  29.117  1.00  0.00     0.031 A 
ATOM     17  C   UNL A   1      39.912  29.579  29.150  1.00  0.00     0.074 A 
ATOM     18  C   UNL A   1      41.839  28.439  30.237  1.00  0.00     0.049 A 
ATOM     19  N   UNL A   1      39.383  30.267  30.124  1.00  0.00    -0.248 NA
ATOM     20  C   UNL A   1      39.100  29.562  27.918  1.00  0.00     0.031 C 
ATOM     21  C   UNL A   1      42.958  27.494  30.295  1.00  0.00     0.029 A 
ATOM     22  N   UNL A   1      41.614  28.775  31.540  1.00  0.00    -0.354 N 
ATOM     23  C   UNL A   1      38.216  30.809  29.604  1.00  0.00     0.074 A 
ATOM     24  C   UNL A   1      38.096  30.360  28.238  1.00  0.00     0.031 C 
ATOM     25  C   UNL A   1      43.312  27.315  31.576  1.00  0.00     0.029 A 
ATOM     26  C   UNL A   1      42.513  28.208  32.406  1.00  0.00     0.049 A 
ATOM     27  H   UNL A   1      40.881  29.364  31.829  1.00  0.00     0.167 HD
ATOM     28  C   UNL A   1      37.341  31.628  30.229  1.00  0.00     0.037 A 
ATOM     29  C   UNL A   1      42.698  28.449  33.716  1.00  0.00     0.037 A 
ATOM     30  C   UNL A   1      37.500  32.023  31.600  1.00  0.00     0.049 A 
ATOM     31  C   UNL A   1      41.792  29.464  34.359  1.00  0.00     0.074 A 
ATOM     32  C   UNL A   1      36.759  32.918  32.345  1.00  0.00     0.029 A 
ATOM     33  N   UNL A   1      38.490  31.518  32.438  1.00  0.00    -0.354 N 
ATOM     34  N   UNL A   1      40.767  30.103  33.841  1.00  0.00    -0.248 NA
ATOM     35  C   UNL A   1      42.080  29.815  35.751  1.00  0.00     0.031 C 
ATOM     36  C   UNL A   1      37.330  32.988  33.621  1.00  0.00     0.029 A 
ATOM     37  C   UNL A   1      38.393  32.098  33.689  1.00  0.00     0.049 A 
ATOM     38  H   UNL A   1      39.162  30.847  32.178  1.00  0.00     0.167 HD
ATOM     39  C   UNL A   1      40.279  30.924  34.845  1.00  0.00     0.074 A 
ATOM     40  C   UNL A   1      41.109  30.681  36.010  1.00  0.00     0.031 C 
ATOM     41  C   UNL A   1      39.247  31.804  34.814  1.00  0.00     0.037 A 
BRANCH  28  42
ATOM     42  C   UNL A   1      36.234  32.211  29.399  1.00  0.00     0.064 A 
ATOM     43  C   UNL A   1      36.177  33.572  29.066  1.00  0.00     0.173 A 
ATOM     44  C   UNL A   1      35.175  31.391  28.978  1.00  0.00     0.173 A 
ATOM     45  F   UNL A   1      37.145  34.407  29.472  1.00  0.00    -0.203 F 
ATOM     46  C   UNL A   1      35.085  34.097  28.375  1.00  0.00     0.198 A 
ATOM     47  C   UNL A   1      34.099  31.913  28.265  1.00  0.00     0.198 A 
ATOM     48  F   UNL A   1      35.170  30.083  29.280  1.00  0.00    -0.203 F 
ATOM     49  F   UNL A   1      35.019  35.412  28.127  1.00  0.00    -0.200 F 
ATOM     50  C   UNL A   1      34.049  33.267  27.973  1.00  0.00     0.200 A 
ATOM     51  F   UNL A   1      33.099  31.108  27.878  1.00  0.00    -0.200 F 
ATOM     52  F   UNL A   1      32.994  33.775  27.321  1.00  0.00    -0.200 F 
ENDBRANCH  28  42
BRANCH  29  53
ATOM     53  C   UNL A   1      43.817  27.803  34.448  1.00  0.00     0.064 A 
ATOM     54  C   UNL A   1      45.084  28.394  34.516  1.00  0.00     0.173 A 
ATOM     55  C   UNL A   1      43.642  26.568  35.098  1.00  0.00     0.173 A 
ATOM     56  F   UNL A   1      45.313  29.561  33.895  1.00  0.00    -0.203 F 
ATOM     57  C   UNL A   1      46.135  27.771  35.189  1.00  0.00     0.198 A 
ATOM     58  C   UNL A   1      44.683  25.964  35.800  1.00  0.00     0.198 A 
ATOM     59  F   UNL A   1      42.451  25.952  35.065  1.00  0.00    -0.203 F 
ATOM     60  F   UNL A   1      47.352  28.335  35.194  1.00  0.00    -0.200 F 
ATOM     61  C   UNL A   1      45.932  26.561  35.836  1.00  0.00     0.200 A 
ATOM     62  F   UNL A   1      44.474  24.803  36.435  1.00  0.00    -0.200 F 
ATOM     63  F   UNL A   1      46.942  25.964  36.483  1.00  0.00    -0.200 F 
ENDBRANCH  29  53
BRANCH  41  64
ATOM     64  C   UNL A   1      38.951  32.530  36.090  1.00  0.00     0.064 A 
ATOM     65  C   UNL A   1      38.171  31.948  37.098  1.00  0.00     0.173 A 
ATOM     66  C   UNL A   1      39.500  33.799  36.320  1.00  0.00     0.173 A 
ATOM     67  F   UNL A   1      37.613  30.742  36.911  1.00  0.00    -0.203 F 
ATOM     68  C   UNL A   1      37.933  32.624  38.289  1.00  0.00     0.198 A 
ATOM     69  C   UNL A   1      39.287  34.458  37.525  1.00  0.00     0.198 A 
ATOM     70  F   UNL A   1      40.258  34.389  35.383  1.00  0.00    -0.203 F 
ATOM     71  F   UNL A   1      37.149  32.072  39.225  1.00  0.00    -0.200 F 
ATOM     72  C   UNL A   1      38.499  33.873  38.506  1.00  0.00     0.200 A 
ATOM     73  F   UNL A   1      39.847  35.656  37.740  1.00  0.00    -0.200 F 
ATOM     74  F   UNL A   1      38.279  34.517  39.660  1.00  0.00    -0.200 F 
ENDBRANCH  41  64
ENDBRANCH  15  16
ENDBRANCH   8  10
ENDBRANCH   7   8
ENDBRANCH   6   7
ENDBRANCH   5   6
ENDBRANCH   4   5
ENDBRANCH   3   4
ENDBRANCH   2   3
ENDBRANCH   1   2
BRANCH   1  75
ATOM     75  C   UNL A   1      39.847  21.822  26.706  1.00  0.00     0.188 C 
BRANCH  75  76
ATOM     76  C   UNL A   1      38.691  21.840  25.702  1.00  0.00     0.188 C 
BRANCH  76  77
ATOM     77  O   UNL A   1      37.786  22.905  25.887  1.00  0.00    -0.376 OA
BRANCH  77  78
ATOM     78  C   UNL A   1      37.235  23.539  24.745  1.00  0.00     0.202 C 
BRANCH  78  79
ATOM     79  C   UNL A   1      36.463  22.798  23.624  1.00  0.00     0.261 C 
BRANCH  79  80
ATOM     80  O   UNL A   1      35.310  23.461  23.071  1.00  0.00    -0.463 OA
BRANCH  80  81
ATOM     81  C   UNL A   1      34.094  23.135  23.573  1.00  0.00     0.312 C 
ATOM     82  O   UNL A   1      33.917  22.739  24.721  1.00  0.00    -0.252 OA
BRANCH  81  83
ATOM     83  C   UNL A   1      32.915  23.328  22.597  1.00  0.00     0.124 C 
ATOM     84  C   UNL A   1      32.581  24.675  22.039  1.00  0.00    -0.014 C 
ATOM     85  C   UNL A   1      31.590  22.936  23.274  1.00  0.00     0.048 C 
ATOM     86  C   UNL A   1      31.433  25.173  22.518  1.00  0.00    -0.006 C 
ATOM     87  C   UNL A   1      30.732  24.195  23.393  1.00  0.00     0.106 C 
BRANCH  87  88
ATOM     88  N   UNL A   1      30.393  24.790  24.674  1.00  0.00    -0.350 N 
ATOM     89  C   UNL A   1      30.793  25.782  25.500  1.00  0.00     0.223 C 
ATOM     90  H   UNL A   1      29.625  24.318  25.068  1.00  0.00     0.164 HD
ATOM     91  O   UNL A   1      30.173  25.864  26.566  1.00  0.00    -0.275 OA
BRANCH  89  92
ATOM     92  C   UNL A   1      31.912  26.755  25.182  1.00  0.00     0.083 C 
ATOM     93  C   UNL A   1      32.799  27.077  26.390  1.00  0.00     0.042 C 
ATOM     94  C   UNL A   1      31.307  28.088  24.688  1.00  0.00     0.042 C 
ATOM     95  C   UNL A   1      33.846  28.114  25.993  1.00  0.00     0.161 C 
ATOM     96  C   UNL A   1      32.391  29.121  24.429  1.00  0.00     0.161 C 
ATOM     97  O   UNL A   1      33.204  29.321  25.579  1.00  0.00    -0.381 OA
ENDBRANCH  89  92
ENDBRANCH  87  88
ENDBRANCH  81  83
ENDBRANCH  80  81
ENDBRANCH  79  80
ENDBRANCH  78  79
ENDBRANCH  77  78
ENDBRANCH  76  77
ENDBRANCH  75  76
ENDBRANCH   1  75
TORSDOF 22
ENDMDL
