MODEL 1
REMARK VINA RESULT:     -10.2      0.000      0.000
REMARK SMILES Cc1c(Br)c(C)c2c(c1Br)O[C@H](C(F)(F)F)C(C(=O)OCCOCCOCCOCCOC(=O)c1ccc(-c3c4nc(c(-c5c(F)c(F)c(F)c(F)c5F)c5ccc([nH]5)c(-c5c(F)c(F)c(F)c(F)c5F)c5nc(c(-c6c(F)c(F)c(F)c(F)c6F)c6ccc3[nH]6)C=C5)C=C4)cc1)=C2
REMARK SMILES IDX 27 1 26 2 25 3 24 4 23 5 22 6 21 7 20 8 18 9 19 10 17 11
REMARK SMILES IDX 1 12 2 13 3 14 9 15 4 16 5 17 8 18 10 19 6 20 7 21 11 22
REMARK SMILES IDX 98 23 12 24 13 25 14 26 15 27 16 28 28 29 29 30 30 31 31 32
REMARK SMILES IDX 32 33 33 34 34 35 35 36 36 37 97 38 37 39 96 40 38 41 39 42
REMARK SMILES IDX 40 43 90 44 41 45 95 46 89 47 91 48 42 49 94 50 88 51 87 52
REMARK SMILES IDX 43 54 75 55 55 56 74 57 56 58 59 59 73 60 92 61 57 62 58 63
REMARK SMILES IDX 72 65 93 66 60 67 44 68 45 69 53 70 46 71 47 72 51 73 54 74
REMARK SMILES IDX 48 75 49 76 52 77 50 78 76 79 77 80 85 81 78 82 79 83 83 84
REMARK SMILES IDX 86 85 80 86 81 87 84 88 82 89 61 90 62 91 70 92 63 93 64 94
REMARK SMILES IDX 68 95 71 96 65 97 66 98 69 99 67 100
REMARK H PARENT 91 53 59 64
REMARK Flexibility Score: inf
ROOT
ATOM      1  C   UNL A   1      40.012  21.912  26.835  1.00  0.00     0.188 C 
ENDROOT
BRANCH   1   2
ATOM      2  O   UNL A   1      39.307  23.131  26.601  1.00  0.00    -0.377 OA
BRANCH   2   3
ATOM      3  C   UNL A   1      38.151  23.088  25.783  1.00  0.00     0.188 C 
BRANCH   3   4
ATOM      4  C   UNL A   1      37.644  21.665  25.493  1.00  0.00     0.188 C 
BRANCH   4   5
ATOM      5  O   UNL A   1      36.786  21.589  24.357  1.00  0.00    -0.376 OA
BRANCH   5   6
ATOM      6  C   UNL A   1      36.681  22.760  23.554  1.00  0.00     0.202 C 
BRANCH   6   7
ATOM      7  C   UNL A   1      35.260  23.305  23.356  1.00  0.00     0.261 C 
BRANCH   7   8
ATOM      8  O   UNL A   1      34.274  22.307  23.051  1.00  0.00    -0.460 OA
BRANCH   8   9
ATOM      9  C   UNL A   1      33.276  22.129  23.938  1.00  0.00     0.338 C 
ATOM     10  O   UNL A   1      32.880  21.068  24.388  1.00  0.00    -0.246 OA
BRANCH   9  11
ATOM     11  C   UNL A   1      32.838  23.461  24.405  1.00  0.00     0.087 C 
ATOM     12  C   UNL A   1      31.366  29.770  25.202  1.00  0.00     0.047 C 
ATOM     13  C   UNL A   1      31.526  28.332  24.763  1.00  0.00    -0.019 A 
ATOM     14  C   UNL A   1      31.393  27.983  23.396  1.00  0.00     0.025 A 
ATOM     15  C   UNL A   1      31.792  27.302  25.686  1.00  0.00     0.064 A 
ATOM     16  Br  UNL A   1      30.885  29.350  22.144  1.00  0.00    -0.050 Br
ATOM     17  C   UNL A   1      31.626  26.660  22.942  1.00  0.00    -0.026 A 
ATOM     18  C   UNL A   1      32.058  25.991  25.248  1.00  0.00     0.142 A 
ATOM     19  Br  UNL A   1      31.805  27.640  27.573  1.00  0.00    -0.046 Br
ATOM     20  C   UNL A   1      31.432  26.253  21.497  1.00  0.00     0.046 C 
ATOM     21  C   UNL A   1      32.039  25.683  23.883  1.00  0.00     0.022 A 
ATOM     22  O   UNL A   1      32.331  25.065  26.219  1.00  0.00    -0.474 OA
ATOM     23  C   UNL A   1      32.496  24.354  23.468  1.00  0.00     0.027 C 
ATOM     24  C   UNL A   1      32.721  23.715  25.878  1.00  0.00     0.316 C 
BRANCH  24  25
ATOM     25  C   UNL A   1      34.016  23.393  26.638  1.00  0.00     0.430 C 
ATOM     26  F   UNL A   1      33.818  23.411  27.978  1.00  0.00    -0.167 F 
ATOM     27  F   UNL A   1      34.494  22.163  26.337  1.00  0.00    -0.167 F 
ATOM     28  F   UNL A   1      34.995  24.285  26.359  1.00  0.00    -0.167 F 
ENDBRANCH  24  25
ENDBRANCH   9  11
ENDBRANCH   8   9
ENDBRANCH   7   8
ENDBRANCH   6   7
ENDBRANCH   5   6
ENDBRANCH   4   5
ENDBRANCH   3   4
ENDBRANCH   2   3
ENDBRANCH   1   2
BRANCH   1  29
ATOM     29  C   UNL A   1      41.336  21.568  26.112  1.00  0.00     0.188 C 
BRANCH  29  30
ATOM     30  O   UNL A   1      42.007  20.423  26.631  1.00  0.00    -0.376 OA
BRANCH  30  31
ATOM     31  C   UNL A   1      42.016  19.267  25.804  1.00  0.00     0.202 C 
BRANCH  31  32
ATOM     32  C   UNL A   1      43.428  18.769  25.474  1.00  0.00     0.261 C 
BRANCH  32  33
ATOM     33  O   UNL A   1      43.938  19.202  24.202  1.00  0.00    -0.460 OA
BRANCH  33  34
ATOM     34  C   UNL A   1      45.148  19.803  24.190  1.00  0.00     0.338 C 
ATOM     35  O   UNL A   1      46.160  19.423  23.634  1.00  0.00    -0.246 OA
BRANCH  34  36
ATOM     36  C   UNL A   1      44.983  21.131  24.812  1.00  0.00     0.060 A 
ATOM     37  C   UNL A   1      44.508  22.190  24.025  1.00  0.00     0.016 A 
ATOM     38  C   UNL A   1      45.269  21.323  26.166  1.00  0.00     0.016 A 
ATOM     39  C   UNL A   1      44.345  23.453  24.590  1.00  0.00     0.010 A 
ATOM     40  C   UNL A   1      45.128  22.595  26.724  1.00  0.00     0.010 A 
ATOM     41  C   UNL A   1      44.696  23.670  25.930  1.00  0.00    -0.014 A 
BRANCH  41  42
ATOM     42  C   UNL A   1      44.835  25.060  26.423  1.00  0.00     0.031 A 
ATOM     43  C   UNL A   1      46.195  25.694  26.353  1.00  0.00     0.074 A 
ATOM     44  C   UNL A   1      43.781  25.757  26.882  1.00  0.00     0.049 A 
ATOM     45  N   UNL A   1      46.566  26.906  26.675  1.00  0.00    -0.248 NA
ATOM     46  C   UNL A   1      47.287  24.846  25.843  1.00  0.00     0.031 C 
ATOM     47  C   UNL A   1      42.410  25.263  26.967  1.00  0.00     0.029 A 
ATOM     48  N   UNL A   1      43.709  27.044  27.357  1.00  0.00    -0.354 N 
ATOM     49  C   UNL A   1      47.921  26.972  26.383  1.00  0.00     0.074 A 
ATOM     50  C   UNL A   1      48.322  25.668  25.905  1.00  0.00     0.031 C 
ATOM     51  C   UNL A   1      41.627  26.238  27.465  1.00  0.00     0.029 A 
ATOM     52  C   UNL A   1      42.447  27.417  27.748  1.00  0.00     0.049 A 
ATOM     53  H   UNL A   1      44.489  27.642  27.412  1.00  0.00     0.167 HD
ATOM     54  C   UNL A   1      48.752  28.032  26.483  1.00  0.00     0.037 A 
ATOM     55  C   UNL A   1      42.011  28.577  28.280  1.00  0.00     0.037 A 
ATOM     56  C   UNL A   1      48.362  29.323  26.976  1.00  0.00     0.049 A 
ATOM     57  C   UNL A   1      42.987  29.707  28.496  1.00  0.00     0.074 A 
ATOM     58  C   UNL A   1      49.129  30.465  27.100  1.00  0.00     0.029 A 
ATOM     59  N   UNL A   1      47.093  29.634  27.440  1.00  0.00    -0.354 N 
ATOM     60  N   UNL A   1      44.255  29.781  28.167  1.00  0.00    -0.248 NA
ATOM     61  C   UNL A   1      42.473  30.915  29.161  1.00  0.00     0.031 C 
ATOM     62  C   UNL A   1      48.339  31.457  27.689  1.00  0.00     0.029 A 
ATOM     63  C   UNL A   1      47.067  30.943  27.890  1.00  0.00     0.049 A 
ATOM     64  H   UNL A   1      46.326  29.018  27.448  1.00  0.00     0.167 HD
ATOM     65  C   UNL A   1      44.685  31.039  28.570  1.00  0.00     0.074 A 
ATOM     66  C   UNL A   1      43.539  31.706  29.153  1.00  0.00     0.031 C 
ATOM     67  C   UNL A   1      45.919  31.591  28.468  1.00  0.00     0.037 A 
BRANCH  54  68
ATOM     68  C   UNL A   1      50.174  27.837  26.053  1.00  0.00     0.064 A 
ATOM     69  C   UNL A   1      50.533  27.857  24.697  1.00  0.00     0.173 A 
ATOM     70  C   UNL A   1      51.190  27.669  27.003  1.00  0.00     0.173 A 
ATOM     71  F   UNL A   1      49.592  27.997  23.751  1.00  0.00    -0.203 F 
ATOM     72  C   UNL A   1      51.859  27.701  24.307  1.00  0.00     0.198 A 
ATOM     73  C   UNL A   1      52.520  27.537  26.610  1.00  0.00     0.198 A 
ATOM     74  F   UNL A   1      50.896  27.642  28.311  1.00  0.00    -0.203 F 
ATOM     75  F   UNL A   1      52.176  27.688  23.005  1.00  0.00    -0.200 F 
ATOM     76  C   UNL A   1      52.852  27.549  25.264  1.00  0.00     0.200 A 
ATOM     77  F   UNL A   1      53.479  27.400  27.536  1.00  0.00    -0.200 F 
ATOM     78  F   UNL A   1      54.130  27.409  24.887  1.00  0.00    -0.200 F 
ENDBRANCH  54  68
BRANCH  55  79
ATOM     79  C   UNL A   1      40.580  28.737  28.645  1.00  0.00     0.064 A 
ATOM     80  C   UNL A   1      40.126  28.428  29.934  1.00  0.00     0.173 A 
ATOM     81  C   UNL A   1      39.634  29.188  27.711  1.00  0.00     0.173 A 
ATOM     82  F   UNL A   1      40.986  27.965  30.853  1.00  0.00    -0.203 F 
ATOM     83  C   UNL A   1      38.780  28.553  30.274  1.00  0.00     0.198 A 
ATOM     84  C   UNL A   1      38.293  29.336  28.058  1.00  0.00     0.198 A 
ATOM     85  F   UNL A   1      40.016  29.488  26.460  1.00  0.00    -0.203 F 
ATOM     86  F   UNL A   1      38.366  28.214  31.502  1.00  0.00    -0.200 F 
ATOM     87  C   UNL A   1      37.866  29.014  29.338  1.00  0.00     0.200 A 
ATOM     88  F   UNL A   1      37.414  29.785  27.152  1.00  0.00    -0.200 F 
ATOM     89  F   UNL A   1      36.572  29.137  29.666  1.00  0.00    -0.200 F 
ENDBRANCH  55  79
BRANCH  67  90
ATOM     90  C   UNL A   1      46.116  32.981  29.000  1.00  0.00     0.064 A 
ATOM     91  C   UNL A   1      45.842  34.104  28.208  1.00  0.00     0.173 A 
ATOM     92  C   UNL A   1      46.463  33.188  30.343  1.00  0.00     0.173 A 
ATOM     93  F   UNL A   1      45.515  33.956  26.915  1.00  0.00    -0.203 F 
ATOM     94  C   UNL A   1      45.905  35.388  28.744  1.00  0.00     0.198 A 
ATOM     95  C   UNL A   1      46.501  34.472  30.882  1.00  0.00     0.198 A 
ATOM     96  F   UNL A   1      46.725  32.145  31.143  1.00  0.00    -0.203 F 
ATOM     97  F   UNL A   1      45.651  36.449  27.966  1.00  0.00    -0.200 F 
ATOM     98  C   UNL A   1      46.221  35.569  30.082  1.00  0.00     0.200 A 
ATOM     99  F   UNL A   1      46.787  34.644  32.179  1.00  0.00    -0.200 F 
ATOM    100  F   UNL A   1      46.251  36.804  30.603  1.00  0.00    -0.200 F 
ENDBRANCH  67  90
ENDBRANCH  41  42
ENDBRANCH  34  36
ENDBRANCH  33  34
ENDBRANCH  32  33
ENDBRANCH  31  32
ENDBRANCH  30  31
ENDBRANCH  29  30
ENDBRANCH   1  29
TORSDOF 21
ENDMDL
MODEL 2
REMARK VINA RESULT:     -10.1      1.477      2.349
REMARK SMILES Cc1c(Br)c(C)c2c(c1Br)O[C@H](C(F)(F)F)C(C(=O)OCCOCCOCCOCCOC(=O)c1ccc(-c3c4nc(c(-c5c(F)c(F)c(F)c(F)c5F)c5ccc([nH]5)c(-c5c(F)c(F)c(F)c(F)c5F)c5nc(c(-c6c(F)c(F)c(F)c(F)c6F)c6ccc3[nH]6)C=C5)C=C4)cc1)=C2
REMARK SMILES IDX 27 1 26 2 25 3 24 4 23 5 22 6 21 7 20 8 18 9 19 10 17 11
REMARK SMILES IDX 1 12 2 13 3 14 9 15 4 16 5 17 8 18 10 19 6 20 7 21 11 22
REMARK SMILES IDX 98 23 12 24 13 25 14 26 15 27 16 28 28 29 29 30 30 31 31 32
REMARK SMILES IDX 32 33 33 34 34 35 35 36 36 37 97 38 37 39 96 40 38 41 39 42
REMARK SMILES IDX 40 43 90 44 41 45 95 46 89 47 91 48 42 49 94 50 88 51 87 52
REMARK SMILES IDX 43 54 75 55 55 56 74 57 56 58 59 59 73 60 92 61 57 62 58 63
REMARK SMILES IDX 72 65 93 66 60 67 44 68 45 69 53 70 46 71 47 72 51 73 54 74
REMARK SMILES IDX 48 75 49 76 52 77 50 78 76 79 77 80 85 81 78 82 79 83 83 84
REMARK SMILES IDX 86 85 80 86 81 87 84 88 82 89 61 90 62 91 70 92 63 93 64 94
REMARK SMILES IDX 68 95 71 96 65 97 66 98 69 99 67 100
REMARK H PARENT 91 53 59 64
REMARK Flexibility Score: inf
ROOT
ATOM      1  C   UNL A   1      40.758  21.107  27.369  1.00  0.00     0.188 C 
ENDROOT
BRANCH   1   2
ATOM      2  O   UNL A   1      41.218  22.250  26.647  1.00  0.00    -0.377 OA
BRANCH   2   3
ATOM      3  C   UNL A   1      40.252  23.161  26.152  1.00  0.00     0.188 C 
BRANCH   3   4
ATOM      4  C   UNL A   1      38.812  22.845  26.594  1.00  0.00     0.188 C 
BRANCH   4   5
ATOM      5  O   UNL A   1      37.826  23.267  25.654  1.00  0.00    -0.376 OA
BRANCH   5   6
ATOM      6  C   UNL A   1      36.673  23.914  26.183  1.00  0.00     0.202 C 
BRANCH   6   7
ATOM      7  C   UNL A   1      35.343  23.180  25.970  1.00  0.00     0.261 C 
BRANCH   7   8
ATOM      8  O   UNL A   1      34.224  24.035  25.692  1.00  0.00    -0.460 OA
BRANCH   8   9
ATOM      9  C   UNL A   1      34.086  24.487  24.431  1.00  0.00     0.338 C 
ATOM     10  O   UNL A   1      34.337  23.879  23.405  1.00  0.00    -0.246 OA
BRANCH   9  11
ATOM     11  C   UNL A   1      33.417  25.803  24.490  1.00  0.00     0.087 C 
ATOM     12  C   UNL A   1      30.950  31.634  26.080  1.00  0.00     0.047 C 
ATOM     13  C   UNL A   1      31.793  30.411  25.799  1.00  0.00    -0.019 A 
ATOM     14  C   UNL A   1      33.004  30.199  26.506  1.00  0.00     0.025 A 
ATOM     15  C   UNL A   1      31.421  29.464  24.826  1.00  0.00     0.064 A 
ATOM     16  Br  UNL A   1      33.601  31.555  27.730  1.00  0.00    -0.050 Br
ATOM     17  C   UNL A   1      33.769  29.019  26.329  1.00  0.00    -0.026 A 
ATOM     18  C   UNL A   1      32.152  28.272  24.661  1.00  0.00     0.142 A 
ATOM     19  Br  UNL A   1      29.906  29.752  23.688  1.00  0.00    -0.046 Br
ATOM     20  C   UNL A   1      35.093  28.799  27.030  1.00  0.00     0.046 C 
ATOM     21  C   UNL A   1      33.282  28.019  25.450  1.00  0.00     0.022 A 
ATOM     22  O   UNL A   1      31.697  27.401  23.708  1.00  0.00    -0.474 OA
ATOM     23  C   UNL A   1      33.900  26.694  25.366  1.00  0.00     0.027 C 
ATOM     24  C   UNL A   1      32.308  26.103  23.528  1.00  0.00     0.316 C 
BRANCH  24  25
ATOM     25  C   UNL A   1      31.192  25.048  23.566  1.00  0.00     0.430 C 
ATOM     26  F   UNL A   1      29.975  25.612  23.376  1.00  0.00    -0.167 F 
ATOM     27  F   UNL A   1      31.337  24.113  22.599  1.00  0.00    -0.167 F 
ATOM     28  F   UNL A   1      31.159  24.398  24.753  1.00  0.00    -0.167 F 
ENDBRANCH  24  25
ENDBRANCH   9  11
ENDBRANCH   8   9
ENDBRANCH   7   8
ENDBRANCH   6   7
ENDBRANCH   5   6
ENDBRANCH   4   5
ENDBRANCH   3   4
ENDBRANCH   2   3
ENDBRANCH   1   2
BRANCH   1  29
ATOM     29  C   UNL A   1      41.721  20.017  27.895  1.00  0.00     0.188 C 
BRANCH  29  30
ATOM     30  O   UNL A   1      42.019  18.993  26.949  1.00  0.00    -0.376 OA
BRANCH  30  31
ATOM     31  C   UNL A   1      42.395  19.425  25.648  1.00  0.00     0.202 C 
BRANCH  31  32
ATOM     32  C   UNL A   1      43.671  18.749  25.131  1.00  0.00     0.261 C 
BRANCH  32  33
ATOM     33  O   UNL A   1      44.288  19.405  24.011  1.00  0.00    -0.460 OA
BRANCH  33  34
ATOM     34  C   UNL A   1      45.529  19.909  24.194  1.00  0.00     0.338 C 
ATOM     35  O   UNL A   1      46.582  19.449  23.799  1.00  0.00    -0.246 OA
BRANCH  34  36
ATOM     36  C   UNL A   1      45.374  21.248  24.795  1.00  0.00     0.060 A 
ATOM     37  C   UNL A   1      45.014  22.320  23.968  1.00  0.00     0.016 A 
ATOM     38  C   UNL A   1      45.555  21.437  26.167  1.00  0.00     0.016 A 
ATOM     39  C   UNL A   1      44.861  23.594  24.513  1.00  0.00     0.010 A 
ATOM     40  C   UNL A   1      45.426  22.718  26.707  1.00  0.00     0.010 A 
ATOM     41  C   UNL A   1      45.110  23.805  25.877  1.00  0.00    -0.014 A 
BRANCH  41  42
ATOM     42  C   UNL A   1      45.270  25.191  26.374  1.00  0.00     0.031 A 
ATOM     43  C   UNL A   1      46.639  25.806  26.302  1.00  0.00     0.074 A 
ATOM     44  C   UNL A   1      44.228  25.902  26.838  1.00  0.00     0.049 A 
ATOM     45  N   UNL A   1      47.029  27.011  26.627  1.00  0.00    -0.248 NA
ATOM     46  C   UNL A   1      47.717  24.944  25.785  1.00  0.00     0.031 C 
ATOM     47  C   UNL A   1      42.851  25.427  26.926  1.00  0.00     0.029 A 
ATOM     48  N   UNL A   1      44.176  27.188  27.319  1.00  0.00    -0.354 N 
ATOM     49  C   UNL A   1      48.383  27.059  26.331  1.00  0.00     0.074 A 
ATOM     50  C   UNL A   1      48.764  25.751  25.847  1.00  0.00     0.031 C 
ATOM     51  C   UNL A   1      42.083  26.411  27.430  1.00  0.00     0.029 A 
ATOM     52  C   UNL A   1      42.921  27.577  27.715  1.00  0.00     0.049 A 
ATOM     53  H   UNL A   1      44.964  27.774  27.373  1.00  0.00     0.167 HD
ATOM     54  C   UNL A   1      49.231  28.106  26.432  1.00  0.00     0.037 A 
ATOM     55  C   UNL A   1      42.503  28.742  28.252  1.00  0.00     0.037 A 
ATOM     56  C   UNL A   1      48.860  29.401  26.931  1.00  0.00     0.049 A 
ATOM     57  C   UNL A   1      43.496  29.857  28.469  1.00  0.00     0.074 A 
ATOM     58  C   UNL A   1      49.644  30.531  27.058  1.00  0.00     0.029 A 
ATOM     59  N   UNL A   1      47.598  29.729  27.400  1.00  0.00    -0.354 N 
ATOM     60  N   UNL A   1      44.764  29.913  28.137  1.00  0.00    -0.248 NA
ATOM     61  C   UNL A   1      43.002  31.070  29.140  1.00  0.00     0.031 C 
ATOM     62  C   UNL A   1      48.870  31.532  27.652  1.00  0.00     0.029 A 
ATOM     63  C   UNL A   1      47.592  31.036  27.855  1.00  0.00     0.049 A 
ATOM     64  H   UNL A   1      46.821  29.123  27.409  1.00  0.00     0.167 HD
ATOM     65  C   UNL A   1      45.213  31.164  28.543  1.00  0.00     0.074 A 
ATOM     66  C   UNL A   1      44.079  31.845  29.131  1.00  0.00     0.031 C 
ATOM     67  C   UNL A   1      46.454  31.698  28.439  1.00  0.00     0.037 A 
BRANCH  54  68
ATOM     68  C   UNL A   1      50.648  27.892  25.997  1.00  0.00     0.064 A 
ATOM     69  C   UNL A   1      51.024  28.026  24.653  1.00  0.00     0.173 A 
ATOM     70  C   UNL A   1      51.644  27.590  26.935  1.00  0.00     0.173 A 
ATOM     71  F   UNL A   1      50.101  28.297  23.718  1.00  0.00    -0.203 F 
ATOM     72  C   UNL A   1      52.347  27.852  24.261  1.00  0.00     0.198 A 
ATOM     73  C   UNL A   1      52.972  27.440  26.543  1.00  0.00     0.198 A 
ATOM     74  F   UNL A   1      51.333  27.451  28.233  1.00  0.00    -0.203 F 
ATOM     75  F   UNL A   1      52.679  27.950  22.966  1.00  0.00    -0.200 F 
ATOM     76  C   UNL A   1      53.321  27.566  25.207  1.00  0.00     0.200 A 
ATOM     77  F   UNL A   1      53.913  27.173  27.459  1.00  0.00    -0.200 F 
ATOM     78  F   UNL A   1      54.597  27.408  24.829  1.00  0.00    -0.200 F 
ENDBRANCH  54  68
BRANCH  55  79
ATOM     79  C   UNL A   1      41.075  28.921  28.622  1.00  0.00     0.064 A 
ATOM     80  C   UNL A   1      40.646  28.746  29.944  1.00  0.00     0.173 A 
ATOM     81  C   UNL A   1      40.109  29.256  27.662  1.00  0.00     0.173 A 
ATOM     82  F   UNL A   1      41.527  28.396  30.892  1.00  0.00    -0.203 F 
ATOM     83  C   UNL A   1      39.304  28.889  30.291  1.00  0.00     0.198 A 
ATOM     84  C   UNL A   1      38.771  29.423  28.013  1.00  0.00     0.198 A 
ATOM     85  F   UNL A   1      40.467  29.426  26.379  1.00  0.00    -0.203 F 
ATOM     86  F   UNL A   1      38.914  28.679  31.556  1.00  0.00    -0.200 F 
ATOM     87  C   UNL A   1      38.368  29.235  29.327  1.00  0.00     0.200 A 
ATOM     88  F   UNL A   1      37.872  29.761  27.079  1.00  0.00    -0.200 F 
ATOM     89  F   UNL A   1      37.078  29.375  29.662  1.00  0.00    -0.200 F 
ENDBRANCH  55  79
BRANCH  67  90
ATOM     90  C   UNL A   1      46.674  33.083  28.975  1.00  0.00     0.064 A 
ATOM     91  C   UNL A   1      47.147  33.288  30.279  1.00  0.00     0.173 A 
ATOM     92  C   UNL A   1      46.528  34.202  28.142  1.00  0.00     0.173 A 
ATOM     93  F   UNL A   1      47.293  32.249  31.115  1.00  0.00    -0.203 F 
ATOM     94  C   UNL A   1      47.469  34.566  30.729  1.00  0.00     0.198 A 
ATOM     95  C   UNL A   1      46.875  35.475  28.587  1.00  0.00     0.198 A 
ATOM     96  F   UNL A   1      46.089  34.056  26.884  1.00  0.00    -0.203 F 
ATOM     97  F   UNL A   1      47.907  34.741  31.983  1.00  0.00    -0.200 F 
ATOM     98  C   UNL A   1      47.346  35.655  29.879  1.00  0.00     0.200 A 
ATOM     99  F   UNL A   1      46.774  36.524  27.759  1.00  0.00    -0.200 F 
ATOM    100  F   UNL A   1      47.686  36.880  30.305  1.00  0.00    -0.200 F 
ENDBRANCH  67  90
ENDBRANCH  41  42
ENDBRANCH  34  36
ENDBRANCH  33  34
ENDBRANCH  32  33
ENDBRANCH  31  32
ENDBRANCH  30  31
ENDBRANCH  29  30
ENDBRANCH   1  29
TORSDOF 21
ENDMDL
MODEL 3
REMARK VINA RESULT:     -10.0     10.984     15.053
REMARK SMILES Cc1c(Br)c(C)c2c(c1Br)O[C@H](C(F)(F)F)C(C(=O)OCCOCCOCCOCCOC(=O)c1ccc(-c3c4nc(c(-c5c(F)c(F)c(F)c(F)c5F)c5ccc([nH]5)c(-c5c(F)c(F)c(F)c(F)c5F)c5nc(c(-c6c(F)c(F)c(F)c(F)c6F)c6ccc3[nH]6)C=C5)C=C4)cc1)=C2
REMARK SMILES IDX 27 1 26 2 25 3 24 4 23 5 22 6 21 7 20 8 18 9 19 10 17 11
REMARK SMILES IDX 1 12 2 13 3 14 9 15 4 16 5 17 8 18 10 19 6 20 7 21 11 22
REMARK SMILES IDX 98 23 12 24 13 25 14 26 15 27 16 28 28 29 29 30 30 31 31 32
REMARK SMILES IDX 32 33 33 34 34 35 35 36 36 37 97 38 37 39 96 40 38 41 39 42
REMARK SMILES IDX 40 43 90 44 41 45 95 46 89 47 91 48 42 49 94 50 88 51 87 52
REMARK SMILES IDX 43 54 75 55 55 56 74 57 56 58 59 59 73 60 92 61 57 62 58 63
REMARK SMILES IDX 72 65 93 66 60 67 44 68 45 69 53 70 46 71 47 72 51 73 54 74
REMARK SMILES IDX 48 75 49 76 52 77 50 78 76 79 77 80 85 81 78 82 79 83 83 84
REMARK SMILES IDX 86 85 80 86 81 87 84 88 82 89 61 90 62 91 70 92 63 93 64 94
REMARK SMILES IDX 68 95 71 96 65 97 66 98 69 99 67 100
REMARK H PARENT 91 53 59 64
REMARK Flexibility Score: inf
ROOT
ATOM      1  C   UNL A   1      50.974  22.037  40.598  1.00  0.00     0.188 C 
ENDROOT
BRANCH   1   2
ATOM      2  O   UNL A   1      50.047  21.254  41.349  1.00  0.00    -0.377 OA
BRANCH   2   3
ATOM      3  C   UNL A   1      49.857  19.900  40.976  1.00  0.00     0.188 C 
BRANCH   3   4
ATOM      4  C   UNL A   1      48.380  19.491  40.844  1.00  0.00     0.188 C 
BRANCH   4   5
ATOM      5  O   UNL A   1      48.138  18.582  39.772  1.00  0.00    -0.376 OA
BRANCH   5   6
ATOM      6  C   UNL A   1      46.868  18.667  39.134  1.00  0.00     0.202 C 
BRANCH   6   7
ATOM      7  C   UNL A   1      45.861  17.572  39.511  1.00  0.00     0.261 C 
BRANCH   7   8
ATOM      8  O   UNL A   1      45.811  17.260  40.911  1.00  0.00    -0.460 OA
BRANCH   8   9
ATOM      9  C   UNL A   1      44.666  17.529  41.567  1.00  0.00     0.338 C 
ATOM     10  O   UNL A   1      44.056  18.584  41.569  1.00  0.00    -0.246 OA
BRANCH   9  11
ATOM     11  C   UNL A   1      44.176  16.270  42.164  1.00  0.00     0.087 C 
ATOM     12  C   UNL A   1      43.391  10.427  44.966  1.00  0.00     0.047 C 
ATOM     13  C   UNL A   1      43.736  11.845  44.575  1.00  0.00    -0.019 A 
ATOM     14  C   UNL A   1      44.906  12.462  45.085  1.00  0.00     0.025 A 
ATOM     15  C   UNL A   1      42.910  12.599  43.720  1.00  0.00     0.064 A 
ATOM     16  Br  UNL A   1      45.966  11.501  46.369  1.00  0.00    -0.050 Br
ATOM     17  C   UNL A   1      45.304  13.757  44.667  1.00  0.00    -0.026 A 
ATOM     18  C   UNL A   1      43.307  13.873  43.270  1.00  0.00     0.142 A 
ATOM     19  Br  UNL A   1      41.215  11.925  43.128  1.00  0.00    -0.046 Br
ATOM     20  C   UNL A   1      46.517  14.458  45.242  1.00  0.00     0.046 C 
ATOM     21  C   UNL A   1      44.524  14.424  43.688  1.00  0.00     0.022 A 
ATOM     22  O   UNL A   1      42.449  14.517  42.419  1.00  0.00    -0.474 OA
ATOM     23  C   UNL A   1      44.974  15.667  43.056  1.00  0.00     0.027 C 
ATOM     24  C   UNL A   1      42.803  15.781  41.814  1.00  0.00     0.316 C 
BRANCH  24  25
ATOM     25  C   UNL A   1      42.590  15.654  40.298  1.00  0.00     0.430 C 
ATOM     26  F   UNL A   1      41.547  14.838  40.015  1.00  0.00    -0.167 F 
ATOM     27  F   UNL A   1      42.315  16.845  39.718  1.00  0.00    -0.167 F 
ATOM     28  F   UNL A   1      43.683  15.148  39.681  1.00  0.00    -0.167 F 
ENDBRANCH  24  25
ENDBRANCH   9  11
ENDBRANCH   8   9
ENDBRANCH   7   8
ENDBRANCH   6   7
ENDBRANCH   5   6
ENDBRANCH   4   5
ENDBRANCH   3   4
ENDBRANCH   2   3
ENDBRANCH   1   2
BRANCH   1  29
ATOM     29  C   UNL A   1      50.519  23.114  39.585  1.00  0.00     0.188 C 
BRANCH  29  30
ATOM     30  O   UNL A   1      50.093  24.336  40.183  1.00  0.00    -0.376 OA
BRANCH  30  31
ATOM     31  C   UNL A   1      49.312  25.199  39.367  1.00  0.00     0.202 C 
BRANCH  31  32
ATOM     32  C   UNL A   1      49.139  24.686  37.932  1.00  0.00     0.261 C 
BRANCH  32  33
ATOM     33  O   UNL A   1      47.922  25.097  37.288  1.00  0.00    -0.460 OA
BRANCH  33  34
ATOM     34  C   UNL A   1      47.904  25.095  35.938  1.00  0.00     0.338 C 
ATOM     35  O   UNL A   1      48.594  24.431  35.187  1.00  0.00    -0.246 OA
BRANCH  34  36
ATOM     36  C   UNL A   1      46.743  25.901  35.513  1.00  0.00     0.060 A 
ATOM     37  C   UNL A   1      45.468  25.321  35.557  1.00  0.00     0.016 A 
ATOM     38  C   UNL A   1      46.909  27.226  35.103  1.00  0.00     0.016 A 
ATOM     39  C   UNL A   1      44.356  26.063  35.161  1.00  0.00     0.010 A 
ATOM     40  C   UNL A   1      45.797  27.959  34.683  1.00  0.00     0.010 A 
ATOM     41  C   UNL A   1      44.523  27.370  34.681  1.00  0.00    -0.014 A 
BRANCH  41  42
ATOM     42  C   UNL A   1      43.404  28.021  33.962  1.00  0.00     0.031 A 
ATOM     43  C   UNL A   1      43.219  27.690  32.508  1.00  0.00     0.074 A 
ATOM     44  C   UNL A   1      42.550  28.851  34.585  1.00  0.00     0.049 A 
ATOM     45  N   UNL A   1      42.294  28.089  31.674  1.00  0.00    -0.248 NA
ATOM     46  C   UNL A   1      44.212  26.777  31.915  1.00  0.00     0.031 C 
ATOM     47  C   UNL A   1      42.606  29.223  35.996  1.00  0.00     0.029 A 
ATOM     48  N   UNL A   1      41.457  29.528  34.099  1.00  0.00    -0.354 N 
ATOM     49  C   UNL A   1      42.578  27.458  30.472  1.00  0.00     0.074 A 
ATOM     50  C   UNL A   1      43.786  26.688  30.665  1.00  0.00     0.031 C 
ATOM     51  C   UNL A   1      41.588  30.062  36.265  1.00  0.00     0.029 A 
ATOM     52  C   UNL A   1      40.822  30.298  35.041  1.00  0.00     0.049 A 
ATOM     53  H   UNL A   1      41.159  29.465  33.163  1.00  0.00     0.167 HD
ATOM     54  C   UNL A   1      41.880  27.498  29.316  1.00  0.00     0.037 A 
ATOM     55  C   UNL A   1      39.748  31.105  34.920  1.00  0.00     0.037 A 
ATOM     56  C   UNL A   1      40.690  28.277  29.115  1.00  0.00     0.049 A 
ATOM     57  C   UNL A   1      39.058  31.227  33.584  1.00  0.00     0.074 A 
ATOM     58  C   UNL A   1      39.904  28.370  27.984  1.00  0.00     0.029 A 
ATOM     59  N   UNL A   1      40.127  29.108  30.071  1.00  0.00    -0.354 N 
ATOM     60  N   UNL A   1      39.299  30.586  32.466  1.00  0.00    -0.248 NA
ATOM     61  C   UNL A   1      37.949  32.190  33.492  1.00  0.00     0.031 C 
ATOM     62  C   UNL A   1      38.891  29.300  28.235  1.00  0.00     0.029 A 
ATOM     63  C   UNL A   1      39.023  29.751  29.540  1.00  0.00     0.049 A 
ATOM     64  H   UNL A   1      40.462  29.225  30.989  1.00  0.00     0.167 HD
ATOM     65  C   UNL A   1      38.369  31.053  31.545  1.00  0.00     0.074 A 
ATOM     66  C   UNL A   1      37.545  32.021  32.239  1.00  0.00     0.031 C 
ATOM     67  C   UNL A   1      38.214  30.712  30.243  1.00  0.00     0.037 A 
BRANCH  54  68
ATOM     68  C   UNL A   1      42.392  26.676  28.173  1.00  0.00     0.064 A 
ATOM     69  C   UNL A   1      43.483  27.102  27.402  1.00  0.00     0.173 A 
ATOM     70  C   UNL A   1      41.812  25.435  27.870  1.00  0.00     0.173 A 
ATOM     71  F   UNL A   1      44.057  28.289  27.643  1.00  0.00    -0.203 F 
ATOM     72  C   UNL A   1      43.969  26.320  26.358  1.00  0.00     0.198 A 
ATOM     73  C   UNL A   1      42.316  24.645  26.841  1.00  0.00     0.198 A 
ATOM     74  F   UNL A   1      40.766  24.987  28.579  1.00  0.00    -0.203 F 
ATOM     75  F   UNL A   1      44.990  26.761  25.612  1.00  0.00    -0.200 F 
ATOM     76  C   UNL A   1      43.389  25.089  26.084  1.00  0.00     0.200 A 
ATOM     77  F   UNL A   1      41.762  23.452  26.583  1.00  0.00    -0.200 F 
ATOM     78  F   UNL A   1      43.865  24.333  25.085  1.00  0.00    -0.200 F 
ENDBRANCH  54  68
BRANCH  55  79
ATOM     79  C   UNL A   1      39.250  31.862  36.098  1.00  0.00     0.064 A 
ATOM     80  C   UNL A   1      39.797  33.106  36.439  1.00  0.00     0.173 A 
ATOM     81  C   UNL A   1      38.230  31.353  36.916  1.00  0.00     0.173 A 
ATOM     82  F   UNL A   1      40.795  33.621  35.706  1.00  0.00    -0.203 F 
ATOM     83  C   UNL A   1      39.350  33.809  37.556  1.00  0.00     0.198 A 
ATOM     84  C   UNL A   1      37.767  32.066  38.019  1.00  0.00     0.198 A 
ATOM     85  F   UNL A   1      37.679  30.161  36.639  1.00  0.00    -0.203 F 
ATOM     86  F   UNL A   1      39.917  34.979  37.881  1.00  0.00    -0.200 F 
ATOM     87  C   UNL A   1      38.331  33.292  38.342  1.00  0.00     0.200 A 
ATOM     88  F   UNL A   1      36.778  31.565  38.773  1.00  0.00    -0.200 F 
ATOM     89  F   UNL A   1      37.900  33.969  39.415  1.00  0.00    -0.200 F 
ENDBRANCH  55  79
BRANCH  67  90
ATOM     90  C   UNL A   1      37.123  31.385  29.462  1.00  0.00     0.064 A 
ATOM     91  C   UNL A   1      35.942  30.704  29.134  1.00  0.00     0.173 A 
ATOM     92  C   UNL A   1      37.206  32.750  29.150  1.00  0.00     0.173 A 
ATOM     93  F   UNL A   1      35.820  29.397  29.405  1.00  0.00    -0.203 F 
ATOM     94  C   UNL A   1      34.882  31.368  28.522  1.00  0.00     0.198 A 
ATOM     95  C   UNL A   1      36.135  33.416  28.561  1.00  0.00     0.198 A 
ATOM     96  F   UNL A   1      38.311  33.447  29.453  1.00  0.00    -0.203 F 
ATOM     97  F   UNL A   1      33.768  30.696  28.204  1.00  0.00    -0.200 F 
ATOM     98  C   UNL A   1      34.974  32.725  28.248  1.00  0.00     0.200 A 
ATOM     99  F   UNL A   1      36.218  34.731  28.314  1.00  0.00    -0.200 F 
ATOM    100  F   UNL A   1      33.941  33.368  27.687  1.00  0.00    -0.200 F 
ENDBRANCH  67  90
ENDBRANCH  41  42
ENDBRANCH  34  36
ENDBRANCH  33  34
ENDBRANCH  32  33
ENDBRANCH  31  32
ENDBRANCH  30  31
ENDBRANCH  29  30
ENDBRANCH   1  29
TORSDOF 21
ENDMDL
