MODEL 1
REMARK VINA RESULT:     -10.3      0.000      0.000
REMARK SMILES C[NH2+][C@@]1(C(=O)OCCOCCOCCOCCOC(=O)c2ccc(-c3c4nc(c(-c5c(F)c(F)c(F)c(F)c5F)c5ccc([nH]5)c(-c5c(F)c(F)c(F)c(F)c5F)c5nc(c(-c6c(F)c(F)c(F)c(F)c6F)c6ccc3[nH]6)C=C5)C=C4)cc2)CCC[C@H]1CCSc1nccs1
REMARK SMILES IDX 11 1 10 2 9 3 8 4 7 5 6 6 4 7 5 8 3 9 84 10 87 11 85 12
REMARK SMILES IDX 86 13 2 14 1 15 88 18 89 19 90 20 91 21 92 22 95 23 93 24
REMARK SMILES IDX 94 25 12 26 13 27 14 28 15 29 16 30 17 31 18 32 19 33 20 34
REMARK SMILES IDX 21 35 22 36 83 37 23 38 82 39 24 40 25 41 26 42 76 43 27 44
REMARK SMILES IDX 81 45 75 46 77 47 28 48 80 49 74 50 73 51 29 53 61 54 41 55
REMARK SMILES IDX 60 56 42 57 45 58 59 59 78 60 43 61 44 62 58 64 79 65 46 66
REMARK SMILES IDX 30 67 31 68 39 69 32 70 33 71 37 72 40 73 34 74 35 75 38 76
REMARK SMILES IDX 36 77 62 78 63 79 71 80 64 81 65 82 69 83 72 84 66 85 67 86
REMARK SMILES IDX 70 87 68 88 47 89 48 90 56 91 49 92 50 93 54 94 57 95 51 96
REMARK SMILES IDX 52 97 55 98 53 99
REMARK H PARENT 2 16 2 17 77 52 45 63
REMARK Flexibility Score: inf
ROOT
ATOM      1  C   UNL A   1      31.836  28.386  22.744  1.00  0.00     0.188 C 
ENDROOT
BRANCH   1   2
ATOM      2  C   UNL A   1      31.165  27.047  22.420  1.00  0.00     0.188 C 
BRANCH   2   3
ATOM      3  O   UNL A   1      31.305  26.404  21.158  1.00  0.00    -0.376 OA
BRANCH   3   4
ATOM      4  C   UNL A   1      32.481  25.671  20.859  1.00  0.00     0.202 C 
BRANCH   4   5
ATOM      5  C   UNL A   1      32.886  24.671  21.952  1.00  0.00     0.261 C 
BRANCH   5   6
ATOM      6  O   UNL A   1      34.166  24.934  22.587  1.00  0.00    -0.459 OA
BRANCH   6   7
ATOM      7  C   UNL A   1      34.123  25.131  23.932  1.00  0.00     0.368 C 
ATOM      8  O   UNL A   1      34.093  26.259  24.426  1.00  0.00    -0.245 OA
BRANCH   7   9
ATOM      9  C   UNL A   1      34.238  23.824  24.843  1.00  0.00     0.197 C 
ATOM     10  C   UNL A   1      35.508  24.095  25.674  1.00  0.00     0.081 C 
ATOM     11  C   UNL A   1      34.620  22.424  24.231  1.00  0.00     0.063 C 
ATOM     12  C   UNL A   1      36.648  23.700  24.726  1.00  0.00     0.008 C 
ATOM     13  C   UNL A   1      36.086  22.621  23.800  1.00  0.00     0.011 C 
BRANCH   9  14
ATOM     14  N   UNL A   1      33.008  23.629  25.660  1.00  0.00    -0.334 N 
ATOM     15  C   UNL A   1      31.721  23.657  24.983  1.00  0.00     0.331 C 
ATOM     16  H   UNL A   1      33.090  22.720  26.117  1.00  0.00     0.347 HD
ATOM     17  H   UNL A   1      32.985  24.439  26.279  1.00  0.00     0.347 HD
ENDBRANCH   9  14
BRANCH  11  18
ATOM     18  C   UNL A   1      34.610  21.172  25.199  1.00  0.00     0.022 C 
BRANCH  18  19
ATOM     19  C   UNL A   1      34.373  19.775  24.604  1.00  0.00     0.078 C 
BRANCH  19  20
ATOM     20  S   UNL A   1      32.599  19.441  24.258  1.00  0.00    -0.096 SA
BRANCH  20  21
ATOM     21  C   UNL A   1      32.723  17.721  24.513  1.00  0.00     0.149 A 
ATOM     22  N   UNL A   1      32.046  17.152  25.481  1.00  0.00    -0.238 NA
ATOM     23  S   UNL A   1      33.968  16.790  23.793  1.00  0.00    -0.116 S 
ATOM     24  C   UNL A   1      32.658  15.966  25.802  1.00  0.00     0.124 A 
ATOM     25  C   UNL A   1      33.750  15.633  25.027  1.00  0.00     0.087 A 
ENDBRANCH  20  21
ENDBRANCH  19  20
ENDBRANCH  18  19
ENDBRANCH  11  18
ENDBRANCH   7   9
ENDBRANCH   6   7
ENDBRANCH   5   6
ENDBRANCH   4   5
ENDBRANCH   3   4
ENDBRANCH   2   3
ENDBRANCH   1   2
BRANCH   1  26
ATOM     26  O   UNL A   1      31.066  29.328  23.462  1.00  0.00    -0.377 OA
BRANCH  26  27
ATOM     27  C   UNL A   1      31.221  29.454  24.867  1.00  0.00     0.188 C 
BRANCH  27  28
ATOM     28  C   UNL A   1      32.625  29.638  25.443  1.00  0.00     0.188 C 
BRANCH  28  29
ATOM     29  O   UNL A   1      32.611  30.600  26.501  1.00  0.00    -0.376 OA
BRANCH  29  30
ATOM     30  C   UNL A   1      31.499  31.497  26.503  1.00  0.00     0.202 C 
BRANCH  30  31
ATOM     31  C   UNL A   1      31.839  32.877  27.094  1.00  0.00     0.261 C 
BRANCH  31  32
ATOM     32  O   UNL A   1      33.230  33.212  26.994  1.00  0.00    -0.460 OA
BRANCH  32  33
ATOM     33  C   UNL A   1      33.793  33.553  28.168  1.00  0.00     0.338 C 
ATOM     34  O   UNL A   1      33.291  34.236  29.051  1.00  0.00    -0.246 OA
BRANCH  33  35
ATOM     35  C   UNL A   1      35.061  32.834  28.344  1.00  0.00     0.060 A 
ATOM     36  C   UNL A   1      34.982  31.460  28.592  1.00  0.00     0.016 A 
ATOM     37  C   UNL A   1      36.289  33.500  28.361  1.00  0.00     0.016 A 
ATOM     38  C   UNL A   1      36.124  30.757  28.950  1.00  0.00     0.010 A 
ATOM     39  C   UNL A   1      37.435  32.796  28.735  1.00  0.00     0.010 A 
ATOM     40  C   UNL A   1      37.341  31.437  29.087  1.00  0.00    -0.014 A 
BRANCH  40  41
ATOM     41  C   UNL A   1      38.439  30.770  29.820  1.00  0.00     0.031 A 
ATOM     42  C   UNL A   1      38.634  31.108  31.273  1.00  0.00     0.074 A 
ATOM     43  C   UNL A   1      39.188  29.825  29.229  1.00  0.00     0.049 A 
ATOM     44  N   UNL A   1      39.517  30.653  32.124  1.00  0.00    -0.248 NA
ATOM     45  C   UNL A   1      37.699  32.092  31.846  1.00  0.00     0.031 C 
ATOM     46  C   UNL A   1      39.040  29.375  27.847  1.00  0.00     0.029 A 
ATOM     47  N   UNL A   1      40.221  29.073  29.724  1.00  0.00    -0.354 N 
ATOM     48  C   UNL A   1      39.247  31.298  33.325  1.00  0.00     0.074 A 
ATOM     49  C   UNL A   1      38.142  32.199  33.089  1.00  0.00     0.031 C 
ATOM     50  C   UNL A   1      39.959  28.427  27.600  1.00  0.00     0.029 A 
ATOM     51  C   UNL A   1      40.779  28.233  28.794  1.00  0.00     0.049 A 
ATOM     52  H   UNL A   1      40.533  29.130  30.656  1.00  0.00     0.167 HD
ATOM     53  C   UNL A   1      39.865  31.143  34.520  1.00  0.00     0.037 A 
ATOM     54  C   UNL A   1      41.849  27.420  28.896  1.00  0.00     0.037 A 
ATOM     55  C   UNL A   1      40.967  30.245  34.742  1.00  0.00     0.049 A 
ATOM     56  C   UNL A   1      42.575  27.332  30.215  1.00  0.00     0.074 A 
ATOM     57  C   UNL A   1      41.664  30.004  35.912  1.00  0.00     0.029 A 
ATOM     58  N   UNL A   1      41.541  29.446  33.762  1.00  0.00    -0.354 N 
ATOM     59  N   UNL A   1      42.309  27.931  31.351  1.00  0.00    -0.248 NA
ATOM     60  C   UNL A   1      43.752  26.453  30.263  1.00  0.00     0.031 C 
ATOM     61  C   UNL A   1      42.700  29.111  35.625  1.00  0.00     0.029 A 
ATOM     62  C   UNL A   1      42.604  28.736  34.294  1.00  0.00     0.049 A 
ATOM     63  H   UNL A   1      41.237  29.392  32.827  1.00  0.00     0.167 HD
ATOM     64  C   UNL A   1      43.260  27.477  32.256  1.00  0.00     0.074 A 
ATOM     65  C   UNL A   1      44.101  26.541  31.539  1.00  0.00     0.031 C 
ATOM     66  C   UNL A   1      43.424  27.802  33.563  1.00  0.00     0.037 A 
BRANCH  53  67
ATOM     67  C   UNL A   1      39.387  31.989  35.665  1.00  0.00     0.064 A 
ATOM     68  C   UNL A   1      38.433  31.527  36.584  1.00  0.00     0.173 A 
ATOM     69  C   UNL A   1      39.913  33.276  35.858  1.00  0.00     0.173 A 
ATOM     70  F   UNL A   1      37.885  30.312  36.436  1.00  0.00    -0.203 F 
ATOM     71  C   UNL A   1      38.002  32.333  37.636  1.00  0.00     0.198 A 
ATOM     72  C   UNL A   1      39.504  34.066  36.931  1.00  0.00     0.198 A 
ATOM     73  F   UNL A   1      40.828  33.768  35.011  1.00  0.00    -0.203 F 
ATOM     74  F   UNL A   1      37.050  31.891  38.470  1.00  0.00    -0.200 F 
ATOM     75  C   UNL A   1      38.543  33.597  37.813  1.00  0.00     0.200 A 
ATOM     76  F   UNL A   1      40.040  35.281  37.107  1.00  0.00    -0.200 F 
ATOM     77  F   UNL A   1      38.133  34.367  38.831  1.00  0.00    -0.200 F 
ENDBRANCH  53  67
BRANCH  54  78
ATOM     78  C   UNL A   1      42.308  26.643  27.716  1.00  0.00     0.064 A 
ATOM     79  C   UNL A   1      41.792  25.372  27.433  1.00  0.00     0.173 A 
ATOM     80  C   UNL A   1      43.293  27.151  26.854  1.00  0.00     0.173 A 
ATOM     81  F   UNL A   1      40.865  24.832  28.240  1.00  0.00    -0.203 F 
ATOM     82  C   UNL A   1      42.257  24.629  26.350  1.00  0.00     0.198 A 
ATOM     83  C   UNL A   1      43.734  26.421  25.752  1.00  0.00     0.198 A 
ATOM     84  F   UNL A   1      43.823  28.362  27.077  1.00  0.00    -0.203 F 
ATOM     85  F   UNL A   1      41.783  23.393  26.135  1.00  0.00    -0.200 F 
ATOM     86  C   UNL A   1      43.223  25.157  25.506  1.00  0.00     0.200 A 
ATOM     87  F   UNL A   1      44.656  26.942  24.931  1.00  0.00    -0.200 F 
ATOM     88  F   UNL A   1      43.667  24.443  24.463  1.00  0.00    -0.200 F 
ENDBRANCH  54  78
BRANCH  66  89
ATOM     89  C   UNL A   1      44.525  27.109  34.316  1.00  0.00     0.064 A 
ATOM     90  C   UNL A   1      44.313  25.898  34.991  1.00  0.00     0.173 A 
ATOM     91  C   UNL A   1      45.824  27.644  34.321  1.00  0.00     0.173 A 
ATOM     92  F   UNL A   1      43.088  25.351  35.027  1.00  0.00    -0.203 F 
ATOM     93  C   UNL A   1      45.351  25.266  35.671  1.00  0.00     0.198 A 
ATOM     94  C   UNL A   1      46.867  26.989  34.969  1.00  0.00     0.198 A 
ATOM     95  F   UNL A   1      46.084  28.794  33.682  1.00  0.00    -0.203 F 
ATOM     96  F   UNL A   1      45.111  24.139  36.356  1.00  0.00    -0.200 F 
ATOM     97  C   UNL A   1      46.628  25.807  35.652  1.00  0.00     0.200 A 
ATOM     98  F   UNL A   1      48.104  27.504  34.933  1.00  0.00    -0.200 F 
ATOM     99  F   UNL A   1      47.627  25.191  36.298  1.00  0.00    -0.200 F 
ENDBRANCH  66  89
ENDBRANCH  40  41
ENDBRANCH  33  35
ENDBRANCH  32  33
ENDBRANCH  31  32
ENDBRANCH  30  31
ENDBRANCH  29  30
ENDBRANCH  28  29
ENDBRANCH  27  28
ENDBRANCH  26  27
ENDBRANCH   1  26
TORSDOF 25
ENDMDL
MODEL 2
REMARK VINA RESULT:      -9.4      0.632      7.036
REMARK SMILES C[NH2+][C@@]1(C(=O)OCCOCCOCCOCCOC(=O)c2ccc(-c3c4nc(c(-c5c(F)c(F)c(F)c(F)c5F)c5ccc([nH]5)c(-c5c(F)c(F)c(F)c(F)c5F)c5nc(c(-c6c(F)c(F)c(F)c(F)c6F)c6ccc3[nH]6)C=C5)C=C4)cc2)CCC[C@H]1CCSc1nccs1
REMARK SMILES IDX 11 1 10 2 9 3 8 4 7 5 6 6 4 7 5 8 3 9 84 10 87 11 85 12
REMARK SMILES IDX 86 13 2 14 1 15 88 18 89 19 90 20 91 21 92 22 95 23 93 24
REMARK SMILES IDX 94 25 12 26 13 27 14 28 15 29 16 30 17 31 18 32 19 33 20 34
REMARK SMILES IDX 21 35 22 36 83 37 23 38 82 39 24 40 25 41 26 42 76 43 27 44
REMARK SMILES IDX 81 45 75 46 77 47 28 48 80 49 74 50 73 51 29 53 61 54 41 55
REMARK SMILES IDX 60 56 42 57 45 58 59 59 78 60 43 61 44 62 58 64 79 65 46 66
REMARK SMILES IDX 30 67 31 68 39 69 32 70 33 71 37 72 40 73 34 74 35 75 38 76
REMARK SMILES IDX 36 77 62 78 63 79 71 80 64 81 65 82 69 83 72 84 66 85 67 86
REMARK SMILES IDX 70 87 68 88 47 89 48 90 56 91 49 92 50 93 54 94 57 95 51 96
REMARK SMILES IDX 52 97 55 98 53 99
REMARK H PARENT 2 16 2 17 77 52 45 63
REMARK Flexibility Score: inf
ROOT
ATOM      1  C   UNL A   1      32.324  28.205  22.724  1.00  0.00     0.188 C 
ENDROOT
BRANCH   1   2
ATOM      2  C   UNL A   1      31.347  27.046  22.500  1.00  0.00     0.188 C 
BRANCH   2   3
ATOM      3  O   UNL A   1      31.342  26.267  21.309  1.00  0.00    -0.376 OA
BRANCH   3   4
ATOM      4  C   UNL A   1      32.497  25.537  20.930  1.00  0.00     0.202 C 
BRANCH   4   5
ATOM      5  C   UNL A   1      33.016  24.585  22.017  1.00  0.00     0.261 C 
BRANCH   5   6
ATOM      6  O   UNL A   1      34.247  25.000  22.665  1.00  0.00    -0.459 OA
BRANCH   6   7
ATOM      7  C   UNL A   1      34.185  25.122  24.018  1.00  0.00     0.368 C 
ATOM      8  O   UNL A   1      34.163  26.223  24.573  1.00  0.00    -0.245 OA
BRANCH   7   9
ATOM      9  C   UNL A   1      34.264  23.766  24.857  1.00  0.00     0.197 C 
ATOM     10  C   UNL A   1      35.506  23.984  25.745  1.00  0.00     0.081 C 
ATOM     11  C   UNL A   1      34.662  22.401  24.181  1.00  0.00     0.063 C 
ATOM     12  C   UNL A   1      36.676  23.637  24.815  1.00  0.00     0.008 C 
ATOM     13  C   UNL A   1      36.143  22.614  23.811  1.00  0.00     0.011 C 
BRANCH   9  14
ATOM     14  N   UNL A   1      33.007  23.531  25.620  1.00  0.00    -0.334 N 
ATOM     15  C   UNL A   1      31.767  24.071  25.085  1.00  0.00     0.331 C 
ATOM     16  H   UNL A   1      32.887  22.521  25.701  1.00  0.00     0.347 HD
ATOM     17  H   UNL A   1      33.145  24.036  26.495  1.00  0.00     0.347 HD
ENDBRANCH   9  14
BRANCH  11  18
ATOM     18  C   UNL A   1      34.616  21.097  25.076  1.00  0.00     0.022 C 
BRANCH  18  19
ATOM     19  C   UNL A   1      34.376  19.739  24.397  1.00  0.00     0.078 C 
BRANCH  19  20
ATOM     20  S   UNL A   1      32.720  19.037  24.775  1.00  0.00    -0.096 SA
BRANCH  20  21
ATOM     21  C   UNL A   1      33.329  17.467  25.229  1.00  0.00     0.149 A 
ATOM     22  N   UNL A   1      34.552  17.121  24.908  1.00  0.00    -0.238 NA
ATOM     23  S   UNL A   1      32.287  16.213  25.756  1.00  0.00    -0.116 S 
ATOM     24  C   UNL A   1      34.631  15.751  24.906  1.00  0.00     0.124 A 
ATOM     25  C   UNL A   1      33.481  15.090  25.287  1.00  0.00     0.087 A 
ENDBRANCH  20  21
ENDBRANCH  19  20
ENDBRANCH  18  19
ENDBRANCH  11  18
ENDBRANCH   7   9
ENDBRANCH   6   7
ENDBRANCH   5   6
ENDBRANCH   4   5
ENDBRANCH   3   4
ENDBRANCH   2   3
ENDBRANCH   1   2
BRANCH   1  26
ATOM     26  O   UNL A   1      31.833  29.325  23.434  1.00  0.00    -0.377 OA
BRANCH  26  27
ATOM     27  C   UNL A   1      31.683  29.265  24.844  1.00  0.00     0.188 C 
BRANCH  27  28
ATOM     28  C   UNL A   1      32.905  29.512  25.729  1.00  0.00     0.188 C 
BRANCH  28  29
ATOM     29  O   UNL A   1      32.587  30.431  26.778  1.00  0.00    -0.376 OA
BRANCH  29  30
ATOM     30  C   UNL A   1      31.490  31.308  26.517  1.00  0.00     0.202 C 
BRANCH  30  31
ATOM     31  C   UNL A   1      31.766  32.761  26.944  1.00  0.00     0.261 C 
BRANCH  31  32
ATOM     32  O   UNL A   1      33.152  33.123  26.868  1.00  0.00    -0.460 OA
BRANCH  32  33
ATOM     33  C   UNL A   1      33.661  33.570  28.031  1.00  0.00     0.338 C 
ATOM     34  O   UNL A   1      33.132  34.351  28.811  1.00  0.00    -0.246 OA
BRANCH  33  35
ATOM     35  C   UNL A   1      34.898  32.845  28.349  1.00  0.00     0.060 A 
ATOM     36  C   UNL A   1      34.762  31.543  28.838  1.00  0.00     0.016 A 
ATOM     37  C   UNL A   1      36.152  33.456  28.261  1.00  0.00     0.016 A 
ATOM     38  C   UNL A   1      35.873  30.872  29.331  1.00  0.00     0.010 A 
ATOM     39  C   UNL A   1      37.267  32.785  28.770  1.00  0.00     0.010 A 
ATOM     40  C   UNL A   1      37.116  31.517  29.358  1.00  0.00    -0.014 A 
BRANCH  40  41
ATOM     41  C   UNL A   1      38.181  30.950  30.213  1.00  0.00     0.031 A 
ATOM     42  C   UNL A   1      39.128  29.952  29.604  1.00  0.00     0.074 A 
ATOM     43  C   UNL A   1      38.353  31.377  31.474  1.00  0.00     0.049 A 
ATOM     44  N   UNL A   1      40.139  29.324  30.145  1.00  0.00    -0.248 NA
ATOM     45  C   UNL A   1      38.904  29.620  28.186  1.00  0.00     0.031 C 
ATOM     46  C   UNL A   1      37.535  32.388  32.140  1.00  0.00     0.029 A 
ATOM     47  N   UNL A   1      39.279  31.013  32.416  1.00  0.00    -0.354 N 
ATOM     48  C   UNL A   1      40.665  28.522  29.139  1.00  0.00     0.074 A 
ATOM     49  C   UNL A   1      39.846  28.716  27.965  1.00  0.00     0.031 C 
ATOM     50  C   UNL A   1      37.992  32.558  33.392  1.00  0.00     0.029 A 
ATOM     51  C   UNL A   1      39.108  31.643  33.623  1.00  0.00     0.049 A 
ATOM     52  H   UNL A   1      39.999  30.363  32.244  1.00  0.00     0.167 HD
ATOM     53  C   UNL A   1      41.743  27.705  29.192  1.00  0.00     0.037 A 
ATOM     54  C   UNL A   1      39.765  31.475  34.786  1.00  0.00     0.037 A 
ATOM     55  C   UNL A   1      42.550  27.517  30.369  1.00  0.00     0.049 A 
ATOM     56  C   UNL A   1      40.907  30.490  34.844  1.00  0.00     0.074 A 
ATOM     57  C   UNL A   1      43.667  26.719  30.533  1.00  0.00     0.029 A 
ATOM     58  N   UNL A   1      42.315  28.133  31.590  1.00  0.00    -0.354 N 
ATOM     59  N   UNL A   1      41.411  29.747  33.888  1.00  0.00    -0.248 NA
ATOM     60  C   UNL A   1      41.572  30.325  36.144  1.00  0.00     0.031 C 
ATOM     61  C   UNL A   1      44.067  26.800  31.870  1.00  0.00     0.029 A 
ATOM     62  C   UNL A   1      43.246  27.706  32.522  1.00  0.00     0.049 A 
ATOM     63  H   UNL A   1      41.592  28.778  31.768  1.00  0.00     0.167 HD
ATOM     64  C   UNL A   1      42.470  29.052  34.460  1.00  0.00     0.074 A 
ATOM     65  C   UNL A   1      42.543  29.475  35.843  1.00  0.00     0.031 C 
ATOM     66  C   UNL A   1      43.307  28.147  33.893  1.00  0.00     0.037 A 
BRANCH  53  67
ATOM     67  C   UNL A   1      42.087  26.924  27.955  1.00  0.00     0.064 A 
ATOM     68  C   UNL A   1      41.545  25.654  27.702  1.00  0.00     0.173 A 
ATOM     69  C   UNL A   1      42.956  27.468  26.996  1.00  0.00     0.173 A 
ATOM     70  F   UNL A   1      40.724  25.081  28.594  1.00  0.00    -0.203 F 
ATOM     71  C   UNL A   1      41.883  24.948  26.551  1.00  0.00     0.198 A 
ATOM     72  C   UNL A   1      43.264  26.772  25.830  1.00  0.00     0.198 A 
ATOM     73  F   UNL A   1      43.501  28.678  27.186  1.00  0.00    -0.203 F 
ATOM     74  F   UNL A   1      41.395  23.715  26.356  1.00  0.00    -0.200 F 
ATOM     75  C   UNL A   1      42.735  25.510  25.612  1.00  0.00     0.200 A 
ATOM     76  F   UNL A   1      44.077  27.325  24.919  1.00  0.00    -0.200 F 
ATOM     77  F   UNL A   1      43.052  24.832  24.500  1.00  0.00    -0.200 F 
ENDBRANCH  53  67
BRANCH  54  78
ATOM     78  C   UNL A   1      39.350  32.236  35.993  1.00  0.00     0.064 A 
ATOM     79  C   UNL A   1      38.399  31.725  36.887  1.00  0.00     0.173 A 
ATOM     80  C   UNL A   1      39.883  33.506  36.267  1.00  0.00     0.173 A 
ATOM     81  F   UNL A   1      37.843  30.526  36.658  1.00  0.00    -0.203 F 
ATOM     82  C   UNL A   1      37.981  32.461  37.993  1.00  0.00     0.198 A 
ATOM     83  C   UNL A   1      39.488  34.227  37.392  1.00  0.00     0.198 A 
ATOM     84  F   UNL A   1      40.795  34.043  35.444  1.00  0.00    -0.203 F 
ATOM     85  F   UNL A   1      37.032  31.970  38.802  1.00  0.00    -0.200 F 
ATOM     86  C   UNL A   1      38.531  33.708  38.248  1.00  0.00     0.200 A 
ATOM     87  F   UNL A   1      40.034  35.425  37.641  1.00  0.00    -0.200 F 
ATOM     88  F   UNL A   1      38.130  34.414  39.315  1.00  0.00    -0.200 F 
ENDBRANCH  54  78
BRANCH  66  89
ATOM     89  C   UNL A   1      44.404  27.587  34.754  1.00  0.00     0.064 A 
ATOM     90  C   UNL A   1      44.210  26.452  35.555  1.00  0.00     0.173 A 
ATOM     91  C   UNL A   1      45.681  28.170  34.741  1.00  0.00     0.173 A 
ATOM     92  F   UNL A   1      43.006  25.863  35.614  1.00  0.00    -0.203 F 
ATOM     93  C   UNL A   1      45.245  25.941  36.336  1.00  0.00     0.198 A 
ATOM     94  C   UNL A   1      46.722  27.634  35.492  1.00  0.00     0.198 A 
ATOM     95  F   UNL A   1      45.923  29.250  33.984  1.00  0.00    -0.203 F 
ATOM     96  F   UNL A   1      45.021  24.890  37.136  1.00  0.00    -0.200 F 
ATOM     97  C   UNL A   1      46.502  26.527  36.297  1.00  0.00     0.200 A 
ATOM     98  F   UNL A   1      47.941  28.191  35.438  1.00  0.00    -0.200 F 
ATOM     99  F   UNL A   1      47.498  26.028  37.041  1.00  0.00    -0.200 F 
ENDBRANCH  66  89
ENDBRANCH  40  41
ENDBRANCH  33  35
ENDBRANCH  32  33
ENDBRANCH  31  32
ENDBRANCH  30  31
ENDBRANCH  29  30
ENDBRANCH  28  29
ENDBRANCH  27  28
ENDBRANCH  26  27
ENDBRANCH   1  26
TORSDOF 25
ENDMDL
MODEL 3
REMARK VINA RESULT:      -9.3      5.676     11.481
REMARK SMILES C[NH2+][C@@]1(C(=O)OCCOCCOCCOCCOC(=O)c2ccc(-c3c4nc(c(-c5c(F)c(F)c(F)c(F)c5F)c5ccc([nH]5)c(-c5c(F)c(F)c(F)c(F)c5F)c5nc(c(-c6c(F)c(F)c(F)c(F)c6F)c6ccc3[nH]6)C=C5)C=C4)cc2)CCC[C@H]1CCSc1nccs1
REMARK SMILES IDX 11 1 10 2 9 3 8 4 7 5 6 6 4 7 5 8 3 9 84 10 87 11 85 12
REMARK SMILES IDX 86 13 2 14 1 15 88 18 89 19 90 20 91 21 92 22 95 23 93 24
REMARK SMILES IDX 94 25 12 26 13 27 14 28 15 29 16 30 17 31 18 32 19 33 20 34
REMARK SMILES IDX 21 35 22 36 83 37 23 38 82 39 24 40 25 41 26 42 76 43 27 44
REMARK SMILES IDX 81 45 75 46 77 47 28 48 80 49 74 50 73 51 29 53 61 54 41 55
REMARK SMILES IDX 60 56 42 57 45 58 59 59 78 60 43 61 44 62 58 64 79 65 46 66
REMARK SMILES IDX 30 67 31 68 39 69 32 70 33 71 37 72 40 73 34 74 35 75 38 76
REMARK SMILES IDX 36 77 62 78 63 79 71 80 64 81 65 82 69 83 72 84 66 85 67 86
REMARK SMILES IDX 70 87 68 88 47 89 48 90 56 91 49 92 50 93 54 94 57 95 51 96
REMARK SMILES IDX 52 97 55 98 53 99
REMARK H PARENT 2 16 2 17 77 52 45 63
REMARK Flexibility Score: inf
ROOT
ATOM      1  C   UNL A   1      38.747  22.519  26.435  1.00  0.00     0.188 C 
ENDROOT
BRANCH   1   2
ATOM      2  C   UNL A   1      37.791  23.101  25.388  1.00  0.00     0.188 C 
BRANCH   2   3
ATOM      3  O   UNL A   1      36.468  23.521  25.707  1.00  0.00    -0.376 OA
BRANCH   3   4
ATOM      4  C   UNL A   1      35.563  22.619  26.322  1.00  0.00     0.202 C 
BRANCH   4   5
ATOM      5  C   UNL A   1      34.090  22.890  25.985  1.00  0.00     0.261 C 
BRANCH   5   6
ATOM      6  O   UNL A   1      33.552  24.129  26.516  1.00  0.00    -0.459 OA
BRANCH   6   7
ATOM      7  C   UNL A   1      32.373  24.536  25.974  1.00  0.00     0.368 C 
ATOM      8  O   UNL A   1      31.308  23.972  26.230  1.00  0.00    -0.245 OA
BRANCH   7   9
ATOM      9  C   UNL A   1      32.457  25.708  24.893  1.00  0.00     0.197 C 
ATOM     10  C   UNL A   1      33.613  26.581  25.421  1.00  0.00     0.081 C 
ATOM     11  C   UNL A   1      31.333  26.805  24.778  1.00  0.00     0.063 C 
ATOM     12  C   UNL A   1      32.947  27.442  26.503  1.00  0.00     0.008 C 
ATOM     13  C   UNL A   1      31.483  27.596  26.093  1.00  0.00     0.011 C 
BRANCH   9  14
ATOM     14  N   UNL A   1      32.684  25.163  23.526  1.00  0.00    -0.334 N 
ATOM     15  C   UNL A   1      34.053  24.919  23.101  1.00  0.00     0.331 C 
ATOM     16  H   UNL A   1      32.186  24.275  23.469  1.00  0.00     0.347 HD
ATOM     17  H   UNL A   1      32.354  25.900  22.902  1.00  0.00     0.347 HD
ENDBRANCH   9  14
BRANCH  11  18
ATOM     18  C   UNL A   1      31.458  27.866  23.611  1.00  0.00     0.022 C 
BRANCH  18  19
ATOM     19  C   UNL A   1      30.419  28.995  23.519  1.00  0.00     0.078 C 
BRANCH  19  20
ATOM     20  S   UNL A   1      28.742  28.385  23.079  1.00  0.00    -0.096 SA
BRANCH  20  21
ATOM     21  C   UNL A   1      28.194  29.913  22.443  1.00  0.00     0.149 A 
ATOM     22  N   UNL A   1      28.168  30.110  21.146  1.00  0.00    -0.238 NA
ATOM     23  S   UNL A   1      28.033  31.299  23.436  1.00  0.00    -0.116 S 
ATOM     24  C   UNL A   1      28.200  31.462  20.911  1.00  0.00     0.124 A 
ATOM     25  C   UNL A   1      28.186  32.260  22.037  1.00  0.00     0.087 A 
ENDBRANCH  20  21
ENDBRANCH  19  20
ENDBRANCH  18  19
ENDBRANCH  11  18
ENDBRANCH   7   9
ENDBRANCH   6   7
ENDBRANCH   5   6
ENDBRANCH   4   5
ENDBRANCH   3   4
ENDBRANCH   2   3
ENDBRANCH   1   2
BRANCH   1  26
ATOM     26  O   UNL A   1      40.090  22.332  26.038  1.00  0.00    -0.377 OA
BRANCH  26  27
ATOM     27  C   UNL A   1      40.927  21.438  26.754  1.00  0.00     0.188 C 
BRANCH  27  28
ATOM     28  C   UNL A   1      40.958  19.965  26.346  1.00  0.00     0.188 C 
BRANCH  28  29
ATOM     29  O   UNL A   1      42.118  19.321  26.880  1.00  0.00    -0.376 OA
BRANCH  29  30
ATOM     30  C   UNL A   1      42.559  18.160  26.174  1.00  0.00     0.202 C 
BRANCH  30  31
ATOM     31  C   UNL A   1      44.027  18.252  25.721  1.00  0.00     0.261 C 
BRANCH  31  32
ATOM     32  O   UNL A   1      44.187  18.845  24.424  1.00  0.00    -0.460 OA
BRANCH  32  33
ATOM     33  C   UNL A   1      45.213  19.713  24.346  1.00  0.00     0.338 C 
ATOM     34  O   UNL A   1      46.279  19.537  23.772  1.00  0.00    -0.246 OA
BRANCH  33  35
ATOM     35  C   UNL A   1      44.815  21.011  24.905  1.00  0.00     0.060 A 
ATOM     36  C   UNL A   1      44.656  22.068  24.004  1.00  0.00     0.016 A 
ATOM     37  C   UNL A   1      44.696  21.214  26.283  1.00  0.00     0.016 A 
ATOM     38  C   UNL A   1      44.465  23.357  24.481  1.00  0.00     0.010 A 
ATOM     39  C   UNL A   1      44.517  22.513  26.762  1.00  0.00     0.010 A 
ATOM     40  C   UNL A   1      44.461  23.592  25.861  1.00  0.00    -0.014 A 
BRANCH  40  41
ATOM     41  C   UNL A   1      44.635  24.982  26.337  1.00  0.00     0.031 A 
ATOM     42  C   UNL A   1      46.005  25.598  26.250  1.00  0.00     0.074 A 
ATOM     43  C   UNL A   1      43.584  25.704  26.756  1.00  0.00     0.049 A 
ATOM     44  N   UNL A   1      46.405  26.794  26.595  1.00  0.00    -0.248 NA
ATOM     45  C   UNL A   1      47.070  24.747  25.690  1.00  0.00     0.031 C 
ATOM     46  C   UNL A   1      42.205  25.226  26.818  1.00  0.00     0.029 A 
ATOM     47  N   UNL A   1      43.517  26.996  27.206  1.00  0.00    -0.354 N 
ATOM     48  C   UNL A   1      47.763  26.836  26.301  1.00  0.00     0.074 A 
ATOM     49  C   UNL A   1      48.128  25.538  25.780  1.00  0.00     0.031 C 
ATOM     50  C   UNL A   1      41.425  26.214  27.290  1.00  0.00     0.029 A 
ATOM     51  C   UNL A   1      42.258  27.376  27.595  1.00  0.00     0.049 A 
ATOM     52  H   UNL A   1      44.298  27.596  27.245  1.00  0.00     0.167 HD
ATOM     53  C   UNL A   1      48.624  27.870  26.447  1.00  0.00     0.037 A 
ATOM     54  C   UNL A   1      41.836  28.524  28.158  1.00  0.00     0.037 A 
ATOM     55  C   UNL A   1      48.249  29.157  26.970  1.00  0.00     0.049 A 
ATOM     56  C   UNL A   1      42.834  29.631  28.393  1.00  0.00     0.074 A 
ATOM     57  C   UNL A   1      49.038  30.278  27.156  1.00  0.00     0.029 A 
ATOM     58  N   UNL A   1      46.973  29.489  27.404  1.00  0.00    -0.354 N 
ATOM     59  N   UNL A   1      44.112  29.672  28.100  1.00  0.00    -0.248 NA
ATOM     60  C   UNL A   1      42.328  30.851  29.036  1.00  0.00     0.031 C 
ATOM     61  C   UNL A   1      48.255  31.265  27.762  1.00  0.00     0.029 A 
ATOM     62  C   UNL A   1      46.960  30.787  27.887  1.00  0.00     0.049 A 
ATOM     63  H   UNL A   1      46.192  28.890  27.373  1.00  0.00     0.167 HD
ATOM     64  C   UNL A   1      44.555  30.930  28.490  1.00  0.00     0.074 A 
ATOM     65  C   UNL A   1      43.404  31.626  29.028  1.00  0.00     0.031 C 
ATOM     66  C   UNL A   1      45.800  31.464  28.411  1.00  0.00     0.037 A 
BRANCH  53  67
ATOM     67  C   UNL A   1      50.059  27.639  26.071  1.00  0.00     0.064 A 
ATOM     68  C   UNL A   1      50.509  27.752  24.746  1.00  0.00     0.173 A 
ATOM     69  C   UNL A   1      51.005  27.323  27.059  1.00  0.00     0.173 A 
ATOM     70  F   UNL A   1      49.644  28.035  23.761  1.00  0.00    -0.203 F 
ATOM     71  C   UNL A   1      51.845  27.528  24.422  1.00  0.00     0.198 A 
ATOM     72  C   UNL A   1      52.346  27.133  26.734  1.00  0.00     0.198 A 
ATOM     73  F   UNL A   1      50.631  27.203  28.340  1.00  0.00    -0.203 F 
ATOM     74  F   UNL A   1      52.242  27.589  23.143  1.00  0.00    -0.200 F 
ATOM     75  C   UNL A   1      52.764  27.227  25.416  1.00  0.00     0.200 A 
ATOM     76  F   UNL A   1      53.233  26.856  27.700  1.00  0.00    -0.200 F 
ATOM     77  F   UNL A   1      54.051  27.020  25.103  1.00  0.00    -0.200 F 
ENDBRANCH  53  67
BRANCH  54  78
ATOM     78  C   UNL A   1      40.414  28.680  28.557  1.00  0.00     0.064 A 
ATOM     79  C   UNL A   1      39.452  29.156  27.656  1.00  0.00     0.173 A 
ATOM     80  C   UNL A   1      39.989  28.374  29.860  1.00  0.00     0.173 A 
ATOM     81  F   UNL A   1      39.811  29.484  26.406  1.00  0.00    -0.203 F 
ATOM     82  C   UNL A   1      38.127  29.341  28.047  1.00  0.00     0.198 A 
ATOM     83  C   UNL A   1      38.658  28.528  30.240  1.00  0.00     0.198 A 
ATOM     84  F   UNL A   1      40.868  27.916  30.763  1.00  0.00    -0.203 F 
ATOM     85  F   UNL A   1      37.240  29.848  27.179  1.00  0.00    -0.200 F 
ATOM     86  C   UNL A   1      37.730  29.021  29.336  1.00  0.00     0.200 A 
ATOM     87  F   UNL A   1      38.276  28.203  31.483  1.00  0.00    -0.200 F 
ATOM     88  F   UNL A   1      36.455  29.197  29.711  1.00  0.00    -0.200 F 
ENDBRANCH  54  78
BRANCH  66  89
ATOM     89  C   UNL A   1      45.975  32.883  28.873  1.00  0.00     0.064 A 
ATOM     90  C   UNL A   1      46.358  33.193  30.186  1.00  0.00     0.173 A 
ATOM     91  C   UNL A   1      45.799  33.946  27.974  1.00  0.00     0.173 A 
ATOM     92  F   UNL A   1      46.527  32.215  31.089  1.00  0.00    -0.203 F 
ATOM     93  C   UNL A   1      46.527  34.515  30.590  1.00  0.00     0.198 A 
ATOM     94  C   UNL A   1      46.006  35.264  28.371  1.00  0.00     0.198 A 
ATOM     95  F   UNL A   1      45.442  33.706  26.703  1.00  0.00    -0.203 F 
ATOM     96  F   UNL A   1      46.839  34.789  31.864  1.00  0.00    -0.200 F 
ATOM     97  C   UNL A   1      46.359  35.548  29.680  1.00  0.00     0.200 A 
ATOM     98  F   UNL A   1      45.862  36.259  27.484  1.00  0.00    -0.200 F 
ATOM     99  F   UNL A   1      46.533  36.819  30.068  1.00  0.00    -0.200 F 
ENDBRANCH  66  89
ENDBRANCH  40  41
ENDBRANCH  33  35
ENDBRANCH  32  33
ENDBRANCH  31  32
ENDBRANCH  30  31
ENDBRANCH  29  30
ENDBRANCH  28  29
ENDBRANCH  27  28
ENDBRANCH  26  27
ENDBRANCH   1  26
TORSDOF 25
ENDMDL
