MODEL 1
REMARK VINA RESULT:     -11.8      0.000      0.000
REMARK SMILES CC(=O)Nc1ccc(/C=C2/CCc3oc(C(=O)OCCOCCOCCOCCOC(=O)c4ccc(-c5c6nc(c(-c7c(F)c(F)c(F)c(F)c7F)c7ccc([nH]7)c(-c7c(F)c(F)c(F)c(F)c7F)c7nc(c(-c8c(F)c(F)c(F)c(F)c8F)c8ccc5[nH]8)C=C7)C=C6)cc4)c(C)c3C2=O)cc1
REMARK SMILES IDX 24 1 23 2 22 3 21 4 20 5 19 6 18 7 16 8 17 9 15 10 9 11
REMARK SMILES IDX 10 12 11 13 99 14 12 15 98 16 100 17 13 18 96 19 14 20 97 21
REMARK SMILES IDX 8 22 5 23 6 24 102 25 7 26 101 27 4 28 1 29 2 30 3 31 25 33
REMARK SMILES IDX 26 34 27 35 28 36 29 37 30 38 31 39 32 40 33 41 34 42 95 43
REMARK SMILES IDX 35 44 94 45 36 46 37 47 38 48 88 49 39 50 93 51 87 52 89 53
REMARK SMILES IDX 40 54 92 55 86 56 85 57 41 59 73 60 53 61 72 62 54 63 57 64
REMARK SMILES IDX 71 65 90 66 55 67 56 68 70 70 91 71 58 72 42 73 43 74 51 75
REMARK SMILES IDX 44 76 45 77 49 78 52 79 46 80 47 81 50 82 48 83 74 84 75 85
REMARK SMILES IDX 83 86 76 87 77 88 81 89 84 90 78 91 79 92 82 93 80 94 59 95
REMARK SMILES IDX 60 96 68 97 61 98 62 99 66 100 69 101 63 102 64 103 67 104
REMARK SMILES IDX 65 105
REMARK H PARENT 4 32 89 58 57 69
REMARK Flexibility Score: inf
ROOT
ATOM      1  O   UNL A   1      34.768  33.788  27.615  1.00  0.00    -0.377 OA
ENDROOT
BRANCH   1   2
ATOM      2  C   UNL A   1      35.466  32.580  27.924  1.00  0.00     0.188 C 
BRANCH   2   3
ATOM      3  C   UNL A   1      34.776  31.361  28.580  1.00  0.00     0.188 C 
BRANCH   3   4
ATOM      4  O   UNL A   1      34.670  30.230  27.736  1.00  0.00    -0.376 OA
BRANCH   4   5
ATOM      5  C   UNL A   1      33.835  30.267  26.601  1.00  0.00     0.202 C 
BRANCH   5   6
ATOM      6  C   UNL A   1      32.339  30.487  26.850  1.00  0.00     0.261 C 
BRANCH   6   7
ATOM      7  O   UNL A   1      31.457  29.501  26.303  1.00  0.00    -0.457 OA
BRANCH   7   8
ATOM      8  C   UNL A   1      31.534  28.239  26.802  1.00  0.00     0.374 C 
ATOM      9  O   UNL A   1      31.372  27.949  27.985  1.00  0.00    -0.242 OA
BRANCH   8  10
ATOM     10  C   UNL A   1      31.666  27.304  25.709  1.00  0.00     0.215 A 
ATOM     11  C   UNL A   1      33.147  22.951  22.312  1.00  0.00     0.016 C 
ATOM     12  C   UNL A   1      32.534  24.135  22.507  1.00  0.00     0.001 C 
ATOM     13  C   UNL A   1      33.005  25.384  21.766  1.00  0.00     0.048 C 
ATOM     14  C   UNL A   1      31.399  24.385  23.468  1.00  0.00     0.192 C 
ATOM     15  C   UNL A   1      33.500  26.475  22.735  1.00  0.00     0.081 C 
ATOM     16  C   UNL A   1      31.599  25.610  24.226  1.00  0.00     0.067 A 
ATOM     17  O   UNL A   1      30.428  23.655  23.591  1.00  0.00    -0.289 OA
ATOM     18  C   UNL A   1      32.571  26.522  23.883  1.00  0.00     0.116 A 
ATOM     19  C   UNL A   1      30.939  26.164  25.364  1.00  0.00     0.014 A 
ATOM     20  O   UNL A   1      32.632  27.544  24.760  1.00  0.00    -0.453 OA
ATOM     21  C   UNL A   1      29.717  25.627  26.019  1.00  0.00     0.049 C 
BRANCH  11  22
ATOM     22  C   UNL A   1      33.016  21.618  22.937  1.00  0.00    -0.025 A 
ATOM     23  C   UNL A   1      32.713  19.214  24.421  1.00  0.00     0.041 A 
ATOM     24  C   UNL A   1      32.081  19.381  23.187  1.00  0.00     0.027 A 
ATOM     25  C   UNL A   1      33.539  20.232  24.888  1.00  0.00     0.027 A 
ATOM     26  C   UNL A   1      32.202  20.583  22.473  1.00  0.00     0.010 A 
ATOM     27  C   UNL A   1      33.692  21.413  24.151  1.00  0.00     0.010 A 
BRANCH  23  28
ATOM     28  N   UNL A   1      32.518  18.001  25.096  1.00  0.00    -0.326 N 
ATOM     29  C   UNL A   1      34.166  16.564  23.907  1.00  0.00     0.114 C 
ATOM     30  C   UNL A   1      33.001  16.747  24.844  1.00  0.00     0.221 C 
ATOM     31  O   UNL A   1      32.529  15.787  25.455  1.00  0.00    -0.275 OA
ATOM     32  H   UNL A   1      31.932  18.062  25.885  1.00  0.00     0.169 HD
ENDBRANCH  23  28
ENDBRANCH  11  22
ENDBRANCH   8  10
ENDBRANCH   7   8
ENDBRANCH   6   7
ENDBRANCH   5   6
ENDBRANCH   4   5
ENDBRANCH   3   4
ENDBRANCH   2   3
ENDBRANCH   1   2
BRANCH   1  33
ATOM     33  C   UNL A   1      34.763  34.844  28.559  1.00  0.00     0.188 C 
BRANCH  33  34
ATOM     34  C   UNL A   1      33.666  34.769  29.651  1.00  0.00     0.188 C 
BRANCH  34  35
ATOM     35  O   UNL A   1      34.073  35.051  30.977  1.00  0.00    -0.376 OA
BRANCH  35  36
ATOM     36  C   UNL A   1      34.386  34.113  31.992  1.00  0.00     0.202 C 
BRANCH  36  37
ATOM     37  C   UNL A   1      34.833  32.667  31.785  1.00  0.00     0.261 C 
BRANCH  37  38
ATOM     38  O   UNL A   1      35.488  32.092  32.882  1.00  0.00    -0.460 OA
BRANCH  38  39
ATOM     39  C   UNL A   1      36.809  31.949  32.720  1.00  0.00     0.338 C 
ATOM     40  O   UNL A   1      37.690  32.242  33.520  1.00  0.00    -0.246 OA
BRANCH  39  41
ATOM     41  C   UNL A   1      37.038  31.413  31.369  1.00  0.00     0.060 A 
ATOM     42  C   UNL A   1      36.833  30.041  31.281  1.00  0.00     0.016 A 
ATOM     43  C   UNL A   1      37.965  32.103  30.572  1.00  0.00     0.016 A 
ATOM     44  C   UNL A   1      37.884  29.314  30.802  1.00  0.00     0.010 A 
ATOM     45  C   UNL A   1      39.025  31.381  30.112  1.00  0.00     0.010 A 
ATOM     46  C   UNL A   1      39.015  30.016  30.377  1.00  0.00    -0.014 A 
BRANCH  46  47
ATOM     47  C   UNL A   1      40.240  29.276  30.268  1.00  0.00     0.031 A 
ATOM     48  C   UNL A   1      40.904  29.109  31.566  1.00  0.00     0.074 A 
ATOM     49  C   UNL A   1      40.641  28.766  29.091  1.00  0.00     0.049 A 
ATOM     50  N   UNL A   1      42.007  29.647  31.962  1.00  0.00    -0.248 NA
ATOM     51  C   UNL A   1      40.132  28.437  32.621  1.00  0.00     0.031 C 
ATOM     52  C   UNL A   1      39.906  28.653  27.827  1.00  0.00     0.029 A 
ATOM     53  N   UNL A   1      41.805  28.122  28.830  1.00  0.00    -0.354 N 
ATOM     54  C   UNL A   1      42.159  29.225  33.274  1.00  0.00     0.074 A 
ATOM     55  C   UNL A   1      40.893  28.682  33.685  1.00  0.00     0.031 C 
ATOM     56  C   UNL A   1      40.547  27.774  27.022  1.00  0.00     0.029 A 
ATOM     57  C   UNL A   1      41.784  27.369  27.665  1.00  0.00     0.049 A 
ATOM     58  H   UNL A   1      42.594  28.183  29.416  1.00  0.00     0.167 HD
ATOM     59  C   UNL A   1      43.390  29.110  33.834  1.00  0.00     0.037 A 
ATOM     60  C   UNL A   1      42.671  26.380  27.400  1.00  0.00     0.037 A 
ATOM     61  C   UNL A   1      44.372  29.868  33.104  1.00  0.00     0.049 A 
ATOM     62  C   UNL A   1      43.863  26.620  28.272  1.00  0.00     0.074 A 
ATOM     63  C   UNL A   1      44.523  31.212  32.818  1.00  0.00     0.029 A 
ATOM     64  N   UNL A   1      45.175  29.205  32.206  1.00  0.00    -0.354 N 
ATOM     65  N   UNL A   1      44.658  27.650  28.139  1.00  0.00    -0.248 NA
ATOM     66  C   UNL A   1      43.862  26.006  29.595  1.00  0.00     0.031 C 
ATOM     67  C   UNL A   1      45.010  31.255  31.478  1.00  0.00     0.029 A 
ATOM     68  C   UNL A   1      45.179  29.939  31.045  1.00  0.00     0.049 A 
ATOM     69  H   UNL A   1      45.658  28.362  32.366  1.00  0.00     0.167 HD
ATOM     70  C   UNL A   1      44.945  28.057  29.437  1.00  0.00     0.074 A 
ATOM     71  C   UNL A   1      44.466  26.973  30.292  1.00  0.00     0.031 C 
ATOM     72  C   UNL A   1      45.271  29.351  29.728  1.00  0.00     0.037 A 
BRANCH  59  73
ATOM     73  C   UNL A   1      43.746  28.027  34.815  1.00  0.00     0.064 A 
ATOM     74  C   UNL A   1      44.263  28.390  36.070  1.00  0.00     0.173 A 
ATOM     75  C   UNL A   1      43.859  26.657  34.480  1.00  0.00     0.173 A 
ATOM     76  F   UNL A   1      44.224  29.667  36.480  1.00  0.00    -0.203 F 
ATOM     77  C   UNL A   1      44.910  27.467  36.892  1.00  0.00     0.198 A 
ATOM     78  C   UNL A   1      44.449  25.727  35.330  1.00  0.00     0.198 A 
ATOM     79  F   UNL A   1      43.515  26.176  33.280  1.00  0.00    -0.203 F 
ATOM     80  F   UNL A   1      45.499  27.883  38.020  1.00  0.00    -0.200 F 
ATOM     81  C   UNL A   1      45.007  26.137  36.520  1.00  0.00     0.200 A 
ATOM     82  F   UNL A   1      44.543  24.447  34.941  1.00  0.00    -0.200 F 
ATOM     83  F   UNL A   1      45.677  25.263  37.280  1.00  0.00    -0.200 F 
ENDBRANCH  59  73
BRANCH  60  84
ATOM     84  C   UNL A   1      42.343  25.061  26.807  1.00  0.00     0.064 A 
ATOM     85  C   UNL A   1      43.019  24.582  25.675  1.00  0.00     0.173 A 
ATOM     86  C   UNL A   1      41.521  24.134  27.482  1.00  0.00     0.173 A 
ATOM     87  F   UNL A   1      43.868  25.379  25.012  1.00  0.00    -0.203 F 
ATOM     88  C   UNL A   1      42.876  23.256  25.244  1.00  0.00     0.198 A 
ATOM     89  C   UNL A   1      41.371  22.817  27.045  1.00  0.00     0.198 A 
ATOM     90  F   UNL A   1      40.913  24.457  28.633  1.00  0.00    -0.203 F 
ATOM     91  F   UNL A   1      43.574  22.819  24.187  1.00  0.00    -0.200 F 
ATOM     92  C   UNL A   1      42.055  22.376  25.931  1.00  0.00     0.200 A 
ATOM     93  F   UNL A   1      40.605  21.969  27.745  1.00  0.00    -0.200 F 
ATOM     94  F   UNL A   1      41.954  21.097  25.545  1.00  0.00    -0.200 F 
ENDBRANCH  60  84
BRANCH  72  95
ATOM     95  C   UNL A   1      45.495  30.302  28.583  1.00  0.00     0.064 A 
ATOM     96  C   UNL A   1      44.464  31.040  27.974  1.00  0.00     0.173 A 
ATOM     97  C   UNL A   1      46.810  30.613  28.214  1.00  0.00     0.173 A 
ATOM     98  F   UNL A   1      43.190  30.880  28.353  1.00  0.00    -0.203 F 
ATOM     99  C   UNL A   1      44.737  32.011  27.012  1.00  0.00     0.198 A 
ATOM    100  C   UNL A   1      47.083  31.610  27.281  1.00  0.00     0.198 A 
ATOM    101  F   UNL A   1      47.840  29.989  28.808  1.00  0.00    -0.203 F 
ATOM    102  F   UNL A   1      43.733  32.696  26.445  1.00  0.00    -0.200 F 
ATOM    103  C   UNL A   1      46.047  32.302  26.673  1.00  0.00     0.200 A 
ATOM    104  F   UNL A   1      48.354  31.926  26.996  1.00  0.00    -0.200 F 
ATOM    105  F   UNL A   1      46.314  33.269  25.783  1.00  0.00    -0.200 F 
ENDBRANCH  72  95
ENDBRANCH  46  47
ENDBRANCH  39  41
ENDBRANCH  38  39
ENDBRANCH  37  38
ENDBRANCH  36  37
ENDBRANCH  35  36
ENDBRANCH  34  35
ENDBRANCH  33  34
ENDBRANCH   1  33
TORSDOF 22
ENDMDL
MODEL 2
REMARK VINA RESULT:     -11.0      1.583      2.411
REMARK SMILES CC(=O)Nc1ccc(/C=C2/CCc3oc(C(=O)OCCOCCOCCOCCOC(=O)c4ccc(-c5c6nc(c(-c7c(F)c(F)c(F)c(F)c7F)c7ccc([nH]7)c(-c7c(F)c(F)c(F)c(F)c7F)c7nc(c(-c8c(F)c(F)c(F)c(F)c8F)c8ccc5[nH]8)C=C7)C=C6)cc4)c(C)c3C2=O)cc1
REMARK SMILES IDX 24 1 23 2 22 3 21 4 20 5 19 6 18 7 16 8 17 9 15 10 9 11
REMARK SMILES IDX 10 12 11 13 99 14 12 15 98 16 100 17 13 18 96 19 14 20 97 21
REMARK SMILES IDX 8 22 5 23 6 24 102 25 7 26 101 27 4 28 1 29 2 30 3 31 25 33
REMARK SMILES IDX 26 34 27 35 28 36 29 37 30 38 31 39 32 40 33 41 34 42 95 43
REMARK SMILES IDX 35 44 94 45 36 46 37 47 38 48 88 49 39 50 93 51 87 52 89 53
REMARK SMILES IDX 40 54 92 55 86 56 85 57 41 59 73 60 53 61 72 62 54 63 57 64
REMARK SMILES IDX 71 65 90 66 55 67 56 68 70 70 91 71 58 72 42 73 43 74 51 75
REMARK SMILES IDX 44 76 45 77 49 78 52 79 46 80 47 81 50 82 48 83 74 84 75 85
REMARK SMILES IDX 83 86 76 87 77 88 81 89 84 90 78 91 79 92 82 93 80 94 59 95
REMARK SMILES IDX 60 96 68 97 61 98 62 99 66 100 69 101 63 102 64 103 67 104
REMARK SMILES IDX 65 105
REMARK H PARENT 4 32 89 58 57 69
REMARK Flexibility Score: inf
ROOT
ATOM      1  O   UNL A   1      33.498  31.154  26.920  1.00  0.00    -0.377 OA
ENDROOT
BRANCH   1   2
ATOM      2  C   UNL A   1      32.076  31.031  26.867  1.00  0.00     0.188 C 
BRANCH   2   3
ATOM      3  C   UNL A   1      31.354  30.109  25.855  1.00  0.00     0.188 C 
BRANCH   3   4
ATOM      4  O   UNL A   1      30.933  30.762  24.672  1.00  0.00    -0.376 OA
BRANCH   4   5
ATOM      5  C   UNL A   1      29.926  30.194  23.867  1.00  0.00     0.202 C 
BRANCH   5   6
ATOM      6  C   UNL A   1      30.362  29.631  22.510  1.00  0.00     0.261 C 
BRANCH   6   7
ATOM      7  O   UNL A   1      29.789  28.372  22.136  1.00  0.00    -0.457 OA
BRANCH   7   8
ATOM      8  C   UNL A   1      29.543  27.473  23.126  1.00  0.00     0.374 C 
ATOM      9  O   UNL A   1      28.421  27.160  23.517  1.00  0.00    -0.242 OA
BRANCH   8  10
ATOM     10  C   UNL A   1      30.784  26.842  23.511  1.00  0.00     0.215 A 
ATOM     11  C   UNL A   1      34.776  23.317  25.592  1.00  0.00     0.016 C 
ATOM     12  C   UNL A   1      34.414  24.500  25.056  1.00  0.00     0.001 C 
ATOM     13  C   UNL A   1      34.591  25.796  25.843  1.00  0.00     0.048 C 
ATOM     14  C   UNL A   1      33.774  24.689  23.703  1.00  0.00     0.192 C 
ATOM     15  C   UNL A   1      33.244  26.498  26.104  1.00  0.00     0.081 C 
ATOM     16  C   UNL A   1      32.662  25.624  23.763  1.00  0.00     0.067 A 
ATOM     17  O   UNL A   1      34.145  24.131  22.682  1.00  0.00    -0.289 OA
ATOM     18  C   UNL A   1      32.436  26.409  24.869  1.00  0.00     0.116 A 
ATOM     19  C   UNL A   1      31.639  25.973  22.831  1.00  0.00     0.014 A 
ATOM     20  O   UNL A   1      31.315  27.146  24.743  1.00  0.00    -0.453 OA
ATOM     21  C   UNL A   1      31.535  25.507  21.423  1.00  0.00     0.049 C 
BRANCH  11  22
ATOM     22  C   UNL A   1      34.636  21.913  25.155  1.00  0.00    -0.025 A 
ATOM     23  C   UNL A   1      34.540  19.131  24.582  1.00  0.00     0.041 A 
ATOM     24  C   UNL A   1      33.399  19.928  24.467  1.00  0.00     0.027 A 
ATOM     25  C   UNL A   1      35.741  19.737  24.935  1.00  0.00     0.027 A 
ATOM     26  C   UNL A   1      33.440  21.294  24.786  1.00  0.00     0.010 A 
ATOM     27  C   UNL A   1      35.787  21.109  25.210  1.00  0.00     0.010 A 
BRANCH  23  28
ATOM     28  N   UNL A   1      34.416  17.767  24.283  1.00  0.00    -0.326 N 
ATOM     29  C   UNL A   1      32.844  17.878  22.357  1.00  0.00     0.114 C 
ATOM     30  C   UNL A   1      33.582  17.110  23.421  1.00  0.00     0.221 C 
ATOM     31  O   UNL A   1      33.510  15.881  23.474  1.00  0.00    -0.275 OA
ATOM     32  H   UNL A   1      35.034  17.182  24.779  1.00  0.00     0.169 HD
ENDBRANCH  23  28
ENDBRANCH  11  22
ENDBRANCH   8  10
ENDBRANCH   7   8
ENDBRANCH   6   7
ENDBRANCH   5   6
ENDBRANCH   4   5
ENDBRANCH   3   4
ENDBRANCH   2   3
ENDBRANCH   1   2
BRANCH   1  33
ATOM     33  C   UNL A   1      34.108  31.612  28.114  1.00  0.00     0.188 C 
BRANCH  33  34
ATOM     34  C   UNL A   1      34.369  33.136  28.198  1.00  0.00     0.188 C 
BRANCH  34  35
ATOM     35  O   UNL A   1      33.816  33.812  29.311  1.00  0.00    -0.376 OA
BRANCH  35  36
ATOM     36  C   UNL A   1      34.352  33.882  30.622  1.00  0.00     0.202 C 
BRANCH  36  37
ATOM     37  C   UNL A   1      34.746  32.699  31.505  1.00  0.00     0.261 C 
BRANCH  37  38
ATOM     38  O   UNL A   1      36.085  32.303  31.394  1.00  0.00    -0.460 OA
BRANCH  38  39
ATOM     39  C   UNL A   1      36.257  30.986  31.224  1.00  0.00     0.338 C 
ATOM     40  O   UNL A   1      35.983  30.094  32.018  1.00  0.00    -0.246 OA
BRANCH  39  41
ATOM     41  C   UNL A   1      36.890  30.784  29.911  1.00  0.00     0.060 A 
ATOM     42  C   UNL A   1      36.864  29.460  29.488  1.00  0.00     0.016 A 
ATOM     43  C   UNL A   1      37.916  31.678  29.566  1.00  0.00     0.016 A 
ATOM     44  C   UNL A   1      38.075  28.910  29.184  1.00  0.00     0.010 A 
ATOM     45  C   UNL A   1      39.130  31.129  29.284  1.00  0.00     0.010 A 
ATOM     46  C   UNL A   1      39.197  29.741  29.249  1.00  0.00    -0.014 A 
BRANCH  46  47
ATOM     47  C   UNL A   1      40.478  29.102  29.338  1.00  0.00     0.031 A 
ATOM     48  C   UNL A   1      40.865  28.829  30.727  1.00  0.00     0.074 A 
ATOM     49  C   UNL A   1      41.163  28.761  28.233  1.00  0.00     0.049 A 
ATOM     50  N   UNL A   1      41.807  29.388  31.407  1.00  0.00    -0.248 NA
ATOM     51  C   UNL A   1      39.952  27.988  31.515  1.00  0.00     0.031 C 
ATOM     52  C   UNL A   1      40.724  28.748  26.834  1.00  0.00     0.029 A 
ATOM     53  N   UNL A   1      42.409  28.230  28.171  1.00  0.00    -0.354 N 
ATOM     54  C   UNL A   1      41.716  28.827  32.672  1.00  0.00     0.074 A 
ATOM     55  C   UNL A   1      40.446  28.157  32.739  1.00  0.00     0.031 C 
ATOM     56  C   UNL A   1      41.598  28.014  26.106  1.00  0.00     0.029 A 
ATOM     57  C   UNL A   1      42.702  27.619  26.961  1.00  0.00     0.049 A 
ATOM     58  H   UNL A   1      43.048  28.275  28.919  1.00  0.00     0.167 HD
ATOM     59  C   UNL A   1      42.807  28.729  33.474  1.00  0.00     0.037 A 
ATOM     60  C   UNL A   1      43.711  26.729  26.800  1.00  0.00     0.037 A 
ATOM     61  C   UNL A   1      43.848  29.632  33.058  1.00  0.00     0.049 A 
ATOM     62  C   UNL A   1      44.666  26.944  27.932  1.00  0.00     0.074 A 
ATOM     63  C   UNL A   1      43.934  31.007  32.948  1.00  0.00     0.029 A 
ATOM     64  N   UNL A   1      44.879  29.133  32.296  1.00  0.00    -0.354 N 
ATOM     65  N   UNL A   1      45.375  28.033  28.080  1.00  0.00    -0.248 NA
ATOM     66  C   UNL A   1      44.441  26.181  29.155  1.00  0.00     0.031 C 
ATOM     67  C   UNL A   1      44.687  31.238  31.758  1.00  0.00     0.029 A 
ATOM     68  C   UNL A   1      45.061  29.996  31.244  1.00  0.00     0.049 A 
ATOM     69  H   UNL A   1      45.391  28.311  32.473  1.00  0.00     0.167 HD
ATOM     70  C   UNL A   1      45.343  28.303  29.444  1.00  0.00     0.074 A 
ATOM     71  C   UNL A   1      44.794  27.098  30.060  1.00  0.00     0.031 C 
ATOM     72  C   UNL A   1      45.482  29.574  29.927  1.00  0.00     0.037 A 
BRANCH  59  73
ATOM     73  C   UNL A   1      43.044  27.565  34.396  1.00  0.00     0.064 A 
ATOM     74  C   UNL A   1      43.058  27.789  35.783  1.00  0.00     0.173 A 
ATOM     75  C   UNL A   1      43.526  26.303  33.975  1.00  0.00     0.173 A 
ATOM     76  F   UNL A   1      42.640  28.959  36.290  1.00  0.00    -0.203 F 
ATOM     77  C   UNL A   1      43.583  26.851  36.673  1.00  0.00     0.198 A 
ATOM     78  C   UNL A   1      43.991  25.346  34.871  1.00  0.00     0.198 A 
ATOM     79  F   UNL A   1      43.678  25.982  32.686  1.00  0.00    -0.203 F 
ATOM     80  F   UNL A   1      43.694  27.159  37.971  1.00  0.00    -0.200 F 
ATOM     81  C   UNL A   1      44.054  25.633  36.216  1.00  0.00     0.200 A 
ATOM     82  F   UNL A   1      44.454  24.178  34.402  1.00  0.00    -0.200 F 
ATOM     83  F   UNL A   1      44.611  24.756  37.060  1.00  0.00    -0.200 F 
ENDBRANCH  59  73
BRANCH  60  84
ATOM     84  C   UNL A   1      43.636  25.469  26.021  1.00  0.00     0.064 A 
ATOM     85  C   UNL A   1      44.688  25.064  25.187  1.00  0.00     0.173 A 
ATOM     86  C   UNL A   1      42.627  24.513  26.262  1.00  0.00     0.173 A 
ATOM     87  F   UNL A   1      45.719  25.889  24.955  1.00  0.00    -0.203 F 
ATOM     88  C   UNL A   1      44.725  23.781  24.626  1.00  0.00     0.198 A 
ATOM     89  C   UNL A   1      42.659  23.239  25.694  1.00  0.00     0.198 A 
ATOM     90  F   UNL A   1      41.632  24.759  27.126  1.00  0.00    -0.203 F 
ATOM     91  F   UNL A   1      45.769  23.411  23.872  1.00  0.00    -0.200 F 
ATOM     92  C   UNL A   1      43.712  22.870  24.882  1.00  0.00     0.200 A 
ATOM     93  F   UNL A   1      41.692  22.358  25.986  1.00  0.00    -0.200 F 
ATOM     94  F   UNL A   1      43.770  21.628  24.383  1.00  0.00    -0.200 F 
ENDBRANCH  60  84
BRANCH  72  95
ATOM     95  C   UNL A   1      45.856  30.664  28.960  1.00  0.00     0.064 A 
ATOM     96  C   UNL A   1      47.180  30.931  28.566  1.00  0.00     0.173 A 
ATOM     97  C   UNL A   1      44.836  31.336  28.274  1.00  0.00     0.173 A 
ATOM     98  F   UNL A   1      48.204  30.248  29.094  1.00  0.00    -0.203 F 
ATOM     99  C   UNL A   1      47.467  31.856  27.564  1.00  0.00     0.198 A 
ATOM    100  C   UNL A   1      45.123  32.232  27.248  1.00  0.00     0.198 A 
ATOM    101  F   UNL A   1      43.551  31.076  28.560  1.00  0.00    -0.203 F 
ATOM    102  F   UNL A   1      48.739  32.093  27.211  1.00  0.00    -0.200 F 
ATOM    103  C   UNL A   1      46.437  32.500  26.899  1.00  0.00     0.200 A 
ATOM    104  F   UNL A   1      44.122  32.812  26.571  1.00  0.00    -0.200 F 
ATOM    105  F   UNL A   1      46.709  33.354  25.902  1.00  0.00    -0.200 F 
ENDBRANCH  72  95
ENDBRANCH  46  47
ENDBRANCH  39  41
ENDBRANCH  38  39
ENDBRANCH  37  38
ENDBRANCH  36  37
ENDBRANCH  35  36
ENDBRANCH  34  35
ENDBRANCH  33  34
ENDBRANCH   1  33
TORSDOF 22
ENDMDL
MODEL 3
REMARK VINA RESULT:     -10.0      3.075      7.221
REMARK SMILES CC(=O)Nc1ccc(/C=C2/CCc3oc(C(=O)OCCOCCOCCOCCOC(=O)c4ccc(-c5c6nc(c(-c7c(F)c(F)c(F)c(F)c7F)c7ccc([nH]7)c(-c7c(F)c(F)c(F)c(F)c7F)c7nc(c(-c8c(F)c(F)c(F)c(F)c8F)c8ccc5[nH]8)C=C7)C=C6)cc4)c(C)c3C2=O)cc1
REMARK SMILES IDX 24 1 23 2 22 3 21 4 20 5 19 6 18 7 16 8 17 9 15 10 9 11
REMARK SMILES IDX 10 12 11 13 99 14 12 15 98 16 100 17 13 18 96 19 14 20 97 21
REMARK SMILES IDX 8 22 5 23 6 24 102 25 7 26 101 27 4 28 1 29 2 30 3 31 25 33
REMARK SMILES IDX 26 34 27 35 28 36 29 37 30 38 31 39 32 40 33 41 34 42 95 43
REMARK SMILES IDX 35 44 94 45 36 46 37 47 38 48 88 49 39 50 93 51 87 52 89 53
REMARK SMILES IDX 40 54 92 55 86 56 85 57 41 59 73 60 53 61 72 62 54 63 57 64
REMARK SMILES IDX 71 65 90 66 55 67 56 68 70 70 91 71 58 72 42 73 43 74 51 75
REMARK SMILES IDX 44 76 45 77 49 78 52 79 46 80 47 81 50 82 48 83 74 84 75 85
REMARK SMILES IDX 83 86 76 87 77 88 81 89 84 90 78 91 79 92 82 93 80 94 59 95
REMARK SMILES IDX 60 96 68 97 61 98 62 99 66 100 69 101 63 102 64 103 67 104
REMARK SMILES IDX 65 105
REMARK H PARENT 4 32 89 58 57 69
REMARK Flexibility Score: inf
ROOT
ATOM      1  O   UNL A   1      36.891  32.827  29.666  1.00  0.00    -0.377 OA
ENDROOT
BRANCH   1   2
ATOM      2  C   UNL A   1      37.292  31.567  30.207  1.00  0.00     0.188 C 
BRANCH   2   3
ATOM      3  C   UNL A   1      36.356  30.335  30.238  1.00  0.00     0.188 C 
BRANCH   3   4
ATOM      4  O   UNL A   1      36.773  29.268  29.407  1.00  0.00    -0.376 OA
BRANCH   4   5
ATOM      5  C   UNL A   1      36.914  29.462  28.018  1.00  0.00     0.202 C 
BRANCH   5   6
ATOM      6  C   UNL A   1      35.661  29.901  27.252  1.00  0.00     0.261 C 
BRANCH   6   7
ATOM      7  O   UNL A   1      34.594  28.948  27.189  1.00  0.00    -0.457 OA
BRANCH   7   8
ATOM      8  C   UNL A   1      33.488  29.286  26.476  1.00  0.00     0.374 C 
ATOM      9  O   UNL A   1      32.952  30.391  26.507  1.00  0.00    -0.242 OA
BRANCH   8  10
ATOM     10  C   UNL A   1      33.160  28.208  25.571  1.00  0.00     0.215 A 
ATOM     11  C   UNL A   1      33.092  23.342  22.572  1.00  0.00     0.016 C 
ATOM     12  C   UNL A   1      32.631  24.586  22.805  1.00  0.00     0.001 C 
ATOM     13  C   UNL A   1      32.801  25.686  21.759  1.00  0.00     0.048 C 
ATOM     14  C   UNL A   1      31.970  25.051  24.078  1.00  0.00     0.192 C 
ATOM     15  C   UNL A   1      33.661  26.851  22.285  1.00  0.00     0.081 C 
ATOM     16  C   UNL A   1      32.479  26.345  24.505  1.00  0.00     0.067 A 
ATOM     17  O   UNL A   1      31.109  24.423  24.676  1.00  0.00    -0.289 OA
ATOM     18  C   UNL A   1      33.258  27.123  23.681  1.00  0.00     0.116 A 
ATOM     19  C   UNL A   1      32.331  27.094  25.711  1.00  0.00     0.014 A 
ATOM     20  O   UNL A   1      33.681  28.243  24.300  1.00  0.00    -0.453 OA
ATOM     21  C   UNL A   1      31.452  26.747  26.859  1.00  0.00     0.049 C 
BRANCH  11  22
ATOM     22  C   UNL A   1      33.187  22.118  23.394  1.00  0.00    -0.025 A 
ATOM     23  C   UNL A   1      33.378  19.597  24.691  1.00  0.00     0.041 A 
ATOM     24  C   UNL A   1      34.159  20.678  25.104  1.00  0.00     0.027 A 
ATOM     25  C   UNL A   1      32.464  19.792  23.661  1.00  0.00     0.027 A 
ATOM     26  C   UNL A   1      34.090  21.912  24.439  1.00  0.00     0.010 A 
ATOM     27  C   UNL A   1      32.367  21.037  23.027  1.00  0.00     0.010 A 
BRANCH  23  28
ATOM     28  N   UNL A   1      33.526  18.384  25.379  1.00  0.00    -0.326 N 
ATOM     29  C   UNL A   1      34.039  16.858  23.481  1.00  0.00     0.114 C 
ATOM     30  C   UNL A   1      33.670  17.105  24.920  1.00  0.00     0.221 C 
ATOM     31  O   UNL A   1      33.577  16.167  25.714  1.00  0.00    -0.275 OA
ATOM     32  H   UNL A   1      33.525  18.468  26.360  1.00  0.00     0.169 HD
ENDBRANCH  23  28
ENDBRANCH  11  22
ENDBRANCH   8  10
ENDBRANCH   7   8
ENDBRANCH   6   7
ENDBRANCH   5   6
ENDBRANCH   4   5
ENDBRANCH   3   4
ENDBRANCH   2   3
ENDBRANCH   1   2
BRANCH   1  33
ATOM     33  C   UNL A   1      37.781  33.926  29.742  1.00  0.00     0.188 C 
BRANCH  33  34
ATOM     34  C   UNL A   1      39.236  33.590  30.149  1.00  0.00     0.188 C 
BRANCH  34  35
ATOM     35  O   UNL A   1      40.199  34.610  29.955  1.00  0.00    -0.376 OA
BRANCH  35  36
ATOM     36  C   UNL A   1      40.472  35.310  28.753  1.00  0.00     0.202 C 
BRANCH  36  37
ATOM     37  C   UNL A   1      41.783  35.999  28.381  1.00  0.00     0.261 C 
BRANCH  37  38
ATOM     38  O   UNL A   1      42.777  35.145  27.885  1.00  0.00    -0.460 OA
BRANCH  38  39
ATOM     39  C   UNL A   1      43.706  34.802  28.785  1.00  0.00     0.338 C 
ATOM     40  O   UNL A   1      43.721  35.079  29.978  1.00  0.00    -0.246 OA
BRANCH  39  41
ATOM     41  C   UNL A   1      44.762  34.061  28.077  1.00  0.00     0.060 A 
ATOM     42  C   UNL A   1      44.268  33.186  27.116  1.00  0.00     0.016 A 
ATOM     43  C   UNL A   1      45.948  33.826  28.790  1.00  0.00     0.016 A 
ATOM     44  C   UNL A   1      44.651  31.883  27.247  1.00  0.00     0.010 A 
ATOM     45  C   UNL A   1      46.318  32.523  28.938  1.00  0.00     0.010 A 
ATOM     46  C   UNL A   1      45.553  31.575  28.269  1.00  0.00    -0.014 A 
BRANCH  46  47
ATOM     47  C   UNL A   1      45.639  30.200  28.671  1.00  0.00     0.031 A 
ATOM     48  C   UNL A   1      46.684  29.474  27.939  1.00  0.00     0.074 A 
ATOM     49  C   UNL A   1      44.867  29.715  29.656  1.00  0.00     0.049 A 
ATOM     50  N   UNL A   1      46.529  28.545  27.058  1.00  0.00    -0.248 NA
ATOM     51  C   UNL A   1      48.053  29.999  28.045  1.00  0.00     0.031 C 
ATOM     52  C   UNL A   1      44.012  30.432  30.608  1.00  0.00     0.029 A 
ATOM     53  N   UNL A   1      44.786  28.428  30.078  1.00  0.00    -0.354 N 
ATOM     54  C   UNL A   1      47.812  28.242  26.628  1.00  0.00     0.074 A 
ATOM     55  C   UNL A   1      48.667  29.299  27.095  1.00  0.00     0.031 C 
ATOM     56  C   UNL A   1      43.700  29.603  31.631  1.00  0.00     0.029 A 
ATOM     57  C   UNL A   1      44.227  28.283  31.339  1.00  0.00     0.049 A 
ATOM     58  H   UNL A   1      45.098  27.667  29.538  1.00  0.00     0.167 HD
ATOM     59  C   UNL A   1      48.117  27.007  26.152  1.00  0.00     0.037 A 
ATOM     60  C   UNL A   1      44.377  27.170  32.098  1.00  0.00     0.037 A 
ATOM     61  C   UNL A   1      46.934  26.292  25.750  1.00  0.00     0.049 A 
ATOM     62  C   UNL A   1      44.758  26.060  31.171  1.00  0.00     0.074 A 
ATOM     63  C   UNL A   1      45.954  26.520  24.802  1.00  0.00     0.029 A 
ATOM     64  N   UNL A   1      46.401  25.369  26.620  1.00  0.00    -0.354 N 
ATOM     65  N   UNL A   1      43.957  25.578  30.255  1.00  0.00    -0.248 NA
ATOM     66  C   UNL A   1      46.180  25.851  30.921  1.00  0.00     0.031 C 
ATOM     67  C   UNL A   1      44.736  26.108  25.419  1.00  0.00     0.029 A 
ATOM     68  C   UNL A   1      45.049  25.603  26.682  1.00  0.00     0.049 A 
ATOM     69  H   UNL A   1      46.897  24.671  27.106  1.00  0.00     0.167 HD
ATOM     70  C   UNL A   1      44.764  25.370  29.141  1.00  0.00     0.074 A 
ATOM     71  C   UNL A   1      46.134  25.509  29.629  1.00  0.00     0.031 C 
ATOM     72  C   UNL A   1      44.256  25.398  27.873  1.00  0.00     0.037 A 
BRANCH  59  73
ATOM     73  C   UNL A   1      49.442  26.340  26.397  1.00  0.00     0.064 A 
ATOM     74  C   UNL A   1      49.886  26.175  27.719  1.00  0.00     0.173 A 
ATOM     75  C   UNL A   1      50.411  26.105  25.392  1.00  0.00     0.173 A 
ATOM     76  F   UNL A   1      49.054  26.391  28.750  1.00  0.00    -0.203 F 
ATOM     77  C   UNL A   1      51.215  25.871  28.015  1.00  0.00     0.198 A 
ATOM     78  C   UNL A   1      51.719  25.741  25.689  1.00  0.00     0.198 A 
ATOM     79  F   UNL A   1      50.174  26.325  24.095  1.00  0.00    -0.203 F 
ATOM     80  F   UNL A   1      51.622  25.850  29.290  1.00  0.00    -0.200 F 
ATOM     81  C   UNL A   1      52.132  25.659  27.000  1.00  0.00     0.200 A 
ATOM     82  F   UNL A   1      52.593  25.553  24.689  1.00  0.00    -0.200 F 
ATOM     83  F   UNL A   1      53.420  25.426  27.282  1.00  0.00    -0.200 F 
ENDBRANCH  59  73
BRANCH  60  84
ATOM     84  C   UNL A   1      44.648  27.147  33.556  1.00  0.00     0.064 A 
ATOM     85  C   UNL A   1      43.837  26.416  34.437  1.00  0.00     0.173 A 
ATOM     86  C   UNL A   1      45.853  27.652  34.089  1.00  0.00     0.173 A 
ATOM     87  F   UNL A   1      42.705  25.850  33.996  1.00  0.00    -0.203 F 
ATOM     88  C   UNL A   1      44.210  26.207  35.771  1.00  0.00     0.198 A 
ATOM     89  C   UNL A   1      46.218  27.452  35.421  1.00  0.00     0.198 A 
ATOM     90  F   UNL A   1      46.749  28.273  33.309  1.00  0.00    -0.203 F 
ATOM     91  F   UNL A   1      43.435  25.463  36.572  1.00  0.00    -0.200 F 
ATOM     92  C   UNL A   1      45.400  26.723  36.260  1.00  0.00     0.200 A 
ATOM     93  F   UNL A   1      47.391  27.923  35.866  1.00  0.00    -0.200 F 
ATOM     94  F   UNL A   1      45.778  26.483  37.523  1.00  0.00    -0.200 F 
ENDBRANCH  60  84
BRANCH  72  95
ATOM     95  C   UNL A   1      42.763  25.477  27.707  1.00  0.00     0.064 A 
ATOM     96  C   UNL A   1      41.918  24.353  27.747  1.00  0.00     0.173 A 
ATOM     97  C   UNL A   1      42.153  26.737  27.691  1.00  0.00     0.173 A 
ATOM     98  F   UNL A   1      42.422  23.120  27.875  1.00  0.00    -0.203 F 
ATOM     99  C   UNL A   1      40.530  24.487  27.728  1.00  0.00     0.198 A 
ATOM    100  C   UNL A   1      40.767  26.871  27.711  1.00  0.00     0.198 A 
ATOM    101  F   UNL A   1      42.905  27.848  27.718  1.00  0.00    -0.203 F 
ATOM    102  F   UNL A   1      39.749  23.398  27.762  1.00  0.00    -0.200 F 
ATOM    103  C   UNL A   1      39.956  25.747  27.719  1.00  0.00     0.200 A 
ATOM    104  F   UNL A   1      40.215  28.092  27.757  1.00  0.00    -0.200 F 
ATOM    105  F   UNL A   1      38.622  25.879  27.750  1.00  0.00    -0.200 F 
ENDBRANCH  72  95
ENDBRANCH  46  47
ENDBRANCH  39  41
ENDBRANCH  38  39
ENDBRANCH  37  38
ENDBRANCH  36  37
ENDBRANCH  35  36
ENDBRANCH  34  35
ENDBRANCH  33  34
ENDBRANCH   1  33
TORSDOF 22
ENDMDL
