MODEL 1
REMARK VINA RESULT:     -10.9      0.000      0.000
REMARK SMILES C[C@@H](C(=O)OCCOCCOCCOCCOC(=O)c1ccc(-c2c3nc(c(-c4c(F)c(F)c(F)c(F)c4F)c4ccc([nH]4)c(-c4c(F)c(F)c(F)c(F)c4F)c4nc(c(-c5c(F)c(F)c(F)c(F)c5F)c5ccc2[nH]5)C=C4)C=C3)cc1)c1cccc(C(=O)c2ccccc2)c1
REMARK SMILES IDX 10 1 9 2 8 3 7 4 6 5 5 6 3 7 4 8 2 9 1 10 83 11 84 12 96 13
REMARK SMILES IDX 85 14 87 15 86 16 88 17 89 18 90 19 91 20 95 21 92 22 94 23
REMARK SMILES IDX 93 24 11 25 12 26 13 27 14 28 15 29 16 30 17 31 18 32 19 33
REMARK SMILES IDX 20 34 21 35 82 36 22 37 81 38 23 39 24 40 25 41 75 42 26 43
REMARK SMILES IDX 80 44 74 45 76 46 27 47 79 48 73 49 72 50 28 52 60 53 40 54
REMARK SMILES IDX 59 55 41 56 44 57 58 58 77 59 42 60 43 61 57 63 78 64 45 65
REMARK SMILES IDX 29 66 30 67 38 68 31 69 32 70 36 71 39 72 33 73 34 74 37 75
REMARK SMILES IDX 35 76 61 77 62 78 70 79 63 80 64 81 68 82 71 83 65 84 66 85
REMARK SMILES IDX 69 86 67 87 46 88 47 89 55 90 48 91 49 92 53 93 56 94 50 95
REMARK SMILES IDX 51 96 54 97 52 98
REMARK H PARENT 76 51 44 62
REMARK Flexibility Score: inf
ROOT
ATOM      1  C   UNL A   1      31.064  26.430  22.588  1.00  0.00     0.188 C 
ENDROOT
BRANCH   1   2
ATOM      2  C   UNL A   1      30.142  25.840  23.663  1.00  0.00     0.188 C 
BRANCH   2   3
ATOM      3  O   UNL A   1      30.605  25.927  24.989  1.00  0.00    -0.376 OA
BRANCH   3   4
ATOM      4  C   UNL A   1      31.803  25.250  25.338  1.00  0.00     0.202 C 
BRANCH   4   5
ATOM      5  C   UNL A   1      33.162  25.943  25.584  1.00  0.00     0.261 C 
BRANCH   5   6
ATOM      6  O   UNL A   1      34.063  26.071  24.467  1.00  0.00    -0.463 OA
BRANCH   6   7
ATOM      7  C   UNL A   1      34.443  24.911  23.855  1.00  0.00     0.313 C 
ATOM      8  O   UNL A   1      34.109  24.608  22.713  1.00  0.00    -0.252 OA
BRANCH   7   9
ATOM      9  C   UNL A   1      35.324  23.999  24.717  1.00  0.00     0.126 C 
ATOM     10  C   UNL A   1      36.694  23.607  24.145  1.00  0.00     0.025 C 
BRANCH   9  11
ATOM     11  C   UNL A   1      34.596  22.767  25.284  1.00  0.00    -0.033 A 
ATOM     12  C   UNL A   1      34.451  22.658  26.674  1.00  0.00     0.004 A 
ATOM     13  C   UNL A   1      34.097  21.707  24.491  1.00  0.00     0.016 A 
ATOM     14  C   UNL A   1      33.833  21.544  27.247  1.00  0.00     0.001 A 
ATOM     15  C   UNL A   1      33.532  20.555  25.056  1.00  0.00     0.023 A 
ATOM     16  C   UNL A   1      33.386  20.494  26.444  1.00  0.00     0.012 A 
BRANCH  15  17
ATOM     17  C   UNL A   1      33.028  19.405  24.243  1.00  0.00     0.193 C 
ATOM     18  O   UNL A   1      32.302  19.611  23.273  1.00  0.00    -0.289 OA
BRANCH  17  19
ATOM     19  C   UNL A   1      33.355  17.996  24.551  1.00  0.00     0.022 A 
ATOM     20  C   UNL A   1      32.353  17.172  25.073  1.00  0.00     0.012 A 
ATOM     21  C   UNL A   1      34.670  17.527  24.462  1.00  0.00     0.012 A 
ATOM     22  C   UNL A   1      32.651  15.863  25.461  1.00  0.00     0.001 A 
ATOM     23  C   UNL A   1      34.964  16.221  24.871  1.00  0.00     0.001 A 
ATOM     24  C   UNL A   1      33.957  15.386  25.354  1.00  0.00     0.000 A 
ENDBRANCH  17  19
ENDBRANCH  15  17
ENDBRANCH   9  11
ENDBRANCH   7   9
ENDBRANCH   6   7
ENDBRANCH   5   6
ENDBRANCH   4   5
ENDBRANCH   3   4
ENDBRANCH   2   3
ENDBRANCH   1   2
BRANCH   1  25
ATOM     25  O   UNL A   1      30.718  27.681  22.025  1.00  0.00    -0.377 OA
BRANCH  25  26
ATOM     26  C   UNL A   1      31.083  28.844  22.757  1.00  0.00     0.188 C 
BRANCH  26  27
ATOM     27  C   UNL A   1      32.554  29.014  23.158  1.00  0.00     0.188 C 
BRANCH  27  28
ATOM     28  O   UNL A   1      32.877  29.207  24.538  1.00  0.00    -0.376 OA
BRANCH  28  29
ATOM     29  C   UNL A   1      31.839  29.445  25.485  1.00  0.00     0.202 C 
BRANCH  29  30
ATOM     30  C   UNL A   1      31.941  30.807  26.151  1.00  0.00     0.261 C 
BRANCH  30  31
ATOM     31  O   UNL A   1      32.760  30.698  27.319  1.00  0.00    -0.460 OA
BRANCH  31  32
ATOM     32  C   UNL A   1      33.553  31.760  27.572  1.00  0.00     0.338 C 
ATOM     33  O   UNL A   1      33.233  32.935  27.659  1.00  0.00    -0.246 OA
BRANCH  32  34
ATOM     34  C   UNL A   1      34.891  31.251  27.918  1.00  0.00     0.060 A 
ATOM     35  C   UNL A   1      35.079  29.864  27.996  1.00  0.00     0.016 A 
ATOM     36  C   UNL A   1      35.944  32.133  28.175  1.00  0.00     0.016 A 
ATOM     37  C   UNL A   1      36.307  29.356  28.398  1.00  0.00     0.010 A 
ATOM     38  C   UNL A   1      37.168  31.627  28.589  1.00  0.00     0.010 A 
ATOM     39  C   UNL A   1      37.331  30.241  28.753  1.00  0.00    -0.014 A 
BRANCH  39  40
ATOM     40  C   UNL A   1      38.479  29.747  29.532  1.00  0.00     0.031 A 
ATOM     41  C   UNL A   1      38.657  30.283  30.924  1.00  0.00     0.074 A 
ATOM     42  C   UNL A   1      39.331  28.855  29.007  1.00  0.00     0.049 A 
ATOM     43  N   UNL A   1      39.627  30.082  31.775  1.00  0.00    -0.248 NA
ATOM     44  C   UNL A   1      37.599  31.181  31.417  1.00  0.00     0.031 C 
ATOM     45  C   UNL A   1      39.212  28.250  27.683  1.00  0.00     0.029 A 
ATOM     46  N   UNL A   1      40.477  28.316  29.527  1.00  0.00    -0.354 N 
ATOM     47  C   UNL A   1      39.302  30.838  32.894  1.00  0.00     0.074 A 
ATOM     48  C   UNL A   1      38.066  31.529  32.604  1.00  0.00     0.031 C 
ATOM     49  C   UNL A   1      40.256  27.427  27.487  1.00  0.00     0.029 A 
ATOM     50  C   UNL A   1      41.131  27.483  28.656  1.00  0.00     0.049 A 
ATOM     51  H   UNL A   1      40.799  28.506  30.439  1.00  0.00     0.167 HD
ATOM     52  C   UNL A   1      39.980  30.938  34.060  1.00  0.00     0.037 A 
ATOM     53  C   UNL A   1      42.318  26.865  28.791  1.00  0.00     0.037 A 
ATOM     54  C   UNL A   1      41.209  30.241  34.325  1.00  0.00     0.049 A 
ATOM     55  C   UNL A   1      43.088  27.049  30.075  1.00  0.00     0.074 A 
ATOM     56  C   UNL A   1      41.973  30.243  35.476  1.00  0.00     0.029 A 
ATOM     57  N   UNL A   1      41.858  29.420  33.412  1.00  0.00    -0.354 N 
ATOM     58  N   UNL A   1      42.769  27.740  31.143  1.00  0.00    -0.248 NA
ATOM     59  C   UNL A   1      44.383  26.363  30.171  1.00  0.00     0.031 C 
ATOM     60  C   UNL A   1      43.118  29.477  35.237  1.00  0.00     0.029 A 
ATOM     61  C   UNL A   1      43.032  28.937  33.962  1.00  0.00     0.049 A 
ATOM     62  H   UNL A   1      41.531  29.213  32.506  1.00  0.00     0.167 HD
ATOM     63  C   UNL A   1      43.802  27.545  32.050  1.00  0.00     0.074 A 
ATOM     64  C   UNL A   1      44.753  26.659  31.408  1.00  0.00     0.031 C 
ATOM     65  C   UNL A   1      43.953  28.048  33.301  1.00  0.00     0.037 A 
BRANCH  52  66
ATOM     66  C   UNL A   1      39.427  31.859  35.111  1.00  0.00     0.064 A 
ATOM     67  C   UNL A   1      39.684  33.238  35.101  1.00  0.00     0.173 A 
ATOM     68  C   UNL A   1      38.613  31.351  36.134  1.00  0.00     0.173 A 
ATOM     69  F   UNL A   1      40.473  33.773  34.157  1.00  0.00    -0.203 F 
ATOM     70  C   UNL A   1      39.168  34.070  36.092  1.00  0.00     0.198 A 
ATOM     71  C   UNL A   1      38.070  32.192  37.104  1.00  0.00     0.198 A 
ATOM     72  F   UNL A   1      38.338  30.039  36.195  1.00  0.00    -0.203 F 
ATOM     73  F   UNL A   1      39.471  35.376  36.093  1.00  0.00    -0.200 F 
ATOM     74  C   UNL A   1      38.355  33.548  37.087  1.00  0.00     0.200 A 
ATOM     75  F   UNL A   1      37.276  31.686  38.057  1.00  0.00    -0.200 F 
ATOM     76  F   UNL A   1      37.852  34.351  38.034  1.00  0.00    -0.200 F 
ENDBRANCH  52  66
BRANCH  53  77
ATOM     77  C   UNL A   1      42.849  26.022  27.688  1.00  0.00     0.064 A 
ATOM     78  C   UNL A   1      42.504  24.668  27.584  1.00  0.00     0.173 A 
ATOM     79  C   UNL A   1      43.720  26.549  26.721  1.00  0.00     0.173 A 
ATOM     80  F   UNL A   1      41.690  24.113  28.493  1.00  0.00    -0.203 F 
ATOM     81  C   UNL A   1      43.026  23.867  26.570  1.00  0.00     0.198 A 
ATOM     82  C   UNL A   1      44.216  25.755  25.689  1.00  0.00     0.198 A 
ATOM     83  F   UNL A   1      44.081  27.840  26.772  1.00  0.00    -0.203 F 
ATOM     84  F   UNL A   1      42.717  22.565  26.523  1.00  0.00    -0.200 F 
ATOM     85  C   UNL A   1      43.877  24.412  25.620  1.00  0.00     0.200 A 
ATOM     86  F   UNL A   1      45.025  26.290  24.764  1.00  0.00    -0.200 F 
ATOM     87  F   UNL A   1      44.375  23.643  24.643  1.00  0.00    -0.200 F 
ENDBRANCH  53  77
BRANCH  65  88
ATOM     88  C   UNL A   1      45.167  27.614  34.074  1.00  0.00     0.064 A 
ATOM     89  C   UNL A   1      46.383  28.306  33.993  1.00  0.00     0.173 A 
ATOM     90  C   UNL A   1      45.093  26.513  34.942  1.00  0.00     0.173 A 
ATOM     91  F   UNL A   1      46.510  29.357  33.169  1.00  0.00    -0.203 F 
ATOM     92  C   UNL A   1      47.491  27.892  34.730  1.00  0.00     0.198 A 
ATOM     93  C   UNL A   1      46.189  26.126  35.705  1.00  0.00     0.198 A 
ATOM     94  F   UNL A   1      43.948  25.823  35.064  1.00  0.00    -0.203 F 
ATOM     95  F   UNL A   1      48.659  28.534  34.595  1.00  0.00    -0.200 F 
ATOM     96  C   UNL A   1      47.390  26.810  35.591  1.00  0.00     0.200 A 
ATOM     97  F   UNL A   1      46.084  25.093  36.551  1.00  0.00    -0.200 F 
ATOM     98  F   UNL A   1      48.454  26.420  36.306  1.00  0.00    -0.200 F 
ENDBRANCH  65  88
ENDBRANCH  39  40
ENDBRANCH  32  34
ENDBRANCH  31  32
ENDBRANCH  30  31
ENDBRANCH  29  30
ENDBRANCH  28  29
ENDBRANCH  27  28
ENDBRANCH  26  27
ENDBRANCH  25  26
ENDBRANCH   1  25
TORSDOF 23
ENDMDL
MODEL 2
REMARK VINA RESULT:     -10.4      0.672      2.048
REMARK SMILES C[C@@H](C(=O)OCCOCCOCCOCCOC(=O)c1ccc(-c2c3nc(c(-c4c(F)c(F)c(F)c(F)c4F)c4ccc([nH]4)c(-c4c(F)c(F)c(F)c(F)c4F)c4nc(c(-c5c(F)c(F)c(F)c(F)c5F)c5ccc2[nH]5)C=C4)C=C3)cc1)c1cccc(C(=O)c2ccccc2)c1
REMARK SMILES IDX 10 1 9 2 8 3 7 4 6 5 5 6 3 7 4 8 2 9 1 10 83 11 84 12 96 13
REMARK SMILES IDX 85 14 87 15 86 16 88 17 89 18 90 19 91 20 95 21 92 22 94 23
REMARK SMILES IDX 93 24 11 25 12 26 13 27 14 28 15 29 16 30 17 31 18 32 19 33
REMARK SMILES IDX 20 34 21 35 82 36 22 37 81 38 23 39 24 40 25 41 75 42 26 43
REMARK SMILES IDX 80 44 74 45 76 46 27 47 79 48 73 49 72 50 28 52 60 53 40 54
REMARK SMILES IDX 59 55 41 56 44 57 58 58 77 59 42 60 43 61 57 63 78 64 45 65
REMARK SMILES IDX 29 66 30 67 38 68 31 69 32 70 36 71 39 72 33 73 34 74 37 75
REMARK SMILES IDX 35 76 61 77 62 78 70 79 63 80 64 81 68 82 71 83 65 84 66 85
REMARK SMILES IDX 69 86 67 87 46 88 47 89 55 90 48 91 49 92 53 93 56 94 50 95
REMARK SMILES IDX 51 96 54 97 52 98
REMARK H PARENT 76 51 44 62
REMARK Flexibility Score: inf
ROOT
ATOM      1  C   UNL A   1      29.906  27.427  23.211  1.00  0.00     0.188 C 
ENDROOT
BRANCH   1   2
ATOM      2  C   UNL A   1      29.299  26.322  24.083  1.00  0.00     0.188 C 
BRANCH   2   3
ATOM      3  O   UNL A   1      30.213  25.449  24.701  1.00  0.00    -0.376 OA
BRANCH   3   4
ATOM      4  C   UNL A   1      31.528  25.354  24.173  1.00  0.00     0.202 C 
BRANCH   4   5
ATOM      5  C   UNL A   1      32.805  25.818  24.908  1.00  0.00     0.261 C 
BRANCH   5   6
ATOM      6  O   UNL A   1      34.025  25.904  24.147  1.00  0.00    -0.463 OA
BRANCH   6   7
ATOM      7  C   UNL A   1      34.424  24.768  23.504  1.00  0.00     0.313 C 
ATOM      8  O   UNL A   1      34.077  24.479  22.362  1.00  0.00    -0.252 OA
BRANCH   7   9
ATOM      9  C   UNL A   1      35.343  23.862  24.331  1.00  0.00     0.126 C 
ATOM     10  C   UNL A   1      36.629  23.366  23.653  1.00  0.00     0.025 C 
BRANCH   9  11
ATOM     11  C   UNL A   1      34.620  22.705  25.043  1.00  0.00    -0.033 A 
ATOM     12  C   UNL A   1      34.546  22.723  26.443  1.00  0.00     0.004 A 
ATOM     13  C   UNL A   1      34.057  21.592  24.374  1.00  0.00     0.016 A 
ATOM     14  C   UNL A   1      33.935  21.682  27.144  1.00  0.00     0.001 A 
ATOM     15  C   UNL A   1      33.497  20.510  25.069  1.00  0.00     0.023 A 
ATOM     16  C   UNL A   1      33.423  20.576  26.462  1.00  0.00     0.012 A 
BRANCH  15  17
ATOM     17  C   UNL A   1      32.926  19.306  24.389  1.00  0.00     0.193 C 
ATOM     18  O   UNL A   1      32.154  19.445  23.443  1.00  0.00    -0.289 OA
BRANCH  17  19
ATOM     19  C   UNL A   1      33.239  17.922  24.806  1.00  0.00     0.022 A 
ATOM     20  C   UNL A   1      34.519  17.417  24.555  1.00  0.00     0.012 A 
ATOM     21  C   UNL A   1      32.242  17.081  25.309  1.00  0.00     0.012 A 
ATOM     22  C   UNL A   1      34.819  16.085  24.851  1.00  0.00     0.001 A 
ATOM     23  C   UNL A   1      32.546  15.742  25.585  1.00  0.00     0.001 A 
ATOM     24  C   UNL A   1      33.833  15.249  25.372  1.00  0.00     0.000 A 
ENDBRANCH  17  19
ENDBRANCH  15  17
ENDBRANCH   9  11
ENDBRANCH   7   9
ENDBRANCH   6   7
ENDBRANCH   5   6
ENDBRANCH   4   5
ENDBRANCH   3   4
ENDBRANCH   2   3
ENDBRANCH   1   2
BRANCH   1  25
ATOM     25  O   UNL A   1      29.364  28.731  23.312  1.00  0.00    -0.377 OA
BRANCH  25  26
ATOM     26  C   UNL A   1      30.219  29.750  23.815  1.00  0.00     0.188 C 
BRANCH  26  27
ATOM     27  C   UNL A   1      31.602  29.341  24.336  1.00  0.00     0.188 C 
BRANCH  27  28
ATOM     28  O   UNL A   1      31.749  28.995  25.716  1.00  0.00    -0.376 OA
BRANCH  28  29
ATOM     29  C   UNL A   1      31.548  29.984  26.722  1.00  0.00     0.202 C 
BRANCH  29  30
ATOM     30  C   UNL A   1      32.460  31.189  26.562  1.00  0.00     0.261 C 
BRANCH  30  31
ATOM     31  O   UNL A   1      33.045  31.507  27.828  1.00  0.00    -0.460 OA
BRANCH  31  32
ATOM     32  C   UNL A   1      34.026  32.433  27.797  1.00  0.00     0.338 C 
ATOM     33  O   UNL A   1      33.918  33.640  27.650  1.00  0.00    -0.246 OA
BRANCH  32  34
ATOM     34  C   UNL A   1      35.287  31.764  28.161  1.00  0.00     0.060 A 
ATOM     35  C   UNL A   1      35.287  30.370  28.309  1.00  0.00     0.016 A 
ATOM     36  C   UNL A   1      36.453  32.507  28.365  1.00  0.00     0.016 A 
ATOM     37  C   UNL A   1      36.440  29.721  28.728  1.00  0.00     0.010 A 
ATOM     38  C   UNL A   1      37.603  31.860  28.797  1.00  0.00     0.010 A 
ATOM     39  C   UNL A   1      37.579  30.476  29.030  1.00  0.00    -0.014 A 
BRANCH  39  40
ATOM     40  C   UNL A   1      38.660  29.870  29.827  1.00  0.00     0.031 A 
ATOM     41  C   UNL A   1      38.825  30.337  31.244  1.00  0.00     0.074 A 
ATOM     42  C   UNL A   1      39.465  28.939  29.293  1.00  0.00     0.049 A 
ATOM     43  N   UNL A   1      39.746  30.032  32.119  1.00  0.00    -0.248 NA
ATOM     44  C   UNL A   1      37.816  31.290  31.738  1.00  0.00     0.031 C 
ATOM     45  C   UNL A   1      39.351  28.396  27.942  1.00  0.00     0.029 A 
ATOM     46  N   UNL A   1      40.549  28.298  29.829  1.00  0.00    -0.354 N 
ATOM     47  C   UNL A   1      39.436  30.767  33.256  1.00  0.00     0.074 A 
ATOM     48  C   UNL A   1      38.264  31.557  32.954  1.00  0.00     0.031 C 
ATOM     49  C   UNL A   1      40.340  27.508  27.748  1.00  0.00     0.029 A 
ATOM     50  C   UNL A   1      41.174  27.454  28.946  1.00  0.00     0.049 A 
ATOM     51  H   UNL A   1      40.851  28.429  30.758  1.00  0.00     0.167 HD
ATOM     52  C   UNL A   1      40.077  30.772  34.448  1.00  0.00     0.037 A 
ATOM     53  C   UNL A   1      42.309  26.747  29.095  1.00  0.00     0.037 A 
ATOM     54  C   UNL A   1      41.242  29.977  34.724  1.00  0.00     0.049 A 
ATOM     55  C   UNL A   1      43.043  26.824  30.411  1.00  0.00     0.074 A 
ATOM     56  C   UNL A   1      41.963  29.879  35.899  1.00  0.00     0.029 A 
ATOM     57  N   UNL A   1      41.864  29.148  33.800  1.00  0.00    -0.354 N 
ATOM     58  N   UNL A   1      42.734  27.495  31.495  1.00  0.00    -0.248 NA
ATOM     59  C   UNL A   1      44.280  26.043  30.521  1.00  0.00     0.031 C 
ATOM     60  C   UNL A   1      43.058  29.042  35.667  1.00  0.00     0.029 A 
ATOM     61  C   UNL A   1      42.980  28.559  34.369  1.00  0.00     0.049 A 
ATOM     62  H   UNL A   1      41.556  29.000  32.875  1.00  0.00     0.167 HD
ATOM     63  C   UNL A   1      43.718  27.191  32.427  1.00  0.00     0.074 A 
ATOM     64  C   UNL A   1      44.626  26.263  31.782  1.00  0.00     0.031 C 
ATOM     65  C   UNL A   1      43.859  27.633  33.703  1.00  0.00     0.037 A 
BRANCH  52  66
ATOM     66  C   UNL A   1      39.554  31.688  35.516  1.00  0.00     0.064 A 
ATOM     67  C   UNL A   1      38.545  31.293  36.408  1.00  0.00     0.173 A 
ATOM     68  C   UNL A   1      40.084  32.979  35.658  1.00  0.00     0.173 A 
ATOM     69  F   UNL A   1      37.989  30.077  36.304  1.00  0.00    -0.203 F 
ATOM     70  C   UNL A   1      38.070  32.165  37.385  1.00  0.00     0.198 A 
ATOM     71  C   UNL A   1      39.630  33.836  36.658  1.00  0.00     0.198 A 
ATOM     72  F   UNL A   1      41.048  33.412  34.830  1.00  0.00    -0.203 F 
ATOM     73  F   UNL A   1      37.068  31.785  38.190  1.00  0.00    -0.200 F 
ATOM     74  C   UNL A   1      38.618  33.432  37.514  1.00  0.00     0.200 A 
ATOM     75  F   UNL A   1      40.171  35.056  36.788  1.00  0.00    -0.200 F 
ATOM     76  F   UNL A   1      38.166  34.267  38.460  1.00  0.00    -0.200 F 
ENDBRANCH  52  66
BRANCH  53  77
ATOM     77  C   UNL A   1      42.818  25.911  27.976  1.00  0.00     0.064 A 
ATOM     78  C   UNL A   1      43.678  26.449  27.009  1.00  0.00     0.173 A 
ATOM     79  C   UNL A   1      42.448  24.564  27.844  1.00  0.00     0.173 A 
ATOM     80  F   UNL A   1      44.045  27.736  27.081  1.00  0.00    -0.203 F 
ATOM     81  C   UNL A   1      44.131  25.678  25.940  1.00  0.00     0.198 A 
ATOM     82  C   UNL A   1      42.927  23.786  26.792  1.00  0.00     0.198 A 
ATOM     83  F   UNL A   1      41.629  23.999  28.743  1.00  0.00    -0.203 F 
ATOM     84  F   UNL A   1      44.913  26.231  25.004  1.00  0.00    -0.200 F 
ATOM     85  C   UNL A   1      43.761  24.345  25.835  1.00  0.00     0.200 A 
ATOM     86  F   UNL A   1      42.580  22.494  26.705  1.00  0.00    -0.200 F 
ATOM     87  F   UNL A   1      44.200  23.604  24.811  1.00  0.00    -0.200 F 
ENDBRANCH  53  77
BRANCH  65  88
ATOM     88  C   UNL A   1      45.010  27.081  34.497  1.00  0.00     0.064 A 
ATOM     89  C   UNL A   1      44.872  25.948  35.311  1.00  0.00     0.173 A 
ATOM     90  C   UNL A   1      46.280  27.673  34.402  1.00  0.00     0.173 A 
ATOM     91  F   UNL A   1      43.678  25.353  35.445  1.00  0.00    -0.203 F 
ATOM     92  C   UNL A   1      45.957  25.448  36.026  1.00  0.00     0.198 A 
ATOM     93  C   UNL A   1      47.369  27.147  35.087  1.00  0.00     0.198 A 
ATOM     94  F   UNL A   1      46.467  28.753  33.627  1.00  0.00    -0.203 F 
ATOM     95  F   UNL A   1      45.790  24.398  36.842  1.00  0.00    -0.200 F 
ATOM     96  C   UNL A   1      47.205  26.041  35.907  1.00  0.00     0.200 A 
ATOM     97  F   UNL A   1      48.578  27.710  34.955  1.00  0.00    -0.200 F 
ATOM     98  F   UNL A   1      48.250  25.551  36.589  1.00  0.00    -0.200 F 
ENDBRANCH  65  88
ENDBRANCH  39  40
ENDBRANCH  32  34
ENDBRANCH  31  32
ENDBRANCH  30  31
ENDBRANCH  29  30
ENDBRANCH  28  29
ENDBRANCH  27  28
ENDBRANCH  26  27
ENDBRANCH  25  26
ENDBRANCH   1  25
TORSDOF 23
ENDMDL
MODEL 3
REMARK VINA RESULT:     -10.1      3.231      8.825
REMARK SMILES C[C@@H](C(=O)OCCOCCOCCOCCOC(=O)c1ccc(-c2c3nc(c(-c4c(F)c(F)c(F)c(F)c4F)c4ccc([nH]4)c(-c4c(F)c(F)c(F)c(F)c4F)c4nc(c(-c5c(F)c(F)c(F)c(F)c5F)c5ccc2[nH]5)C=C4)C=C3)cc1)c1cccc(C(=O)c2ccccc2)c1
REMARK SMILES IDX 10 1 9 2 8 3 7 4 6 5 5 6 3 7 4 8 2 9 1 10 83 11 84 12 96 13
REMARK SMILES IDX 85 14 87 15 86 16 88 17 89 18 90 19 91 20 95 21 92 22 94 23
REMARK SMILES IDX 93 24 11 25 12 26 13 27 14 28 15 29 16 30 17 31 18 32 19 33
REMARK SMILES IDX 20 34 21 35 82 36 22 37 81 38 23 39 24 40 25 41 75 42 26 43
REMARK SMILES IDX 80 44 74 45 76 46 27 47 79 48 73 49 72 50 28 52 60 53 40 54
REMARK SMILES IDX 59 55 41 56 44 57 58 58 77 59 42 60 43 61 57 63 78 64 45 65
REMARK SMILES IDX 29 66 30 67 38 68 31 69 32 70 36 71 39 72 33 73 34 74 37 75
REMARK SMILES IDX 35 76 61 77 62 78 70 79 63 80 64 81 68 82 71 83 65 84 66 85
REMARK SMILES IDX 69 86 67 87 46 88 47 89 55 90 48 91 49 92 53 93 56 94 50 95
REMARK SMILES IDX 51 96 54 97 52 98
REMARK H PARENT 76 51 44 62
REMARK Flexibility Score: inf
ROOT
ATOM      1  C   UNL A   1      39.141  21.924  26.176  1.00  0.00     0.188 C 
ENDROOT
BRANCH   1   2
ATOM      2  C   UNL A   1      39.238  20.470  25.699  1.00  0.00     0.188 C 
BRANCH   2   3
ATOM      3  O   UNL A   1      38.091  19.948  25.074  1.00  0.00    -0.376 OA
BRANCH   3   4
ATOM      4  C   UNL A   1      36.883  20.693  25.132  1.00  0.00     0.202 C 
BRANCH   4   5
ATOM      5  C   UNL A   1      35.475  20.101  24.901  1.00  0.00     0.261 C 
BRANCH   5   6
ATOM      6  O   UNL A   1      34.340  20.951  25.150  1.00  0.00    -0.463 OA
BRANCH   6   7
ATOM      7  C   UNL A   1      34.051  21.880  24.192  1.00  0.00     0.313 C 
ATOM      8  O   UNL A   1      34.905  22.567  23.636  1.00  0.00    -0.252 OA
BRANCH   7   9
ATOM      9  C   UNL A   1      32.559  22.011  23.865  1.00  0.00     0.126 C 
ATOM     10  C   UNL A   1      32.192  22.442  22.437  1.00  0.00     0.025 C 
BRANCH   9  11
ATOM     11  C   UNL A   1      31.750  22.811  24.902  1.00  0.00    -0.033 A 
ATOM     12  C   UNL A   1      30.877  22.114  25.749  1.00  0.00     0.004 A 
ATOM     13  C   UNL A   1      31.799  24.219  25.029  1.00  0.00     0.016 A 
ATOM     14  C   UNL A   1      30.090  22.792  26.683  1.00  0.00     0.001 A 
ATOM     15  C   UNL A   1      30.969  24.916  25.919  1.00  0.00     0.023 A 
ATOM     16  C   UNL A   1      30.128  24.185  26.761  1.00  0.00     0.012 A 
BRANCH  15  17
ATOM     17  C   UNL A   1      30.974  26.406  26.049  1.00  0.00     0.193 C 
ATOM     18  O   UNL A   1      31.256  26.926  27.127  1.00  0.00    -0.289 OA
BRANCH  17  19
ATOM     19  C   UNL A   1      30.643  27.314  24.930  1.00  0.00     0.022 A 
ATOM     20  C   UNL A   1      31.356  28.511  24.802  1.00  0.00     0.012 A 
ATOM     21  C   UNL A   1      29.549  27.059  24.097  1.00  0.00     0.012 A 
ATOM     22  C   UNL A   1      31.007  29.433  23.812  1.00  0.00     0.001 A 
ATOM     23  C   UNL A   1      29.194  27.997  23.120  1.00  0.00     0.001 A 
ATOM     24  C   UNL A   1      29.929  29.173  22.967  1.00  0.00     0.000 A 
ENDBRANCH  17  19
ENDBRANCH  15  17
ENDBRANCH   9  11
ENDBRANCH   7   9
ENDBRANCH   6   7
ENDBRANCH   5   6
ENDBRANCH   4   5
ENDBRANCH   3   4
ENDBRANCH   2   3
ENDBRANCH   1   2
BRANCH   1  25
ATOM     25  O   UNL A   1      40.345  22.631  26.413  1.00  0.00    -0.377 OA
BRANCH  25  26
ATOM     26  C   UNL A   1      41.268  22.049  27.325  1.00  0.00     0.188 C 
BRANCH  26  27
ATOM     27  C   UNL A   1      42.673  21.708  26.812  1.00  0.00     0.188 C 
BRANCH  27  28
ATOM     28  O   UNL A   1      43.739  22.633  27.046  1.00  0.00    -0.376 OA
BRANCH  28  29
ATOM     29  C   UNL A   1      44.601  23.008  25.974  1.00  0.00     0.202 C 
BRANCH  29  30
ATOM     30  C   UNL A   1      43.851  23.344  24.696  1.00  0.00     0.261 C 
BRANCH  30  31
ATOM     31  O   UNL A   1      43.051  24.510  24.914  1.00  0.00    -0.460 OA
BRANCH  31  32
ATOM     32  C   UNL A   1      43.734  25.636  25.207  1.00  0.00     0.338 C 
ATOM     33  O   UNL A   1      44.738  26.069  24.665  1.00  0.00    -0.246 OA
BRANCH  32  34
ATOM     34  C   UNL A   1      42.955  26.389  26.204  1.00  0.00     0.060 A 
ATOM     35  C   UNL A   1      43.391  27.672  26.564  1.00  0.00     0.016 A 
ATOM     36  C   UNL A   1      41.814  25.829  26.786  1.00  0.00     0.016 A 
ATOM     37  C   UNL A   1      42.724  28.374  27.558  1.00  0.00     0.010 A 
ATOM     38  C   UNL A   1      41.154  26.525  27.790  1.00  0.00     0.010 A 
ATOM     39  C   UNL A   1      41.642  27.772  28.212  1.00  0.00    -0.014 A 
BRANCH  39  40
ATOM     40  C   UNL A   1      41.176  28.320  29.498  1.00  0.00     0.031 A 
ATOM     41  C   UNL A   1      39.944  29.177  29.482  1.00  0.00     0.074 A 
ATOM     42  C   UNL A   1      41.839  28.060  30.634  1.00  0.00     0.049 A 
ATOM     43  N   UNL A   1      39.384  29.848  30.453  1.00  0.00    -0.248 NA
ATOM     44  C   UNL A   1      39.254  29.305  28.186  1.00  0.00     0.031 C 
ATOM     45  C   UNL A   1      43.018  27.206  30.749  1.00  0.00     0.029 A 
ATOM     46  N   UNL A   1      41.616  28.508  31.908  1.00  0.00    -0.354 N 
ATOM     47  C   UNL A   1      38.291  30.486  29.882  1.00  0.00     0.074 A 
ATOM     48  C   UNL A   1      38.281  30.153  28.476  1.00  0.00     0.031 C 
ATOM     49  C   UNL A   1      43.426  27.200  32.029  1.00  0.00     0.029 A 
ATOM     50  C   UNL A   1      42.559  28.082  32.808  1.00  0.00     0.049 A 
ATOM     51  H   UNL A   1      40.852  29.079  32.155  1.00  0.00     0.167 HD
ATOM     52  C   UNL A   1      37.374  31.277  30.487  1.00  0.00     0.037 A 
ATOM     53  C   UNL A   1      42.709  28.400  34.107  1.00  0.00     0.037 A 
ATOM     54  C   UNL A   1      37.405  31.595  31.888  1.00  0.00     0.049 A 
ATOM     55  C   UNL A   1      41.714  29.340  34.741  1.00  0.00     0.074 A 
ATOM     56  C   UNL A   1      36.520  32.364  32.620  1.00  0.00     0.029 A 
ATOM     57  N   UNL A   1      38.388  31.164  32.770  1.00  0.00    -0.354 N 
ATOM     58  N   UNL A   1      40.664  29.920  34.209  1.00  0.00    -0.248 NA
ATOM     59  C   UNL A   1      41.925  29.666  36.157  1.00  0.00     0.031 C 
ATOM     60  C   UNL A   1      37.002  32.453  33.929  1.00  0.00     0.029 A 
ATOM     61  C   UNL A   1      38.149  31.679  34.033  1.00  0.00     0.049 A 
ATOM     62  H   UNL A   1      39.144  30.579  32.532  1.00  0.00     0.167 HD
ATOM     63  C   UNL A   1      40.070  30.650  35.231  1.00  0.00     0.074 A 
ATOM     64  C   UNL A   1      40.872  30.427  36.417  1.00  0.00     0.031 C 
ATOM     65  C   UNL A   1      38.961  31.431  35.196  1.00  0.00     0.037 A 
BRANCH  52  66
ATOM     66  C   UNL A   1      36.297  31.876  29.630  1.00  0.00     0.064 A 
ATOM     67  C   UNL A   1      36.239  33.252  29.361  1.00  0.00     0.173 A 
ATOM     68  C   UNL A   1      35.315  31.055  29.056  1.00  0.00     0.173 A 
ATOM     69  F   UNL A   1      37.141  34.085  29.900  1.00  0.00    -0.203 F 
ATOM     70  C   UNL A   1      35.223  33.786  28.570  1.00  0.00     0.198 A 
ATOM     71  C   UNL A   1      34.321  31.588  28.238  1.00  0.00     0.198 A 
ATOM     72  F   UNL A   1      35.319  29.733  29.284  1.00  0.00    -0.203 F 
ATOM     73  F   UNL A   1      35.158  35.110  28.371  1.00  0.00    -0.200 F 
ATOM     74  C   UNL A   1      34.271  32.953  28.003  1.00  0.00     0.200 A 
ATOM     75  F   UNL A   1      33.409  30.779  27.683  1.00  0.00    -0.200 F 
ATOM     76  F   UNL A   1      33.300  33.467  27.236  1.00  0.00    -0.200 F 
ENDBRANCH  52  66
BRANCH  53  77
ATOM     77  C   UNL A   1      43.838  27.832  34.888  1.00  0.00     0.064 A 
ATOM     78  C   UNL A   1      45.048  28.528  35.017  1.00  0.00     0.173 A 
ATOM     79  C   UNL A   1      43.737  26.579  35.511  1.00  0.00     0.173 A 
ATOM     80  F   UNL A   1      45.201  29.720  34.423  1.00  0.00    -0.203 F 
ATOM     81  C   UNL A   1      46.121  27.983  35.720  1.00  0.00     0.198 A 
ATOM     82  C   UNL A   1      44.800  26.050  36.241  1.00  0.00     0.198 A 
ATOM     83  F   UNL A   1      42.601  25.872  35.422  1.00  0.00    -0.203 F 
ATOM     84  F   UNL A   1      47.281  28.649  35.786  1.00  0.00    -0.200 F 
ATOM     85  C   UNL A   1      45.994  26.747  36.337  1.00  0.00     0.200 A 
ATOM     86  F   UNL A   1      44.666  24.863  36.850  1.00  0.00    -0.200 F 
ATOM     87  F   UNL A   1      47.024  26.227  37.017  1.00  0.00    -0.200 F 
ENDBRANCH  53  77
BRANCH  65  88
ATOM     88  C   UNL A   1      38.525  32.062  36.489  1.00  0.00     0.064 A 
ATOM     89  C   UNL A   1      37.791  31.352  37.449  1.00  0.00     0.173 A 
ATOM     90  C   UNL A   1      38.890  33.385  36.786  1.00  0.00     0.173 A 
ATOM     91  F   UNL A   1      37.407  30.089  37.209  1.00  0.00    -0.203 F 
ATOM     92  C   UNL A   1      37.410  31.954  38.645  1.00  0.00     0.198 A 
ATOM     93  C   UNL A   1      38.541  33.970  37.998  1.00  0.00     0.198 A 
ATOM     94  F   UNL A   1      39.603  34.105  35.905  1.00  0.00    -0.203 F 
ATOM     95  F   UNL A   1      36.660  31.275  39.524  1.00  0.00    -0.200 F 
ATOM     96  C   UNL A   1      37.793  33.258  38.923  1.00  0.00     0.200 A 
ATOM     97  F   UNL A   1      38.929  35.223  38.272  1.00  0.00    -0.200 F 
ATOM     98  F   UNL A   1      37.434  33.831  40.080  1.00  0.00    -0.200 F 
ENDBRANCH  65  88
ENDBRANCH  39  40
ENDBRANCH  32  34
ENDBRANCH  31  32
ENDBRANCH  30  31
ENDBRANCH  29  30
ENDBRANCH  28  29
ENDBRANCH  27  28
ENDBRANCH  26  27
ENDBRANCH  25  26
ENDBRANCH   1  25
TORSDOF 23
ENDMDL
