MODEL 1
REMARK VINA RESULT:     -10.2      0.000      0.000
REMARK SMILES Cc1nc2sc3c(c2c2nc(CCC(=O)OCCOCCOCCOCCOC(=O)c4ccc(-c5c6nc(c(-c7c(F)c(F)c(F)c(F)c7F)c7ccc([nH]7)c(-c7c(F)c(F)c(F)c(F)c7F)c7nc(c(-c8c(F)c(F)c(F)c(F)c8F)c8ccc5[nH]8)C=C7)C=C6)cc4)nn12)[C@@H](C)CCC3
REMARK SMILES IDX 22 1 21 2 20 3 19 4 18 5 17 6 16 7 14 8 15 9 13 10 12 11
REMARK SMILES IDX 11 12 1 13 2 14 3 15 95 16 4 17 9 18 94 19 5 20 8 21 10 22
REMARK SMILES IDX 6 23 7 24 100 25 96 26 99 27 97 28 98 29 23 30 24 31 25 32
REMARK SMILES IDX 26 33 27 34 28 35 29 36 30 37 31 38 32 39 93 40 33 41 92 42
REMARK SMILES IDX 34 43 35 44 36 45 86 46 37 47 91 48 85 49 87 50 38 51 90 52
REMARK SMILES IDX 84 53 83 54 39 56 71 57 51 58 70 59 52 60 55 61 69 62 88 63
REMARK SMILES IDX 53 64 54 65 68 67 89 68 56 69 40 70 41 71 49 72 42 73 43 74
REMARK SMILES IDX 47 75 50 76 44 77 45 78 48 79 46 80 72 81 73 82 81 83 74 84
REMARK SMILES IDX 75 85 79 86 82 87 76 88 77 89 80 90 78 91 57 92 58 93 66 94
REMARK SMILES IDX 59 95 60 96 64 97 67 98 61 99 62 100 65 101 63 102
REMARK H PARENT 87 55 55 66
REMARK Flexibility Score: inf
ROOT
ATOM      1  O   UNL A   1      36.964  23.276  24.251  1.00  0.00    -0.377 OA
ENDROOT
BRANCH   1   2
ATOM      2  C   UNL A   1      36.517  23.799  25.483  1.00  0.00     0.188 C 
BRANCH   2   3
ATOM      3  C   UNL A   1      35.064  23.837  25.984  1.00  0.00     0.188 C 
BRANCH   3   4
ATOM      4  O   UNL A   1      34.447  22.642  26.405  1.00  0.00    -0.376 OA
BRANCH   4   5
ATOM      5  C   UNL A   1      33.341  22.683  27.305  1.00  0.00     0.202 C 
BRANCH   5   6
ATOM      6  C   UNL A   1      31.908  22.747  26.768  1.00  0.00     0.261 C 
BRANCH   6   7
ATOM      7  O   UNL A   1      31.855  22.978  25.339  1.00  0.00    -0.463 OA
BRANCH   7   8
ATOM      8  C   UNL A   1      30.932  23.886  24.943  1.00  0.00     0.306 C 
ATOM      9  O   UNL A   1      30.272  24.569  25.723  1.00  0.00    -0.252 OA
BRANCH   8  10
ATOM     10  C   UNL A   1      30.717  24.013  23.453  1.00  0.00     0.131 C 
BRANCH  10  11
ATOM     11  C   UNL A   1      31.421  25.092  22.650  1.00  0.00     0.091 C 
BRANCH  11  12
ATOM     12  C   UNL A   1      31.219  26.495  23.093  1.00  0.00     0.152 A 
ATOM     13  C   UNL A   1      28.441  29.431  22.256  1.00  0.00     0.090 C 
ATOM     14  C   UNL A   1      29.531  29.502  23.278  1.00  0.00     0.131 A 
ATOM     15  N   UNL A   1      29.719  30.548  24.039  1.00  0.00    -0.222 NA
ATOM     16  N   UNL A   1      30.336  28.360  23.355  1.00  0.00    -0.199 N 
ATOM     17  C   UNL A   1      30.779  30.470  24.912  1.00  0.00     0.129 A 
ATOM     18  C   UNL A   1      31.368  28.243  24.246  1.00  0.00     0.168 A 
ATOM     19  N   UNL A   1      30.233  27.255  22.589  1.00  0.00    -0.150 NA
ATOM     20  S   UNL A   1      31.187  31.785  25.922  1.00  0.00    -0.120 S 
ATOM     21  C   UNL A   1      31.658  29.412  25.109  1.00  0.00     0.060 A 
ATOM     22  N   UNL A   1      31.925  27.064  24.126  1.00  0.00    -0.211 NA
ATOM     23  C   UNL A   1      32.517  30.950  26.582  1.00  0.00     0.011 A 
ATOM     24  C   UNL A   1      32.683  29.672  26.069  1.00  0.00    -0.018 A 
ATOM     25  C   UNL A   1      33.414  31.595  27.592  1.00  0.00     0.047 C 
ATOM     26  C   UNL A   1      33.808  28.776  26.536  1.00  0.00     0.018 C 
ATOM     27  C   UNL A   1      34.149  30.521  28.398  1.00  0.00     0.006 C 
ATOM     28  C   UNL A   1      34.608  28.185  25.380  1.00  0.00     0.013 C 
ATOM     29  C   UNL A   1      34.810  29.508  27.463  1.00  0.00     0.008 C 
ENDBRANCH  11  12
ENDBRANCH  10  11
ENDBRANCH   8  10
ENDBRANCH   7   8
ENDBRANCH   6   7
ENDBRANCH   5   6
ENDBRANCH   4   5
ENDBRANCH   3   4
ENDBRANCH   2   3
ENDBRANCH   1   2
BRANCH   1  30
ATOM     30  C   UNL A   1      37.179  21.897  24.079  1.00  0.00     0.188 C 
BRANCH  30  31
ATOM     31  C   UNL A   1      37.817  21.054  25.202  1.00  0.00     0.188 C 
BRANCH  31  32
ATOM     32  O   UNL A   1      39.177  21.113  25.574  1.00  0.00    -0.376 OA
BRANCH  32  33
ATOM     33  C   UNL A   1      39.702  21.780  26.705  1.00  0.00     0.202 C 
BRANCH  33  34
ATOM     34  C   UNL A   1      40.436  23.119  26.646  1.00  0.00     0.261 C 
BRANCH  34  35
ATOM     35  O   UNL A   1      40.146  24.015  27.692  1.00  0.00    -0.460 OA
BRANCH  35  36
ATOM     36  C   UNL A   1      40.817  25.175  27.621  1.00  0.00     0.338 C 
ATOM     37  O   UNL A   1      41.719  25.476  26.863  1.00  0.00    -0.246 OA
BRANCH  36  38
ATOM     38  C   UNL A   1      40.377  26.000  28.747  1.00  0.00     0.060 A 
ATOM     39  C   UNL A   1      39.135  26.612  28.596  1.00  0.00     0.016 A 
ATOM     40  C   UNL A   1      41.350  26.459  29.647  1.00  0.00     0.016 A 
ATOM     41  C   UNL A   1      38.975  27.862  29.135  1.00  0.00     0.010 A 
ATOM     42  C   UNL A   1      41.206  27.721  30.154  1.00  0.00     0.010 A 
ATOM     43  C   UNL A   1      40.064  28.434  29.801  1.00  0.00    -0.014 A 
BRANCH  43  44
ATOM     44  C   UNL A   1      39.973  29.830  30.150  1.00  0.00     0.031 A 
ATOM     45  C   UNL A   1      41.231  30.560  29.911  1.00  0.00     0.074 A 
ATOM     46  C   UNL A   1      38.807  30.367  30.553  1.00  0.00     0.049 A 
ATOM     47  N   UNL A   1      41.980  31.152  30.778  1.00  0.00    -0.248 NA
ATOM     48  C   UNL A   1      41.813  30.474  28.560  1.00  0.00     0.031 C 
ATOM     49  C   UNL A   1      37.477  29.750  30.539  1.00  0.00     0.029 A 
ATOM     50  N   UNL A   1      38.552  31.634  30.967  1.00  0.00    -0.354 N 
ATOM     51  C   UNL A   1      43.037  31.677  30.044  1.00  0.00     0.074 A 
ATOM     52  C   UNL A   1      42.990  31.068  28.744  1.00  0.00     0.031 C 
ATOM     53  C   UNL A   1      36.541  30.712  30.708  1.00  0.00     0.029 A 
ATOM     54  C   UNL A   1      37.208  31.978  30.952  1.00  0.00     0.049 A 
ATOM     55  H   UNL A   1      39.260  32.255  31.254  1.00  0.00     0.167 HD
ATOM     56  C   UNL A   1      43.700  32.781  30.473  1.00  0.00     0.037 A 
ATOM     57  C   UNL A   1      36.719  33.242  31.027  1.00  0.00     0.037 A 
ATOM     58  C   UNL A   1      43.519  32.986  31.883  1.00  0.00     0.049 A 
ATOM     59  C   UNL A   1      37.800  34.097  31.586  1.00  0.00     0.074 A 
ATOM     60  C   UNL A   1      43.843  32.258  33.011  1.00  0.00     0.029 A 
ATOM     61  N   UNL A   1      42.586  33.911  32.281  1.00  0.00    -0.354 N 
ATOM     62  N   UNL A   1      38.250  34.006  32.808  1.00  0.00    -0.248 NA
ATOM     63  C   UNL A   1      38.690  34.764  30.645  1.00  0.00     0.031 C 
ATOM     64  C   UNL A   1      42.776  32.489  33.925  1.00  0.00     0.029 A 
ATOM     65  C   UNL A   1      41.880  33.379  33.329  1.00  0.00     0.049 A 
ATOM     66  H   UNL A   1      42.447  34.800  31.882  1.00  0.00     0.167 HD
ATOM     67  C   UNL A   1      39.617  34.221  32.701  1.00  0.00     0.074 A 
ATOM     68  C   UNL A   1      39.814  34.778  31.367  1.00  0.00     0.031 C 
ATOM     69  C   UNL A   1      40.486  33.658  33.591  1.00  0.00     0.037 A 
BRANCH  56  70
ATOM     70  C   UNL A   1      44.184  33.858  29.540  1.00  0.00     0.064 A 
ATOM     71  C   UNL A   1      45.546  34.207  29.546  1.00  0.00     0.173 A 
ATOM     72  C   UNL A   1      43.330  34.746  28.846  1.00  0.00     0.173 A 
ATOM     73  F   UNL A   1      46.440  33.457  30.209  1.00  0.00    -0.203 F 
ATOM     74  C   UNL A   1      46.007  35.381  28.949  1.00  0.00     0.198 A 
ATOM     75  C   UNL A   1      43.802  35.884  28.199  1.00  0.00     0.198 A 
ATOM     76  F   UNL A   1      41.998  34.622  28.865  1.00  0.00    -0.203 F 
ATOM     77  F   UNL A   1      47.292  35.736  29.087  1.00  0.00    -0.200 F 
ATOM     78  C   UNL A   1      45.136  36.217  28.274  1.00  0.00     0.200 A 
ATOM     79  F   UNL A   1      42.935  36.692  27.572  1.00  0.00    -0.200 F 
ATOM     80  F   UNL A   1      45.567  37.370  27.745  1.00  0.00    -0.200 F 
ENDBRANCH  56  70
BRANCH  57  81
ATOM     81  C   UNL A   1      35.538  33.802  30.319  1.00  0.00     0.064 A 
ATOM     82  C   UNL A   1      34.463  34.353  31.037  1.00  0.00     0.173 A 
ATOM     83  C   UNL A   1      35.551  34.053  28.932  1.00  0.00     0.173 A 
ATOM     84  F   UNL A   1      34.396  34.206  32.368  1.00  0.00    -0.203 F 
ATOM     85  C   UNL A   1      33.479  35.127  30.411  1.00  0.00     0.198 A 
ATOM     86  C   UNL A   1      34.562  34.814  28.306  1.00  0.00     0.198 A 
ATOM     87  F   UNL A   1      36.571  33.651  28.163  1.00  0.00    -0.203 F 
ATOM     88  F   UNL A   1      32.508  35.693  31.141  1.00  0.00    -0.200 F 
ATOM     89  C   UNL A   1      33.535  35.364  29.048  1.00  0.00     0.200 A 
ATOM     90  F   UNL A   1      34.649  35.064  26.992  1.00  0.00    -0.200 F 
ATOM     91  F   UNL A   1      32.627  36.153  28.457  1.00  0.00    -0.200 F 
ENDBRANCH  57  81
BRANCH  69  92
ATOM     92  C   UNL A   1      39.917  33.049  34.843  1.00  0.00     0.064 A 
ATOM     93  C   UNL A   1      39.667  33.776  36.020  1.00  0.00     0.173 A 
ATOM     94  C   UNL A   1      39.421  31.740  34.774  1.00  0.00     0.173 A 
ATOM     95  F   UNL A   1      40.029  35.060  36.127  1.00  0.00    -0.203 F 
ATOM     96  C   UNL A   1      38.968  33.206  37.084  1.00  0.00     0.198 A 
ATOM     97  C   UNL A   1      38.691  31.188  35.822  1.00  0.00     0.198 A 
ATOM     98  F   UNL A   1      39.585  31.019  33.654  1.00  0.00    -0.203 F 
ATOM     99  F   UNL A   1      38.736  33.922  38.195  1.00  0.00    -0.200 F 
ATOM    100  C   UNL A   1      38.468  31.919  36.978  1.00  0.00     0.200 A 
ATOM    101  F   UNL A   1      38.165  29.963  35.694  1.00  0.00    -0.200 F 
ATOM    102  F   UNL A   1      37.742  31.396  37.975  1.00  0.00    -0.200 F 
ENDBRANCH  69  92
ENDBRANCH  43  44
ENDBRANCH  36  38
ENDBRANCH  35  36
ENDBRANCH  34  35
ENDBRANCH  33  34
ENDBRANCH  32  33
ENDBRANCH  31  32
ENDBRANCH  30  31
ENDBRANCH   1  30
TORSDOF 22
ENDMDL
MODEL 2
REMARK VINA RESULT:      -9.9      2.986      7.984
REMARK SMILES Cc1nc2sc3c(c2c2nc(CCC(=O)OCCOCCOCCOCCOC(=O)c4ccc(-c5c6nc(c(-c7c(F)c(F)c(F)c(F)c7F)c7ccc([nH]7)c(-c7c(F)c(F)c(F)c(F)c7F)c7nc(c(-c8c(F)c(F)c(F)c(F)c8F)c8ccc5[nH]8)C=C7)C=C6)cc4)nn12)[C@@H](C)CCC3
REMARK SMILES IDX 22 1 21 2 20 3 19 4 18 5 17 6 16 7 14 8 15 9 13 10 12 11
REMARK SMILES IDX 11 12 1 13 2 14 3 15 95 16 4 17 9 18 94 19 5 20 8 21 10 22
REMARK SMILES IDX 6 23 7 24 100 25 96 26 99 27 97 28 98 29 23 30 24 31 25 32
REMARK SMILES IDX 26 33 27 34 28 35 29 36 30 37 31 38 32 39 93 40 33 41 92 42
REMARK SMILES IDX 34 43 35 44 36 45 86 46 37 47 91 48 85 49 87 50 38 51 90 52
REMARK SMILES IDX 84 53 83 54 39 56 71 57 51 58 70 59 52 60 55 61 69 62 88 63
REMARK SMILES IDX 53 64 54 65 68 67 89 68 56 69 40 70 41 71 49 72 42 73 43 74
REMARK SMILES IDX 47 75 50 76 44 77 45 78 48 79 46 80 72 81 73 82 81 83 74 84
REMARK SMILES IDX 75 85 79 86 82 87 76 88 77 89 80 90 78 91 57 92 58 93 66 94
REMARK SMILES IDX 59 95 60 96 64 97 67 98 61 99 62 100 65 101 63 102
REMARK H PARENT 87 55 55 66
REMARK Flexibility Score: inf
ROOT
ATOM      1  O   UNL A   1      44.625  19.126  25.324  1.00  0.00    -0.377 OA
ENDROOT
BRANCH   1   2
ATOM      2  C   UNL A   1      43.228  19.138  25.525  1.00  0.00     0.188 C 
BRANCH   2   3
ATOM      3  C   UNL A   1      42.502  19.143  26.880  1.00  0.00     0.188 C 
BRANCH   3   4
ATOM      4  O   UNL A   1      41.346  19.931  27.043  1.00  0.00    -0.376 OA
BRANCH   4   5
ATOM      5  C   UNL A   1      41.177  21.127  26.283  1.00  0.00     0.202 C 
BRANCH   5   6
ATOM      6  C   UNL A   1      40.110  22.152  26.679  1.00  0.00     0.261 C 
BRANCH   6   7
ATOM      7  O   UNL A   1      38.810  21.854  26.112  1.00  0.00    -0.463 OA
BRANCH   7   8
ATOM      8  C   UNL A   1      38.078  22.940  25.768  1.00  0.00     0.306 C 
ATOM      9  O   UNL A   1      37.909  23.908  26.506  1.00  0.00    -0.252 OA
BRANCH   8  10
ATOM     10  C   UNL A   1      37.431  22.903  24.403  1.00  0.00     0.131 C 
BRANCH  10  11
ATOM     11  C   UNL A   1      36.173  22.090  24.155  1.00  0.00     0.091 C 
BRANCH  11  12
ATOM     12  C   UNL A   1      34.900  22.652  24.672  1.00  0.00     0.152 A 
ATOM     13  C   UNL A   1      32.736  22.204  28.159  1.00  0.00     0.090 C 
ATOM     14  C   UNL A   1      32.448  23.166  27.050  1.00  0.00     0.131 A 
ATOM     15  N   UNL A   1      31.438  23.995  27.078  1.00  0.00    -0.222 NA
ATOM     16  N   UNL A   1      33.345  23.109  25.978  1.00  0.00    -0.199 N 
ATOM     17  C   UNL A   1      31.292  24.798  25.970  1.00  0.00     0.129 A 
ATOM     18  C   UNL A   1      33.246  23.928  24.887  1.00  0.00     0.168 A 
ATOM     19  N   UNL A   1      34.391  22.265  25.854  1.00  0.00    -0.150 NA
ATOM     20  S   UNL A   1      29.981  25.883  25.836  1.00  0.00    -0.120 S 
ATOM     21  C   UNL A   1      32.097  24.863  24.840  1.00  0.00     0.060 A 
ATOM     22  N   UNL A   1      34.233  23.686  24.060  1.00  0.00    -0.211 NA
ATOM     23  C   UNL A   1      30.483  26.401  24.292  1.00  0.00     0.011 A 
ATOM     24  C   UNL A   1      31.641  25.781  23.847  1.00  0.00    -0.018 A 
ATOM     25  C   UNL A   1      29.691  27.407  23.516  1.00  0.00     0.047 C 
ATOM     26  C   UNL A   1      32.243  26.113  22.499  1.00  0.00     0.018 C 
ATOM     27  C   UNL A   1      30.586  28.083  22.475  1.00  0.00     0.006 C 
ATOM     28  C   UNL A   1      32.535  24.871  21.663  1.00  0.00     0.013 C 
ATOM     29  C   UNL A   1      31.335  27.037  21.649  1.00  0.00     0.008 C 
ENDBRANCH  11  12
ENDBRANCH  10  11
ENDBRANCH   8  10
ENDBRANCH   7   8
ENDBRANCH   6   7
ENDBRANCH   5   6
ENDBRANCH   4   5
ENDBRANCH   3   4
ENDBRANCH   2   3
ENDBRANCH   1   2
BRANCH   1  30
ATOM     30  C   UNL A   1      45.336  20.313  25.072  1.00  0.00     0.188 C 
BRANCH  30  31
ATOM     31  C   UNL A   1      45.249  21.504  26.047  1.00  0.00     0.188 C 
BRANCH  31  32
ATOM     32  O   UNL A   1      44.330  22.570  25.932  1.00  0.00    -0.376 OA
BRANCH  32  33
ATOM     33  C   UNL A   1      44.437  23.668  25.048  1.00  0.00     0.202 C 
BRANCH  33  34
ATOM     34  C   UNL A   1      43.264  24.559  24.641  1.00  0.00     0.261 C 
BRANCH  34  35
ATOM     35  O   UNL A   1      42.661  25.282  25.687  1.00  0.00    -0.460 OA
BRANCH  35  36
ATOM     36  C   UNL A   1      42.313  26.535  25.356  1.00  0.00     0.338 C 
ATOM     37  O   UNL A   1      42.792  27.245  24.493  1.00  0.00    -0.246 OA
BRANCH  36  38
ATOM     38  C   UNL A   1      41.329  26.986  26.341  1.00  0.00     0.060 A 
ATOM     39  C   UNL A   1      40.812  28.263  26.135  1.00  0.00     0.016 A 
ATOM     40  C   UNL A   1      41.302  26.343  27.588  1.00  0.00     0.016 A 
ATOM     41  C   UNL A   1      40.532  29.019  27.243  1.00  0.00     0.010 A 
ATOM     42  C   UNL A   1      41.058  27.109  28.695  1.00  0.00     0.010 A 
ATOM     43  C   UNL A   1      40.777  28.458  28.500  1.00  0.00    -0.014 A 
BRANCH  43  44
ATOM     44  C   UNL A   1      40.713  29.333  29.645  1.00  0.00     0.031 A 
ATOM     45  C   UNL A   1      39.519  30.196  29.636  1.00  0.00     0.074 A 
ATOM     46  C   UNL A   1      41.627  29.250  30.629  1.00  0.00     0.049 A 
ATOM     47  N   UNL A   1      39.474  31.484  29.577  1.00  0.00    -0.248 NA
ATOM     48  C   UNL A   1      38.210  29.534  29.508  1.00  0.00     0.031 C 
ATOM     49  C   UNL A   1      42.662  28.228  30.816  1.00  0.00     0.029 A 
ATOM     50  N   UNL A   1      41.752  30.018  31.740  1.00  0.00    -0.354 N 
ATOM     51  C   UNL A   1      38.121  31.800  29.593  1.00  0.00     0.074 A 
ATOM     52  C   UNL A   1      37.401  30.580  29.350  1.00  0.00     0.031 C 
ATOM     53  C   UNL A   1      43.147  28.314  32.076  1.00  0.00     0.029 A 
ATOM     54  C   UNL A   1      42.542  29.459  32.734  1.00  0.00     0.049 A 
ATOM     55  H   UNL A   1      41.320  30.898  31.833  1.00  0.00     0.167 HD
ATOM     56  C   UNL A   1      37.690  32.989  30.086  1.00  0.00     0.037 A 
ATOM     57  C   UNL A   1      42.586  29.866  34.028  1.00  0.00     0.037 A 
ATOM     58  C   UNL A   1      38.744  33.966  30.093  1.00  0.00     0.049 A 
ATOM     59  C   UNL A   1      42.034  31.247  34.070  1.00  0.00     0.074 A 
ATOM     60  C   UNL A   1      39.512  34.560  29.110  1.00  0.00     0.029 A 
ATOM     61  N   UNL A   1      39.398  34.193  31.278  1.00  0.00    -0.354 N 
ATOM     62  N   UNL A   1      42.616  32.286  33.535  1.00  0.00    -0.248 NA
ATOM     63  C   UNL A   1      40.609  31.400  34.330  1.00  0.00     0.031 C 
ATOM     64  C   UNL A   1      40.799  34.733  29.695  1.00  0.00     0.029 A 
ATOM     65  C   UNL A   1      40.740  34.279  31.014  1.00  0.00     0.049 A 
ATOM     66  H   UNL A   1      38.976  34.278  32.163  1.00  0.00     0.167 HD
ATOM     67  C   UNL A   1      41.578  33.048  33.016  1.00  0.00     0.074 A 
ATOM     68  C   UNL A   1      40.367  32.506  33.621  1.00  0.00     0.031 C 
ATOM     69  C   UNL A   1      41.774  33.851  31.929  1.00  0.00     0.037 A 
BRANCH  56  70
ATOM     70  C   UNL A   1      36.431  33.131  30.898  1.00  0.00     0.064 A 
ATOM     71  C   UNL A   1      35.319  33.775  30.328  1.00  0.00     0.173 A 
ATOM     72  C   UNL A   1      36.362  32.913  32.293  1.00  0.00     0.173 A 
ATOM     73  F   UNL A   1      35.297  34.069  29.019  1.00  0.00    -0.203 F 
ATOM     74  C   UNL A   1      34.246  34.213  31.106  1.00  0.00     0.198 A 
ATOM     75  C   UNL A   1      35.262  33.294  33.056  1.00  0.00     0.198 A 
ATOM     76  F   UNL A   1      37.395  32.435  32.997  1.00  0.00    -0.203 F 
ATOM     77  F   UNL A   1      33.266  34.931  30.541  1.00  0.00    -0.200 F 
ATOM     78  C   UNL A   1      34.216  33.970  32.468  1.00  0.00     0.200 A 
ATOM     79  F   UNL A   1      35.268  33.071  34.377  1.00  0.00    -0.200 F 
ATOM     80  F   UNL A   1      33.212  34.434  33.223  1.00  0.00    -0.200 F 
ENDBRANCH  56  70
BRANCH  57  81
ATOM     81  C   UNL A   1      42.725  29.021  35.243  1.00  0.00     0.064 A 
ATOM     82  C   UNL A   1      41.808  27.990  35.510  1.00  0.00     0.173 A 
ATOM     83  C   UNL A   1      43.898  29.025  36.024  1.00  0.00     0.173 A 
ATOM     84  F   UNL A   1      40.686  27.881  34.783  1.00  0.00    -0.203 F 
ATOM     85  C   UNL A   1      42.061  27.012  36.480  1.00  0.00     0.198 A 
ATOM     86  C   UNL A   1      44.144  28.057  36.998  1.00  0.00     0.198 A 
ATOM     87  F   UNL A   1      44.880  29.907  35.797  1.00  0.00    -0.203 F 
ATOM     88  F   UNL A   1      41.193  26.007  36.657  1.00  0.00    -0.200 F 
ATOM     89  C   UNL A   1      43.232  27.042  37.216  1.00  0.00     0.200 A 
ATOM     90  F   UNL A   1      45.299  28.079  37.679  1.00  0.00    -0.200 F 
ATOM     91  F   UNL A   1      43.504  26.074  38.103  1.00  0.00    -0.200 F 
ENDBRANCH  57  81
BRANCH  69  92
ATOM     92  C   UNL A   1      43.190  34.112  31.492  1.00  0.00     0.064 A 
ATOM     93  C   UNL A   1      43.893  33.289  30.596  1.00  0.00     0.173 A 
ATOM     94  C   UNL A   1      43.771  35.341  31.834  1.00  0.00     0.173 A 
ATOM     95  F   UNL A   1      43.364  32.142  30.152  1.00  0.00    -0.203 F 
ATOM     96  C   UNL A   1      45.131  33.675  30.082  1.00  0.00     0.198 A 
ATOM     97  C   UNL A   1      44.988  35.740  31.290  1.00  0.00     0.198 A 
ATOM     98  F   UNL A   1      43.118  36.188  32.644  1.00  0.00    -0.203 F 
ATOM     99  F   UNL A   1      45.781  32.875  29.223  1.00  0.00    -0.200 F 
ATOM    100  C   UNL A   1      45.669  34.906  30.417  1.00  0.00     0.200 A 
ATOM    101  F   UNL A   1      45.478  36.953  31.576  1.00  0.00    -0.200 F 
ATOM    102  F   UNL A   1      46.827  35.305  29.874  1.00  0.00    -0.200 F 
ENDBRANCH  69  92
ENDBRANCH  43  44
ENDBRANCH  36  38
ENDBRANCH  35  36
ENDBRANCH  34  35
ENDBRANCH  33  34
ENDBRANCH  32  33
ENDBRANCH  31  32
ENDBRANCH  30  31
ENDBRANCH   1  30
TORSDOF 22
ENDMDL
MODEL 3
REMARK VINA RESULT:      -9.9      4.509      8.947
REMARK SMILES Cc1nc2sc3c(c2c2nc(CCC(=O)OCCOCCOCCOCCOC(=O)c4ccc(-c5c6nc(c(-c7c(F)c(F)c(F)c(F)c7F)c7ccc([nH]7)c(-c7c(F)c(F)c(F)c(F)c7F)c7nc(c(-c8c(F)c(F)c(F)c(F)c8F)c8ccc5[nH]8)C=C7)C=C6)cc4)nn12)[C@@H](C)CCC3
REMARK SMILES IDX 22 1 21 2 20 3 19 4 18 5 17 6 16 7 14 8 15 9 13 10 12 11
REMARK SMILES IDX 11 12 1 13 2 14 3 15 95 16 4 17 9 18 94 19 5 20 8 21 10 22
REMARK SMILES IDX 6 23 7 24 100 25 96 26 99 27 97 28 98 29 23 30 24 31 25 32
REMARK SMILES IDX 26 33 27 34 28 35 29 36 30 37 31 38 32 39 93 40 33 41 92 42
REMARK SMILES IDX 34 43 35 44 36 45 86 46 37 47 91 48 85 49 87 50 38 51 90 52
REMARK SMILES IDX 84 53 83 54 39 56 71 57 51 58 70 59 52 60 55 61 69 62 88 63
REMARK SMILES IDX 53 64 54 65 68 67 89 68 56 69 40 70 41 71 49 72 42 73 43 74
REMARK SMILES IDX 47 75 50 76 44 77 45 78 48 79 46 80 72 81 73 82 81 83 74 84
REMARK SMILES IDX 75 85 79 86 82 87 76 88 77 89 80 90 78 91 57 92 58 93 66 94
REMARK SMILES IDX 59 95 60 96 64 97 67 98 61 99 62 100 65 101 63 102
REMARK H PARENT 87 55 55 66
REMARK Flexibility Score: inf
ROOT
ATOM      1  O   UNL A   1      32.712  37.020  30.227  1.00  0.00    -0.377 OA
ENDROOT
BRANCH   1   2
ATOM      2  C   UNL A   1      33.222  36.334  29.105  1.00  0.00     0.188 C 
BRANCH   2   3
ATOM      3  C   UNL A   1      33.186  34.815  28.871  1.00  0.00     0.188 C 
BRANCH   3   4
ATOM      4  O   UNL A   1      34.118  33.991  29.532  1.00  0.00    -0.376 OA
BRANCH   4   5
ATOM      5  C   UNL A   1      35.389  33.724  28.941  1.00  0.00     0.202 C 
BRANCH   5   6
ATOM      6  C   UNL A   1      35.551  32.574  27.942  1.00  0.00     0.261 C 
BRANCH   6   7
ATOM      7  O   UNL A   1      35.404  31.271  28.560  1.00  0.00    -0.463 OA
BRANCH   7   8
ATOM      8  C   UNL A   1      35.939  30.244  27.856  1.00  0.00     0.306 C 
ATOM      9  O   UNL A   1      37.017  30.310  27.271  1.00  0.00    -0.252 OA
BRANCH   8  10
ATOM     10  C   UNL A   1      35.116  28.979  27.795  1.00  0.00     0.131 C 
BRANCH  10  11
ATOM     11  C   UNL A   1      33.777  28.950  27.080  1.00  0.00     0.091 C 
BRANCH  11  12
ATOM     12  C   UNL A   1      33.655  28.025  25.925  1.00  0.00     0.152 A 
ATOM     13  C   UNL A   1      33.990  28.437  21.831  1.00  0.00     0.090 C 
ATOM     14  C   UNL A   1      33.814  27.157  22.586  1.00  0.00     0.131 A 
ATOM     15  N   UNL A   1      33.746  25.992  21.996  1.00  0.00    -0.222 NA
ATOM     16  N   UNL A   1      33.727  27.304  23.974  1.00  0.00    -0.199 N 
ATOM     17  C   UNL A   1      33.557  24.912  22.826  1.00  0.00     0.129 A 
ATOM     18  C   UNL A   1      33.584  26.239  24.822  1.00  0.00     0.168 A 
ATOM     19  N   UNL A   1      33.756  28.466  24.659  1.00  0.00    -0.150 NA
ATOM     20  S   UNL A   1      33.382  23.335  22.193  1.00  0.00    -0.120 S 
ATOM     21  C   UNL A   1      33.459  24.895  24.212  1.00  0.00     0.060 A 
ATOM     22  N   UNL A   1      33.568  26.660  26.062  1.00  0.00    -0.211 NA
ATOM     23  C   UNL A   1      33.163  22.666  23.745  1.00  0.00     0.011 A 
ATOM     24  C   UNL A   1      33.221  23.602  24.767  1.00  0.00    -0.018 A 
ATOM     25  C   UNL A   1      32.898  21.204  23.929  1.00  0.00     0.047 C 
ATOM     26  C   UNL A   1      33.051  23.197  26.215  1.00  0.00     0.018 C 
ATOM     27  C   UNL A   1      33.274  20.782  25.351  1.00  0.00     0.006 C 
ATOM     28  C   UNL A   1      32.015  24.045  26.946  1.00  0.00     0.013 C 
ATOM     29  C   UNL A   1      32.630  21.715  26.376  1.00  0.00     0.008 C 
ENDBRANCH  11  12
ENDBRANCH  10  11
ENDBRANCH   8  10
ENDBRANCH   7   8
ENDBRANCH   6   7
ENDBRANCH   5   6
ENDBRANCH   4   5
ENDBRANCH   3   4
ENDBRANCH   2   3
ENDBRANCH   1   2
BRANCH   1  30
ATOM     30  C   UNL A   1      32.645  36.405  31.490  1.00  0.00     0.188 C 
BRANCH  30  31
ATOM     31  C   UNL A   1      33.383  37.011  32.700  1.00  0.00     0.188 C 
BRANCH  31  32
ATOM     32  O   UNL A   1      34.584  36.504  33.244  1.00  0.00    -0.376 OA
BRANCH  32  33
ATOM     33  C   UNL A   1      35.150  35.238  32.970  1.00  0.00     0.202 C 
BRANCH  33  34
ATOM     34  C   UNL A   1      34.635  33.923  33.554  1.00  0.00     0.261 C 
BRANCH  34  35
ATOM     35  O   UNL A   1      35.257  32.759  33.067  1.00  0.00    -0.460 OA
BRANCH  35  36
ATOM     36  C   UNL A   1      36.305  32.352  33.801  1.00  0.00     0.338 C 
ATOM     37  O   UNL A   1      36.649  32.740  34.901  1.00  0.00    -0.246 OA
BRANCH  36  38
ATOM     38  C   UNL A   1      37.089  31.439  32.968  1.00  0.00     0.060 A 
ATOM     39  C   UNL A   1      38.031  30.666  33.643  1.00  0.00     0.016 A 
ATOM     40  C   UNL A   1      37.161  31.701  31.591  1.00  0.00     0.016 A 
ATOM     41  C   UNL A   1      39.210  30.397  32.996  1.00  0.00     0.010 A 
ATOM     42  C   UNL A   1      38.350  31.464  30.957  1.00  0.00     0.010 A 
ATOM     43  C   UNL A   1      39.383  30.909  31.707  1.00  0.00    -0.014 A 
BRANCH  43  44
ATOM     44  C   UNL A   1      40.703  30.832  31.131  1.00  0.00     0.031 A 
ATOM     45  C   UNL A   1      40.974  29.528  30.499  1.00  0.00     0.074 A 
ATOM     46  C   UNL A   1      41.515  31.905  31.120  1.00  0.00     0.049 A 
ATOM     47  N   UNL A   1      41.871  28.661  30.827  1.00  0.00    -0.248 NA
ATOM     48  C   UNL A   1      40.017  29.060  29.483  1.00  0.00     0.031 C 
ATOM     49  C   UNL A   1      41.188  33.288  31.481  1.00  0.00     0.029 A 
ATOM     50  N   UNL A   1      42.793  32.000  30.674  1.00  0.00    -0.354 N 
ATOM     51  C   UNL A   1      41.707  27.614  29.929  1.00  0.00     0.074 A 
ATOM     52  C   UNL A   1      40.447  27.818  29.269  1.00  0.00     0.031 C 
ATOM     53  C   UNL A   1      42.163  34.107  31.026  1.00  0.00     0.029 A 
ATOM     54  C   UNL A   1      43.223  33.299  30.448  1.00  0.00     0.049 A 
ATOM     55  H   UNL A   1      43.367  31.213  30.524  1.00  0.00     0.167 HD
ATOM     56  C   UNL A   1      42.751  26.813  29.596  1.00  0.00     0.037 A 
ATOM     57  C   UNL A   1      44.323  33.652  29.736  1.00  0.00     0.037 A 
ATOM     58  C   UNL A   1      43.790  26.867  30.588  1.00  0.00     0.049 A 
ATOM     59  C   UNL A   1      45.198  32.451  29.659  1.00  0.00     0.074 A 
ATOM     60  C   UNL A   1      43.859  26.535  31.927  1.00  0.00     0.029 A 
ATOM     61  N   UNL A   1      44.874  27.670  30.337  1.00  0.00    -0.354 N 
ATOM     62  N   UNL A   1      45.810  31.923  30.684  1.00  0.00    -0.248 NA
ATOM     63  C   UNL A   1      45.041  31.571  28.509  1.00  0.00     0.031 C 
ATOM     64  C   UNL A   1      44.728  27.503  32.507  1.00  0.00     0.029 A 
ATOM     65  C   UNL A   1      45.179  28.346  31.490  1.00  0.00     0.049 A 
ATOM     66  H   UNL A   1      45.348  27.748  29.478  1.00  0.00     0.167 HD
ATOM     67  C   UNL A   1      45.743  30.553  30.472  1.00  0.00     0.074 A 
ATOM     68  C   UNL A   1      45.349  30.401  29.076  1.00  0.00     0.031 C 
ATOM     69  C   UNL A   1      45.731  29.682  31.523  1.00  0.00     0.037 A 
BRANCH  56  70
ATOM     70  C   UNL A   1      42.972  26.293  28.202  1.00  0.00     0.064 A 
ATOM     71  C   UNL A   1      43.019  24.904  27.989  1.00  0.00     0.173 A 
ATOM     72  C   UNL A   1      43.414  27.091  27.121  1.00  0.00     0.173 A 
ATOM     73  F   UNL A   1      42.662  24.052  28.962  1.00  0.00    -0.203 F 
ATOM     74  C   UNL A   1      43.519  24.359  26.805  1.00  0.00     0.198 A 
ATOM     75  C   UNL A   1      43.853  26.545  25.919  1.00  0.00     0.198 A 
ATOM     76  F   UNL A   1      43.555  28.419  27.220  1.00  0.00    -0.203 F 
ATOM     77  F   UNL A   1      43.660  23.031  26.694  1.00  0.00    -0.200 F 
ATOM     78  C   UNL A   1      43.932  25.178  25.770  1.00  0.00     0.200 A 
ATOM     79  F   UNL A   1      44.272  27.359  24.940  1.00  0.00    -0.200 F 
ATOM     80  F   UNL A   1      44.459  24.657  24.655  1.00  0.00    -0.200 F 
ENDBRANCH  56  70
BRANCH  57  81
ATOM     81  C   UNL A   1      44.482  34.819  28.830  1.00  0.00     0.064 A 
ATOM     82  C   UNL A   1      43.926  34.809  27.539  1.00  0.00     0.173 A 
ATOM     83  C   UNL A   1      44.946  36.067  29.295  1.00  0.00     0.173 A 
ATOM     84  F   UNL A   1      43.416  33.676  27.035  1.00  0.00    -0.203 F 
ATOM     85  C   UNL A   1      43.819  35.977  26.774  1.00  0.00     0.198 A 
ATOM     86  C   UNL A   1      44.850  37.228  28.527  1.00  0.00     0.198 A 
ATOM     87  F   UNL A   1      45.414  36.212  30.542  1.00  0.00    -0.203 F 
ATOM     88  F   UNL A   1      43.221  35.938  25.576  1.00  0.00    -0.200 F 
ATOM     89  C   UNL A   1      44.273  37.186  27.272  1.00  0.00     0.200 A 
ATOM     90  F   UNL A   1      45.262  38.397  29.037  1.00  0.00    -0.200 F 
ATOM     91  F   UNL A   1      44.118  38.314  26.566  1.00  0.00    -0.200 F 
ENDBRANCH  57  81
BRANCH  69  92
ATOM     92  C   UNL A   1      46.082  30.215  32.885  1.00  0.00     0.064 A 
ATOM     93  C   UNL A   1      47.401  30.374  33.345  1.00  0.00     0.173 A 
ATOM     94  C   UNL A   1      45.055  30.772  33.661  1.00  0.00     0.173 A 
ATOM     95  F   UNL A   1      48.440  29.950  32.616  1.00  0.00    -0.203 F 
ATOM     96  C   UNL A   1      47.673  31.044  34.537  1.00  0.00     0.198 A 
ATOM     97  C   UNL A   1      45.333  31.473  34.830  1.00  0.00     0.198 A 
ATOM     98  F   UNL A   1      43.783  30.696  33.242  1.00  0.00    -0.203 F 
ATOM     99  F   UNL A   1      48.940  31.188  34.953  1.00  0.00    -0.200 F 
ATOM    100  C   UNL A   1      46.640  31.606  35.270  1.00  0.00     0.200 A 
ATOM    101  F   UNL A   1      44.337  32.059  35.507  1.00  0.00    -0.200 F 
ATOM    102  F   UNL A   1      46.908  32.305  36.382  1.00  0.00    -0.200 F 
ENDBRANCH  69  92
ENDBRANCH  43  44
ENDBRANCH  36  38
ENDBRANCH  35  36
ENDBRANCH  34  35
ENDBRANCH  33  34
ENDBRANCH  32  33
ENDBRANCH  31  32
ENDBRANCH  30  31
ENDBRANCH   1  30
TORSDOF 22
ENDMDL
