MODEL 1
REMARK VINA RESULT:      -8.2      0.000      0.000
REMARK SMILES COc1cccc([C@@H]2C[N@@H+](Cc3nccn3C)C[C@H]2C(=O)OCCOCCOCCOCCOC(=O)c2ccc(-c3c4nc(c(-c5c(F)c(F)c(F)c(F)c5F)c5ccc([nH]5)c(-c5c(F)c(F)c(F)c(F)c5F)c5nc(c(-c6c(F)c(F)c(F)c(F)c6F)c6ccc3[nH]6)C=C5)C=C4)cc2)c1
REMARK SMILES IDX 28 1 27 2 26 3 25 4 24 5 23 6 22 7 20 8 21 9 19 10 8 11 9 12
REMARK SMILES IDX 10 13 18 14 7 16 3 17 4 18 100 19 5 20 6 21 2 22 1 23 11 24
REMARK SMILES IDX 12 25 13 26 16 27 14 28 15 29 17 30 29 31 30 32 31 33 32 34
REMARK SMILES IDX 33 35 34 36 35 37 36 38 37 39 38 40 99 41 39 42 98 43 40 44
REMARK SMILES IDX 41 45 42 46 92 47 43 48 97 49 91 50 93 51 44 52 96 53 90 54
REMARK SMILES IDX 89 55 45 57 77 58 57 59 76 60 58 61 61 62 75 63 94 64 59 65
REMARK SMILES IDX 60 66 74 68 95 69 62 70 46 71 47 72 55 73 48 74 49 75 53 76
REMARK SMILES IDX 56 77 50 78 51 79 54 80 52 81 78 82 79 83 87 84 80 85 81 86
REMARK SMILES IDX 85 87 88 88 82 89 83 90 86 91 84 92 63 93 64 94 72 95 65 96
REMARK SMILES IDX 66 97 70 98 73 99 67 100 68 101 71 102 69 103
REMARK H PARENT 10 15 93 56 61 67
REMARK Flexibility Score: inf
ROOT
ATOM      1  O   UNL A   1      39.385  32.327  38.039  1.00  0.00    -0.377 OA
ENDROOT
BRANCH   1   2
ATOM      2  C   UNL A   1      39.182  32.106  36.656  1.00  0.00     0.188 C 
BRANCH   2   3
ATOM      3  C   UNL A   1      38.198  31.018  36.222  1.00  0.00     0.188 C 
BRANCH   3   4
ATOM      4  O   UNL A   1      38.640  30.091  35.258  1.00  0.00    -0.376 OA
BRANCH   4   5
ATOM      5  C   UNL A   1      38.208  30.192  33.915  1.00  0.00     0.202 C 
BRANCH   5   6
ATOM      6  C   UNL A   1      37.935  31.504  33.151  1.00  0.00     0.261 C 
BRANCH   6   7
ATOM      7  O   UNL A   1      38.840  31.931  32.115  1.00  0.00    -0.463 OA
BRANCH   7   8
ATOM      8  C   UNL A   1      38.296  32.634  31.092  1.00  0.00     0.315 C 
ATOM      9  O   UNL A   1      37.859  33.776  31.224  1.00  0.00    -0.252 OA
BRANCH   8  10
ATOM     10  C   UNL A   1      38.146  31.910  29.762  1.00  0.00     0.167 C 
ATOM     11  C   UNL A   1      37.658  30.454  29.623  1.00  0.00     0.094 C 
ATOM     12  C   UNL A   1      36.826  30.502  28.331  1.00  0.00     0.272 C 
ATOM     13  N   UNL A   1      36.208  31.829  28.290  1.00  0.00    -0.327 N 
ATOM     14  C   UNL A   1      37.157  32.738  28.930  1.00  0.00     0.278 C 
ATOM     15  H   UNL A   1      36.048  32.131  27.329  1.00  0.00     0.348 HD
BRANCH  11  16
ATOM     16  C   UNL A   1      38.666  29.310  29.502  1.00  0.00    -0.035 A 
ATOM     17  C   UNL A   1      39.834  27.557  28.269  1.00  0.00     0.119 A 
ATOM     18  C   UNL A   1      40.600  27.266  29.397  1.00  0.00     0.046 A 
ATOM     19  C   UNL A   1      38.854  28.556  28.331  1.00  0.00     0.050 A 
ATOM     20  C   UNL A   1      40.401  27.973  30.579  1.00  0.00     0.004 A 
ATOM     21  C   UNL A   1      39.446  28.989  30.630  1.00  0.00     0.004 A 
BRANCH  17  22
ATOM     22  O   UNL A   1      40.103  26.779  27.176  1.00  0.00    -0.497 OA
ATOM     23  C   UNL A   1      39.448  25.516  27.125  1.00  0.00     0.278 C 
ENDBRANCH  17  22
ENDBRANCH  11  16
BRANCH  13  24
ATOM     24  C   UNL A   1      34.832  31.867  28.816  1.00  0.00     0.339 C 
BRANCH  24  25
ATOM     25  C   UNL A   1      34.500  32.958  29.798  1.00  0.00     0.164 A 
ATOM     26  N   UNL A   1      34.444  32.801  31.112  1.00  0.00    -0.236 NA
ATOM     27  N   UNL A   1      34.201  34.261  29.468  1.00  0.00    -0.333 N 
ATOM     28  C   UNL A   1      34.179  34.037  31.636  1.00  0.00     0.131 A 
ATOM     29  C   UNL A   1      34.033  34.962  30.632  1.00  0.00     0.107 A 
ATOM     30  C   UNL A   1      34.077  34.820  28.146  1.00  0.00     0.151 C 
ENDBRANCH  24  25
ENDBRANCH  13  24
ENDBRANCH   8  10
ENDBRANCH   7   8
ENDBRANCH   6   7
ENDBRANCH   5   6
ENDBRANCH   4   5
ENDBRANCH   3   4
ENDBRANCH   2   3
ENDBRANCH   1   2
BRANCH   1  31
ATOM     31  C   UNL A   1      38.629  33.313  38.724  1.00  0.00     0.188 C 
BRANCH  31  32
ATOM     32  C   UNL A   1      38.855  33.591  40.221  1.00  0.00     0.188 C 
BRANCH  32  33
ATOM     33  O   UNL A   1      38.166  34.718  40.726  1.00  0.00    -0.376 OA
BRANCH  33  34
ATOM     34  C   UNL A   1      38.891  35.909  40.984  1.00  0.00     0.202 C 
BRANCH  34  35
ATOM     35  C   UNL A   1      38.872  37.038  39.943  1.00  0.00     0.261 C 
BRANCH  35  36
ATOM     36  O   UNL A   1      39.510  36.781  38.684  1.00  0.00    -0.460 OA
BRANCH  36  37
ATOM     37  C   UNL A   1      40.815  37.090  38.550  1.00  0.00     0.338 C 
ATOM     38  O   UNL A   1      41.508  37.744  39.309  1.00  0.00    -0.246 OA
BRANCH  37  39
ATOM     39  C   UNL A   1      41.315  36.342  37.378  1.00  0.00     0.060 A 
ATOM     40  C   UNL A   1      40.404  35.850  36.435  1.00  0.00     0.016 A 
ATOM     41  C   UNL A   1      42.687  36.153  37.204  1.00  0.00     0.016 A 
ATOM     42  C   UNL A   1      40.865  35.148  35.320  1.00  0.00     0.010 A 
ATOM     43  C   UNL A   1      43.146  35.429  36.101  1.00  0.00     0.010 A 
ATOM     44  C   UNL A   1      42.236  34.903  35.167  1.00  0.00    -0.014 A 
BRANCH  44  45
ATOM     45  C   UNL A   1      42.717  33.962  34.128  1.00  0.00     0.031 A 
ATOM     46  C   UNL A   1      42.997  34.499  32.753  1.00  0.00     0.074 A 
ATOM     47  C   UNL A   1      42.886  32.655  34.396  1.00  0.00     0.049 A 
ATOM     48  N   UNL A   1      43.321  33.859  31.658  1.00  0.00    -0.248 NA
ATOM     49  C   UNL A   1      42.896  35.957  32.590  1.00  0.00     0.031 C 
ATOM     50  C   UNL A   1      42.687  32.029  35.700  1.00  0.00     0.029 A 
ATOM     51  N   UNL A   1      43.244  31.616  33.572  1.00  0.00    -0.354 N 
ATOM     52  C   UNL A   1      43.448  34.834  30.677  1.00  0.00     0.074 A 
ATOM     53  C   UNL A   1      43.145  36.104  31.299  1.00  0.00     0.031 C 
ATOM     54  C   UNL A   1      42.903  30.707  35.584  1.00  0.00     0.029 A 
ATOM     55  C   UNL A   1      43.212  30.390  34.189  1.00  0.00     0.049 A 
ATOM     56  H   UNL A   1      43.500  31.739  32.629  1.00  0.00     0.167 HD
ATOM     57  C   UNL A   1      43.789  34.679  29.376  1.00  0.00     0.037 A 
ATOM     58  C   UNL A   1      43.374  29.154  33.675  1.00  0.00     0.037 A 
ATOM     59  C   UNL A   1      44.081  33.410  28.765  1.00  0.00     0.049 A 
ATOM     60  C   UNL A   1      43.660  29.002  32.201  1.00  0.00     0.074 A 
ATOM     61  C   UNL A   1      44.463  33.148  27.462  1.00  0.00     0.029 A 
ATOM     62  N   UNL A   1      44.007  32.186  29.415  1.00  0.00    -0.354 N 
ATOM     63  N   UNL A   1      43.816  29.928  31.286  1.00  0.00    -0.248 NA
ATOM     64  C   UNL A   1      43.784  27.630  31.687  1.00  0.00     0.031 C 
ATOM     65  C   UNL A   1      44.554  31.761  27.305  1.00  0.00     0.029 A 
ATOM     66  C   UNL A   1      44.294  31.162  28.527  1.00  0.00     0.049 A 
ATOM     67  H   UNL A   1      43.782  32.064  30.366  1.00  0.00     0.167 HD
ATOM     68  C   UNL A   1      44.081  29.255  30.098  1.00  0.00     0.074 A 
ATOM     69  C   UNL A   1      44.084  27.842  30.414  1.00  0.00     0.031 C 
ATOM     70  C   UNL A   1      44.298  29.760  28.859  1.00  0.00     0.037 A 
BRANCH  57  71
ATOM     71  C   UNL A   1      43.828  35.909  28.515  1.00  0.00     0.064 A 
ATOM     72  C   UNL A   1      42.658  36.496  28.008  1.00  0.00     0.173 A 
ATOM     73  C   UNL A   1      45.051  36.533  28.226  1.00  0.00     0.173 A 
ATOM     74  F   UNL A   1      41.463  35.932  28.244  1.00  0.00    -0.203 F 
ATOM     75  C   UNL A   1      42.715  37.646  27.225  1.00  0.00     0.198 A 
ATOM     76  C   UNL A   1      45.101  37.700  27.471  1.00  0.00     0.198 A 
ATOM     77  F   UNL A   1      46.199  36.016  28.689  1.00  0.00    -0.203 F 
ATOM     78  F   UNL A   1      41.589  38.161  26.713  1.00  0.00    -0.200 F 
ATOM     79  C   UNL A   1      43.935  38.251  26.964  1.00  0.00     0.200 A 
ATOM     80  F   UNL A   1      46.280  38.292  27.232  1.00  0.00    -0.200 F 
ATOM     81  F   UNL A   1      43.986  39.365  26.219  1.00  0.00    -0.200 F 
ENDBRANCH  57  71
BRANCH  58  82
ATOM     82  C   UNL A   1      43.235  27.958  34.548  1.00  0.00     0.064 A 
ATOM     83  C   UNL A   1      42.027  27.253  34.625  1.00  0.00     0.173 A 
ATOM     84  C   UNL A   1      44.300  27.510  35.347  1.00  0.00     0.173 A 
ATOM     85  F   UNL A   1      40.969  27.656  33.903  1.00  0.00    -0.203 F 
ATOM     86  C   UNL A   1      41.881  26.161  35.479  1.00  0.00     0.198 A 
ATOM     87  C   UNL A   1      44.164  26.397  36.174  1.00  0.00     0.198 A 
ATOM     88  F   UNL A   1      45.478  28.150  35.316  1.00  0.00    -0.203 F 
ATOM     89  F   UNL A   1      40.698  25.538  35.570  1.00  0.00    -0.200 F 
ATOM     90  C   UNL A   1      42.951  25.729  36.247  1.00  0.00     0.200 A 
ATOM     91  F   UNL A   1      45.206  25.974  36.901  1.00  0.00    -0.200 F 
ATOM     92  F   UNL A   1      42.813  24.674  37.062  1.00  0.00    -0.200 F 
ENDBRANCH  58  82
BRANCH  70  93
ATOM     93  C   UNL A   1      44.584  28.787  27.751  1.00  0.00     0.064 A 
ATOM     94  C   UNL A   1      43.605  28.433  26.810  1.00  0.00     0.173 A 
ATOM     95  C   UNL A   1      45.873  28.253  27.588  1.00  0.00     0.173 A 
ATOM     96  F   UNL A   1      42.354  28.903  26.929  1.00  0.00    -0.203 F 
ATOM     97  C   UNL A   1      43.901  27.567  25.760  1.00  0.00     0.198 A 
ATOM     98  C   UNL A   1      46.172  27.415  26.518  1.00  0.00     0.198 A 
ATOM     99  F   UNL A   1      46.849  28.565  28.454  1.00  0.00    -0.203 F 
ATOM    100  F   UNL A   1      42.939  27.208  24.899  1.00  0.00    -0.200 F 
ATOM    101  C   UNL A   1      45.186  27.068  25.609  1.00  0.00     0.200 A 
ATOM    102  F   UNL A   1      47.420  26.950  26.363  1.00  0.00    -0.200 F 
ATOM    103  F   UNL A   1      45.472  26.248  24.588  1.00  0.00    -0.200 F 
ENDBRANCH  70  93
ENDBRANCH  44  45
ENDBRANCH  37  39
ENDBRANCH  36  37
ENDBRANCH  35  36
ENDBRANCH  34  35
ENDBRANCH  33  34
ENDBRANCH  32  33
ENDBRANCH  31  32
ENDBRANCH   1  31
TORSDOF 24
ENDMDL
MODEL 2
REMARK VINA RESULT:      -7.7      4.439      8.295
REMARK SMILES COc1cccc([C@@H]2C[N@@H+](Cc3nccn3C)C[C@H]2C(=O)OCCOCCOCCOCCOC(=O)c2ccc(-c3c4nc(c(-c5c(F)c(F)c(F)c(F)c5F)c5ccc([nH]5)c(-c5c(F)c(F)c(F)c(F)c5F)c5nc(c(-c6c(F)c(F)c(F)c(F)c6F)c6ccc3[nH]6)C=C5)C=C4)cc2)c1
REMARK SMILES IDX 28 1 27 2 26 3 25 4 24 5 23 6 22 7 20 8 21 9 19 10 8 11 9 12
REMARK SMILES IDX 10 13 18 14 7 16 3 17 4 18 100 19 5 20 6 21 2 22 1 23 11 24
REMARK SMILES IDX 12 25 13 26 16 27 14 28 15 29 17 30 29 31 30 32 31 33 32 34
REMARK SMILES IDX 33 35 34 36 35 37 36 38 37 39 38 40 99 41 39 42 98 43 40 44
REMARK SMILES IDX 41 45 42 46 92 47 43 48 97 49 91 50 93 51 44 52 96 53 90 54
REMARK SMILES IDX 89 55 45 57 77 58 57 59 76 60 58 61 61 62 75 63 94 64 59 65
REMARK SMILES IDX 60 66 74 68 95 69 62 70 46 71 47 72 55 73 48 74 49 75 53 76
REMARK SMILES IDX 56 77 50 78 51 79 54 80 52 81 78 82 79 83 87 84 80 85 81 86
REMARK SMILES IDX 85 87 88 88 82 89 83 90 86 91 84 92 63 93 64 94 72 95 65 96
REMARK SMILES IDX 66 97 70 98 73 99 67 100 68 101 71 102 69 103
REMARK H PARENT 10 15 93 56 61 67
REMARK Flexibility Score: inf
ROOT
ATOM      1  O   UNL A   1      37.715  28.946  28.807  1.00  0.00    -0.377 OA
ENDROOT
BRANCH   1   2
ATOM      2  C   UNL A   1      38.588  29.500  27.841  1.00  0.00     0.188 C 
BRANCH   2   3
ATOM      3  C   UNL A   1      39.627  28.591  27.181  1.00  0.00     0.188 C 
BRANCH   3   4
ATOM      4  O   UNL A   1      40.263  27.634  27.996  1.00  0.00    -0.376 OA
BRANCH   4   5
ATOM      5  C   UNL A   1      40.024  26.254  27.803  1.00  0.00     0.202 C 
BRANCH   5   6
ATOM      6  C   UNL A   1      41.091  25.193  27.464  1.00  0.00     0.261 C 
BRANCH   6   7
ATOM      7  O   UNL A   1      41.343  24.843  26.089  1.00  0.00    -0.463 OA
BRANCH   7   8
ATOM      8  C   UNL A   1      42.223  25.626  25.421  1.00  0.00     0.315 C 
ATOM      9  O   UNL A   1      42.000  26.806  25.155  1.00  0.00    -0.252 OA
BRANCH   8  10
ATOM     10  C   UNL A   1      43.489  24.957  24.907  1.00  0.00     0.167 C 
ATOM     11  C   UNL A   1      44.836  24.969  25.658  1.00  0.00     0.094 C 
ATOM     12  C   UNL A   1      45.402  23.573  25.352  1.00  0.00     0.272 C 
ATOM     13  N   UNL A   1      44.250  22.672  25.268  1.00  0.00    -0.327 N 
ATOM     14  C   UNL A   1      43.150  23.471  24.731  1.00  0.00     0.278 C 
ATOM     15  H   UNL A   1      44.438  21.891  24.639  1.00  0.00     0.348 HD
BRANCH  11  16
ATOM     16  C   UNL A   1      45.905  26.006  25.310  1.00  0.00    -0.035 A 
ATOM     17  C   UNL A   1      46.746  28.289  25.117  1.00  0.00     0.119 A 
ATOM     18  C   UNL A   1      47.984  27.804  24.697  1.00  0.00     0.046 A 
ATOM     19  C   UNL A   1      45.706  27.393  25.396  1.00  0.00     0.050 A 
ATOM     20  C   UNL A   1      48.191  26.434  24.566  1.00  0.00     0.004 A 
ATOM     21  C   UNL A   1      47.162  25.542  24.874  1.00  0.00     0.004 A 
BRANCH  17  22
ATOM     22  O   UNL A   1      46.656  29.653  25.182  1.00  0.00    -0.497 OA
ATOM     23  C   UNL A   1      45.983  30.185  26.318  1.00  0.00     0.278 C 
ENDBRANCH  17  22
ENDBRANCH  11  16
BRANCH  13  24
ATOM     24  C   UNL A   1      43.963  21.947  26.518  1.00  0.00     0.339 C 
BRANCH  24  25
ATOM     25  C   UNL A   1      42.699  21.132  26.566  1.00  0.00     0.164 A 
ATOM     26  N   UNL A   1      41.584  21.500  27.179  1.00  0.00    -0.236 NA
ATOM     27  N   UNL A   1      42.529  19.893  25.990  1.00  0.00    -0.333 N 
ATOM     28  C   UNL A   1      40.665  20.518  26.929  1.00  0.00     0.131 A 
ATOM     29  C   UNL A   1      41.228  19.512  26.184  1.00  0.00     0.107 A 
ATOM     30  C   UNL A   1      43.521  19.107  25.301  1.00  0.00     0.151 C 
ENDBRANCH  24  25
ENDBRANCH  13  24
ENDBRANCH   8  10
ENDBRANCH   7   8
ENDBRANCH   6   7
ENDBRANCH   5   6
ENDBRANCH   4   5
ENDBRANCH   3   4
ENDBRANCH   2   3
ENDBRANCH   1   2
BRANCH   1  31
ATOM     31  C   UNL A   1      36.390  29.433  28.938  1.00  0.00     0.188 C 
BRANCH  31  32
ATOM     32  C   UNL A   1      35.521  29.719  27.700  1.00  0.00     0.188 C 
BRANCH  32  33
ATOM     33  O   UNL A   1      35.183  31.079  27.513  1.00  0.00    -0.376 OA
BRANCH  33  34
ATOM     34  C   UNL A   1      33.842  31.489  27.727  1.00  0.00     0.202 C 
BRANCH  34  35
ATOM     35  C   UNL A   1      33.570  32.763  28.540  1.00  0.00     0.261 C 
BRANCH  35  36
ATOM     36  O   UNL A   1      34.695  33.394  29.169  1.00  0.00    -0.460 OA
BRANCH  36  37
ATOM     37  C   UNL A   1      35.067  32.973  30.393  1.00  0.00     0.338 C 
ATOM     38  O   UNL A   1      34.349  32.724  31.346  1.00  0.00    -0.246 OA
BRANCH  37  39
ATOM     39  C   UNL A   1      36.518  32.700  30.331  1.00  0.00     0.060 A 
ATOM     40  C   UNL A   1      37.191  32.284  31.486  1.00  0.00     0.016 A 
ATOM     41  C   UNL A   1      37.202  32.834  29.121  1.00  0.00     0.016 A 
ATOM     42  C   UNL A   1      38.561  32.018  31.438  1.00  0.00     0.010 A 
ATOM     43  C   UNL A   1      38.577  32.591  29.080  1.00  0.00     0.010 A 
ATOM     44  C   UNL A   1      39.267  32.205  30.242  1.00  0.00    -0.014 A 
BRANCH  44  45
ATOM     45  C   UNL A   1      40.748  32.160  30.234  1.00  0.00     0.031 A 
ATOM     46  C   UNL A   1      41.500  33.431  29.955  1.00  0.00     0.074 A 
ATOM     47  C   UNL A   1      41.411  31.012  30.456  1.00  0.00     0.049 A 
ATOM     48  N   UNL A   1      42.785  33.621  29.791  1.00  0.00    -0.248 NA
ATOM     49  C   UNL A   1      40.691  34.654  29.841  1.00  0.00     0.031 C 
ATOM     50  C   UNL A   1      40.792  29.730  30.780  1.00  0.00     0.029 A 
ATOM     51  N   UNL A   1      42.757  30.739  30.421  1.00  0.00    -0.354 N 
ATOM     52  C   UNL A   1      42.934  34.978  29.542  1.00  0.00     0.074 A 
ATOM     53  C   UNL A   1      41.611  35.562  29.555  1.00  0.00     0.031 C 
ATOM     54  C   UNL A   1      41.755  28.798  30.890  1.00  0.00     0.029 A 
ATOM     55  C   UNL A   1      43.053  29.411  30.602  1.00  0.00     0.049 A 
ATOM     56  H   UNL A   1      43.444  31.430  30.280  1.00  0.00     0.167 HD
ATOM     57  C   UNL A   1      44.076  35.674  29.326  1.00  0.00     0.037 A 
ATOM     58  C   UNL A   1      44.231  28.762  30.505  1.00  0.00     0.037 A 
ATOM     59  C   UNL A   1      45.387  35.083  29.308  1.00  0.00     0.049 A 
ATOM     60  C   UNL A   1      45.477  29.545  30.169  1.00  0.00     0.074 A 
ATOM     61  C   UNL A   1      46.610  35.703  29.125  1.00  0.00     0.029 A 
ATOM     62  N   UNL A   1      45.645  33.728  29.464  1.00  0.00    -0.354 N 
ATOM     63  N   UNL A   1      45.619  30.834  29.972  1.00  0.00    -0.248 NA
ATOM     64  C   UNL A   1      46.725  28.780  30.033  1.00  0.00     0.031 C 
ATOM     65  C   UNL A   1      47.600  34.716  29.103  1.00  0.00     0.029 A 
ATOM     66  C   UNL A   1      47.003  33.488  29.338  1.00  0.00     0.049 A 
ATOM     67  H   UNL A   1      44.962  33.039  29.637  1.00  0.00     0.167 HD
ATOM     68  C   UNL A   1      46.971  31.037  29.716  1.00  0.00     0.074 A 
ATOM     69  C   UNL A   1      47.609  29.741  29.801  1.00  0.00     0.031 C 
ATOM     70  C   UNL A   1      47.623  32.191  29.432  1.00  0.00     0.037 A 
BRANCH  57  71
ATOM     71  C   UNL A   1      43.955  37.145  29.053  1.00  0.00     0.064 A 
ATOM     72  C   UNL A   1      43.834  37.649  27.749  1.00  0.00     0.173 A 
ATOM     73  C   UNL A   1      43.918  38.062  30.115  1.00  0.00     0.173 A 
ATOM     74  F   UNL A   1      43.876  36.818  26.697  1.00  0.00    -0.203 F 
ATOM     75  C   UNL A   1      43.706  39.017  27.519  1.00  0.00     0.198 A 
ATOM     76  C   UNL A   1      43.758  39.424  29.883  1.00  0.00     0.198 A 
ATOM     77  F   UNL A   1      44.026  37.633  31.382  1.00  0.00    -0.203 F 
ATOM     78  F   UNL A   1      43.639  39.479  26.263  1.00  0.00    -0.200 F 
ATOM     79  C   UNL A   1      43.659  39.901  28.586  1.00  0.00     0.200 A 
ATOM     80  F   UNL A   1      43.698  40.276  30.916  1.00  0.00    -0.200 F 
ATOM     81  F   UNL A   1      43.525  41.216  28.362  1.00  0.00    -0.200 F 
ENDBRANCH  57  71
BRANCH  58  82
ATOM     82  C   UNL A   1      44.289  27.288  30.692  1.00  0.00     0.064 A 
ATOM     83  C   UNL A   1      44.128  26.413  29.610  1.00  0.00     0.173 A 
ATOM     84  C   UNL A   1      44.479  26.721  31.962  1.00  0.00     0.173 A 
ATOM     85  F   UNL A   1      43.916  26.902  28.378  1.00  0.00    -0.203 F 
ATOM     86  C   UNL A   1      44.134  25.031  29.791  1.00  0.00     0.198 A 
ATOM     87  C   UNL A   1      44.521  25.339  32.138  1.00  0.00     0.198 A 
ATOM     88  F   UNL A   1      44.635  27.511  33.035  1.00  0.00    -0.203 F 
ATOM     89  F   UNL A   1      43.926  24.219  28.746  1.00  0.00    -0.200 F 
ATOM     90  C   UNL A   1      44.338  24.495  31.054  1.00  0.00     0.200 A 
ATOM     91  F   UNL A   1      44.735  24.826  33.357  1.00  0.00    -0.200 F 
ATOM     92  F   UNL A   1      44.353  23.166  31.226  1.00  0.00    -0.200 F 
ENDBRANCH  58  82
BRANCH  70  93
ATOM     93  C   UNL A   1      49.109  32.116  29.217  1.00  0.00     0.064 A 
ATOM     94  C   UNL A   1      50.013  32.195  30.286  1.00  0.00     0.173 A 
ATOM     95  C   UNL A   1      49.631  31.894  27.932  1.00  0.00     0.173 A 
ATOM     96  F   UNL A   1      49.567  32.421  31.531  1.00  0.00    -0.203 F 
ATOM     97  C   UNL A   1      51.384  32.074  30.075  1.00  0.00     0.198 A 
ATOM     98  C   UNL A   1      50.999  31.740  27.731  1.00  0.00     0.198 A 
ATOM     99  F   UNL A   1      48.810  31.801  26.875  1.00  0.00    -0.203 F 
ATOM    100  F   UNL A   1      52.231  32.197  31.106  1.00  0.00    -0.200 F 
ATOM    101  C   UNL A   1      51.875  31.836  28.800  1.00  0.00     0.200 A 
ATOM    102  F   UNL A   1      51.469  31.491  26.500  1.00  0.00    -0.200 F 
ATOM    103  F   UNL A   1      53.194  31.704  28.602  1.00  0.00    -0.200 F 
ENDBRANCH  70  93
ENDBRANCH  44  45
ENDBRANCH  37  39
ENDBRANCH  36  37
ENDBRANCH  35  36
ENDBRANCH  34  35
ENDBRANCH  33  34
ENDBRANCH  32  33
ENDBRANCH  31  32
ENDBRANCH   1  31
TORSDOF 24
ENDMDL
MODEL 3
REMARK VINA RESULT:      -7.3      5.973     11.362
REMARK SMILES COc1cccc([C@@H]2C[N@@H+](Cc3nccn3C)C[C@H]2C(=O)OCCOCCOCCOCCOC(=O)c2ccc(-c3c4nc(c(-c5c(F)c(F)c(F)c(F)c5F)c5ccc([nH]5)c(-c5c(F)c(F)c(F)c(F)c5F)c5nc(c(-c6c(F)c(F)c(F)c(F)c6F)c6ccc3[nH]6)C=C5)C=C4)cc2)c1
REMARK SMILES IDX 28 1 27 2 26 3 25 4 24 5 23 6 22 7 20 8 21 9 19 10 8 11 9 12
REMARK SMILES IDX 10 13 18 14 7 16 3 17 4 18 100 19 5 20 6 21 2 22 1 23 11 24
REMARK SMILES IDX 12 25 13 26 16 27 14 28 15 29 17 30 29 31 30 32 31 33 32 34
REMARK SMILES IDX 33 35 34 36 35 37 36 38 37 39 38 40 99 41 39 42 98 43 40 44
REMARK SMILES IDX 41 45 42 46 92 47 43 48 97 49 91 50 93 51 44 52 96 53 90 54
REMARK SMILES IDX 89 55 45 57 77 58 57 59 76 60 58 61 61 62 75 63 94 64 59 65
REMARK SMILES IDX 60 66 74 68 95 69 62 70 46 71 47 72 55 73 48 74 49 75 53 76
REMARK SMILES IDX 56 77 50 78 51 79 54 80 52 81 78 82 79 83 87 84 80 85 81 86
REMARK SMILES IDX 85 87 88 88 82 89 83 90 86 91 84 92 63 93 64 94 72 95 65 96
REMARK SMILES IDX 66 97 70 98 73 99 67 100 68 101 71 102 69 103
REMARK H PARENT 10 15 93 56 61 67
REMARK Flexibility Score: inf
ROOT
ATOM      1  O   UNL A   1      39.664  21.493  27.043  1.00  0.00    -0.377 OA
ENDROOT
BRANCH   1   2
ATOM      2  C   UNL A   1      39.784  21.051  25.703  1.00  0.00     0.188 C 
BRANCH   2   3
ATOM      3  C   UNL A   1      38.574  20.397  25.034  1.00  0.00     0.188 C 
BRANCH   3   4
ATOM      4  O   UNL A   1      37.331  20.509  25.688  1.00  0.00    -0.376 OA
BRANCH   4   5
ATOM      5  C   UNL A   1      36.388  21.478  25.275  1.00  0.00     0.202 C 
BRANCH   5   6
ATOM      6  C   UNL A   1      36.083  22.805  25.999  1.00  0.00     0.261 C 
BRANCH   6   7
ATOM      7  O   UNL A   1      35.707  23.968  25.236  1.00  0.00    -0.463 OA
BRANCH   7   8
ATOM      8  C   UNL A   1      34.531  23.896  24.568  1.00  0.00     0.315 C 
ATOM      9  O   UNL A   1      34.446  23.512  23.402  1.00  0.00    -0.252 OA
BRANCH   8  10
ATOM     10  C   UNL A   1      33.295  24.412  25.291  1.00  0.00     0.167 C 
ATOM     11  C   UNL A   1      31.956  24.721  24.594  1.00  0.00     0.094 C 
ATOM     12  C   UNL A   1      30.923  24.283  25.645  1.00  0.00     0.272 C 
ATOM     13  N   UNL A   1      31.509  23.136  26.343  1.00  0.00    -0.327 N 
ATOM     14  C   UNL A   1      32.952  23.367  26.360  1.00  0.00     0.278 C 
ATOM     15  H   UNL A   1      31.166  23.073  27.302  1.00  0.00     0.348 HD
BRANCH  11  16
ATOM     16  C   UNL A   1      31.620  26.148  24.160  1.00  0.00    -0.035 A 
ATOM     17  C   UNL A   1      32.193  28.345  23.262  1.00  0.00     0.119 A 
ATOM     18  C   UNL A   1      30.855  28.730  23.335  1.00  0.00     0.046 A 
ATOM     19  C   UNL A   1      32.575  27.069  23.698  1.00  0.00     0.050 A 
ATOM     20  C   UNL A   1      29.899  27.847  23.828  1.00  0.00     0.004 A 
ATOM     21  C   UNL A   1      30.277  26.566  24.232  1.00  0.00     0.004 A 
BRANCH  17  22
ATOM     22  O   UNL A   1      33.042  29.306  22.785  1.00  0.00    -0.497 OA
ATOM     23  C   UNL A   1      34.378  28.892  22.523  1.00  0.00     0.278 C 
ENDBRANCH  17  22
ENDBRANCH  11  16
BRANCH  13  24
ATOM     24  C   UNL A   1      31.076  21.828  25.818  1.00  0.00     0.339 C 
BRANCH  24  25
ATOM     25  C   UNL A   1      32.139  20.931  25.245  1.00  0.00     0.164 A 
ATOM     26  N   UNL A   1      32.905  20.117  25.956  1.00  0.00    -0.236 NA
ATOM     27  N   UNL A   1      32.468  20.838  23.912  1.00  0.00    -0.333 N 
ATOM     28  C   UNL A   1      33.684  19.440  25.058  1.00  0.00     0.131 A 
ATOM     29  C   UNL A   1      33.423  19.865  23.780  1.00  0.00     0.107 A 
ATOM     30  C   UNL A   1      31.927  21.612  22.823  1.00  0.00     0.151 C 
ENDBRANCH  24  25
ENDBRANCH  13  24
ENDBRANCH   8  10
ENDBRANCH   7   8
ENDBRANCH   6   7
ENDBRANCH   5   6
ENDBRANCH   4   5
ENDBRANCH   3   4
ENDBRANCH   2   3
ENDBRANCH   1   2
BRANCH   1  31
ATOM     31  C   UNL A   1      40.341  22.662  27.474  1.00  0.00     0.188 C 
BRANCH  31  32
ATOM     32  C   UNL A   1      41.870  22.679  27.647  1.00  0.00     0.188 C 
BRANCH  32  33
ATOM     33  O   UNL A   1      42.585  21.927  26.686  1.00  0.00    -0.376 OA
BRANCH  33  34
ATOM     34  C   UNL A   1      43.738  22.495  26.088  1.00  0.00     0.202 C 
BRANCH  34  35
ATOM     35  C   UNL A   1      43.624  23.124  24.691  1.00  0.00     0.261 C 
BRANCH  35  36
ATOM     36  O   UNL A   1      43.393  24.538  24.624  1.00  0.00    -0.460 OA
BRANCH  36  37
ATOM     37  C   UNL A   1      44.310  25.366  25.160  1.00  0.00     0.338 C 
ATOM     38  O   UNL A   1      45.435  25.596  24.752  1.00  0.00    -0.246 OA
BRANCH  37  39
ATOM     39  C   UNL A   1      43.645  26.088  26.263  1.00  0.00     0.060 A 
ATOM     40  C   UNL A   1      44.280  27.191  26.847  1.00  0.00     0.016 A 
ATOM     41  C   UNL A   1      42.381  25.685  26.699  1.00  0.00     0.016 A 
ATOM     42  C   UNL A   1      43.658  27.885  27.886  1.00  0.00     0.010 A 
ATOM     43  C   UNL A   1      41.770  26.365  27.756  1.00  0.00     0.010 A 
ATOM     44  C   UNL A   1      42.416  27.453  28.370  1.00  0.00    -0.014 A 
BRANCH  44  45
ATOM     45  C   UNL A   1      41.859  28.025  29.618  1.00  0.00     0.031 A 
ATOM     46  C   UNL A   1      40.579  28.808  29.537  1.00  0.00     0.074 A 
ATOM     47  C   UNL A   1      42.484  27.865  30.797  1.00  0.00     0.049 A 
ATOM     48  N   UNL A   1      39.957  29.489  30.466  1.00  0.00    -0.248 NA
ATOM     49  C   UNL A   1      39.910  28.828  28.227  1.00  0.00     0.031 C 
ATOM     50  C   UNL A   1      43.705  27.092  31.006  1.00  0.00     0.029 A 
ATOM     51  N   UNL A   1      42.185  28.367  32.040  1.00  0.00    -0.354 N 
ATOM     52  C   UNL A   1      38.836  30.027  29.849  1.00  0.00     0.074 A 
ATOM     53  C   UNL A   1      38.871  29.613  28.464  1.00  0.00     0.031 C 
ATOM     54  C   UNL A   1      44.066  27.190  32.297  1.00  0.00     0.029 A 
ATOM     55  C   UNL A   1      43.126  28.068  32.994  1.00  0.00     0.049 A 
ATOM     56  H   UNL A   1      41.372  28.890  32.229  1.00  0.00     0.167 HD
ATOM     57  C   UNL A   1      37.862  30.794  30.394  1.00  0.00     0.037 A 
ATOM     58  C   UNL A   1      43.232  28.489  34.271  1.00  0.00     0.037 A 
ATOM     59  C   UNL A   1      37.839  31.207  31.772  1.00  0.00     0.049 A 
ATOM     60  C   UNL A   1      42.185  29.422  34.828  1.00  0.00     0.074 A 
ATOM     61  C   UNL A   1      36.885  31.962  32.430  1.00  0.00     0.029 A 
ATOM     62  N   UNL A   1      38.826  30.911  32.701  1.00  0.00    -0.354 N 
ATOM     63  N   UNL A   1      41.106  29.897  34.253  1.00  0.00    -0.248 NA
ATOM     64  C   UNL A   1      42.375  29.884  36.211  1.00  0.00     0.031 C 
ATOM     65  C   UNL A   1      37.328  32.180  33.738  1.00  0.00     0.029 A 
ATOM     66  C   UNL A   1      38.525  31.505  33.916  1.00  0.00     0.049 A 
ATOM     67  H   UNL A   1      39.624  30.361  32.523  1.00  0.00     0.167 HD
ATOM     68  C   UNL A   1      40.479  30.690  35.208  1.00  0.00     0.074 A 
ATOM     69  C   UNL A   1      41.288  30.616  36.406  1.00  0.00     0.031 C 
ATOM     70  C   UNL A   1      39.339  31.417  35.101  1.00  0.00     0.037 A 
BRANCH  57  71
ATOM     71  C   UNL A   1      36.762  31.271  29.490  1.00  0.00     0.064 A 
ATOM     72  C   UNL A   1      36.702  32.596  29.031  1.00  0.00     0.173 A 
ATOM     73  C   UNL A   1      35.776  30.378  29.044  1.00  0.00     0.173 A 
ATOM     74  F   UNL A   1      37.613  33.494  29.438  1.00  0.00    -0.203 F 
ATOM     75  C   UNL A   1      35.682  33.014  28.180  1.00  0.00     0.198 A 
ATOM     76  C   UNL A   1      34.778  30.791  28.167  1.00  0.00     0.198 A 
ATOM     77  F   UNL A   1      35.789  29.100  29.448  1.00  0.00    -0.203 F 
ATOM     78  F   UNL A   1      35.618  34.295  27.792  1.00  0.00    -0.200 F 
ATOM     79  C   UNL A   1      34.727  32.109  27.742  1.00  0.00     0.200 A 
ATOM     80  F   UNL A   1      33.864  29.912  27.733  1.00  0.00    -0.200 F 
ATOM     81  F   UNL A   1      33.752  32.511  26.913  1.00  0.00    -0.200 F 
ENDBRANCH  57  71
BRANCH  58  82
ATOM     82  C   UNL A   1      44.390  28.066  35.103  1.00  0.00     0.064 A 
ATOM     83  C   UNL A   1      45.588  28.792  35.102  1.00  0.00     0.173 A 
ATOM     84  C   UNL A   1      44.334  26.907  35.895  1.00  0.00     0.173 A 
ATOM     85  F   UNL A   1      45.704  29.892  34.342  1.00  0.00    -0.203 F 
ATOM     86  C   UNL A   1      46.690  28.369  35.844  1.00  0.00     0.198 A 
ATOM     87  C   UNL A   1      45.424  26.504  36.664  1.00  0.00     0.198 A 
ATOM     88  F   UNL A   1      43.214  26.171  35.929  1.00  0.00    -0.203 F 
ATOM     89  F   UNL A   1      47.839  29.057  35.785  1.00  0.00    -0.200 F 
ATOM     90  C   UNL A   1      46.605  27.230  36.630  1.00  0.00     0.200 A 
ATOM     91  F   UNL A   1      45.332  25.412  37.434  1.00  0.00    -0.200 F 
ATOM     92  F   UNL A   1      47.662  26.829  37.349  1.00  0.00    -0.200 F 
ENDBRANCH  58  82
BRANCH  70  93
ATOM     93  C   UNL A   1      38.878  32.171  36.316  1.00  0.00     0.064 A 
ATOM     94  C   UNL A   1      38.082  31.568  37.300  1.00  0.00     0.173 A 
ATOM     95  C   UNL A   1      39.295  33.495  36.531  1.00  0.00     0.173 A 
ATOM     96  F   UNL A   1      37.645  30.310  37.137  1.00  0.00    -0.203 F 
ATOM     97  C   UNL A   1      37.705  32.267  38.444  1.00  0.00     0.198 A 
ATOM     98  C   UNL A   1      38.943  34.179  37.692  1.00  0.00     0.198 A 
ATOM     99  F   UNL A   1      40.065  34.118  35.626  1.00  0.00    -0.203 F 
ATOM    100  F   UNL A   1      36.907  31.684  39.350  1.00  0.00    -0.200 F 
ATOM    101  C   UNL A   1      38.144  33.567  38.644  1.00  0.00     0.200 A 
ATOM    102  F   UNL A   1      39.386  35.428  37.891  1.00  0.00    -0.200 F 
ATOM    103  F   UNL A   1      37.794  34.231  39.753  1.00  0.00    -0.200 F 
ENDBRANCH  70  93
ENDBRANCH  44  45
ENDBRANCH  37  39
ENDBRANCH  36  37
ENDBRANCH  35  36
ENDBRANCH  34  35
ENDBRANCH  33  34
ENDBRANCH  32  33
ENDBRANCH  31  32
ENDBRANCH   1  31
TORSDOF 24
ENDMDL
