MODEL 1
REMARK VINA RESULT:      -7.7      0.000      0.000
REMARK SMILES Cc1cc(C)cc(Oc2nc3ccccn3c(=O)c2/C=C2\SC(=S)N(CCC(=O)OCCOCCOCCOCCOC(=O)c3ccc(-c4c5nc(c(-c6c(F)c(F)c(F)c(F)c6F)c6ccc([nH]6)c(-c6c(F)c(F)c(F)c(F)c6F)c6nc(c(-c7c(F)c(F)c(F)c(F)c7F)c7ccc4[nH]7)C=C6)C=C5)cc3)C2=O)c1
REMARK SMILES IDX 34 1 33 2 32 3 31 4 30 5 28 6 29 7 27 8 26 9 25 10 20 11
REMARK SMILES IDX 21 12 22 13 108 14 23 15 109 16 24 17 19 18 9 19 10 20 11 21
REMARK SMILES IDX 17 22 12 23 16 24 18 25 13 26 15 27 14 28 8 29 7 30 1 31
REMARK SMILES IDX 2 32 3 33 110 34 4 35 5 36 6 37 35 38 36 39 37 40 38 41
REMARK SMILES IDX 39 42 40 43 41 44 42 45 43 46 44 47 45 48 46 49 107 50 47 51
REMARK SMILES IDX 106 52 48 53 49 54 50 55 100 56 51 57 105 58 99 59 101 60
REMARK SMILES IDX 52 61 104 62 98 63 97 64 53 66 85 67 65 68 84 69 66 70 69 71
REMARK SMILES IDX 83 72 102 73 67 74 68 75 82 77 103 78 70 79 54 80 55 81
REMARK SMILES IDX 63 82 56 83 57 84 61 85 64 86 58 87 59 88 62 89 60 90 86 91
REMARK SMILES IDX 87 92 95 93 88 94 89 95 93 96 96 97 90 98 91 99 94 100
REMARK SMILES IDX 92 101 71 102 72 103 80 104 73 105 74 106 78 107 81 108
REMARK SMILES IDX 75 109 76 110 79 111 77 112
REMARK H PARENT 101 65 69 76
REMARK Flexibility Score: inf
ROOT
ATOM      1  C   UNL A   1      43.938  34.250  29.291  1.00  0.00     0.188 C 
ENDROOT
BRANCH   1   2
ATOM      2  O   UNL A   1      44.956  33.412  29.767  1.00  0.00    -0.376 OA
BRANCH   2   3
ATOM      3  C   UNL A   1      44.842  32.005  29.831  1.00  0.00     0.202 C 
BRANCH   3   4
ATOM      4  C   UNL A   1      45.963  30.964  30.057  1.00  0.00     0.261 C 
BRANCH   4   5
ATOM      5  O   UNL A   1      45.653  29.611  30.395  1.00  0.00    -0.463 OA
BRANCH   5   6
ATOM      6  C   UNL A   1      46.538  28.641  30.114  1.00  0.00     0.307 C 
ATOM      7  O   UNL A   1      47.246  28.094  30.953  1.00  0.00    -0.252 OA
BRANCH   6   8
ATOM      8  C   UNL A   1      46.639  28.340  28.630  1.00  0.00     0.144 C 
BRANCH   8   9
ATOM      9  C   UNL A   1      46.813  26.904  28.109  1.00  0.00     0.139 C 
BRANCH   9  10
ATOM     10  N   UNL A   1      45.645  26.158  27.597  1.00  0.00    -0.292 N 
ATOM     11  C   UNL A   1      43.162  23.654  28.318  1.00  0.00     0.041 C 
ATOM     12  C   UNL A   1      43.966  24.494  27.644  1.00  0.00     0.081 C 
ATOM     13  S   UNL A   1      43.752  25.202  26.101  1.00  0.00    -0.054 SA
ATOM     14  C   UNL A   1      45.141  25.085  28.303  1.00  0.00     0.266 C 
ATOM     15  C   UNL A   1      45.108  26.305  26.330  1.00  0.00     0.148 C 
ATOM     16  O   UNL A   1      45.553  24.636  29.349  1.00  0.00    -0.268 OA
ATOM     17  S   UNL A   1      45.581  27.338  25.106  1.00  0.00    -0.052 S 
BRANCH  11  18
ATOM     18  C   UNL A   1      41.840  23.311  27.847  1.00  0.00     0.104 A 
ATOM     19  C   UNL A   1      40.790  24.157  27.909  1.00  0.00     0.234 A 
ATOM     20  N   UNL A   1      39.635  23.952  27.204  1.00  0.00    -0.194 NA
ATOM     21  C   UNL A   1      39.472  22.819  26.594  1.00  0.00     0.143 A 
ATOM     22  C   UNL A   1      41.639  22.004  27.158  1.00  0.00     0.269 A 
ATOM     23  C   UNL A   1      38.228  22.585  25.806  1.00  0.00     0.048 A 
ATOM     24  N   UNL A   1      40.389  21.787  26.613  1.00  0.00    -0.267 N 
ATOM     25  O   UNL A   1      42.560  21.185  27.112  1.00  0.00    -0.268 OA
ATOM     26  C   UNL A   1      37.954  21.364  25.334  1.00  0.00     0.005 A 
ATOM     27  C   UNL A   1      40.076  20.538  26.088  1.00  0.00     0.096 A 
ATOM     28  C   UNL A   1      38.898  20.295  25.504  1.00  0.00     0.019 A 
BRANCH  19  29
ATOM     29  O   UNL A   1      40.763  25.261  28.774  1.00  0.00    -0.438 OA
BRANCH  29  30
ATOM     30  C   UNL A   1      40.394  26.511  28.338  1.00  0.00     0.130 A 
ATOM     31  C   UNL A   1      37.638  29.086  28.692  1.00  0.00     0.044 C 
ATOM     32  C   UNL A   1      38.897  28.413  28.243  1.00  0.00    -0.047 A 
ATOM     33  C   UNL A   1      39.700  28.988  27.251  1.00  0.00     0.007 A 
ATOM     34  C   UNL A   1      39.284  27.199  28.817  1.00  0.00     0.050 A 
ATOM     35  C   UNL A   1      40.880  28.359  26.830  1.00  0.00    -0.047 A 
ATOM     36  C   UNL A   1      41.770  29.049  25.836  1.00  0.00     0.044 C 
ATOM     37  C   UNL A   1      41.208  27.105  27.364  1.00  0.00     0.050 A 
ENDBRANCH  29  30
ENDBRANCH  19  29
ENDBRANCH  11  18
ENDBRANCH   9  10
ENDBRANCH   8   9
ENDBRANCH   6   8
ENDBRANCH   5   6
ENDBRANCH   4   5
ENDBRANCH   3   4
ENDBRANCH   2   3
ENDBRANCH   1   2
BRANCH   1  38
ATOM     38  C   UNL A   1      44.401  35.332  28.288  1.00  0.00     0.188 C 
BRANCH  38  39
ATOM     39  O   UNL A   1      43.534  36.323  27.743  1.00  0.00    -0.377 OA
BRANCH  39  40
ATOM     40  C   UNL A   1      43.891  37.695  27.873  1.00  0.00     0.188 C 
BRANCH  40  41
ATOM     41  C   UNL A   1      43.053  38.696  27.066  1.00  0.00     0.188 C 
BRANCH  41  42
ATOM     42  O   UNL A   1      42.940  39.960  27.690  1.00  0.00    -0.376 OA
BRANCH  42  43
ATOM     43  C   UNL A   1      42.099  40.073  28.831  1.00  0.00     0.202 C 
BRANCH  43  44
ATOM     44  C   UNL A   1      42.418  40.985  30.040  1.00  0.00     0.261 C 
BRANCH  44  45
ATOM     45  O   UNL A   1      42.207  40.482  31.368  1.00  0.00    -0.460 OA
BRANCH  45  46
ATOM     46  C   UNL A   1      43.232  40.518  32.240  1.00  0.00     0.338 C 
ATOM     47  O   UNL A   1      43.670  41.493  32.822  1.00  0.00    -0.246 OA
BRANCH  46  48
ATOM     48  C   UNL A   1      43.650  39.121  32.513  1.00  0.00     0.060 A 
ATOM     49  C   UNL A   1      44.211  38.364  31.476  1.00  0.00     0.016 A 
ATOM     50  C   UNL A   1      43.462  38.547  33.770  1.00  0.00     0.016 A 
ATOM     51  C   UNL A   1      44.538  37.019  31.676  1.00  0.00     0.010 A 
ATOM     52  C   UNL A   1      43.766  37.192  33.961  1.00  0.00     0.010 A 
ATOM     53  C   UNL A   1      44.275  36.406  32.908  1.00  0.00    -0.014 A 
BRANCH  53  54
ATOM     54  C   UNL A   1      44.278  34.917  33.014  1.00  0.00     0.031 A 
ATOM     55  C   UNL A   1      42.953  34.213  32.834  1.00  0.00     0.074 A 
ATOM     56  C   UNL A   1      45.408  34.197  33.165  1.00  0.00     0.049 A 
ATOM     57  N   UNL A   1      42.660  32.941  32.934  1.00  0.00    -0.248 NA
ATOM     58  C   UNL A   1      41.805  35.061  32.461  1.00  0.00     0.031 C 
ATOM     59  C   UNL A   1      46.763  34.742  33.192  1.00  0.00     0.029 A 
ATOM     60  N   UNL A   1      45.600  32.841  33.312  1.00  0.00    -0.354 N 
ATOM     61  C   UNL A   1      41.311  32.840  32.611  1.00  0.00     0.074 A 
ATOM     62  C   UNL A   1      40.822  34.178  32.379  1.00  0.00     0.031 C 
ATOM     63  C   UNL A   1      47.643  33.737  33.363  1.00  0.00     0.029 A 
ATOM     64  C   UNL A   1      46.918  32.476  33.495  1.00  0.00     0.049 A 
ATOM     65  H   UNL A   1      44.862  32.190  33.290  1.00  0.00     0.167 HD
ATOM     66  C   UNL A   1      40.555  31.725  32.480  1.00  0.00     0.037 A 
ATOM     67  C   UNL A   1      47.460  31.268  33.768  1.00  0.00     0.037 A 
ATOM     68  C   UNL A   1      41.049  30.394  32.708  1.00  0.00     0.049 A 
ATOM     69  C   UNL A   1      46.522  30.092  33.916  1.00  0.00     0.074 A 
ATOM     70  C   UNL A   1      40.371  29.192  32.617  1.00  0.00     0.029 A 
ATOM     71  N   UNL A   1      42.352  30.094  33.079  1.00  0.00    -0.354 N 
ATOM     72  N   UNL A   1      45.244  30.007  33.642  1.00  0.00    -0.248 NA
ATOM     73  C   UNL A   1      47.104  28.845  34.435  1.00  0.00     0.031 C 
ATOM     74  C   UNL A   1      41.248  28.170  32.991  1.00  0.00     0.029 A 
ATOM     75  C   UNL A   1      42.489  28.728  33.252  1.00  0.00     0.049 A 
ATOM     76  H   UNL A   1      43.071  30.755  33.201  1.00  0.00     0.167 HD
ATOM     77  C   UNL A   1      44.895  28.679  33.853  1.00  0.00     0.074 A 
ATOM     78  C   UNL A   1      46.087  28.004  34.320  1.00  0.00     0.031 C 
ATOM     79  C   UNL A   1      43.703  28.066  33.652  1.00  0.00     0.037 A 
BRANCH  66  80
ATOM     80  C   UNL A   1      39.118  31.892  32.076  1.00  0.00     0.064 A 
ATOM     81  C   UNL A   1      38.094  32.000  33.029  1.00  0.00     0.173 A 
ATOM     82  C   UNL A   1      38.766  31.997  30.723  1.00  0.00     0.173 A 
ATOM     83  F   UNL A   1      38.373  31.893  34.337  1.00  0.00    -0.203 F 
ATOM     84  C   UNL A   1      36.769  32.189  32.641  1.00  0.00     0.198 A 
ATOM     85  C   UNL A   1      37.445  32.216  30.339  1.00  0.00     0.198 A 
ATOM     86  F   UNL A   1      39.706  31.903  29.770  1.00  0.00    -0.203 F 
ATOM     87  F   UNL A   1      35.803  32.251  33.569  1.00  0.00    -0.200 F 
ATOM     88  C   UNL A   1      36.448  32.308  31.298  1.00  0.00     0.200 A 
ATOM     89  F   UNL A   1      37.139  32.345  29.041  1.00  0.00    -0.200 F 
ATOM     90  F   UNL A   1      35.175  32.505  30.926  1.00  0.00    -0.200 F 
ENDBRANCH  66  80
BRANCH  67  91
ATOM     91  C   UNL A   1      48.924  31.077  34.035  1.00  0.00     0.064 A 
ATOM     92  C   UNL A   1      49.839  30.670  33.056  1.00  0.00     0.173 A 
ATOM     93  C   UNL A   1      49.406  31.126  35.347  1.00  0.00     0.173 A 
ATOM     94  F   UNL A   1      49.438  30.530  31.785  1.00  0.00    -0.203 F 
ATOM     95  C   UNL A   1      51.149  30.304  33.392  1.00  0.00     0.198 A 
ATOM     96  C   UNL A   1      50.716  30.802  35.687  1.00  0.00     0.198 A 
ATOM     97  F   UNL A   1      48.560  31.418  36.325  1.00  0.00    -0.203 F 
ATOM     98  F   UNL A   1      51.970  29.824  32.448  1.00  0.00    -0.200 F 
ATOM     99  C   UNL A   1      51.587  30.373  34.707  1.00  0.00     0.200 A 
ATOM    100  F   UNL A   1      51.105  30.846  36.968  1.00  0.00    -0.200 F 
ATOM    101  F   UNL A   1      52.827  29.984  35.033  1.00  0.00    -0.200 F 
ENDBRANCH  67  91
BRANCH  79 102
ATOM    102  C   UNL A   1      43.669  26.571  33.779  1.00  0.00     0.064 A 
ATOM    103  C   UNL A   1      44.198  25.719  32.801  1.00  0.00     0.173 A 
ATOM    104  C   UNL A   1      43.107  25.987  34.927  1.00  0.00     0.173 A 
ATOM    105  F   UNL A   1      44.727  26.227  31.677  1.00  0.00    -0.203 F 
ATOM    106  C   UNL A   1      44.132  24.336  32.949  1.00  0.00     0.198 A 
ATOM    107  C   UNL A   1      43.080  24.607  35.090  1.00  0.00     0.198 A 
ATOM    108  F   UNL A   1      42.595  26.759  35.897  1.00  0.00    -0.203 F 
ATOM    109  F   UNL A   1      44.585  23.537  31.973  1.00  0.00    -0.200 F 
ATOM    110  C   UNL A   1      43.581  23.782  34.097  1.00  0.00     0.200 A 
ATOM    111  F   UNL A   1      42.564  24.076  36.207  1.00  0.00    -0.200 F 
ATOM    112  F   UNL A   1      43.526  22.450  34.240  1.00  0.00    -0.200 F 
ENDBRANCH  79 102
ENDBRANCH  53  54
ENDBRANCH  46  48
ENDBRANCH  45  46
ENDBRANCH  44  45
ENDBRANCH  43  44
ENDBRANCH  42  43
ENDBRANCH  41  42
ENDBRANCH  40  41
ENDBRANCH  39  40
ENDBRANCH  38  39
ENDBRANCH   1  38
TORSDOF 25
ENDMDL
MODEL 2
REMARK VINA RESULT:      -7.3      5.545     12.066
REMARK SMILES Cc1cc(C)cc(Oc2nc3ccccn3c(=O)c2/C=C2\SC(=S)N(CCC(=O)OCCOCCOCCOCCOC(=O)c3ccc(-c4c5nc(c(-c6c(F)c(F)c(F)c(F)c6F)c6ccc([nH]6)c(-c6c(F)c(F)c(F)c(F)c6F)c6nc(c(-c7c(F)c(F)c(F)c(F)c7F)c7ccc4[nH]7)C=C6)C=C5)cc3)C2=O)c1
REMARK SMILES IDX 34 1 33 2 32 3 31 4 30 5 28 6 29 7 27 8 26 9 25 10 20 11
REMARK SMILES IDX 21 12 22 13 108 14 23 15 109 16 24 17 19 18 9 19 10 20 11 21
REMARK SMILES IDX 17 22 12 23 16 24 18 25 13 26 15 27 14 28 8 29 7 30 1 31
REMARK SMILES IDX 2 32 3 33 110 34 4 35 5 36 6 37 35 38 36 39 37 40 38 41
REMARK SMILES IDX 39 42 40 43 41 44 42 45 43 46 44 47 45 48 46 49 107 50 47 51
REMARK SMILES IDX 106 52 48 53 49 54 50 55 100 56 51 57 105 58 99 59 101 60
REMARK SMILES IDX 52 61 104 62 98 63 97 64 53 66 85 67 65 68 84 69 66 70 69 71
REMARK SMILES IDX 83 72 102 73 67 74 68 75 82 77 103 78 70 79 54 80 55 81
REMARK SMILES IDX 63 82 56 83 57 84 61 85 64 86 58 87 59 88 62 89 60 90 86 91
REMARK SMILES IDX 87 92 95 93 88 94 89 95 93 96 96 97 90 98 91 99 94 100
REMARK SMILES IDX 92 101 71 102 72 103 80 104 73 105 74 106 78 107 81 108
REMARK SMILES IDX 75 109 76 110 79 111 77 112
REMARK H PARENT 101 65 69 76
REMARK Flexibility Score: inf
ROOT
ATOM      1  C   UNL A   1      40.269  23.157  27.379  1.00  0.00     0.188 C 
ENDROOT
BRANCH   1   2
ATOM      2  O   UNL A   1      38.987  23.221  26.818  1.00  0.00    -0.376 OA
BRANCH   2   3
ATOM      3  C   UNL A   1      38.632  22.581  25.610  1.00  0.00     0.202 C 
BRANCH   3   4
ATOM      4  C   UNL A   1      37.905  21.228  25.421  1.00  0.00     0.261 C 
BRANCH   4   5
ATOM      5  O   UNL A   1      36.605  21.009  25.972  1.00  0.00    -0.463 OA
BRANCH   5   6
ATOM      6  C   UNL A   1      35.588  20.691  25.155  1.00  0.00     0.307 C 
ATOM      7  O   UNL A   1      35.317  19.546  24.809  1.00  0.00    -0.252 OA
BRANCH   6   8
ATOM      8  C   UNL A   1      34.847  21.906  24.628  1.00  0.00     0.144 C 
BRANCH   8   9
ATOM      9  C   UNL A   1      33.331  21.878  24.372  1.00  0.00     0.139 C 
BRANCH   9  10
ATOM     10  N   UNL A   1      32.643  23.088  23.877  1.00  0.00    -0.292 N 
ATOM     11  C   UNL A   1      30.639  25.945  24.758  1.00  0.00     0.041 C 
ATOM     12  C   UNL A   1      31.231  24.978  24.038  1.00  0.00     0.081 C 
ATOM     13  S   UNL A   1      31.647  24.958  22.378  1.00  0.00    -0.054 SA
ATOM     14  C   UNL A   1      31.796  23.794  24.705  1.00  0.00     0.266 C 
ATOM     15  C   UNL A   1      32.604  23.488  22.553  1.00  0.00     0.148 C 
ATOM     16  O   UNL A   1      31.513  23.541  25.854  1.00  0.00    -0.268 OA
ATOM     17  S   UNL A   1      33.316  22.773  21.222  1.00  0.00    -0.052 S 
BRANCH  11  18
ATOM     18  C   UNL A   1      30.370  27.256  24.213  1.00  0.00     0.104 A 
ATOM     19  C   UNL A   1      31.327  28.187  24.020  1.00  0.00     0.234 A 
ATOM     20  N   UNL A   1      31.132  29.295  23.241  1.00  0.00    -0.194 NA
ATOM     21  C   UNL A   1      29.935  29.552  22.815  1.00  0.00     0.143 A 
ATOM     22  C   UNL A   1      28.992  27.566  23.735  1.00  0.00     0.269 A 
ATOM     23  C   UNL A   1      29.707  30.744  21.949  1.00  0.00     0.048 A 
ATOM     24  N   UNL A   1      28.825  28.782  23.104  1.00  0.00    -0.267 N 
ATOM     25  O   UNL A   1      28.079  26.759  23.925  1.00  0.00    -0.268 OA
ATOM     26  C   UNL A   1      28.461  31.134  21.661  1.00  0.00     0.005 A 
ATOM     27  C   UNL A   1      27.547  29.210  22.764  1.00  0.00     0.096 A 
ATOM     28  C   UNL A   1      27.339  30.356  22.106  1.00  0.00     0.019 A 
BRANCH  19  29
ATOM     29  O   UNL A   1      32.564  28.144  24.682  1.00  0.00    -0.438 OA
BRANCH  29  30
ATOM     30  C   UNL A   1      32.902  29.068  25.642  1.00  0.00     0.130 A 
ATOM     31  C   UNL A   1      31.751  32.353  27.137  1.00  0.00     0.044 C 
ATOM     32  C   UNL A   1      32.568  31.126  26.874  1.00  0.00    -0.047 A 
ATOM     33  C   UNL A   1      33.793  30.931  27.521  1.00  0.00     0.007 A 
ATOM     34  C   UNL A   1      32.107  30.160  25.975  1.00  0.00     0.050 A 
ATOM     35  C   UNL A   1      34.558  29.782  27.277  1.00  0.00    -0.047 A 
ATOM     36  C   UNL A   1      35.819  29.554  28.060  1.00  0.00     0.044 C 
ATOM     37  C   UNL A   1      34.115  28.864  26.314  1.00  0.00     0.050 A 
ENDBRANCH  29  30
ENDBRANCH  19  29
ENDBRANCH  11  18
ENDBRANCH   9  10
ENDBRANCH   8   9
ENDBRANCH   6   8
ENDBRANCH   5   6
ENDBRANCH   4   5
ENDBRANCH   3   4
ENDBRANCH   2   3
ENDBRANCH   1   2
BRANCH   1  38
ATOM     38  C   UNL A   1      40.771  21.729  27.694  1.00  0.00     0.188 C 
BRANCH  38  39
ATOM     39  O   UNL A   1      42.065  21.252  27.334  1.00  0.00    -0.377 OA
BRANCH  39  40
ATOM     40  C   UNL A   1      42.484  21.359  25.978  1.00  0.00     0.188 C 
BRANCH  40  41
ATOM     41  C   UNL A   1      43.941  21.782  25.747  1.00  0.00     0.188 C 
BRANCH  41  42
ATOM     42  O   UNL A   1      44.102  22.646  24.639  1.00  0.00    -0.376 OA
BRANCH  42  43
ATOM     43  C   UNL A   1      44.254  24.038  24.888  1.00  0.00     0.202 C 
BRANCH  43  44
ATOM     44  C   UNL A   1      43.162  24.912  25.549  1.00  0.00     0.261 C 
BRANCH  44  45
ATOM     45  O   UNL A   1      43.253  25.197  26.954  1.00  0.00    -0.460 OA
BRANCH  45  46
ATOM     46  C   UNL A   1      44.466  25.435  27.485  1.00  0.00     0.338 C 
ATOM     47  O   UNL A   1      45.549  25.154  27.004  1.00  0.00    -0.246 OA
BRANCH  46  48
ATOM     48  C   UNL A   1      44.278  26.261  28.703  1.00  0.00     0.060 A 
ATOM     49  C   UNL A   1      43.537  25.738  29.772  1.00  0.00     0.016 A 
ATOM     50  C   UNL A   1      44.797  27.553  28.783  1.00  0.00     0.016 A 
ATOM     51  C   UNL A   1      43.270  26.521  30.899  1.00  0.00     0.010 A 
ATOM     52  C   UNL A   1      44.506  28.345  29.902  1.00  0.00     0.010 A 
ATOM     53  C   UNL A   1      43.712  27.849  30.955  1.00  0.00    -0.014 A 
BRANCH  53  54
ATOM     54  C   UNL A   1      43.133  28.784  31.965  1.00  0.00     0.031 A 
ATOM     55  C   UNL A   1      43.843  28.885  33.294  1.00  0.00     0.074 A 
ATOM     56  C   UNL A   1      42.084  29.590  31.700  1.00  0.00     0.049 A 
ATOM     57  N   UNL A   1      43.525  29.569  34.364  1.00  0.00    -0.248 NA
ATOM     58  C   UNL A   1      45.103  28.129  33.423  1.00  0.00     0.031 C 
ATOM     59  C   UNL A   1      41.410  29.705  30.408  1.00  0.00     0.029 A 
ATOM     60  N   UNL A   1      41.405  30.478  32.502  1.00  0.00    -0.354 N 
ATOM     61  C   UNL A   1      44.555  29.346  35.272  1.00  0.00     0.074 A 
ATOM     62  C   UNL A   1      45.473  28.413  34.662  1.00  0.00     0.031 C 
ATOM     63  C   UNL A   1      40.406  30.597  30.509  1.00  0.00     0.029 A 
ATOM     64  C   UNL A   1      40.336  31.094  31.881  1.00  0.00     0.049 A 
ATOM     65  H   UNL A   1      41.658  30.659  33.436  1.00  0.00     0.167 HD
ATOM     66  C   UNL A   1      44.741  29.902  36.493  1.00  0.00     0.037 A 
ATOM     67  C   UNL A   1      39.400  31.931  32.381  1.00  0.00     0.037 A 
ATOM     68  C   UNL A   1      43.825  30.834  37.093  1.00  0.00     0.049 A 
ATOM     69  C   UNL A   1      39.480  32.282  33.849  1.00  0.00     0.074 A 
ATOM     70  C   UNL A   1      43.904  31.451  38.328  1.00  0.00     0.029 A 
ATOM     71  N   UNL A   1      42.655  31.278  36.495  1.00  0.00    -0.354 N 
ATOM     72  N   UNL A   1      40.437  32.044  34.711  1.00  0.00    -0.248 NA
ATOM     73  C   UNL A   1      38.331  33.004  34.417  1.00  0.00     0.031 C 
ATOM     74  C   UNL A   1      42.752  32.223  38.502  1.00  0.00     0.029 A 
ATOM     75  C   UNL A   1      41.988  32.137  37.350  1.00  0.00     0.049 A 
ATOM     76  H   UNL A   1      42.346  31.021  35.597  1.00  0.00     0.167 HD
ATOM     77  C   UNL A   1      40.055  32.674  35.889  1.00  0.00     0.074 A 
ATOM     78  C   UNL A   1      38.759  33.268  35.643  1.00  0.00     0.031 C 
ATOM     79  C   UNL A   1      40.729  32.775  37.061  1.00  0.00     0.037 A 
BRANCH  66  80
ATOM     80  C   UNL A   1      45.972  29.517  37.261  1.00  0.00     0.064 A 
ATOM     81  C   UNL A   1      47.163  30.253  37.160  1.00  0.00     0.173 A 
ATOM     82  C   UNL A   1      45.949  28.430  38.146  1.00  0.00     0.173 A 
ATOM     83  F   UNL A   1      47.244  31.294  36.317  1.00  0.00    -0.203 F 
ATOM     84  C   UNL A   1      48.288  29.905  37.904  1.00  0.00     0.198 A 
ATOM     85  C   UNL A   1      47.066  28.102  38.911  1.00  0.00     0.198 A 
ATOM     86  F   UNL A   1      44.836  27.692  38.283  1.00  0.00    -0.203 F 
ATOM     87  F   UNL A   1      49.425  30.600  37.762  1.00  0.00    -0.200 F 
ATOM     88  C   UNL A   1      48.235  28.837  38.786  1.00  0.00     0.200 A 
ATOM     89  F   UNL A   1      47.008  27.078  39.773  1.00  0.00    -0.200 F 
ATOM     90  F   UNL A   1      49.314  28.511  39.513  1.00  0.00    -0.200 F 
ENDBRANCH  66  80
BRANCH  67  91
ATOM     91  C   UNL A   1      38.241  32.429  31.569  1.00  0.00     0.064 A 
ATOM     92  C   UNL A   1      36.982  31.815  31.567  1.00  0.00     0.173 A 
ATOM     93  C   UNL A   1      38.434  33.443  30.626  1.00  0.00     0.173 A 
ATOM     94  F   UNL A   1      36.738  30.788  32.392  1.00  0.00    -0.203 F 
ATOM     95  C   UNL A   1      35.995  32.184  30.643  1.00  0.00     0.198 A 
ATOM     96  C   UNL A   1      37.448  33.845  29.730  1.00  0.00     0.198 A 
ATOM     97  F   UNL A   1      39.634  33.997  30.525  1.00  0.00    -0.203 F 
ATOM     98  F   UNL A   1      34.838  31.510  30.599  1.00  0.00    -0.200 F 
ATOM     99  C   UNL A   1      36.228  33.200  29.727  1.00  0.00     0.200 A 
ATOM    100  F   UNL A   1      37.709  34.807  28.834  1.00  0.00    -0.200 F 
ATOM    101  F   UNL A   1      35.299  33.524  28.818  1.00  0.00    -0.200 F 
ENDBRANCH  67  91
BRANCH  79 102
ATOM    102  C   UNL A   1      40.157  33.688  38.106  1.00  0.00     0.064 A 
ATOM    103  C   UNL A   1      40.635  34.988  38.315  1.00  0.00     0.173 A 
ATOM    104  C   UNL A   1      39.086  33.244  38.901  1.00  0.00     0.173 A 
ATOM    105  F   UNL A   1      41.668  35.451  37.596  1.00  0.00    -0.203 F 
ATOM    106  C   UNL A   1      40.086  35.798  39.306  1.00  0.00     0.198 A 
ATOM    107  C   UNL A   1      38.515  34.070  39.861  1.00  0.00     0.198 A 
ATOM    108  F   UNL A   1      38.586  32.010  38.733  1.00  0.00    -0.203 F 
ATOM    109  F   UNL A   1      40.600  37.014  39.534  1.00  0.00    -0.200 F 
ATOM    110  C   UNL A   1      39.022  35.341  40.072  1.00  0.00     0.200 A 
ATOM    111  F   UNL A   1      37.476  33.633  40.586  1.00  0.00    -0.200 F 
ATOM    112  F   UNL A   1      38.492  36.126  41.021  1.00  0.00    -0.200 F 
ENDBRANCH  79 102
ENDBRANCH  53  54
ENDBRANCH  46  48
ENDBRANCH  45  46
ENDBRANCH  44  45
ENDBRANCH  43  44
ENDBRANCH  42  43
ENDBRANCH  41  42
ENDBRANCH  40  41
ENDBRANCH  39  40
ENDBRANCH  38  39
ENDBRANCH   1  38
TORSDOF 25
ENDMDL
MODEL 3
REMARK VINA RESULT:      -7.2      4.688     11.025
REMARK SMILES Cc1cc(C)cc(Oc2nc3ccccn3c(=O)c2/C=C2\SC(=S)N(CCC(=O)OCCOCCOCCOCCOC(=O)c3ccc(-c4c5nc(c(-c6c(F)c(F)c(F)c(F)c6F)c6ccc([nH]6)c(-c6c(F)c(F)c(F)c(F)c6F)c6nc(c(-c7c(F)c(F)c(F)c(F)c7F)c7ccc4[nH]7)C=C6)C=C5)cc3)C2=O)c1
REMARK SMILES IDX 34 1 33 2 32 3 31 4 30 5 28 6 29 7 27 8 26 9 25 10 20 11
REMARK SMILES IDX 21 12 22 13 108 14 23 15 109 16 24 17 19 18 9 19 10 20 11 21
REMARK SMILES IDX 17 22 12 23 16 24 18 25 13 26 15 27 14 28 8 29 7 30 1 31
REMARK SMILES IDX 2 32 3 33 110 34 4 35 5 36 6 37 35 38 36 39 37 40 38 41
REMARK SMILES IDX 39 42 40 43 41 44 42 45 43 46 44 47 45 48 46 49 107 50 47 51
REMARK SMILES IDX 106 52 48 53 49 54 50 55 100 56 51 57 105 58 99 59 101 60
REMARK SMILES IDX 52 61 104 62 98 63 97 64 53 66 85 67 65 68 84 69 66 70 69 71
REMARK SMILES IDX 83 72 102 73 67 74 68 75 82 77 103 78 70 79 54 80 55 81
REMARK SMILES IDX 63 82 56 83 57 84 61 85 64 86 58 87 59 88 62 89 60 90 86 91
REMARK SMILES IDX 87 92 95 93 88 94 89 95 93 96 96 97 90 98 91 99 94 100
REMARK SMILES IDX 92 101 71 102 72 103 80 104 73 105 74 106 78 107 81 108
REMARK SMILES IDX 75 109 76 110 79 111 77 112
REMARK H PARENT 101 65 69 76
REMARK Flexibility Score: inf
ROOT
ATOM      1  C   UNL A   1      39.961  23.585  27.148  1.00  0.00     0.188 C 
ENDROOT
BRANCH   1   2
ATOM      2  O   UNL A   1      38.770  23.907  26.486  1.00  0.00    -0.376 OA
BRANCH   2   3
ATOM      3  C   UNL A   1      38.030  22.982  25.716  1.00  0.00     0.202 C 
BRANCH   3   4
ATOM      4  C   UNL A   1      36.662  22.340  26.045  1.00  0.00     0.261 C 
BRANCH   4   5
ATOM      5  O   UNL A   1      35.457  23.105  25.983  1.00  0.00    -0.463 OA
BRANCH   5   6
ATOM      6  C   UNL A   1      34.678  23.024  24.892  1.00  0.00     0.307 C 
ATOM      7  O   UNL A   1      33.991  22.048  24.611  1.00  0.00    -0.252 OA
BRANCH   6   8
ATOM      8  C   UNL A   1      34.796  24.236  23.986  1.00  0.00     0.144 C 
BRANCH   8   9
ATOM      9  C   UNL A   1      33.608  25.184  23.751  1.00  0.00     0.139 C 
BRANCH   9  10
ATOM     10  N   UNL A   1      33.644  26.559  24.291  1.00  0.00    -0.292 N 
ATOM     11  C   UNL A   1      33.699  28.590  27.261  1.00  0.00     0.041 C 
ATOM     12  C   UNL A   1      33.551  28.209  25.982  1.00  0.00     0.081 C 
ATOM     13  S   UNL A   1      33.651  29.141  24.550  1.00  0.00    -0.054 SA
ATOM     14  C   UNL A   1      33.453  26.781  25.639  1.00  0.00     0.266 C 
ATOM     15  C   UNL A   1      33.649  27.709  23.522  1.00  0.00     0.148 C 
ATOM     16  O   UNL A   1      33.239  25.954  26.496  1.00  0.00    -0.268 OA
ATOM     17  S   UNL A   1      33.654  27.856  21.859  1.00  0.00    -0.052 S 
BRANCH  11  18
ATOM     18  C   UNL A   1      34.127  29.922  27.623  1.00  0.00     0.104 A 
ATOM     19  C   UNL A   1      35.399  30.225  27.957  1.00  0.00     0.234 A 
ATOM     20  N   UNL A   1      35.863  31.511  28.006  1.00  0.00    -0.194 NA
ATOM     21  C   UNL A   1      35.011  32.483  27.899  1.00  0.00     0.143 A 
ATOM     22  C   UNL A   1      33.150  31.044  27.520  1.00  0.00     0.269 A 
ATOM     23  C   UNL A   1      35.500  33.891  27.931  1.00  0.00     0.048 A 
ATOM     24  N   UNL A   1      33.649  32.310  27.750  1.00  0.00    -0.267 N 
ATOM     25  O   UNL A   1      31.969  30.808  27.255  1.00  0.00    -0.268 OA
ATOM     26  C   UNL A   1      34.629  34.901  28.018  1.00  0.00     0.005 A 
ATOM     27  C   UNL A   1      32.776  33.390  27.820  1.00  0.00     0.096 A 
ATOM     28  C   UNL A   1      33.217  34.642  27.989  1.00  0.00     0.019 A 
BRANCH  19  29
ATOM     29  O   UNL A   1      36.320  29.252  28.376  1.00  0.00    -0.438 OA
BRANCH  29  30
ATOM     30  C   UNL A   1      36.946  29.329  29.597  1.00  0.00     0.130 A 
ATOM     31  C   UNL A   1      36.737  31.111  32.934  1.00  0.00     0.044 C 
ATOM     32  C   UNL A   1      37.215  30.210  31.837  1.00  0.00    -0.047 A 
ATOM     33  C   UNL A   1      38.407  29.491  31.971  1.00  0.00     0.007 A 
ATOM     34  C   UNL A   1      36.465  30.079  30.665  1.00  0.00     0.050 A 
ATOM     35  C   UNL A   1      38.854  28.646  30.946  1.00  0.00    -0.047 A 
ATOM     36  C   UNL A   1      40.085  27.812  31.160  1.00  0.00     0.044 C 
ATOM     37  C   UNL A   1      38.127  28.590  29.748  1.00  0.00     0.050 A 
ENDBRANCH  29  30
ENDBRANCH  19  29
ENDBRANCH  11  18
ENDBRANCH   9  10
ENDBRANCH   8   9
ENDBRANCH   6   8
ENDBRANCH   5   6
ENDBRANCH   4   5
ENDBRANCH   3   4
ENDBRANCH   2   3
ENDBRANCH   1   2
BRANCH   1  38
ATOM     38  C   UNL A   1      40.299  22.076  27.184  1.00  0.00     0.188 C 
BRANCH  38  39
ATOM     39  O   UNL A   1      41.372  21.492  26.449  1.00  0.00    -0.377 OA
BRANCH  39  40
ATOM     40  C   UNL A   1      42.685  22.016  26.615  1.00  0.00     0.188 C 
BRANCH  40  41
ATOM     41  C   UNL A   1      43.795  21.342  25.799  1.00  0.00     0.188 C 
BRANCH  41  42
ATOM     42  O   UNL A   1      43.886  21.827  24.474  1.00  0.00    -0.376 OA
BRANCH  42  43
ATOM     43  C   UNL A   1      43.917  23.235  24.274  1.00  0.00     0.202 C 
BRANCH  43  44
ATOM     44  C   UNL A   1      45.144  24.117  24.606  1.00  0.00     0.261 C 
BRANCH  44  45
ATOM     45  O   UNL A   1      44.984  25.225  25.505  1.00  0.00    -0.460 OA
BRANCH  45  46
ATOM     46  C   UNL A   1      43.795  25.854  25.545  1.00  0.00     0.338 C 
ATOM     47  O   UNL A   1      42.882  25.757  24.746  1.00  0.00    -0.246 OA
BRANCH  46  48
ATOM     48  C   UNL A   1      43.704  26.578  26.837  1.00  0.00     0.060 A 
ATOM     49  C   UNL A   1      42.480  27.146  27.215  1.00  0.00     0.016 A 
ATOM     50  C   UNL A   1      44.822  26.727  27.658  1.00  0.00     0.016 A 
ATOM     51  C   UNL A   1      42.380  27.905  28.384  1.00  0.00     0.010 A 
ATOM     52  C   UNL A   1      44.726  27.511  28.817  1.00  0.00     0.010 A 
ATOM     53  C   UNL A   1      43.514  28.135  29.173  1.00  0.00    -0.014 A 
BRANCH  53  54
ATOM     54  C   UNL A   1      43.501  29.221  30.198  1.00  0.00     0.031 A 
ATOM     55  C   UNL A   1      43.507  28.796  31.648  1.00  0.00     0.074 A 
ATOM     56  C   UNL A   1      43.580  30.529  29.880  1.00  0.00     0.049 A 
ATOM     57  N   UNL A   1      43.439  29.523  32.734  1.00  0.00    -0.248 NA
ATOM     58  C   UNL A   1      43.636  27.350  31.907  1.00  0.00     0.031 C 
ATOM     59  C   UNL A   1      43.740  31.064  28.529  1.00  0.00     0.029 A 
ATOM     60  N   UNL A   1      43.549  31.653  30.674  1.00  0.00    -0.354 N 
ATOM     61  C   UNL A   1      43.544  28.628  33.793  1.00  0.00     0.074 A 
ATOM     62  C   UNL A   1      43.611  27.300  33.229  1.00  0.00     0.031 C 
ATOM     63  C   UNL A   1      43.776  32.409  28.586  1.00  0.00     0.029 A 
ATOM     64  C   UNL A   1      43.606  32.840  29.971  1.00  0.00     0.049 A 
ATOM     65  H   UNL A   1      43.492  31.614  31.655  1.00  0.00     0.167 HD
ATOM     66  C   UNL A   1      43.619  28.892  35.119  1.00  0.00     0.037 A 
ATOM     67  C   UNL A   1      43.498  34.116  30.403  1.00  0.00     0.037 A 
ATOM     68  C   UNL A   1      43.555  30.217  35.673  1.00  0.00     0.049 A 
ATOM     69  C   UNL A   1      43.273  34.344  31.880  1.00  0.00     0.074 A 
ATOM     70  C   UNL A   1      43.609  30.602  37.001  1.00  0.00     0.029 A 
ATOM     71  N   UNL A   1      43.420  31.375  34.923  1.00  0.00    -0.354 N 
ATOM     72  N   UNL A   1      43.341  33.493  32.874  1.00  0.00    -0.248 NA
ATOM     73  C   UNL A   1      42.933  35.715  32.292  1.00  0.00     0.031 C 
ATOM     74  C   UNL A   1      43.445  31.989  37.057  1.00  0.00     0.029 A 
ATOM     75  C   UNL A   1      43.356  32.474  35.762  1.00  0.00     0.049 A 
ATOM     76  H   UNL A   1      43.377  31.410  33.940  1.00  0.00     0.167 HD
ATOM     77  C   UNL A   1      43.158  34.240  34.030  1.00  0.00     0.074 A 
ATOM     78  C   UNL A   1      42.932  35.607  33.613  1.00  0.00     0.031 C 
ATOM     79  C   UNL A   1      43.199  33.837  35.324  1.00  0.00     0.037 A 
BRANCH  66  80
ATOM     80  C   UNL A   1      43.773  27.731  36.059  1.00  0.00     0.064 A 
ATOM     81  C   UNL A   1      45.034  27.305  36.502  1.00  0.00     0.173 A 
ATOM     82  C   UNL A   1      42.644  27.069  36.564  1.00  0.00     0.173 A 
ATOM     83  F   UNL A   1      46.147  27.894  36.040  1.00  0.00    -0.203 F 
ATOM     84  C   UNL A   1      45.160  26.248  37.401  1.00  0.00     0.198 A 
ATOM     85  C   UNL A   1      42.771  26.032  37.485  1.00  0.00     0.198 A 
ATOM     86  F   UNL A   1      41.414  27.437  36.175  1.00  0.00    -0.203 F 
ATOM     87  F   UNL A   1      46.377  25.833  37.780  1.00  0.00    -0.200 F 
ATOM     88  C   UNL A   1      44.029  25.620  37.900  1.00  0.00     0.200 A 
ATOM     89  F   UNL A   1      41.677  25.436  37.976  1.00  0.00    -0.200 F 
ATOM     90  F   UNL A   1      44.150  24.613  38.776  1.00  0.00    -0.200 F 
ENDBRANCH  66  80
BRANCH  67  91
ATOM     91  C   UNL A   1      43.485  35.291  29.470  1.00  0.00     0.064 A 
ATOM     92  C   UNL A   1      42.346  35.702  28.765  1.00  0.00     0.173 A 
ATOM     93  C   UNL A   1      44.684  35.921  29.125  1.00  0.00     0.173 A 
ATOM     94  F   UNL A   1      41.170  35.099  28.987  1.00  0.00    -0.203 F 
ATOM     95  C   UNL A   1      42.427  36.667  27.752  1.00  0.00     0.198 A 
ATOM     96  C   UNL A   1      44.770  36.908  28.148  1.00  0.00     0.198 A 
ATOM     97  F   UNL A   1      45.807  35.508  29.696  1.00  0.00    -0.203 F 
ATOM     98  F   UNL A   1      41.340  36.966  27.029  1.00  0.00    -0.200 F 
ATOM     99  C   UNL A   1      43.638  37.271  27.447  1.00  0.00     0.200 A 
ATOM    100  F   UNL A   1      45.956  37.454  27.849  1.00  0.00    -0.200 F 
ATOM    101  F   UNL A   1      43.722  38.164  26.451  1.00  0.00    -0.200 F 
ENDBRANCH  67  91
BRANCH  79 102
ATOM    102  C   UNL A   1      43.161  34.904  36.378  1.00  0.00     0.064 A 
ATOM    103  C   UNL A   1      41.963  35.380  36.925  1.00  0.00     0.173 A 
ATOM    104  C   UNL A   1      44.366  35.444  36.861  1.00  0.00     0.173 A 
ATOM    105  F   UNL A   1      40.785  34.912  36.484  1.00  0.00    -0.203 F 
ATOM    106  C   UNL A   1      41.969  36.384  37.891  1.00  0.00     0.198 A 
ATOM    107  C   UNL A   1      44.369  36.416  37.854  1.00  0.00     0.198 A 
ATOM    108  F   UNL A   1      45.541  35.015  36.375  1.00  0.00    -0.203 F 
ATOM    109  F   UNL A   1      40.811  36.871  38.356  1.00  0.00    -0.200 F 
ATOM    110  C   UNL A   1      43.172  36.894  38.360  1.00  0.00     0.200 A 
ATOM    111  F   UNL A   1      45.533  36.893  38.318  1.00  0.00    -0.200 F 
ATOM    112  F   UNL A   1      43.175  37.854  39.296  1.00  0.00    -0.200 F 
ENDBRANCH  79 102
ENDBRANCH  53  54
ENDBRANCH  46  48
ENDBRANCH  45  46
ENDBRANCH  44  45
ENDBRANCH  43  44
ENDBRANCH  42  43
ENDBRANCH  41  42
ENDBRANCH  40  41
ENDBRANCH  39  40
ENDBRANCH  38  39
ENDBRANCH   1  38
TORSDOF 25
ENDMDL
