MODEL 1
REMARK VINA RESULT:     -10.6      0.000      0.000
REMARK SMILES Cc1c(Cl)cccc1NC(=O)C[C@H](C(=O)OCCOCCOCCOCCOC(=O)c1ccc(-c2c3nc(c(-c4c(F)c(F)c(F)c(F)c4F)c4ccc([nH]4)c(-c4c(F)c(F)c(F)c(F)c4F)c4nc(c(-c5c(F)c(F)c(F)c(F)c5F)c5ccc2[nH]5)C=C4)C=C3)cc1)[C@H](C)c1ccccc1
REMARK SMILES IDX 21 1 20 2 19 3 18 4 17 5 16 6 14 7 15 8 13 9 12 10 10 11
REMARK SMILES IDX 9 12 11 14 8 15 1 16 2 17 3 18 4 19 5 20 7 21 6 22 94 23
REMARK SMILES IDX 95 24 96 25 97 26 101 27 98 28 100 29 99 30 22 31 23 32
REMARK SMILES IDX 24 33 25 34 26 35 27 36 28 37 29 38 30 39 31 40 32 41 93 42
REMARK SMILES IDX 33 43 92 44 34 45 35 46 36 47 86 48 37 49 91 50 85 51 87 52
REMARK SMILES IDX 38 53 90 54 84 55 83 56 39 58 71 59 51 60 70 61 52 62 55 63
REMARK SMILES IDX 69 64 88 65 53 66 54 67 68 69 89 70 56 71 40 72 41 73 49 74
REMARK SMILES IDX 42 75 43 76 47 77 50 78 44 79 45 80 48 81 46 82 72 83 73 84
REMARK SMILES IDX 81 85 74 86 75 87 79 88 82 89 76 90 77 91 80 92 78 93 57 94
REMARK SMILES IDX 58 95 66 96 59 97 60 98 64 99 67 100 61 101 62 102 65 103
REMARK SMILES IDX 63 104
REMARK H PARENT 9 13 87 57 55 68
REMARK Flexibility Score: inf
ROOT
ATOM      1  C   UNL A   1      35.471  32.835  27.760  1.00  0.00     0.188 C 
ENDROOT
BRANCH   1   2
ATOM      2  C   UNL A   1      35.221  31.687  28.739  1.00  0.00     0.188 C 
BRANCH   2   3
ATOM      3  O   UNL A   1      34.356  30.660  28.258  1.00  0.00    -0.376 OA
BRANCH   3   4
ATOM      4  C   UNL A   1      34.918  29.672  27.396  1.00  0.00     0.202 C 
BRANCH   4   5
ATOM      5  C   UNL A   1      34.176  29.373  26.081  1.00  0.00     0.261 C 
BRANCH   5   6
ATOM      6  O   UNL A   1      33.737  28.000  25.904  1.00  0.00    -0.463 OA
BRANCH   6   7
ATOM      7  C   UNL A   1      32.421  27.812  25.605  1.00  0.00     0.310 C 
ATOM      8  O   UNL A   1      31.508  28.151  26.351  1.00  0.00    -0.252 OA
BRANCH   7   9
ATOM      9  C   UNL A   1      32.159  27.057  24.284  1.00  0.00     0.116 C 
BRANCH   9  10
ATOM     10  C   UNL A   1      33.330  26.126  23.909  1.00  0.00     0.116 C 
BRANCH  10  11
ATOM     11  C   UNL A   1      33.527  25.510  22.541  1.00  0.00     0.225 C 
ATOM     12  N   UNL A   1      33.718  24.181  22.299  1.00  0.00    -0.326 N 
ATOM     13  H   UNL A   1      33.991  23.984  21.374  1.00  0.00     0.169 HD
ATOM     14  O   UNL A   1      33.533  26.250  21.548  1.00  0.00    -0.275 OA
BRANCH  12  15
ATOM     15  C   UNL A   1      33.604  23.033  23.109  1.00  0.00     0.045 A 
ATOM     16  C   UNL A   1      36.101  23.216  23.710  1.00  0.00     0.048 C 
ATOM     17  C   UNL A   1      34.751  22.540  23.781  1.00  0.00    -0.009 A 
ATOM     18  C   UNL A   1      34.663  21.282  24.421  1.00  0.00     0.046 A 
ATOM     19  Cl  UNL A   1      36.029  20.552  25.194  1.00  0.00    -0.084 Cl
ATOM     20  C   UNL A   1      33.480  20.541  24.409  1.00  0.00     0.021 A 
ATOM     21  C   UNL A   1      32.420  22.299  23.170  1.00  0.00     0.026 A 
ATOM     22  C   UNL A   1      32.353  21.059  23.797  1.00  0.00     0.004 A 
ENDBRANCH  12  15
ENDBRANCH  10  11
ENDBRANCH   9  10
BRANCH   9  23
ATOM     23  C   UNL A   1      30.646  26.681  24.294  1.00  0.00     0.031 C 
ATOM     24  C   UNL A   1      30.153  25.306  23.857  1.00  0.00     0.013 C 
BRANCH  23  25
ATOM     25  C   UNL A   1      29.860  27.721  23.484  1.00  0.00    -0.044 A 
ATOM     26  C   UNL A   1      30.541  28.687  22.732  1.00  0.00     0.004 A 
ATOM     27  C   UNL A   1      28.454  27.727  23.468  1.00  0.00     0.004 A 
ATOM     28  C   UNL A   1      29.837  29.662  22.028  1.00  0.00     0.000 A 
ATOM     29  C   UNL A   1      27.751  28.720  22.788  1.00  0.00     0.000 A 
ATOM     30  C   UNL A   1      28.444  29.694  22.074  1.00  0.00     0.000 A 
ENDBRANCH  23  25
ENDBRANCH   9  23
ENDBRANCH   7   9
ENDBRANCH   6   7
ENDBRANCH   5   6
ENDBRANCH   4   5
ENDBRANCH   3   4
ENDBRANCH   2   3
ENDBRANCH   1   2
BRANCH   1  31
ATOM     31  O   UNL A   1      34.412  33.783  27.803  1.00  0.00    -0.377 OA
BRANCH  31  32
ATOM     32  C   UNL A   1      34.440  34.845  28.753  1.00  0.00     0.188 C 
BRANCH  32  33
ATOM     33  C   UNL A   1      33.352  34.892  29.822  1.00  0.00     0.188 C 
BRANCH  33  34
ATOM     34  O   UNL A   1      33.788  34.838  31.181  1.00  0.00    -0.376 OA
BRANCH  34  35
ATOM     35  C   UNL A   1      34.632  33.764  31.590  1.00  0.00     0.202 C 
BRANCH  35  36
ATOM     36  C   UNL A   1      35.430  34.000  32.872  1.00  0.00     0.261 C 
BRANCH  36  37
ATOM     37  O   UNL A   1      36.815  33.652  32.724  1.00  0.00    -0.460 OA
BRANCH  37  38
ATOM     38  C   UNL A   1      37.184  32.507  33.332  1.00  0.00     0.338 C 
ATOM     39  O   UNL A   1      36.799  32.074  34.413  1.00  0.00    -0.246 OA
BRANCH  38  40
ATOM     40  C   UNL A   1      38.050  31.731  32.435  1.00  0.00     0.060 A 
ATOM     41  C   UNL A   1      39.113  31.010  32.993  1.00  0.00     0.016 A 
ATOM     42  C   UNL A   1      37.882  31.807  31.051  1.00  0.00     0.016 A 
ATOM     43  C   UNL A   1      40.051  30.408  32.164  1.00  0.00     0.010 A 
ATOM     44  C   UNL A   1      38.831  31.216  30.220  1.00  0.00     0.010 A 
ATOM     45  C   UNL A   1      39.942  30.559  30.777  1.00  0.00    -0.014 A 
BRANCH  45  46
ATOM     46  C   UNL A   1      41.092  30.211  29.917  1.00  0.00     0.031 A 
ATOM     47  C   UNL A   1      41.136  28.839  29.307  1.00  0.00     0.074 A 
ATOM     48  C   UNL A   1      42.059  31.108  29.676  1.00  0.00     0.049 A 
ATOM     49  N   UNL A   1      42.070  28.279  28.583  1.00  0.00    -0.248 NA
ATOM     50  C   UNL A   1      39.967  27.978  29.551  1.00  0.00     0.031 C 
ATOM     51  C   UNL A   1      42.082  32.480  30.180  1.00  0.00     0.029 A 
ATOM     52  N   UNL A   1      43.217  30.991  28.952  1.00  0.00    -0.354 N 
ATOM     53  C   UNL A   1      41.608  27.000  28.301  1.00  0.00     0.074 A 
ATOM     54  C   UNL A   1      40.326  26.853  28.953  1.00  0.00     0.031 C 
ATOM     55  C   UNL A   1      43.211  33.076  29.761  1.00  0.00     0.029 A 
ATOM     56  C   UNL A   1      44.003  32.114  28.998  1.00  0.00     0.049 A 
ATOM     57  H   UNL A   1      43.459  30.181  28.449  1.00  0.00     0.167 HD
ATOM     58  C   UNL A   1      42.204  26.037  27.557  1.00  0.00     0.037 A 
ATOM     59  C   UNL A   1      45.237  32.321  28.501  1.00  0.00     0.037 A 
ATOM     60  C   UNL A   1      43.484  26.199  26.919  1.00  0.00     0.049 A 
ATOM     61  C   UNL A   1      45.913  31.207  27.743  1.00  0.00     0.074 A 
ATOM     62  C   UNL A   1      44.176  25.299  26.130  1.00  0.00     0.029 A 
ATOM     63  N   UNL A   1      44.269  27.341  27.009  1.00  0.00    -0.354 N 
ATOM     64  N   UNL A   1      45.468  30.006  27.459  1.00  0.00    -0.248 NA
ATOM     65  C   UNL A   1      47.264  31.479  27.235  1.00  0.00     0.031 C 
ATOM     66  C   UNL A   1      45.407  25.873  25.794  1.00  0.00     0.029 A 
ATOM     67  C   UNL A   1      45.453  27.157  26.315  1.00  0.00     0.049 A 
ATOM     68  H   UNL A   1      44.020  28.161  27.494  1.00  0.00     0.167 HD
ATOM     69  C   UNL A   1      46.467  29.391  26.716  1.00  0.00     0.074 A 
ATOM     70  C   UNL A   1      47.536  30.359  26.580  1.00  0.00     0.031 C 
ATOM     71  C   UNL A   1      46.501  28.140  26.191  1.00  0.00     0.037 A 
BRANCH  58  72
ATOM     72  C   UNL A   1      41.498  24.718  27.431  1.00  0.00     0.064 A 
ATOM     73  C   UNL A   1      41.963  23.561  28.077  1.00  0.00     0.173 A 
ATOM     74  C   UNL A   1      40.328  24.611  26.663  1.00  0.00     0.173 A 
ATOM     75  F   UNL A   1      43.086  23.602  28.810  1.00  0.00    -0.203 F 
ATOM     76  C   UNL A   1      41.299  22.344  27.935  1.00  0.00     0.198 A 
ATOM     77  C   UNL A   1      39.649  23.401  26.550  1.00  0.00     0.198 A 
ATOM     78  F   UNL A   1      39.839  25.683  26.024  1.00  0.00    -0.203 F 
ATOM     79  F   UNL A   1      41.793  21.242  28.516  1.00  0.00    -0.200 F 
ATOM     80  C   UNL A   1      40.140  22.266  27.179  1.00  0.00     0.200 A 
ATOM     81  F   UNL A   1      38.522  23.331  25.829  1.00  0.00    -0.200 F 
ATOM     82  F   UNL A   1      39.501  21.096  27.047  1.00  0.00    -0.200 F 
ENDBRANCH  58  72
BRANCH  59  83
ATOM     83  C   UNL A   1      45.914  33.625  28.716  1.00  0.00     0.064 A 
ATOM     84  C   UNL A   1      45.779  34.672  27.794  1.00  0.00     0.173 A 
ATOM     85  C   UNL A   1      46.714  33.853  29.846  1.00  0.00     0.173 A 
ATOM     86  F   UNL A   1      45.040  34.496  26.688  1.00  0.00    -0.203 F 
ATOM     87  C   UNL A   1      46.432  35.887  27.982  1.00  0.00     0.198 A 
ATOM     88  C   UNL A   1      47.341  35.081  30.050  1.00  0.00     0.198 A 
ATOM     89  F   UNL A   1      46.875  32.888  30.763  1.00  0.00    -0.203 F 
ATOM     90  F   UNL A   1      46.321  36.855  27.061  1.00  0.00    -0.200 F 
ATOM     91  C   UNL A   1      47.207  36.094  29.113  1.00  0.00     0.200 A 
ATOM     92  F   UNL A   1      48.074  35.281  31.154  1.00  0.00    -0.200 F 
ATOM     93  F   UNL A   1      47.828  37.266  29.298  1.00  0.00    -0.200 F 
ENDBRANCH  59  83
BRANCH  71  94
ATOM     94  C   UNL A   1      47.713  27.763  25.388  1.00  0.00     0.064 A 
ATOM     95  C   UNL A   1      48.895  27.314  25.996  1.00  0.00     0.173 A 
ATOM     96  C   UNL A   1      47.675  27.811  23.985  1.00  0.00     0.173 A 
ATOM     97  F   UNL A   1      48.987  27.261  27.334  1.00  0.00    -0.203 F 
ATOM     98  C   UNL A   1      50.003  26.959  25.232  1.00  0.00     0.198 A 
ATOM     99  C   UNL A   1      48.772  27.420  23.223  1.00  0.00     0.198 A 
ATOM    100  F   UNL A   1      46.567  28.224  23.351  1.00  0.00    -0.203 F 
ATOM    101  F   UNL A   1      51.139  26.587  25.837  1.00  0.00    -0.200 F 
ATOM    102  C   UNL A   1      49.938  27.003  23.848  1.00  0.00     0.200 A 
ATOM    103  F   UNL A   1      48.702  27.446  21.886  1.00  0.00    -0.200 F 
ATOM    104  F   UNL A   1      51.003  26.652  23.114  1.00  0.00    -0.200 F 
ENDBRANCH  71  94
ENDBRANCH  45  46
ENDBRANCH  38  40
ENDBRANCH  37  38
ENDBRANCH  36  37
ENDBRANCH  35  36
ENDBRANCH  34  35
ENDBRANCH  33  34
ENDBRANCH  32  33
ENDBRANCH  31  32
ENDBRANCH   1  31
TORSDOF 25
ENDMDL
MODEL 2
REMARK VINA RESULT:     -10.2      6.009      9.724
REMARK SMILES Cc1c(Cl)cccc1NC(=O)C[C@H](C(=O)OCCOCCOCCOCCOC(=O)c1ccc(-c2c3nc(c(-c4c(F)c(F)c(F)c(F)c4F)c4ccc([nH]4)c(-c4c(F)c(F)c(F)c(F)c4F)c4nc(c(-c5c(F)c(F)c(F)c(F)c5F)c5ccc2[nH]5)C=C4)C=C3)cc1)[C@H](C)c1ccccc1
REMARK SMILES IDX 21 1 20 2 19 3 18 4 17 5 16 6 14 7 15 8 13 9 12 10 10 11
REMARK SMILES IDX 9 12 11 14 8 15 1 16 2 17 3 18 4 19 5 20 7 21 6 22 94 23
REMARK SMILES IDX 95 24 96 25 97 26 101 27 98 28 100 29 99 30 22 31 23 32
REMARK SMILES IDX 24 33 25 34 26 35 27 36 28 37 29 38 30 39 31 40 32 41 93 42
REMARK SMILES IDX 33 43 92 44 34 45 35 46 36 47 86 48 37 49 91 50 85 51 87 52
REMARK SMILES IDX 38 53 90 54 84 55 83 56 39 58 71 59 51 60 70 61 52 62 55 63
REMARK SMILES IDX 69 64 88 65 53 66 54 67 68 69 89 70 56 71 40 72 41 73 49 74
REMARK SMILES IDX 42 75 43 76 47 77 50 78 44 79 45 80 48 81 46 82 72 83 73 84
REMARK SMILES IDX 81 85 74 86 75 87 79 88 82 89 76 90 77 91 80 92 78 93 57 94
REMARK SMILES IDX 58 95 66 96 59 97 60 98 64 99 67 100 61 101 62 102 65 103
REMARK SMILES IDX 63 104
REMARK H PARENT 9 13 87 57 55 68
REMARK Flexibility Score: inf
ROOT
ATOM      1  C   UNL A   1      34.757  32.718  28.283  1.00  0.00     0.188 C 
ENDROOT
BRANCH   1   2
ATOM      2  C   UNL A   1      34.131  31.353  27.992  1.00  0.00     0.188 C 
BRANCH   2   3
ATOM      3  O   UNL A   1      32.990  31.382  27.136  1.00  0.00    -0.376 OA
BRANCH   3   4
ATOM      4  C   UNL A   1      32.370  30.138  26.820  1.00  0.00     0.202 C 
BRANCH   4   5
ATOM      5  C   UNL A   1      31.953  29.903  25.357  1.00  0.00     0.261 C 
BRANCH   5   6
ATOM      6  O   UNL A   1      31.144  28.721  25.115  1.00  0.00    -0.463 OA
BRANCH   6   7
ATOM      7  C   UNL A   1      31.376  28.048  23.953  1.00  0.00     0.310 C 
ATOM      8  O   UNL A   1      31.355  28.586  22.850  1.00  0.00    -0.252 OA
BRANCH   7   9
ATOM      9  C   UNL A   1      31.588  26.527  24.116  1.00  0.00     0.116 C 
BRANCH   9  10
ATOM     10  C   UNL A   1      31.725  25.815  22.755  1.00  0.00     0.116 C 
BRANCH  10  11
ATOM     11  C   UNL A   1      33.045  25.514  22.079  1.00  0.00     0.225 C 
ATOM     12  N   UNL A   1      33.829  24.428  22.338  1.00  0.00    -0.326 N 
ATOM     13  H   UNL A   1      34.723  24.480  21.928  1.00  0.00     0.169 HD
ATOM     14  O   UNL A   1      33.476  26.306  21.229  1.00  0.00    -0.275 OA
BRANCH  12  15
ATOM     15  C   UNL A   1      33.617  23.247  23.078  1.00  0.00     0.045 A 
ATOM     16  C   UNL A   1      36.091  23.257  23.793  1.00  0.00     0.048 C 
ATOM     17  C   UNL A   1      34.705  22.656  23.770  1.00  0.00    -0.009 A 
ATOM     18  C   UNL A   1      34.520  21.373  24.335  1.00  0.00     0.046 A 
ATOM     19  Cl  UNL A   1      35.809  20.527  25.123  1.00  0.00    -0.084 Cl
ATOM     20  C   UNL A   1      33.301  20.701  24.232  1.00  0.00     0.021 A 
ATOM     21  C   UNL A   1      32.394  22.579  23.048  1.00  0.00     0.026 A 
ATOM     22  C   UNL A   1      32.232  21.313  23.603  1.00  0.00     0.004 A 
ENDBRANCH  12  15
ENDBRANCH  10  11
ENDBRANCH   9  10
BRANCH   9  23
ATOM     23  C   UNL A   1      32.522  26.351  25.350  1.00  0.00     0.031 C 
ATOM     24  C   UNL A   1      34.032  26.545  25.254  1.00  0.00     0.013 C 
BRANCH  23  25
ATOM     25  C   UNL A   1      32.283  24.969  25.975  1.00  0.00    -0.044 A 
ATOM     26  C   UNL A   1      30.995  24.417  25.984  1.00  0.00     0.004 A 
ATOM     27  C   UNL A   1      33.336  24.227  26.536  1.00  0.00     0.004 A 
ATOM     28  C   UNL A   1      30.759  23.183  26.587  1.00  0.00     0.000 A 
ATOM     29  C   UNL A   1      33.094  23.006  27.164  1.00  0.00     0.000 A 
ATOM     30  C   UNL A   1      31.802  22.488  27.197  1.00  0.00     0.000 A 
ENDBRANCH  23  25
ENDBRANCH   9  23
ENDBRANCH   7   9
ENDBRANCH   6   7
ENDBRANCH   5   6
ENDBRANCH   4   5
ENDBRANCH   3   4
ENDBRANCH   2   3
ENDBRANCH   1   2
BRANCH   1  31
ATOM     31  O   UNL A   1      34.011  33.424  29.266  1.00  0.00    -0.377 OA
BRANCH  31  32
ATOM     32  C   UNL A   1      34.639  33.855  30.470  1.00  0.00     0.188 C 
BRANCH  32  33
ATOM     33  C   UNL A   1      34.769  32.859  31.618  1.00  0.00     0.188 C 
BRANCH  33  34
ATOM     34  O   UNL A   1      36.092  32.439  31.955  1.00  0.00    -0.376 OA
BRANCH  34  35
ATOM     35  C   UNL A   1      36.276  31.151  32.540  1.00  0.00     0.202 C 
BRANCH  35  36
ATOM     36  C   UNL A   1      36.861  30.082  31.617  1.00  0.00     0.261 C 
BRANCH  36  37
ATOM     37  O   UNL A   1      36.644  30.382  30.230  1.00  0.00    -0.460 OA
BRANCH  37  38
ATOM     38  C   UNL A   1      37.697  30.145  29.423  1.00  0.00     0.338 C 
ATOM     39  O   UNL A   1      37.808  29.267  28.574  1.00  0.00    -0.246 OA
BRANCH  38  40
ATOM     40  C   UNL A   1      38.699  31.204  29.599  1.00  0.00     0.060 A 
ATOM     41  C   UNL A   1      40.009  30.834  29.933  1.00  0.00     0.016 A 
ATOM     42  C   UNL A   1      38.323  32.548  29.547  1.00  0.00     0.016 A 
ATOM     43  C   UNL A   1      40.937  31.810  30.275  1.00  0.00     0.010 A 
ATOM     44  C   UNL A   1      39.250  33.524  29.905  1.00  0.00     0.010 A 
ATOM     45  C   UNL A   1      40.542  33.152  30.316  1.00  0.00    -0.014 A 
BRANCH  45  46
ATOM     46  C   UNL A   1      41.410  34.143  30.985  1.00  0.00     0.031 A 
ATOM     47  C   UNL A   1      41.377  34.223  32.485  1.00  0.00     0.074 A 
ATOM     48  C   UNL A   1      42.219  34.936  30.266  1.00  0.00     0.049 A 
ATOM     49  N   UNL A   1      41.986  35.055  33.288  1.00  0.00    -0.248 NA
ATOM     50  C   UNL A   1      40.534  33.230  33.173  1.00  0.00     0.031 C 
ATOM     51  C   UNL A   1      42.360  34.900  28.812  1.00  0.00     0.029 A 
ATOM     52  N   UNL A   1      43.066  35.935  30.667  1.00  0.00    -0.354 N 
ATOM     53  C   UNL A   1      41.591  34.696  34.570  1.00  0.00     0.074 A 
ATOM     54  C   UNL A   1      40.667  33.592  34.439  1.00  0.00     0.031 C 
ATOM     55  C   UNL A   1      43.234  35.849  28.439  1.00  0.00     0.029 A 
ATOM     56  C   UNL A   1      43.678  36.581  29.624  1.00  0.00     0.049 A 
ATOM     57  H   UNL A   1      43.221  36.165  31.612  1.00  0.00     0.167 HD
ATOM     58  C   UNL A   1      41.972  35.240  35.750  1.00  0.00     0.037 A 
ATOM     59  C   UNL A   1      44.480  37.662  29.633  1.00  0.00     0.037 A 
ATOM     60  C   UNL A   1      42.890  36.343  35.860  1.00  0.00     0.049 A 
ATOM     61  C   UNL A   1      44.828  38.300  30.954  1.00  0.00     0.074 A 
ATOM     62  C   UNL A   1      43.359  36.965  37.003  1.00  0.00     0.029 A 
ATOM     63  N   UNL A   1      43.470  36.995  34.780  1.00  0.00    -0.354 N 
ATOM     64  N   UNL A   1      44.470  37.947  32.166  1.00  0.00    -0.248 NA
ATOM     65  C   UNL A   1      45.694  39.485  30.908  1.00  0.00     0.031 C 
ATOM     66  C   UNL A   1      44.175  38.033  36.611  1.00  0.00     0.029 A 
ATOM     67  C   UNL A   1      44.269  38.034  35.228  1.00  0.00     0.049 A 
ATOM     68  H   UNL A   1      43.334  36.754  33.836  1.00  0.00     0.167 HD
ATOM     69  C   UNL A   1      45.089  38.845  33.026  1.00  0.00     0.074 A 
ATOM     70  C   UNL A   1      45.858  39.749  32.196  1.00  0.00     0.031 C 
ATOM     71  C   UNL A   1      45.030  38.918  34.380  1.00  0.00     0.037 A 
BRANCH  58  72
ATOM     72  C   UNL A   1      41.367  34.678  37.004  1.00  0.00     0.064 A 
ATOM     73  C   UNL A   1      41.963  33.620  37.708  1.00  0.00     0.173 A 
ATOM     74  C   UNL A   1      40.177  35.216  37.519  1.00  0.00     0.173 A 
ATOM     75  F   UNL A   1      43.092  33.056  37.251  1.00  0.00    -0.203 F 
ATOM     76  C   UNL A   1      41.376  33.105  38.862  1.00  0.00     0.198 A 
ATOM     77  C   UNL A   1      39.612  34.721  38.691  1.00  0.00     0.198 A 
ATOM     78  F   UNL A   1      39.564  36.228  36.888  1.00  0.00    -0.203 F 
ATOM     79  F   UNL A   1      41.935  32.058  39.486  1.00  0.00    -0.200 F 
ATOM     80  C   UNL A   1      40.206  33.660  39.357  1.00  0.00     0.200 A 
ATOM     81  F   UNL A   1      38.488  35.268  39.174  1.00  0.00    -0.200 F 
ATOM     82  F   UNL A   1      39.647  33.167  40.470  1.00  0.00    -0.200 F 
ENDBRANCH  58  72
BRANCH  59  83
ATOM     83  C   UNL A   1      44.995  38.215  28.354  1.00  0.00     0.064 A 
ATOM     84  C   UNL A   1      44.257  39.156  27.623  1.00  0.00     0.173 A 
ATOM     85  C   UNL A   1      46.234  37.813  27.833  1.00  0.00     0.173 A 
ATOM     86  F   UNL A   1      43.058  39.558  28.070  1.00  0.00    -0.203 F 
ATOM     87  C   UNL A   1      44.728  39.657  26.412  1.00  0.00     0.198 A 
ATOM     88  C   UNL A   1      46.718  38.339  26.637  1.00  0.00     0.198 A 
ATOM     89  F   UNL A   1      46.983  36.918  28.494  1.00  0.00    -0.203 F 
ATOM     90  F   UNL A   1      43.980  40.522  25.711  1.00  0.00    -0.200 F 
ATOM     91  C   UNL A   1      45.961  39.254  25.923  1.00  0.00     0.200 A 
ATOM     92  F   UNL A   1      47.920  37.960  26.178  1.00  0.00    -0.200 F 
ATOM     93  F   UNL A   1      46.417  39.744  24.762  1.00  0.00    -0.200 F 
ENDBRANCH  59  83
BRANCH  71  94
ATOM     94  C   UNL A   1      45.850  39.983  35.049  1.00  0.00     0.064 A 
ATOM     95  C   UNL A   1      45.306  41.230  35.392  1.00  0.00     0.173 A 
ATOM     96  C   UNL A   1      47.189  39.737  35.389  1.00  0.00     0.173 A 
ATOM     97  F   UNL A   1      44.035  41.522  35.078  1.00  0.00    -0.203 F 
ATOM     98  C   UNL A   1      46.082  42.200  36.022  1.00  0.00     0.198 A 
ATOM     99  C   UNL A   1      47.951  40.695  36.051  1.00  0.00     0.198 A 
ATOM    100  F   UNL A   1      47.757  38.558  35.092  1.00  0.00    -0.203 F 
ATOM    101  F   UNL A   1      45.556  43.404  36.290  1.00  0.00    -0.200 F 
ATOM    102  C   UNL A   1      47.398  41.929  36.359  1.00  0.00     0.200 A 
ATOM    103  F   UNL A   1      49.218  40.425  36.393  1.00  0.00    -0.200 F 
ATOM    104  F   UNL A   1      48.140  42.861  36.973  1.00  0.00    -0.200 F 
ENDBRANCH  71  94
ENDBRANCH  45  46
ENDBRANCH  38  40
ENDBRANCH  37  38
ENDBRANCH  36  37
ENDBRANCH  35  36
ENDBRANCH  34  35
ENDBRANCH  33  34
ENDBRANCH  32  33
ENDBRANCH  31  32
ENDBRANCH   1  31
TORSDOF 25
ENDMDL
MODEL 3
REMARK VINA RESULT:     -10.1      0.894      6.973
REMARK SMILES Cc1c(Cl)cccc1NC(=O)C[C@H](C(=O)OCCOCCOCCOCCOC(=O)c1ccc(-c2c3nc(c(-c4c(F)c(F)c(F)c(F)c4F)c4ccc([nH]4)c(-c4c(F)c(F)c(F)c(F)c4F)c4nc(c(-c5c(F)c(F)c(F)c(F)c5F)c5ccc2[nH]5)C=C4)C=C3)cc1)[C@H](C)c1ccccc1
REMARK SMILES IDX 21 1 20 2 19 3 18 4 17 5 16 6 14 7 15 8 13 9 12 10 10 11
REMARK SMILES IDX 9 12 11 14 8 15 1 16 2 17 3 18 4 19 5 20 7 21 6 22 94 23
REMARK SMILES IDX 95 24 96 25 97 26 101 27 98 28 100 29 99 30 22 31 23 32
REMARK SMILES IDX 24 33 25 34 26 35 27 36 28 37 29 38 30 39 31 40 32 41 93 42
REMARK SMILES IDX 33 43 92 44 34 45 35 46 36 47 86 48 37 49 91 50 85 51 87 52
REMARK SMILES IDX 38 53 90 54 84 55 83 56 39 58 71 59 51 60 70 61 52 62 55 63
REMARK SMILES IDX 69 64 88 65 53 66 54 67 68 69 89 70 56 71 40 72 41 73 49 74
REMARK SMILES IDX 42 75 43 76 47 77 50 78 44 79 45 80 48 81 46 82 72 83 73 84
REMARK SMILES IDX 81 85 74 86 75 87 79 88 82 89 76 90 77 91 80 92 78 93 57 94
REMARK SMILES IDX 58 95 66 96 59 97 60 98 64 99 67 100 61 101 62 102 65 103
REMARK SMILES IDX 63 104
REMARK H PARENT 9 13 87 57 55 68
REMARK Flexibility Score: inf
ROOT
ATOM      1  C   UNL A   1      36.286  32.255  28.029  1.00  0.00     0.188 C 
ENDROOT
BRANCH   1   2
ATOM      2  C   UNL A   1      35.590  30.990  28.532  1.00  0.00     0.188 C 
BRANCH   2   3
ATOM      3  O   UNL A   1      34.280  30.773  28.011  1.00  0.00    -0.376 OA
BRANCH   3   4
ATOM      4  C   UNL A   1      33.969  29.467  27.529  1.00  0.00     0.202 C 
BRANCH   4   5
ATOM      5  C   UNL A   1      34.256  29.169  26.046  1.00  0.00     0.261 C 
BRANCH   5   6
ATOM      6  O   UNL A   1      33.087  28.999  25.201  1.00  0.00    -0.463 OA
BRANCH   6   7
ATOM      7  C   UNL A   1      32.587  27.737  25.096  1.00  0.00     0.310 C 
ATOM      8  O   UNL A   1      32.735  26.882  25.964  1.00  0.00    -0.252 OA
BRANCH   7   9
ATOM      9  C   UNL A   1      31.884  27.427  23.757  1.00  0.00     0.116 C 
BRANCH   9  10
ATOM     10  C   UNL A   1      32.796  26.637  22.796  1.00  0.00     0.116 C 
BRANCH  10  11
ATOM     11  C   UNL A   1      32.306  25.589  21.821  1.00  0.00     0.225 C 
ATOM     12  N   UNL A   1      32.424  24.242  21.992  1.00  0.00    -0.326 N 
ATOM     13  H   UNL A   1      32.199  23.720  21.187  1.00  0.00     0.169 HD
ATOM     14  O   UNL A   1      31.762  25.959  20.770  1.00  0.00    -0.275 OA
BRANCH  12  15
ATOM     15  C   UNL A   1      32.805  23.445  23.091  1.00  0.00     0.045 A 
ATOM     16  C   UNL A   1      32.034  21.339  21.824  1.00  0.00     0.048 C 
ATOM     17  C   UNL A   1      32.604  22.042  23.035  1.00  0.00    -0.009 A 
ATOM     18  C   UNL A   1      32.804  21.290  24.216  1.00  0.00     0.046 A 
ATOM     19  Cl  UNL A   1      32.501  19.586  24.277  1.00  0.00    -0.084 Cl
ATOM     20  C   UNL A   1      33.200  21.898  25.408  1.00  0.00     0.021 A 
ATOM     21  C   UNL A   1      33.263  24.013  24.279  1.00  0.00     0.026 A 
ATOM     22  C   UNL A   1      33.447  23.259  25.434  1.00  0.00     0.004 A 
ENDBRANCH  12  15
ENDBRANCH  10  11
ENDBRANCH   9  10
BRANCH   9  23
ATOM     23  C   UNL A   1      30.404  27.090  24.113  1.00  0.00     0.031 C 
ATOM     24  C   UNL A   1      29.755  25.774  23.700  1.00  0.00     0.013 C 
BRANCH  23  25
ATOM     25  C   UNL A   1      29.492  28.220  23.615  1.00  0.00    -0.044 A 
ATOM     26  C   UNL A   1      28.165  27.945  23.260  1.00  0.00     0.004 A 
ATOM     27  C   UNL A   1      29.954  29.543  23.514  1.00  0.00     0.004 A 
ATOM     28  C   UNL A   1      27.341  28.955  22.766  1.00  0.00     0.000 A 
ATOM     29  C   UNL A   1      29.139  30.547  22.992  1.00  0.00     0.000 A 
ATOM     30  C   UNL A   1      27.833  30.250  22.611  1.00  0.00     0.000 A 
ENDBRANCH  23  25
ENDBRANCH   9  23
ENDBRANCH   7   9
ENDBRANCH   6   7
ENDBRANCH   5   6
ENDBRANCH   4   5
ENDBRANCH   3   4
ENDBRANCH   2   3
ENDBRANCH   1   2
BRANCH   1  31
ATOM     31  O   UNL A   1      35.339  33.257  27.683  1.00  0.00    -0.377 OA
BRANCH  31  32
ATOM     32  C   UNL A   1      35.008  34.283  28.616  1.00  0.00     0.188 C 
BRANCH  32  33
ATOM     33  C   UNL A   1      33.674  34.196  29.349  1.00  0.00     0.188 C 
BRANCH  33  34
ATOM     34  O   UNL A   1      33.729  34.142  30.775  1.00  0.00    -0.376 OA
BRANCH  34  35
ATOM     35  C   UNL A   1      34.426  33.063  31.396  1.00  0.00     0.202 C 
BRANCH  35  36
ATOM     36  C   UNL A   1      34.992  33.353  32.786  1.00  0.00     0.261 C 
BRANCH  36  37
ATOM     37  O   UNL A   1      36.420  33.496  32.774  1.00  0.00    -0.460 OA
BRANCH  37  38
ATOM     38  C   UNL A   1      37.091  32.576  33.495  1.00  0.00     0.338 C 
ATOM     39  O   UNL A   1      37.002  32.355  34.698  1.00  0.00    -0.246 OA
BRANCH  38  40
ATOM     40  C   UNL A   1      37.891  31.735  32.595  1.00  0.00     0.060 A 
ATOM     41  C   UNL A   1      38.759  30.791  33.160  1.00  0.00     0.016 A 
ATOM     42  C   UNL A   1      37.866  31.953  31.217  1.00  0.00     0.016 A 
ATOM     43  C   UNL A   1      39.653  30.102  32.350  1.00  0.00     0.010 A 
ATOM     44  C   UNL A   1      38.773  31.273  30.407  1.00  0.00     0.010 A 
ATOM     45  C   UNL A   1      39.699  30.384  30.980  1.00  0.00    -0.014 A 
BRANCH  45  46
ATOM     46  C   UNL A   1      40.847  29.908  30.180  1.00  0.00     0.031 A 
ATOM     47  C   UNL A   1      41.979  30.861  29.921  1.00  0.00     0.074 A 
ATOM     48  C   UNL A   1      40.879  28.650  29.715  1.00  0.00     0.049 A 
ATOM     49  N   UNL A   1      43.052  30.701  29.191  1.00  0.00    -0.248 NA
ATOM     50  C   UNL A   1      41.885  32.178  30.573  1.00  0.00     0.031 C 
ATOM     51  C   UNL A   1      39.855  27.636  29.955  1.00  0.00     0.029 A 
ATOM     52  N   UNL A   1      41.810  28.018  28.934  1.00  0.00    -0.354 N 
ATOM     53  C   UNL A   1      43.749  31.898  29.284  1.00  0.00     0.074 A 
ATOM     54  C   UNL A   1      42.968  32.786  30.115  1.00  0.00     0.031 C 
ATOM     55  C   UNL A   1      40.206  26.508  29.317  1.00  0.00     0.029 A 
ATOM     56  C   UNL A   1      41.456  26.737  28.594  1.00  0.00     0.049 A 
ATOM     57  H   UNL A   1      42.650  28.442  28.644  1.00  0.00     0.167 HD
ATOM     58  C   UNL A   1      44.940  32.222  28.725  1.00  0.00     0.037 A 
ATOM     59  C   UNL A   1      42.064  25.867  27.767  1.00  0.00     0.037 A 
ATOM     60  C   UNL A   1      45.702  31.325  27.896  1.00  0.00     0.049 A 
ATOM     61  C   UNL A   1      43.349  26.277  27.095  1.00  0.00     0.074 A 
ATOM     62  C   UNL A   1      46.927  31.539  27.290  1.00  0.00     0.029 A 
ATOM     63  N   UNL A   1      45.301  30.042  27.548  1.00  0.00    -0.354 N 
ATOM     64  N   UNL A   1      44.019  27.401  27.199  1.00  0.00    -0.248 NA
ATOM     65  C   UNL A   1      43.965  25.297  26.191  1.00  0.00     0.031 C 
ATOM     66  C   UNL A   1      47.236  30.409  26.525  1.00  0.00     0.029 A 
ATOM     67  C   UNL A   1      46.239  29.463  26.710  1.00  0.00     0.049 A 
ATOM     68  H   UNL A   1      44.471  29.608  27.852  1.00  0.00     0.167 HD
ATOM     69  C   UNL A   1      45.146  27.253  26.401  1.00  0.00     0.074 A 
ATOM     70  C   UNL A   1      45.077  25.923  25.832  1.00  0.00     0.031 C 
ATOM     71  C   UNL A   1      46.149  28.134  26.160  1.00  0.00     0.037 A 
BRANCH  58  72
ATOM     72  C   UNL A   1      45.466  33.608  28.961  1.00  0.00     0.064 A 
ATOM     73  C   UNL A   1      45.019  34.709  28.213  1.00  0.00     0.173 A 
ATOM     74  C   UNL A   1      46.423  33.843  29.960  1.00  0.00     0.173 A 
ATOM     75  F   UNL A   1      44.119  34.540  27.233  1.00  0.00    -0.203 F 
ATOM     76  C   UNL A   1      45.532  35.985  28.439  1.00  0.00     0.198 A 
ATOM     77  C   UNL A   1      46.908  35.125  30.206  1.00  0.00     0.198 A 
ATOM     78  F   UNL A   1      46.886  32.828  30.705  1.00  0.00    -0.203 F 
ATOM     79  F   UNL A   1      45.130  37.011  27.675  1.00  0.00    -0.200 F 
ATOM     80  C   UNL A   1      46.469  36.194  29.439  1.00  0.00     0.200 A 
ATOM     81  F   UNL A   1      47.804  35.325  31.181  1.00  0.00    -0.200 F 
ATOM     82  F   UNL A   1      46.956  37.422  29.658  1.00  0.00    -0.200 F 
ENDBRANCH  58  72
BRANCH  59  83
ATOM     83  C   UNL A   1      41.460  24.532  27.520  1.00  0.00     0.064 A 
ATOM     84  C   UNL A   1      40.325  24.390  26.712  1.00  0.00     0.173 A 
ATOM     85  C   UNL A   1      42.004  23.370  28.090  1.00  0.00     0.173 A 
ATOM     86  F   UNL A   1      39.758  25.473  26.160  1.00  0.00    -0.203 F 
ATOM     87  C   UNL A   1      39.744  23.142  26.498  1.00  0.00     0.198 A 
ATOM     88  C   UNL A   1      41.441  22.119  27.849  1.00  0.00     0.198 A 
ATOM     89  F   UNL A   1      43.093  23.448  28.868  1.00  0.00    -0.203 F 
ATOM     90  F   UNL A   1      38.632  23.042  25.757  1.00  0.00    -0.200 F 
ATOM     91  C   UNL A   1      40.306  22.006  27.061  1.00  0.00     0.200 A 
ATOM     92  F   UNL A   1      41.999  21.021  28.381  1.00  0.00    -0.200 F 
ATOM     93  F   UNL A   1      39.751  20.806  26.848  1.00  0.00    -0.200 F 
ENDBRANCH  59  83
BRANCH  71  94
ATOM     94  C   UNL A   1      47.272  27.673  25.276  1.00  0.00     0.064 A 
ATOM     95  C   UNL A   1      48.370  26.961  25.782  1.00  0.00     0.173 A 
ATOM     96  C   UNL A   1      47.228  27.910  23.893  1.00  0.00     0.173 A 
ATOM     97  F   UNL A   1      48.468  26.719  27.098  1.00  0.00    -0.203 F 
ATOM     98  C   UNL A   1      49.395  26.533  24.943  1.00  0.00     0.198 A 
ATOM     99  C   UNL A   1      48.236  27.449  23.051  1.00  0.00     0.198 A 
ATOM    100  F   UNL A   1      46.196  28.578  23.354  1.00  0.00    -0.203 F 
ATOM    101  F   UNL A   1      50.461  25.904  25.458  1.00  0.00    -0.200 F 
ATOM    102  C   UNL A   1      49.323  26.769  23.579  1.00  0.00     0.200 A 
ATOM    103  F   UNL A   1      48.155  27.662  21.731  1.00  0.00    -0.200 F 
ATOM    104  F   UNL A   1      50.307  26.348  22.772  1.00  0.00    -0.200 F 
ENDBRANCH  71  94
ENDBRANCH  45  46
ENDBRANCH  38  40
ENDBRANCH  37  38
ENDBRANCH  36  37
ENDBRANCH  35  36
ENDBRANCH  34  35
ENDBRANCH  33  34
ENDBRANCH  32  33
ENDBRANCH  31  32
ENDBRANCH   1  31
TORSDOF 25
ENDMDL
