MODEL 1
REMARK VINA RESULT:     -10.1      0.000      0.000
REMARK SMILES Nc1ccc(O)c(C(=O)OCCOCCOCCOCCOC(=O)c2ccc(-c3c4nc(c(-c5c(F)c(F)c(F)c(F)c5F)c5ccc([nH]5)c(-c5c(F)c(F)c(F)c(F)c5F)c5nc(c(-c6c(F)c(F)c(F)c(F)c6F)c6ccc3[nH]6)C=C5)C=C4)cc2)c1
REMARK SMILES IDX 17 1 16 2 15 3 14 4 13 5 12 6 11 7 10 8 8 9 9 10 7 11 2 12
REMARK SMILES IDX 3 13 88 14 4 15 5 16 1 17 6 20 18 22 19 23 20 24 21 25 22 26
REMARK SMILES IDX 23 27 24 28 25 29 26 30 87 31 27 32 86 33 28 34 29 35 30 36
REMARK SMILES IDX 80 37 31 38 85 39 79 40 81 41 32 42 84 43 78 44 77 45 33 47
REMARK SMILES IDX 65 48 45 49 64 50 46 51 49 52 63 53 82 54 47 55 48 56 62 58
REMARK SMILES IDX 83 59 50 60 34 61 35 62 43 63 36 64 37 65 41 66 44 67 38 68
REMARK SMILES IDX 39 69 42 70 40 71 66 72 67 73 75 74 68 75 69 76 73 77 76 78
REMARK SMILES IDX 70 79 71 80 74 81 72 82 51 83 52 84 60 85 53 86 54 87 58 88
REMARK SMILES IDX 61 89 55 90 56 91 59 92 57 93
REMARK H PARENT 1 18 1 19 6 21 81 46 49 57
REMARK Flexibility Score: inf
ROOT
ATOM      1  C   UNL A   1      39.605  21.610  26.151  1.00  0.00     0.188 C 
ENDROOT
BRANCH   1   2
ATOM      2  O   UNL A   1      38.531  21.396  25.240  1.00  0.00    -0.377 OA
BRANCH   2   3
ATOM      3  C   UNL A   1      37.186  21.498  25.686  1.00  0.00     0.188 C 
BRANCH   3   4
ATOM      4  C   UNL A   1      36.047  21.123  24.716  1.00  0.00     0.188 C 
BRANCH   4   5
ATOM      5  O   UNL A   1      34.829  20.800  25.367  1.00  0.00    -0.376 OA
BRANCH   5   6
ATOM      6  C   UNL A   1      33.605  21.072  24.718  1.00  0.00     0.202 C 
BRANCH   6   7
ATOM      7  C   UNL A   1      32.504  21.819  25.486  1.00  0.00     0.261 C 
BRANCH   7   8
ATOM      8  O   UNL A   1      32.416  23.235  25.288  1.00  0.00    -0.460 OA
BRANCH   8   9
ATOM      9  C   UNL A   1      33.153  24.022  26.101  1.00  0.00     0.342 C 
ATOM     10  O   UNL A   1      34.167  23.702  26.704  1.00  0.00    -0.246 OA
BRANCH   9  11
ATOM     11  C   UNL A   1      32.708  25.425  25.954  1.00  0.00     0.103 A 
ATOM     12  C   UNL A   1      33.178  27.750  25.415  1.00  0.00     0.032 A 
ATOM     13  C   UNL A   1      31.894  28.087  25.852  1.00  0.00     0.029 A 
ATOM     14  C   UNL A   1      33.590  26.417  25.498  1.00  0.00     0.045 A 
ATOM     15  C   UNL A   1      31.017  27.110  26.328  1.00  0.00     0.049 A 
ATOM     16  C   UNL A   1      31.419  25.780  26.367  1.00  0.00     0.130 A 
BRANCH  12  17
ATOM     17  N   UNL A   1      34.060  28.736  25.012  1.00  0.00    -0.399 N 
ATOM     18  H   UNL A   1      34.159  28.947  24.055  1.00  0.00     0.156 HD
ATOM     19  H   UNL A   1      34.589  29.227  25.681  1.00  0.00     0.156 HD
ENDBRANCH  12  17
BRANCH  16  20
ATOM     20  O   UNL A   1      30.516  24.885  26.875  1.00  0.00    -0.507 OA
ATOM     21  H   UNL A   1      30.733  23.974  26.918  1.00  0.00     0.293 HD
ENDBRANCH  16  20
ENDBRANCH   9  11
ENDBRANCH   8   9
ENDBRANCH   7   8
ENDBRANCH   6   7
ENDBRANCH   5   6
ENDBRANCH   4   5
ENDBRANCH   3   4
ENDBRANCH   2   3
ENDBRANCH   1   2
BRANCH   1  22
ATOM     22  C   UNL A   1      40.460  20.442  26.701  1.00  0.00     0.188 C 
BRANCH  22  23
ATOM     23  O   UNL A   1      41.820  20.760  26.929  1.00  0.00    -0.376 OA
BRANCH  23  24
ATOM     24  C   UNL A   1      42.759  20.445  25.919  1.00  0.00     0.202 C 
BRANCH  24  25
ATOM     25  C   UNL A   1      43.632  21.591  25.392  1.00  0.00     0.261 C 
BRANCH  25  26
ATOM     26  O   UNL A   1      42.945  22.800  25.032  1.00  0.00    -0.460 OA
BRANCH  26  27
ATOM     27  C   UNL A   1      43.665  23.939  25.002  1.00  0.00     0.338 C 
ATOM     28  O   UNL A   1      44.587  24.215  24.251  1.00  0.00    -0.246 OA
BRANCH  27  29
ATOM     29  C   UNL A   1      43.023  24.894  25.928  1.00  0.00     0.060 A 
ATOM     30  C   UNL A   1      43.504  26.209  26.003  1.00  0.00     0.016 A 
ATOM     31  C   UNL A   1      41.933  24.494  26.705  1.00  0.00     0.016 A 
ATOM     32  C   UNL A   1      42.912  27.119  26.878  1.00  0.00     0.010 A 
ATOM     33  C   UNL A   1      41.358  25.399  27.599  1.00  0.00     0.010 A 
ATOM     34  C   UNL A   1      41.865  26.706  27.713  1.00  0.00    -0.014 A 
BRANCH  34  35
ATOM     35  C   UNL A   1      41.437  27.567  28.842  1.00  0.00     0.031 A 
ATOM     36  C   UNL A   1      42.196  27.466  30.136  1.00  0.00     0.074 A 
ATOM     37  C   UNL A   1      40.412  28.429  28.722  1.00  0.00     0.049 A 
ATOM     38  N   UNL A   1      41.975  28.057  31.282  1.00  0.00    -0.248 NA
ATOM     39  C   UNL A   1      43.366  26.572  30.137  1.00  0.00     0.031 C 
ATOM     40  C   UNL A   1      39.629  28.651  27.509  1.00  0.00     0.029 A 
ATOM     41  N   UNL A   1      39.848  29.272  29.647  1.00  0.00    -0.354 N 
ATOM     42  C   UNL A   1      42.971  27.603  32.138  1.00  0.00     0.074 A 
ATOM     43  C   UNL A   1      43.777  26.662  31.392  1.00  0.00     0.031 C 
ATOM     44  C   UNL A   1      38.674  29.560  27.768  1.00  0.00     0.029 A 
ATOM     45  C   UNL A   1      38.754  29.955  29.174  1.00  0.00     0.049 A 
ATOM     46  H   UNL A   1      40.194  29.379  30.562  1.00  0.00     0.167 HD
ATOM     47  C   UNL A   1      43.197  27.947  33.426  1.00  0.00     0.037 A 
ATOM     48  C   UNL A   1      37.901  30.779  29.816  1.00  0.00     0.037 A 
ATOM     49  C   UNL A   1      42.390  28.881  34.166  1.00  0.00     0.049 A 
ATOM     50  C   UNL A   1      38.126  31.079  31.279  1.00  0.00     0.074 A 
ATOM     51  C   UNL A   1      42.541  29.305  35.474  1.00  0.00     0.029 A 
ATOM     52  N   UNL A   1      41.272  29.529  33.662  1.00  0.00    -0.354 N 
ATOM     53  N   UNL A   1      39.082  30.665  32.076  1.00  0.00    -0.248 NA
ATOM     54  C   UNL A   1      37.149  31.964  31.931  1.00  0.00     0.031 C 
ATOM     55  C   UNL A   1      41.481  30.161  35.781  1.00  0.00     0.029 A 
ATOM     56  C   UNL A   1      40.708  30.328  34.643  1.00  0.00     0.049 A 
ATOM     57  H   UNL A   1      40.930  29.436  32.744  1.00  0.00     0.167 HD
ATOM     58  C   UNL A   1      38.844  31.267  33.306  1.00  0.00     0.074 A 
ATOM     59  C   UNL A   1      37.661  32.086  33.147  1.00  0.00     0.031 C 
ATOM     60  C   UNL A   1      39.540  31.153  34.465  1.00  0.00     0.037 A 
BRANCH  47  61
ATOM     61  C   UNL A   1      44.350  27.293  34.130  1.00  0.00     0.064 A 
ATOM     62  C   UNL A   1      44.197  26.095  34.844  1.00  0.00     0.173 A 
ATOM     63  C   UNL A   1      45.635  27.851  34.051  1.00  0.00     0.173 A 
ATOM     64  F   UNL A   1      42.988  25.530  34.964  1.00  0.00    -0.203 F 
ATOM     65  C   UNL A   1      45.286  25.489  35.467  1.00  0.00     0.198 A 
ATOM     66  C   UNL A   1      46.727  27.225  34.649  1.00  0.00     0.198 A 
ATOM     67  F   UNL A   1      45.837  28.995  33.380  1.00  0.00    -0.203 F 
ATOM     68  F   UNL A   1      45.109  24.368  36.180  1.00  0.00    -0.200 F 
ATOM     69  C   UNL A   1      46.550  26.049  35.361  1.00  0.00     0.200 A 
ATOM     70  F   UNL A   1      47.950  27.761  34.532  1.00  0.00    -0.200 F 
ATOM     71  F   UNL A   1      47.598  25.457  35.950  1.00  0.00    -0.200 F 
ENDBRANCH  47  61
BRANCH  48  72
ATOM     72  C   UNL A   1      36.738  31.366  29.097  1.00  0.00     0.064 A 
ATOM     73  C   UNL A   1      36.693  32.732  28.780  1.00  0.00     0.173 A 
ATOM     74  C   UNL A   1      35.622  30.585  28.759  1.00  0.00     0.173 A 
ATOM     75  F   UNL A   1      37.722  33.528  29.106  1.00  0.00    -0.203 F 
ATOM     76  C   UNL A   1      35.568  33.298  28.182  1.00  0.00     0.198 A 
ATOM     77  C   UNL A   1      34.512  31.145  28.129  1.00  0.00     0.198 A 
ATOM     78  F   UNL A   1      35.607  29.275  29.042  1.00  0.00    -0.203 F 
ATOM     79  F   UNL A   1      35.528  34.618  27.952  1.00  0.00    -0.200 F 
ATOM     80  C   UNL A   1      34.481  32.504  27.853  1.00  0.00     0.200 A 
ATOM     81  F   UNL A   1      33.469  30.371  27.801  1.00  0.00    -0.200 F 
ATOM     82  F   UNL A   1      33.398  33.049  27.283  1.00  0.00    -0.200 F 
ENDBRANCH  48  72
BRANCH  60  83
ATOM     83  C   UNL A   1      39.078  31.971  35.638  1.00  0.00     0.064 A 
ATOM     84  C   UNL A   1      38.245  31.437  36.632  1.00  0.00     0.173 A 
ATOM     85  C   UNL A   1      39.516  33.295  35.793  1.00  0.00     0.173 A 
ATOM     86  F   UNL A   1      37.788  30.180  36.529  1.00  0.00    -0.203 F 
ATOM     87  C   UNL A   1      37.840  32.210  37.719  1.00  0.00     0.198 A 
ATOM     88  C   UNL A   1      39.140  34.052  36.898  1.00  0.00     0.198 A 
ATOM     89  F   UNL A   1      40.323  33.853  34.877  1.00  0.00    -0.203 F 
ATOM     90  F   UNL A   1      36.999  31.696  38.626  1.00  0.00    -0.200 F 
ATOM     91  C   UNL A   1      38.295  33.513  37.855  1.00  0.00     0.200 A 
ATOM     92  F   UNL A   1      39.597  35.305  37.038  1.00  0.00    -0.200 F 
ATOM     93  F   UNL A   1      37.914  34.251  38.907  1.00  0.00    -0.200 F 
ENDBRANCH  60  83
ENDBRANCH  34  35
ENDBRANCH  27  29
ENDBRANCH  26  27
ENDBRANCH  25  26
ENDBRANCH  24  25
ENDBRANCH  23  24
ENDBRANCH  22  23
ENDBRANCH   1  22
TORSDOF 22
ENDMDL
MODEL 2
REMARK VINA RESULT:     -10.1      1.422      2.724
REMARK SMILES Nc1ccc(O)c(C(=O)OCCOCCOCCOCCOC(=O)c2ccc(-c3c4nc(c(-c5c(F)c(F)c(F)c(F)c5F)c5ccc([nH]5)c(-c5c(F)c(F)c(F)c(F)c5F)c5nc(c(-c6c(F)c(F)c(F)c(F)c6F)c6ccc3[nH]6)C=C5)C=C4)cc2)c1
REMARK SMILES IDX 17 1 16 2 15 3 14 4 13 5 12 6 11 7 10 8 8 9 9 10 7 11 2 12
REMARK SMILES IDX 3 13 88 14 4 15 5 16 1 17 6 20 18 22 19 23 20 24 21 25 22 26
REMARK SMILES IDX 23 27 24 28 25 29 26 30 87 31 27 32 86 33 28 34 29 35 30 36
REMARK SMILES IDX 80 37 31 38 85 39 79 40 81 41 32 42 84 43 78 44 77 45 33 47
REMARK SMILES IDX 65 48 45 49 64 50 46 51 49 52 63 53 82 54 47 55 48 56 62 58
REMARK SMILES IDX 83 59 50 60 34 61 35 62 43 63 36 64 37 65 41 66 44 67 38 68
REMARK SMILES IDX 39 69 42 70 40 71 66 72 67 73 75 74 68 75 69 76 73 77 76 78
REMARK SMILES IDX 70 79 71 80 74 81 72 82 51 83 52 84 60 85 53 86 54 87 58 88
REMARK SMILES IDX 61 89 55 90 56 91 59 92 57 93
REMARK H PARENT 1 18 1 19 6 21 81 46 49 57
REMARK Flexibility Score: inf
ROOT
ATOM      1  C   UNL A   1      39.953  21.874  26.490  1.00  0.00     0.188 C 
ENDROOT
BRANCH   1   2
ATOM      2  O   UNL A   1      38.662  21.969  25.893  1.00  0.00    -0.377 OA
BRANCH   2   3
ATOM      3  C   UNL A   1      37.884  23.146  26.063  1.00  0.00     0.188 C 
BRANCH   3   4
ATOM      4  C   UNL A   1      36.965  23.605  24.912  1.00  0.00     0.188 C 
BRANCH   4   5
ATOM      5  O   UNL A   1      35.608  23.759  25.295  1.00  0.00    -0.376 OA
BRANCH   5   6
ATOM      6  C   UNL A   1      34.828  24.768  24.688  1.00  0.00     0.202 C 
BRANCH   6   7
ATOM      7  C   UNL A   1      33.297  24.672  24.764  1.00  0.00     0.261 C 
BRANCH   7   8
ATOM      8  O   UNL A   1      32.743  23.447  25.259  1.00  0.00    -0.460 OA
BRANCH   8   9
ATOM      9  C   UNL A   1      31.750  22.880  24.541  1.00  0.00     0.342 C 
ATOM     10  O   UNL A   1      30.864  23.462  23.934  1.00  0.00    -0.246 OA
BRANCH   9  11
ATOM     11  C   UNL A   1      32.036  21.439  24.369  1.00  0.00     0.103 A 
ATOM     12  C   UNL A   1      32.604  19.267  25.305  1.00  0.00     0.032 A 
ATOM     13  C   UNL A   1      32.743  18.769  24.006  1.00  0.00     0.029 A 
ATOM     14  C   UNL A   1      32.280  20.615  25.479  1.00  0.00     0.045 A 
ATOM     15  C   UNL A   1      32.524  19.587  22.896  1.00  0.00     0.049 A 
ATOM     16  C   UNL A   1      32.159  20.915  23.077  1.00  0.00     0.130 A 
BRANCH  12  17
ATOM     17  N   UNL A   1      32.892  18.465  26.395  1.00  0.00    -0.399 N 
ATOM     18  H   UNL A   1      33.318  17.587  26.261  1.00  0.00     0.156 HD
ATOM     19  H   UNL A   1      32.671  18.771  27.304  1.00  0.00     0.156 HD
ENDBRANCH  12  17
BRANCH  16  20
ATOM     20  O   UNL A   1      31.992  21.663  21.942  1.00  0.00    -0.507 OA
ATOM     21  H   UNL A   1      32.637  21.633  21.262  1.00  0.00     0.293 HD
ENDBRANCH  16  20
ENDBRANCH   9  11
ENDBRANCH   8   9
ENDBRANCH   7   8
ENDBRANCH   6   7
ENDBRANCH   5   6
ENDBRANCH   4   5
ENDBRANCH   3   4
ENDBRANCH   2   3
ENDBRANCH   1   2
BRANCH   1  22
ATOM     22  C   UNL A   1      40.643  20.510  26.736  1.00  0.00     0.188 C 
BRANCH  22  23
ATOM     23  O   UNL A   1      42.022  20.592  27.047  1.00  0.00    -0.376 OA
BRANCH  23  24
ATOM     24  C   UNL A   1      42.955  20.449  25.993  1.00  0.00     0.202 C 
BRANCH  24  25
ATOM     25  C   UNL A   1      43.776  21.688  25.611  1.00  0.00     0.261 C 
BRANCH  25  26
ATOM     26  O   UNL A   1      43.031  22.836  25.179  1.00  0.00    -0.460 OA
BRANCH  26  27
ATOM     27  C   UNL A   1      43.694  24.004  25.070  1.00  0.00     0.338 C 
ATOM     28  O   UNL A   1      44.561  24.293  24.260  1.00  0.00    -0.246 OA
BRANCH  27  29
ATOM     29  C   UNL A   1      43.059  24.963  25.997  1.00  0.00     0.060 A 
ATOM     30  C   UNL A   1      43.555  26.271  26.079  1.00  0.00     0.016 A 
ATOM     31  C   UNL A   1      41.961  24.572  26.767  1.00  0.00     0.016 A 
ATOM     32  C   UNL A   1      42.970  27.185  26.955  1.00  0.00     0.010 A 
ATOM     33  C   UNL A   1      41.393  25.481  27.662  1.00  0.00     0.010 A 
ATOM     34  C   UNL A   1      41.915  26.782  27.783  1.00  0.00    -0.014 A 
BRANCH  34  35
ATOM     35  C   UNL A   1      41.492  27.643  28.914  1.00  0.00     0.031 A 
ATOM     36  C   UNL A   1      42.252  27.538  30.207  1.00  0.00     0.074 A 
ATOM     37  C   UNL A   1      40.470  28.509  28.797  1.00  0.00     0.049 A 
ATOM     38  N   UNL A   1      42.035  28.129  31.354  1.00  0.00    -0.248 NA
ATOM     39  C   UNL A   1      43.419  26.639  30.205  1.00  0.00     0.031 C 
ATOM     40  C   UNL A   1      39.687  28.735  27.585  1.00  0.00     0.029 A 
ATOM     41  N   UNL A   1      39.910  29.354  29.723  1.00  0.00    -0.354 N 
ATOM     42  C   UNL A   1      43.030  27.669  32.207  1.00  0.00     0.074 A 
ATOM     43  C   UNL A   1      43.832  26.726  31.459  1.00  0.00     0.031 C 
ATOM     44  C   UNL A   1      38.735  29.648  27.846  1.00  0.00     0.029 A 
ATOM     45  C   UNL A   1      38.819  30.041  29.252  1.00  0.00     0.049 A 
ATOM     46  H   UNL A   1      40.259  29.458  30.638  1.00  0.00     0.167 HD
ATOM     47  C   UNL A   1      43.260  28.012  33.496  1.00  0.00     0.037 A 
ATOM     48  C   UNL A   1      37.970  30.868  29.896  1.00  0.00     0.037 A 
ATOM     49  C   UNL A   1      42.458  28.948  34.238  1.00  0.00     0.049 A 
ATOM     50  C   UNL A   1      38.198  31.165  31.359  1.00  0.00     0.074 A 
ATOM     51  C   UNL A   1      42.613  29.370  35.546  1.00  0.00     0.029 A 
ATOM     52  N   UNL A   1      41.342  29.602  33.736  1.00  0.00    -0.354 N 
ATOM     53  N   UNL A   1      39.154  30.747  32.154  1.00  0.00    -0.248 NA
ATOM     54  C   UNL A   1      37.226  32.054  32.014  1.00  0.00     0.031 C 
ATOM     55  C   UNL A   1      41.557  30.231  35.855  1.00  0.00     0.029 A 
ATOM     56  C   UNL A   1      40.782  30.401  34.719  1.00  0.00     0.049 A 
ATOM     57  H   UNL A   1      40.998  29.510  32.818  1.00  0.00     0.167 HD
ATOM     58  C   UNL A   1      38.920  31.349  33.385  1.00  0.00     0.074 A 
ATOM     59  C   UNL A   1      37.741  32.173  33.229  1.00  0.00     0.031 C 
ATOM     60  C   UNL A   1      39.617  31.231  34.543  1.00  0.00     0.037 A 
BRANCH  47  61
ATOM     61  C   UNL A   1      44.412  27.353  34.198  1.00  0.00     0.064 A 
ATOM     62  C   UNL A   1      45.686  27.939  34.237  1.00  0.00     0.173 A 
ATOM     63  C   UNL A   1      44.225  26.140  34.879  1.00  0.00     0.173 A 
ATOM     64  F   UNL A   1      45.921  29.089  33.589  1.00  0.00    -0.203 F 
ATOM     65  C   UNL A   1      46.735  27.325  34.917  1.00  0.00     0.198 A 
ATOM     66  C   UNL A   1      45.269  25.546  35.584  1.00  0.00     0.198 A 
ATOM     67  F   UNL A   1      43.027  25.539  34.874  1.00  0.00    -0.203 F 
ATOM     68  F   UNL A   1      47.956  27.880  34.904  1.00  0.00    -0.200 F 
ATOM     69  C   UNL A   1      46.523  26.135  35.597  1.00  0.00     0.200 A 
ATOM     70  F   UNL A   1      45.057  24.404  36.253  1.00  0.00    -0.200 F 
ATOM     71  F   UNL A   1      47.531  25.553  36.262  1.00  0.00    -0.200 F 
ENDBRANCH  47  61
BRANCH  48  72
ATOM     72  C   UNL A   1      36.808  31.460  29.179  1.00  0.00     0.064 A 
ATOM     73  C   UNL A   1      36.774  32.824  28.852  1.00  0.00     0.173 A 
ATOM     74  C   UNL A   1      35.683  30.688  28.854  1.00  0.00     0.173 A 
ATOM     75  F   UNL A   1      37.813  33.613  29.166  1.00  0.00    -0.203 F 
ATOM     76  C   UNL A   1      35.651  33.396  28.257  1.00  0.00     0.198 A 
ATOM     77  C   UNL A   1      34.574  31.253  28.227  1.00  0.00     0.198 A 
ATOM     78  F   UNL A   1      35.658  29.379  29.148  1.00  0.00    -0.203 F 
ATOM     79  F   UNL A   1      35.622  34.714  28.016  1.00  0.00    -0.200 F 
ATOM     80  C   UNL A   1      34.554  32.609  27.940  1.00  0.00     0.200 A 
ATOM     81  F   UNL A   1      33.523  30.486  27.910  1.00  0.00    -0.200 F 
ATOM     82  F   UNL A   1      33.473  33.160  27.372  1.00  0.00    -0.200 F 
ENDBRANCH  48  72
BRANCH  60  83
ATOM     83  C   UNL A   1      39.161  32.050  35.718  1.00  0.00     0.064 A 
ATOM     84  C   UNL A   1      38.327  31.518  36.713  1.00  0.00     0.173 A 
ATOM     85  C   UNL A   1      39.603  33.373  35.872  1.00  0.00     0.173 A 
ATOM     86  F   UNL A   1      37.867  30.263  36.610  1.00  0.00    -0.203 F 
ATOM     87  C   UNL A   1      37.928  32.292  37.801  1.00  0.00     0.198 A 
ATOM     88  C   UNL A   1      39.232  34.130  36.979  1.00  0.00     0.198 A 
ATOM     89  F   UNL A   1      40.410  33.928  34.956  1.00  0.00    -0.203 F 
ATOM     90  F   UNL A   1      37.086  31.780  38.710  1.00  0.00    -0.200 F 
ATOM     91  C   UNL A   1      38.387  33.593  37.937  1.00  0.00     0.200 A 
ATOM     92  F   UNL A   1      39.693  35.381  37.119  1.00  0.00    -0.200 F 
ATOM     93  F   UNL A   1      38.010  34.332  38.990  1.00  0.00    -0.200 F 
ENDBRANCH  60  83
ENDBRANCH  34  35
ENDBRANCH  27  29
ENDBRANCH  26  27
ENDBRANCH  25  26
ENDBRANCH  24  25
ENDBRANCH  23  24
ENDBRANCH  22  23
ENDBRANCH   1  22
TORSDOF 22
ENDMDL
MODEL 3
REMARK VINA RESULT:      -9.8      5.334     11.468
REMARK SMILES Nc1ccc(O)c(C(=O)OCCOCCOCCOCCOC(=O)c2ccc(-c3c4nc(c(-c5c(F)c(F)c(F)c(F)c5F)c5ccc([nH]5)c(-c5c(F)c(F)c(F)c(F)c5F)c5nc(c(-c6c(F)c(F)c(F)c(F)c6F)c6ccc3[nH]6)C=C5)C=C4)cc2)c1
REMARK SMILES IDX 17 1 16 2 15 3 14 4 13 5 12 6 11 7 10 8 8 9 9 10 7 11 2 12
REMARK SMILES IDX 3 13 88 14 4 15 5 16 1 17 6 20 18 22 19 23 20 24 21 25 22 26
REMARK SMILES IDX 23 27 24 28 25 29 26 30 87 31 27 32 86 33 28 34 29 35 30 36
REMARK SMILES IDX 80 37 31 38 85 39 79 40 81 41 32 42 84 43 78 44 77 45 33 47
REMARK SMILES IDX 65 48 45 49 64 50 46 51 49 52 63 53 82 54 47 55 48 56 62 58
REMARK SMILES IDX 83 59 50 60 34 61 35 62 43 63 36 64 37 65 41 66 44 67 38 68
REMARK SMILES IDX 39 69 42 70 40 71 66 72 67 73 75 74 68 75 69 76 73 77 76 78
REMARK SMILES IDX 70 79 71 80 74 81 72 82 51 83 52 84 60 85 53 86 54 87 58 88
REMARK SMILES IDX 61 89 55 90 56 91 59 92 57 93
REMARK H PARENT 1 18 1 19 6 21 81 46 49 57
REMARK Flexibility Score: inf
ROOT
ATOM      1  C   UNL A   1      32.519  36.416  30.561  1.00  0.00     0.188 C 
ENDROOT
BRANCH   1   2
ATOM      2  O   UNL A   1      32.793  37.646  31.228  1.00  0.00    -0.377 OA
BRANCH   2   3
ATOM      3  C   UNL A   1      33.856  37.726  32.168  1.00  0.00     0.188 C 
BRANCH   3   4
ATOM      4  C   UNL A   1      33.842  36.785  33.391  1.00  0.00     0.188 C 
BRANCH   4   5
ATOM      5  O   UNL A   1      34.987  35.953  33.481  1.00  0.00    -0.376 OA
BRANCH   5   6
ATOM      6  C   UNL A   1      34.977  34.858  34.372  1.00  0.00     0.202 C 
BRANCH   6   7
ATOM      7  C   UNL A   1      36.307  34.178  34.732  1.00  0.00     0.261 C 
BRANCH   7   8
ATOM      8  O   UNL A   1      37.465  34.576  33.990  1.00  0.00    -0.460 OA
BRANCH   8   9
ATOM      9  C   UNL A   1      37.777  33.855  32.892  1.00  0.00     0.342 C 
ATOM     10  O   UNL A   1      37.776  34.249  31.735  1.00  0.00    -0.246 OA
BRANCH   9  11
ATOM     11  C   UNL A   1      38.384  32.572  33.308  1.00  0.00     0.103 A 
ATOM     12  C   UNL A   1      38.279  30.152  33.525  1.00  0.00     0.032 A 
ATOM     13  C   UNL A   1      39.469  30.188  34.257  1.00  0.00     0.029 A 
ATOM     14  C   UNL A   1      37.724  31.354  33.079  1.00  0.00     0.045 A 
ATOM     15  C   UNL A   1      40.121  31.397  34.510  1.00  0.00     0.049 A 
ATOM     16  C   UNL A   1      39.586  32.585  34.025  1.00  0.00     0.130 A 
BRANCH  12  17
ATOM     17  N   UNL A   1      37.608  28.956  33.342  1.00  0.00    -0.399 N 
ATOM     18  H   UNL A   1      37.104  28.555  34.088  1.00  0.00     0.156 HD
ATOM     19  H   UNL A   1      37.632  28.506  32.467  1.00  0.00     0.156 HD
ENDBRANCH  12  17
BRANCH  16  20
ATOM     20  O   UNL A   1      40.264  33.732  34.339  1.00  0.00    -0.507 OA
ATOM     21  H   UNL A   1      40.072  34.187  35.136  1.00  0.00     0.293 HD
ENDBRANCH  16  20
ENDBRANCH   9  11
ENDBRANCH   8   9
ENDBRANCH   7   8
ENDBRANCH   6   7
ENDBRANCH   5   6
ENDBRANCH   4   5
ENDBRANCH   3   4
ENDBRANCH   2   3
ENDBRANCH   1   2
BRANCH   1  22
ATOM     22  C   UNL A   1      33.387  35.911  29.384  1.00  0.00     0.188 C 
BRANCH  22  23
ATOM     23  O   UNL A   1      34.243  34.828  29.700  1.00  0.00    -0.376 OA
BRANCH  23  24
ATOM     24  C   UNL A   1      35.306  34.535  28.815  1.00  0.00     0.202 C 
BRANCH  24  25
ATOM     25  C   UNL A   1      35.262  33.185  28.088  1.00  0.00     0.261 C 
BRANCH  25  26
ATOM     26  O   UNL A   1      35.114  32.022  28.917  1.00  0.00    -0.460 OA
BRANCH  26  27
ATOM     27  C   UNL A   1      35.026  30.826  28.302  1.00  0.00     0.338 C 
ATOM     28  O   UNL A   1      34.113  30.417  27.602  1.00  0.00    -0.246 OA
BRANCH  27  29
ATOM     29  C   UNL A   1      36.326  30.145  28.468  1.00  0.00     0.060 A 
ATOM     30  C   UNL A   1      36.611  29.492  29.675  1.00  0.00     0.016 A 
ATOM     31  C   UNL A   1      37.252  30.135  27.422  1.00  0.00     0.016 A 
ATOM     32  C   UNL A   1      37.837  28.851  29.849  1.00  0.00     0.010 A 
ATOM     33  C   UNL A   1      38.490  29.514  27.607  1.00  0.00     0.010 A 
ATOM     34  C   UNL A   1      38.800  28.897  28.833  1.00  0.00    -0.014 A 
BRANCH  34  35
ATOM     35  C   UNL A   1      40.196  28.486  29.117  1.00  0.00     0.031 A 
ATOM     36  C   UNL A   1      41.066  29.430  29.901  1.00  0.00     0.074 A 
ATOM     37  C   UNL A   1      40.679  27.300  28.707  1.00  0.00     0.049 A 
ATOM     38  N   UNL A   1      42.332  29.331  30.217  1.00  0.00    -0.248 NA
ATOM     39  C   UNL A   1      40.416  30.655  30.396  1.00  0.00     0.031 C 
ATOM     40  C   UNL A   1      39.923  26.283  27.981  1.00  0.00     0.029 A 
ATOM     41  N   UNL A   1      41.935  26.759  28.837  1.00  0.00    -0.354 N 
ATOM     42  C   UNL A   1      42.630  30.480  30.938  1.00  0.00     0.074 A 
ATOM     43  C   UNL A   1      41.424  31.278  30.986  1.00  0.00     0.031 C 
ATOM     44  C   UNL A   1      40.735  25.245  27.714  1.00  0.00     0.029 A 
ATOM     45  C   UNL A   1      42.076  25.542  28.217  1.00  0.00     0.049 A 
ATOM     46  H   UNL A   1      42.664  27.202  29.328  1.00  0.00     0.167 HD
ATOM     47  C   UNL A   1      43.801  30.833  31.517  1.00  0.00     0.037 A 
ATOM     48  C   UNL A   1      43.172  24.775  28.051  1.00  0.00     0.037 A 
ATOM     49  C   UNL A   1      44.999  30.038  31.464  1.00  0.00     0.049 A 
ATOM     50  C   UNL A   1      44.489  25.234  28.632  1.00  0.00     0.074 A 
ATOM     51  C   UNL A   1      46.236  30.302  32.025  1.00  0.00     0.029 A 
ATOM     52  N   UNL A   1      45.112  28.824  30.800  1.00  0.00    -0.354 N 
ATOM     53  N   UNL A   1      44.758  26.309  29.333  1.00  0.00    -0.248 NA
ATOM     54  C   UNL A   1      45.654  24.369  28.398  1.00  0.00     0.031 C 
ATOM     55  C   UNL A   1      47.112  29.281  31.651  1.00  0.00     0.029 A 
ATOM     56  C   UNL A   1      46.405  28.343  30.915  1.00  0.00     0.049 A 
ATOM     57  H   UNL A   1      44.381  28.373  30.319  1.00  0.00     0.167 HD
ATOM     58  C   UNL A   1      46.108  26.230  29.654  1.00  0.00     0.074 A 
ATOM     59  C   UNL A   1      46.600  24.993  29.084  1.00  0.00     0.031 C 
ATOM     60  C   UNL A   1      46.875  27.100  30.357  1.00  0.00     0.037 A 
BRANCH  47  61
ATOM     61  C   UNL A   1      43.854  32.148  32.238  1.00  0.00     0.064 A 
ATOM     62  C   UNL A   1      44.130  33.349  31.567  1.00  0.00     0.173 A 
ATOM     63  C   UNL A   1      43.580  32.212  33.613  1.00  0.00     0.173 A 
ATOM     64  F   UNL A   1      44.415  33.340  30.257  1.00  0.00    -0.203 F 
ATOM     65  C   UNL A   1      44.147  34.562  32.250  1.00  0.00     0.198 A 
ATOM     66  C   UNL A   1      43.566  33.431  34.285  1.00  0.00     0.198 A 
ATOM     67  F   UNL A   1      43.308  31.094  34.302  1.00  0.00    -0.203 F 
ATOM     68  F   UNL A   1      44.456  35.692  31.597  1.00  0.00    -0.200 F 
ATOM     69  C   UNL A   1      43.856  34.604  33.605  1.00  0.00     0.200 A 
ATOM     70  F   UNL A   1      43.270  33.471  35.592  1.00  0.00    -0.200 F 
ATOM     71  F   UNL A   1      43.860  35.775  34.257  1.00  0.00    -0.200 F 
ENDBRANCH  47  61
BRANCH  48  72
ATOM     72  C   UNL A   1      43.091  23.503  27.283  1.00  0.00     0.064 A 
ATOM     73  C   UNL A   1      42.615  22.324  27.877  1.00  0.00     0.173 A 
ATOM     74  C   UNL A   1      43.539  23.424  25.955  1.00  0.00     0.173 A 
ATOM     75  F   UNL A   1      42.201  22.338  29.153  1.00  0.00    -0.203 F 
ATOM     76  C   UNL A   1      42.618  21.114  27.185  1.00  0.00     0.198 A 
ATOM     77  C   UNL A   1      43.508  22.222  25.252  1.00  0.00     0.198 A 
ATOM     78  F   UNL A   1      44.009  24.518  25.339  1.00  0.00    -0.203 F 
ATOM     79  F   UNL A   1      42.219  19.992  27.800  1.00  0.00    -0.200 F 
ATOM     80  C   UNL A   1      43.060  21.065  25.872  1.00  0.00     0.200 A 
ATOM     81  F   UNL A   1      43.923  22.182  23.979  1.00  0.00    -0.200 F 
ATOM     82  F   UNL A   1      43.067  19.901  25.208  1.00  0.00    -0.200 F 
ENDBRANCH  48  72
BRANCH  60  83
ATOM     83  C   UNL A   1      48.311  26.727  30.598  1.00  0.00     0.064 A 
ATOM     84  C   UNL A   1      48.700  25.951  31.700  1.00  0.00     0.173 A 
ATOM     85  C   UNL A   1      49.306  27.114  29.687  1.00  0.00     0.173 A 
ATOM     86  F   UNL A   1      47.792  25.562  32.608  1.00  0.00    -0.203 F 
ATOM     87  C   UNL A   1      50.035  25.604  31.897  1.00  0.00     0.198 A 
ATOM     88  C   UNL A   1      50.633  26.735  29.867  1.00  0.00     0.198 A 
ATOM     89  F   UNL A   1      48.988  27.848  28.610  1.00  0.00    -0.203 F 
ATOM     90  F   UNL A   1      50.391  24.910  32.987  1.00  0.00    -0.200 F 
ATOM     91  C   UNL A   1      50.998  25.990  30.977  1.00  0.00     0.200 A 
ATOM     92  F   UNL A   1      51.559  27.091  28.965  1.00  0.00    -0.200 F 
ATOM     93  F   UNL A   1      52.280  25.647  31.162  1.00  0.00    -0.200 F 
ENDBRANCH  60  83
ENDBRANCH  34  35
ENDBRANCH  27  29
ENDBRANCH  26  27
ENDBRANCH  25  26
ENDBRANCH  24  25
ENDBRANCH  23  24
ENDBRANCH  22  23
ENDBRANCH   1  22
TORSDOF 22
ENDMDL
