MODEL 1
REMARK VINA RESULT:      -7.7      0.000      0.000
REMARK SMILES C[NH+](C)Cc1ccccc1[C@H]1[NH2+][C@@H](C(=O)OCCOCCOCCOCCOC(=O)c2ccc(-c3c4nc(c(-c5c(F)c(F)c(F)c(F)c5F)c5ccc([nH]5)c(-c5c(F)c(F)c(F)c(F)c5F)c5nc(c(-c6c(F)c(F)c(F)c(F)c6F)c6ccc3[nH]6)C=C5)C=C4)cc2)C(C)(C)S1
REMARK SMILES IDX 21 1 20 2 19 3 18 4 17 5 16 6 14 7 15 8 13 9 11 10 12 11
REMARK SMILES IDX 97 12 94 15 95 16 96 17 10 18 5 19 6 20 7 21 9 22 8 23 4 24
REMARK SMILES IDX 2 25 1 26 3 27 22 29 23 30 24 31 25 32 26 33 27 34 28 35
REMARK SMILES IDX 29 36 30 37 31 38 32 39 93 40 33 41 92 42 34 43 35 44 36 45
REMARK SMILES IDX 86 46 37 47 91 48 85 49 87 50 38 51 90 52 84 53 83 54 39 56
REMARK SMILES IDX 71 57 51 58 70 59 52 60 55 61 69 62 88 63 53 64 54 65 68 67
REMARK SMILES IDX 89 68 56 69 40 70 41 71 49 72 42 73 43 74 47 75 50 76 44 77
REMARK SMILES IDX 45 78 48 79 46 80 72 81 73 82 81 83 74 84 75 85 79 86 82 87
REMARK SMILES IDX 76 88 77 89 80 90 78 91 57 92 58 93 66 94 59 95 60 96 64 97
REMARK SMILES IDX 67 98 61 99 62 100 65 101 63 102
REMARK H PARENT 12 13 12 14 2 28 87 55 55 66
REMARK Flexibility Score: inf
ROOT
ATOM      1  C   UNL A   1      39.992  32.657  40.931  1.00  0.00     0.188 C 
ENDROOT
BRANCH   1   2
ATOM      2  C   UNL A   1      40.446  33.146  39.550  1.00  0.00     0.188 C 
BRANCH   2   3
ATOM      3  O   UNL A   1      39.510  33.407  38.508  1.00  0.00    -0.376 OA
BRANCH   3   4
ATOM      4  C   UNL A   1      38.164  32.978  38.608  1.00  0.00     0.202 C 
BRANCH   4   5
ATOM      5  C   UNL A   1      37.694  31.821  37.701  1.00  0.00     0.261 C 
BRANCH   5   6
ATOM      6  O   UNL A   1      37.235  32.143  36.371  1.00  0.00    -0.459 OA
BRANCH   6   7
ATOM      7  C   UNL A   1      37.915  31.555  35.352  1.00  0.00     0.366 C 
ATOM      8  O   UNL A   1      38.923  30.875  35.522  1.00  0.00    -0.245 OA
BRANCH   7   9
ATOM      9  C   UNL A   1      37.432  31.963  33.926  1.00  0.00     0.310 C 
ATOM     10  C   UNL A   1      36.993  30.848  31.833  1.00  0.00     0.275 C 
ATOM     11  N   UNL A   1      37.155  30.679  33.260  1.00  0.00    -0.319 N 
ATOM     12  S   UNL A   1      37.649  32.414  31.288  1.00  0.00    -0.081 SA
ATOM     13  H   UNL A   1      37.932  30.041  33.432  1.00  0.00     0.348 HD
ATOM     14  H   UNL A   1      36.287  30.302  33.639  1.00  0.00     0.348 HD
ATOM     15  C   UNL A   1      38.149  32.988  32.973  1.00  0.00     0.079 C 
ATOM     16  C   UNL A   1      39.687  33.121  32.946  1.00  0.00     0.030 C 
ATOM     17  C   UNL A   1      37.524  34.396  33.094  1.00  0.00     0.030 C 
BRANCH  10  18
ATOM     18  C   UNL A   1      37.490  29.597  31.119  1.00  0.00     0.029 A 
ATOM     19  C   UNL A   1      37.501  29.402  29.707  1.00  0.00     0.016 A 
ATOM     20  C   UNL A   1      38.272  28.345  29.184  1.00  0.00     0.010 A 
ATOM     21  C   UNL A   1      38.964  27.465  30.011  1.00  0.00     0.001 A 
ATOM     22  C   UNL A   1      38.177  28.669  31.934  1.00  0.00     0.011 A 
ATOM     23  C   UNL A   1      38.901  27.615  31.387  1.00  0.00     0.001 A 
BRANCH  19  24
ATOM     24  C   UNL A   1      36.822  30.320  28.705  1.00  0.00     0.299 C 
BRANCH  24  25
ATOM     25  N   UNL A   1      35.354  30.297  28.600  1.00  0.00    -0.336 N 
ATOM     26  C   UNL A   1      34.744  31.615  28.540  1.00  0.00     0.332 C 
ATOM     27  C   UNL A   1      34.834  29.425  27.554  1.00  0.00     0.332 C 
ATOM     28  H   UNL A   1      35.071  29.878  29.485  1.00  0.00     0.347 HD
ENDBRANCH  24  25
ENDBRANCH  19  24
ENDBRANCH  10  18
ENDBRANCH   7   9
ENDBRANCH   6   7
ENDBRANCH   5   6
ENDBRANCH   4   5
ENDBRANCH   3   4
ENDBRANCH   2   3
ENDBRANCH   1   2
BRANCH   1  29
ATOM     29  O   UNL A   1      39.332  33.605  41.740  1.00  0.00    -0.377 OA
BRANCH  29  30
ATOM     30  C   UNL A   1      39.586  34.972  41.482  1.00  0.00     0.188 C 
BRANCH  30  31
ATOM     31  C   UNL A   1      38.404  35.850  41.042  1.00  0.00     0.188 C 
BRANCH  31  32
ATOM     32  O   UNL A   1      38.761  37.199  40.766  1.00  0.00    -0.376 OA
BRANCH  32  33
ATOM     33  C   UNL A   1      39.582  37.487  39.644  1.00  0.00     0.202 C 
BRANCH  33  34
ATOM     34  C   UNL A   1      40.960  38.118  39.909  1.00  0.00     0.261 C 
BRANCH  34  35
ATOM     35  O   UNL A   1      42.010  37.773  38.996  1.00  0.00    -0.460 OA
BRANCH  35  36
ATOM     36  C   UNL A   1      42.518  36.526  39.091  1.00  0.00     0.338 C 
ATOM     37  O   UNL A   1      42.640  35.856  40.095  1.00  0.00    -0.246 OA
BRANCH  36  38
ATOM     38  C   UNL A   1      42.733  36.010  37.721  1.00  0.00     0.060 A 
ATOM     39  C   UNL A   1      41.608  35.778  36.919  1.00  0.00     0.016 A 
ATOM     40  C   UNL A   1      44.017  35.735  37.243  1.00  0.00     0.016 A 
ATOM     41  C   UNL A   1      41.758  35.199  35.663  1.00  0.00     0.010 A 
ATOM     42  C   UNL A   1      44.165  35.128  35.991  1.00  0.00     0.010 A 
ATOM     43  C   UNL A   1      43.029  34.804  35.228  1.00  0.00    -0.014 A 
BRANCH  43  44
ATOM     44  C   UNL A   1      43.111  33.807  34.134  1.00  0.00     0.031 A 
ATOM     45  C   UNL A   1      43.269  34.322  32.729  1.00  0.00     0.074 A 
ATOM     46  C   UNL A   1      43.135  32.488  34.380  1.00  0.00     0.049 A 
ATOM     47  N   UNL A   1      43.437  33.664  31.611  1.00  0.00    -0.248 NA
ATOM     48  C   UNL A   1      43.231  35.784  32.567  1.00  0.00     0.031 C 
ATOM     49  C   UNL A   1      43.023  31.873  35.699  1.00  0.00     0.029 A 
ATOM     50  N   UNL A   1      43.265  31.430  33.517  1.00  0.00    -0.354 N 
ATOM     51  C   UNL A   1      43.522  34.631  30.617  1.00  0.00     0.074 A 
ATOM     52  C   UNL A   1      43.341  35.915  31.256  1.00  0.00     0.031 C 
ATOM     53  C   UNL A   1      43.079  30.537  35.558  1.00  0.00     0.029 A 
ATOM     54  C   UNL A   1      43.213  30.208  34.138  1.00  0.00     0.049 A 
ATOM     55  H   UNL A   1      43.385  31.536  32.547  1.00  0.00     0.167 HD
ATOM     56  C   UNL A   1      43.748  34.466  29.291  1.00  0.00     0.037 A 
ATOM     57  C   UNL A   1      43.257  28.967  33.614  1.00  0.00     0.037 A 
ATOM     58  C   UNL A   1      43.910  33.185  28.658  1.00  0.00     0.049 A 
ATOM     59  C   UNL A   1      43.456  28.800  32.130  1.00  0.00     0.074 A 
ATOM     60  C   UNL A   1      44.154  32.902  27.327  1.00  0.00     0.029 A 
ATOM     61  N   UNL A   1      43.824  31.965  29.317  1.00  0.00    -0.354 N 
ATOM     62  N   UNL A   1      43.577  29.716  31.199  1.00  0.00    -0.248 NA
ATOM     63  C   UNL A   1      43.545  27.423  31.627  1.00  0.00     0.031 C 
ATOM     64  C   UNL A   1      44.147  31.511  27.167  1.00  0.00     0.029 A 
ATOM     65  C   UNL A   1      43.979  30.926  28.413  1.00  0.00     0.049 A 
ATOM     66  H   UNL A   1      43.673  31.855  30.283  1.00  0.00     0.167 HD
ATOM     67  C   UNL A   1      43.789  29.031  30.009  1.00  0.00     0.074 A 
ATOM     68  C   UNL A   1      43.790  27.620  30.340  1.00  0.00     0.031 C 
ATOM     69  C   UNL A   1      43.973  29.524  28.757  1.00  0.00     0.037 A 
BRANCH  56  70
ATOM     70  C   UNL A   1      43.771  35.709  28.445  1.00  0.00     0.064 A 
ATOM     71  C   UNL A   1      44.967  36.377  28.132  1.00  0.00     0.173 A 
ATOM     72  C   UNL A   1      42.573  36.262  27.968  1.00  0.00     0.173 A 
ATOM     73  F   UNL A   1      46.141  35.904  28.577  1.00  0.00    -0.203 F 
ATOM     74  C   UNL A   1      44.957  37.576  27.424  1.00  0.00     0.198 A 
ATOM     75  C   UNL A   1      42.569  37.439  27.225  1.00  0.00     0.198 A 
ATOM     76  F   UNL A   1      41.401  35.666  28.233  1.00  0.00    -0.203 F 
ATOM     77  F   UNL A   1      46.102  38.238  27.211  1.00  0.00    -0.200 F 
ATOM     78  C   UNL A   1      43.759  38.104  26.968  1.00  0.00     0.200 A 
ATOM     79  F   UNL A   1      41.411  37.940  26.774  1.00  0.00    -0.200 F 
ATOM     80  F   UNL A   1      43.747  39.263  26.294  1.00  0.00    -0.200 F 
ENDBRANCH  56  70
BRANCH  57  81
ATOM     81  C   UNL A   1      43.116  27.792  34.512  1.00  0.00     0.064 A 
ATOM     82  C   UNL A   1      44.186  27.332  35.290  1.00  0.00     0.173 A 
ATOM     83  C   UNL A   1      41.890  27.118  34.624  1.00  0.00     0.173 A 
ATOM     84  F   UNL A   1      45.384  27.927  35.201  1.00  0.00    -0.203 F 
ATOM     85  C   UNL A   1      44.038  26.238  36.142  1.00  0.00     0.198 A 
ATOM     86  C   UNL A   1      41.735  26.043  35.497  1.00  0.00     0.198 A 
ATOM     87  F   UNL A   1      40.835  27.518  33.900  1.00  0.00    -0.203 F 
ATOM     88  F   UNL A   1      45.086  25.796  36.851  1.00  0.00    -0.200 F 
ATOM     89  C   UNL A   1      42.810  25.601  36.252  1.00  0.00     0.200 A 
ATOM     90  F   UNL A   1      40.543  25.442  35.611  1.00  0.00    -0.200 F 
ATOM     91  F   UNL A   1      42.664  24.561  37.083  1.00  0.00    -0.200 F 
ENDBRANCH  57  81
BRANCH  69  92
ATOM     92  C   UNL A   1      44.242  28.533  27.656  1.00  0.00     0.064 A 
ATOM     93  C   UNL A   1      43.212  27.987  26.875  1.00  0.00     0.173 A 
ATOM     94  C   UNL A   1      45.559  28.140  27.367  1.00  0.00     0.173 A 
ATOM     95  F   UNL A   1      41.935  28.321  27.112  1.00  0.00    -0.203 F 
ATOM     96  C   UNL A   1      43.487  27.053  25.878  1.00  0.00     0.198 A 
ATOM     97  C   UNL A   1      45.833  27.237  26.344  1.00  0.00     0.198 A 
ATOM     98  F   UNL A   1      46.585  28.639  28.074  1.00  0.00    -0.203 F 
ATOM     99  F   UNL A   1      42.480  26.494  25.191  1.00  0.00    -0.200 F 
ATOM    100  C   UNL A   1      44.796  26.684  25.610  1.00  0.00     0.200 A 
ATOM    101  F   UNL A   1      47.101  26.896  26.074  1.00  0.00    -0.200 F 
ATOM    102  F   UNL A   1      45.058  25.785  24.650  1.00  0.00    -0.200 F 
ENDBRANCH  69  92
ENDBRANCH  43  44
ENDBRANCH  36  38
ENDBRANCH  35  36
ENDBRANCH  34  35
ENDBRANCH  33  34
ENDBRANCH  32  33
ENDBRANCH  31  32
ENDBRANCH  30  31
ENDBRANCH  29  30
ENDBRANCH   1  29
TORSDOF 23
ENDMDL
MODEL 2
REMARK VINA RESULT:      -7.2      4.190      8.996
REMARK SMILES C[NH+](C)Cc1ccccc1[C@H]1[NH2+][C@@H](C(=O)OCCOCCOCCOCCOC(=O)c2ccc(-c3c4nc(c(-c5c(F)c(F)c(F)c(F)c5F)c5ccc([nH]5)c(-c5c(F)c(F)c(F)c(F)c5F)c5nc(c(-c6c(F)c(F)c(F)c(F)c6F)c6ccc3[nH]6)C=C5)C=C4)cc2)C(C)(C)S1
REMARK SMILES IDX 21 1 20 2 19 3 18 4 17 5 16 6 14 7 15 8 13 9 11 10 12 11
REMARK SMILES IDX 97 12 94 15 95 16 96 17 10 18 5 19 6 20 7 21 9 22 8 23 4 24
REMARK SMILES IDX 2 25 1 26 3 27 22 29 23 30 24 31 25 32 26 33 27 34 28 35
REMARK SMILES IDX 29 36 30 37 31 38 32 39 93 40 33 41 92 42 34 43 35 44 36 45
REMARK SMILES IDX 86 46 37 47 91 48 85 49 87 50 38 51 90 52 84 53 83 54 39 56
REMARK SMILES IDX 71 57 51 58 70 59 52 60 55 61 69 62 88 63 53 64 54 65 68 67
REMARK SMILES IDX 89 68 56 69 40 70 41 71 49 72 42 73 43 74 47 75 50 76 44 77
REMARK SMILES IDX 45 78 48 79 46 80 72 81 73 82 81 83 74 84 75 85 79 86 82 87
REMARK SMILES IDX 76 88 77 89 80 90 78 91 57 92 58 93 66 94 59 95 60 96 64 97
REMARK SMILES IDX 67 98 61 99 62 100 65 101 63 102
REMARK H PARENT 12 13 12 14 2 28 87 55 55 66
REMARK Flexibility Score: inf
ROOT
ATOM      1  C   UNL A   1      43.237  26.373  37.400  1.00  0.00     0.188 C 
ENDROOT
BRANCH   1   2
ATOM      2  C   UNL A   1      42.956  27.205  36.142  1.00  0.00     0.188 C 
BRANCH   2   3
ATOM      3  O   UNL A   1      42.252  26.658  35.031  1.00  0.00    -0.376 OA
BRANCH   3   4
ATOM      4  C   UNL A   1      41.603  27.496  34.092  1.00  0.00     0.202 C 
BRANCH   4   5
ATOM      5  C   UNL A   1      42.473  28.299  33.101  1.00  0.00     0.261 C 
BRANCH   5   6
ATOM      6  O   UNL A   1      41.900  28.651  31.824  1.00  0.00    -0.459 OA
BRANCH   6   7
ATOM      7  C   UNL A   1      41.134  29.772  31.807  1.00  0.00     0.366 C 
ATOM      8  O   UNL A   1      41.196  30.641  32.673  1.00  0.00    -0.245 OA
BRANCH   7   9
ATOM      9  C   UNL A   1      40.027  29.789  30.707  1.00  0.00     0.310 C 
ATOM     10  C   UNL A   1      38.028  31.056  30.246  1.00  0.00     0.275 C 
ATOM     11  N   UNL A   1      39.279  31.030  30.972  1.00  0.00    -0.319 N 
ATOM     12  S   UNL A   1      37.575  29.428  29.677  1.00  0.00    -0.081 SA
ATOM     13  H   UNL A   1      39.083  31.092  31.971  1.00  0.00     0.348 HD
ATOM     14  H   UNL A   1      39.846  31.819  30.664  1.00  0.00     0.348 HD
ATOM     15  C   UNL A   1      39.083  28.587  30.338  1.00  0.00     0.079 C 
ATOM     16  C   UNL A   1      38.588  27.594  31.411  1.00  0.00     0.030 C 
ATOM     17  C   UNL A   1      39.633  27.794  29.131  1.00  0.00     0.030 C 
BRANCH  10  18
ATOM     18  C   UNL A   1      36.993  31.825  31.056  1.00  0.00     0.029 A 
ATOM     19  C   UNL A   1      35.737  32.289  30.565  1.00  0.00     0.016 A 
ATOM     20  C   UNL A   1      34.764  32.697  31.497  1.00  0.00     0.010 A 
ATOM     21  C   UNL A   1      35.020  32.712  32.865  1.00  0.00     0.001 A 
ATOM     22  C   UNL A   1      37.234  31.881  32.448  1.00  0.00     0.011 A 
ATOM     23  C   UNL A   1      36.262  32.322  33.340  1.00  0.00     0.001 A 
BRANCH  19  24
ATOM     24  C   UNL A   1      35.329  32.279  29.101  1.00  0.00     0.299 C 
BRANCH  24  25
ATOM     25  N   UNL A   1      34.211  33.133  28.668  1.00  0.00    -0.336 N 
ATOM     26  C   UNL A   1      34.620  34.433  28.165  1.00  0.00     0.332 C 
ATOM     27  C   UNL A   1      33.269  32.487  27.763  1.00  0.00     0.332 C 
ATOM     28  H   UNL A   1      33.702  33.297  29.537  1.00  0.00     0.347 HD
ENDBRANCH  24  25
ENDBRANCH  19  24
ENDBRANCH  10  18
ENDBRANCH   7   9
ENDBRANCH   6   7
ENDBRANCH   5   6
ENDBRANCH   4   5
ENDBRANCH   3   4
ENDBRANCH   2   3
ENDBRANCH   1   2
BRANCH   1  29
ATOM     29  O   UNL A   1      43.930  27.029  38.439  1.00  0.00    -0.377 OA
BRANCH  29  30
ATOM     30  C   UNL A   1      45.071  26.385  38.969  1.00  0.00     0.188 C 
BRANCH  30  31
ATOM     31  C   UNL A   1      44.865  25.405  40.134  1.00  0.00     0.188 C 
BRANCH  31  32
ATOM     32  O   UNL A   1      45.161  24.052  39.808  1.00  0.00    -0.376 OA
BRANCH  32  33
ATOM     33  C   UNL A   1      46.514  23.654  39.646  1.00  0.00     0.202 C 
BRANCH  33  34
ATOM     34  C   UNL A   1      46.799  22.155  39.449  1.00  0.00     0.261 C 
BRANCH  34  35
ATOM     35  O   UNL A   1      45.977  21.465  38.498  1.00  0.00    -0.460 OA
BRANCH  35  36
ATOM     36  C   UNL A   1      46.574  21.048  37.361  1.00  0.00     0.338 C 
ATOM     37  O   UNL A   1      47.188  20.015  37.190  1.00  0.00    -0.246 OA
BRANCH  36  38
ATOM     38  C   UNL A   1      46.192  21.974  36.273  1.00  0.00     0.060 A 
ATOM     39  C   UNL A   1      47.150  22.278  35.298  1.00  0.00     0.016 A 
ATOM     40  C   UNL A   1      44.920  22.553  36.227  1.00  0.00     0.016 A 
ATOM     41  C   UNL A   1      46.866  23.222  34.316  1.00  0.00     0.010 A 
ATOM     42  C   UNL A   1      44.645  23.520  35.255  1.00  0.00     0.010 A 
ATOM     43  C   UNL A   1      45.641  23.899  34.338  1.00  0.00    -0.014 A 
BRANCH  43  44
ATOM     44  C   UNL A   1      45.541  25.178  33.596  1.00  0.00     0.031 A 
ATOM     45  C   UNL A   1      44.949  25.142  32.213  1.00  0.00     0.074 A 
ATOM     46  C   UNL A   1      45.879  26.350  34.158  1.00  0.00     0.049 A 
ATOM     47  N   UNL A   1      44.684  26.124  31.390  1.00  0.00    -0.248 NA
ATOM     48  C   UNL A   1      44.610  23.809  31.690  1.00  0.00     0.031 C 
ATOM     49  C   UNL A   1      46.431  26.514  35.499  1.00  0.00     0.029 A 
ATOM     50  N   UNL A   1      45.801  27.625  33.660  1.00  0.00    -0.354 N 
ATOM     51  C   UNL A   1      44.150  25.526  30.255  1.00  0.00     0.074 A 
ATOM     52  C   UNL A   1      44.173  24.098  30.476  1.00  0.00     0.031 C 
ATOM     53  C   UNL A   1      46.653  27.822  35.717  1.00  0.00     0.029 A 
ATOM     54  C   UNL A   1      46.274  28.580  34.523  1.00  0.00     0.049 A 
ATOM     55  H   UNL A   1      45.439  27.836  32.770  1.00  0.00     0.167 HD
ATOM     56  C   UNL A   1      43.669  26.115  29.134  1.00  0.00     0.037 A 
ATOM     57  C   UNL A   1      46.398  29.911  34.359  1.00  0.00     0.037 A 
ATOM     58  C   UNL A   1      43.665  27.536  28.913  1.00  0.00     0.049 A 
ATOM     59  C   UNL A   1      45.906  30.546  33.085  1.00  0.00     0.074 A 
ATOM     60  C   UNL A   1      43.192  28.241  27.821  1.00  0.00     0.029 A 
ATOM     61  N   UNL A   1      44.179  28.472  29.801  1.00  0.00    -0.354 N 
ATOM     62  N   UNL A   1      45.365  29.984  32.030  1.00  0.00    -0.248 NA
ATOM     63  C   UNL A   1      46.023  32.007  32.987  1.00  0.00     0.031 C 
ATOM     64  C   UNL A   1      43.482  29.596  28.017  1.00  0.00     0.029 A 
ATOM     65  C   UNL A   1      44.063  29.746  29.267  1.00  0.00     0.049 A 
ATOM     66  H   UNL A   1      44.570  28.261  30.679  1.00  0.00     0.167 HD
ATOM     67  C   UNL A   1      45.049  31.019  31.160  1.00  0.00     0.074 A 
ATOM     68  C   UNL A   1      45.450  32.247  31.817  1.00  0.00     0.031 C 
ATOM     69  C   UNL A   1      44.472  30.961  29.931  1.00  0.00     0.037 A 
BRANCH  56  70
ATOM     70  C   UNL A   1      43.165  25.204  28.049  1.00  0.00     0.064 A 
ATOM     71  C   UNL A   1      41.865  24.672  28.064  1.00  0.00     0.173 A 
ATOM     72  C   UNL A   1      44.009  24.828  26.993  1.00  0.00     0.173 A 
ATOM     73  F   UNL A   1      41.020  24.983  29.060  1.00  0.00    -0.203 F 
ATOM     74  C   UNL A   1      41.450  23.759  27.098  1.00  0.00     0.198 A 
ATOM     75  C   UNL A   1      43.578  23.947  26.006  1.00  0.00     0.198 A 
ATOM     76  F   UNL A   1      45.260  25.307  26.924  1.00  0.00    -0.203 F 
ATOM     77  F   UNL A   1      40.234  23.200  27.183  1.00  0.00    -0.200 F 
ATOM     78  C   UNL A   1      42.305  23.400  26.068  1.00  0.00     0.200 A 
ATOM     79  F   UNL A   1      44.402  23.612  25.003  1.00  0.00    -0.200 F 
ATOM     80  F   UNL A   1      41.909  22.513  25.143  1.00  0.00    -0.200 F 
ENDBRANCH  56  70
BRANCH  57  81
ATOM     81  C   UNL A   1      47.010  30.725  35.442  1.00  0.00     0.064 A 
ATOM     82  C   UNL A   1      48.386  30.983  35.474  1.00  0.00     0.173 A 
ATOM     83  C   UNL A   1      46.218  31.279  36.459  1.00  0.00     0.173 A 
ATOM     84  F   UNL A   1      49.190  30.456  34.538  1.00  0.00    -0.203 F 
ATOM     85  C   UNL A   1      48.949  31.761  36.485  1.00  0.00     0.198 A 
ATOM     86  C   UNL A   1      46.776  32.080  37.452  1.00  0.00     0.198 A 
ATOM     87  F   UNL A   1      44.896  31.060  36.474  1.00  0.00    -0.203 F 
ATOM     88  F   UNL A   1      50.273  31.966  36.512  1.00  0.00    -0.200 F 
ATOM     89  C   UNL A   1      48.142  32.317  37.468  1.00  0.00     0.200 A 
ATOM     90  F   UNL A   1      45.991  32.626  38.390  1.00  0.00    -0.200 F 
ATOM     91  F   UNL A   1      48.681  33.077  38.430  1.00  0.00    -0.200 F 
ENDBRANCH  57  81
BRANCH  69  92
ATOM     92  C   UNL A   1      44.192  32.266  29.236  1.00  0.00     0.064 A 
ATOM     93  C   UNL A   1      43.032  33.014  29.493  1.00  0.00     0.173 A 
ATOM     94  C   UNL A   1      45.113  32.785  28.312  1.00  0.00     0.173 A 
ATOM     95  F   UNL A   1      42.114  32.563  30.360  1.00  0.00    -0.203 F 
ATOM     96  C   UNL A   1      42.786  34.208  28.817  1.00  0.00     0.198 A 
ATOM     97  C   UNL A   1      44.882  33.998  27.669  1.00  0.00     0.198 A 
ATOM     98  F   UNL A   1      46.244  32.118  28.038  1.00  0.00    -0.203 F 
ATOM     99  F   UNL A   1      41.639  34.871  29.028  1.00  0.00    -0.200 F 
ATOM    100  C   UNL A   1      43.713  34.701  27.912  1.00  0.00     0.200 A 
ATOM    101  F   UNL A   1      45.789  34.482  26.809  1.00  0.00    -0.200 F 
ATOM    102  F   UNL A   1      43.474  35.850  27.263  1.00  0.00    -0.200 F 
ENDBRANCH  69  92
ENDBRANCH  43  44
ENDBRANCH  36  38
ENDBRANCH  35  36
ENDBRANCH  34  35
ENDBRANCH  33  34
ENDBRANCH  32  33
ENDBRANCH  31  32
ENDBRANCH  30  31
ENDBRANCH  29  30
ENDBRANCH   1  29
TORSDOF 23
ENDMDL
MODEL 3
REMARK VINA RESULT:      -7.0      5.307     11.717
REMARK SMILES C[NH+](C)Cc1ccccc1[C@H]1[NH2+][C@@H](C(=O)OCCOCCOCCOCCOC(=O)c2ccc(-c3c4nc(c(-c5c(F)c(F)c(F)c(F)c5F)c5ccc([nH]5)c(-c5c(F)c(F)c(F)c(F)c5F)c5nc(c(-c6c(F)c(F)c(F)c(F)c6F)c6ccc3[nH]6)C=C5)C=C4)cc2)C(C)(C)S1
REMARK SMILES IDX 21 1 20 2 19 3 18 4 17 5 16 6 14 7 15 8 13 9 11 10 12 11
REMARK SMILES IDX 97 12 94 15 95 16 96 17 10 18 5 19 6 20 7 21 9 22 8 23 4 24
REMARK SMILES IDX 2 25 1 26 3 27 22 29 23 30 24 31 25 32 26 33 27 34 28 35
REMARK SMILES IDX 29 36 30 37 31 38 32 39 93 40 33 41 92 42 34 43 35 44 36 45
REMARK SMILES IDX 86 46 37 47 91 48 85 49 87 50 38 51 90 52 84 53 83 54 39 56
REMARK SMILES IDX 71 57 51 58 70 59 52 60 55 61 69 62 88 63 53 64 54 65 68 67
REMARK SMILES IDX 89 68 56 69 40 70 41 71 49 72 42 73 43 74 47 75 50 76 44 77
REMARK SMILES IDX 45 78 48 79 46 80 72 81 73 82 81 83 74 84 75 85 79 86 82 87
REMARK SMILES IDX 76 88 77 89 80 90 78 91 57 92 58 93 66 94 59 95 60 96 64 97
REMARK SMILES IDX 67 98 61 99 62 100 65 101 63 102
REMARK H PARENT 12 13 12 14 2 28 87 55 55 66
REMARK Flexibility Score: inf
ROOT
ATOM      1  C   UNL A   1      46.938  24.910  26.769  1.00  0.00     0.188 C 
ENDROOT
BRANCH   1   2
ATOM      2  C   UNL A   1      45.700  25.616  27.338  1.00  0.00     0.188 C 
BRANCH   2   3
ATOM      3  O   UNL A   1      45.758  26.964  27.796  1.00  0.00    -0.376 OA
BRANCH   3   4
ATOM      4  C   UNL A   1      45.940  28.038  26.892  1.00  0.00     0.202 C 
BRANCH   4   5
ATOM      5  C   UNL A   1      45.187  29.359  27.161  1.00  0.00     0.261 C 
BRANCH   5   6
ATOM      6  O   UNL A   1      45.199  30.371  26.132  1.00  0.00    -0.459 OA
BRANCH   6   7
ATOM      7  C   UNL A   1      46.145  31.336  26.262  1.00  0.00     0.366 C 
ATOM      8  O   UNL A   1      47.351  31.099  26.259  1.00  0.00    -0.245 OA
BRANCH   7   9
ATOM      9  C   UNL A   1      45.589  32.752  26.607  1.00  0.00     0.310 C 
ATOM     10  C   UNL A   1      46.202  35.040  26.150  1.00  0.00     0.275 C 
ATOM     11  N   UNL A   1      46.364  33.661  25.744  1.00  0.00    -0.319 N 
ATOM     12  S   UNL A   1      45.543  35.155  27.803  1.00  0.00    -0.081 SA
ATOM     13  H   UNL A   1      47.352  33.412  25.803  1.00  0.00     0.348 HD
ATOM     14  H   UNL A   1      46.023  33.565  24.789  1.00  0.00     0.348 HD
ATOM     15  C   UNL A   1      45.386  33.330  28.055  1.00  0.00     0.079 C 
ATOM     16  C   UNL A   1      46.346  32.968  29.207  1.00  0.00     0.030 C 
ATOM     17  C   UNL A   1      43.929  33.139  28.534  1.00  0.00     0.030 C 
BRANCH  10  18
ATOM     18  C   UNL A   1      47.486  35.805  25.856  1.00  0.00     0.029 A 
ATOM     19  C   UNL A   1      47.770  37.137  26.278  1.00  0.00     0.016 A 
ATOM     20  C   UNL A   1      49.101  37.591  26.209  1.00  0.00     0.010 A 
ATOM     21  C   UNL A   1      50.119  36.798  25.689  1.00  0.00     0.001 A 
ATOM     22  C   UNL A   1      48.535  35.035  25.304  1.00  0.00     0.011 A 
ATOM     23  C   UNL A   1      49.834  35.526  25.218  1.00  0.00     0.001 A 
BRANCH  19  24
ATOM     24  C   UNL A   1      46.752  38.077  26.901  1.00  0.00     0.299 C 
BRANCH  24  25
ATOM     25  N   UNL A   1      45.808  38.787  26.023  1.00  0.00    -0.336 N 
ATOM     26  C   UNL A   1      44.529  39.085  26.647  1.00  0.00     0.332 C 
ATOM     27  C   UNL A   1      46.360  39.961  25.360  1.00  0.00     0.332 C 
ATOM     28  H   UNL A   1      45.627  38.104  25.287  1.00  0.00     0.347 HD
ENDBRANCH  24  25
ENDBRANCH  19  24
ENDBRANCH  10  18
ENDBRANCH   7   9
ENDBRANCH   6   7
ENDBRANCH   5   6
ENDBRANCH   4   5
ENDBRANCH   3   4
ENDBRANCH   2   3
ENDBRANCH   1   2
BRANCH   1  29
ATOM     29  O   UNL A   1      46.836  23.513  26.605  1.00  0.00    -0.377 OA
BRANCH  29  30
ATOM     30  C   UNL A   1      45.549  22.975  26.380  1.00  0.00     0.188 C 
BRANCH  30  31
ATOM     31  C   UNL A   1      45.055  22.877  24.928  1.00  0.00     0.188 C 
BRANCH  31  32
ATOM     32  O   UNL A   1      43.657  22.640  24.810  1.00  0.00    -0.376 OA
BRANCH  32  33
ATOM     33  C   UNL A   1      43.043  21.668  25.642  1.00  0.00     0.202 C 
BRANCH  33  34
ATOM     34  C   UNL A   1      41.748  22.067  26.371  1.00  0.00     0.261 C 
BRANCH  34  35
ATOM     35  O   UNL A   1      41.252  23.389  26.120  1.00  0.00    -0.460 OA
BRANCH  35  36
ATOM     36  C   UNL A   1      39.988  23.653  26.518  1.00  0.00     0.338 C 
ATOM     37  O   UNL A   1      39.030  22.911  26.462  1.00  0.00    -0.246 OA
BRANCH  36  38
ATOM     38  C   UNL A   1      39.990  24.951  27.227  1.00  0.00     0.060 A 
ATOM     39  C   UNL A   1      40.602  26.045  26.601  1.00  0.00     0.016 A 
ATOM     40  C   UNL A   1      39.422  25.083  28.497  1.00  0.00     0.016 A 
ATOM     41  C   UNL A   1      40.715  27.256  27.276  1.00  0.00     0.010 A 
ATOM     42  C   UNL A   1      39.559  26.294  29.185  1.00  0.00     0.010 A 
ATOM     43  C   UNL A   1      40.262  27.361  28.596  1.00  0.00    -0.014 A 
BRANCH  43  44
ATOM     44  C   UNL A   1      40.788  28.471  29.426  1.00  0.00     0.031 A 
ATOM     45  C   UNL A   1      39.843  29.585  29.785  1.00  0.00     0.074 A 
ATOM     46  C   UNL A   1      42.035  28.453  29.922  1.00  0.00     0.049 A 
ATOM     47  N   UNL A   1      40.031  30.627  30.554  1.00  0.00    -0.248 NA
ATOM     48  C   UNL A   1      38.498  29.510  29.192  1.00  0.00     0.031 C 
ATOM     49  C   UNL A   1      43.028  27.414  29.671  1.00  0.00     0.029 A 
ATOM     50  N   UNL A   1      42.672  29.345  30.746  1.00  0.00    -0.354 N 
ATOM     51  C   UNL A   1      38.831  31.328  30.534  1.00  0.00     0.074 A 
ATOM     52  C   UNL A   1      37.941  30.621  29.641  1.00  0.00     0.031 C 
ATOM     53  C   UNL A   1      44.160  27.732  30.322  1.00  0.00     0.029 A 
ATOM     54  C   UNL A   1      43.972  29.005  31.019  1.00  0.00     0.049 A 
ATOM     55  H   UNL A   1      42.238  30.150  31.108  1.00  0.00     0.167 HD
ATOM     56  C   UNL A   1      38.495  32.453  31.210  1.00  0.00     0.037 A 
ATOM     57  C   UNL A   1      44.905  29.658  31.741  1.00  0.00     0.037 A 
ATOM     58  C   UNL A   1      39.392  33.162  32.083  1.00  0.00     0.049 A 
ATOM     59  C   UNL A   1      44.531  30.936  32.445  1.00  0.00     0.074 A 
ATOM     60  C   UNL A   1      39.155  34.303  32.827  1.00  0.00     0.029 A 
ATOM     61  N   UNL A   1      40.714  32.802  32.314  1.00  0.00    -0.354 N 
ATOM     62  N   UNL A   1      43.386  31.575  32.457  1.00  0.00    -0.248 NA
ATOM     63  C   UNL A   1      45.578  31.573  33.256  1.00  0.00     0.031 C 
ATOM     64  C   UNL A   1      40.350  34.673  33.453  1.00  0.00     0.029 A 
ATOM     65  C   UNL A   1      41.313  33.717  33.165  1.00  0.00     0.049 A 
ATOM     66  H   UNL A   1      41.160  32.014  31.929  1.00  0.00     0.167 HD
ATOM     67  C   UNL A   1      43.561  32.668  33.296  1.00  0.00     0.074 A 
ATOM     68  C   UNL A   1      44.924  32.598  33.785  1.00  0.00     0.031 C 
ATOM     69  C   UNL A   1      42.674  33.637  33.640  1.00  0.00     0.037 A 
BRANCH  56  70
ATOM     70  C   UNL A   1      37.116  33.003  30.975  1.00  0.00     0.064 A 
ATOM     71  C   UNL A   1      36.053  32.756  31.859  1.00  0.00     0.173 A 
ATOM     72  C   UNL A   1      36.844  33.761  29.826  1.00  0.00     0.173 A 
ATOM     73  F   UNL A   1      36.251  32.021  32.965  1.00  0.00    -0.203 F 
ATOM     74  C   UNL A   1      34.763  33.198  31.575  1.00  0.00     0.198 A 
ATOM     75  C   UNL A   1      35.562  34.237  29.565  1.00  0.00     0.198 A 
ATOM     76  F   UNL A   1      37.821  34.031  28.947  1.00  0.00    -0.203 F 
ATOM     77  F   UNL A   1      33.750  32.877  32.391  1.00  0.00    -0.200 F 
ATOM     78  C   UNL A   1      34.520  33.942  30.430  1.00  0.00     0.200 A 
ATOM     79  F   UNL A   1      35.333  34.967  28.464  1.00  0.00    -0.200 F 
ATOM     80  F   UNL A   1      33.277  34.360  30.151  1.00  0.00    -0.200 F 
ENDBRANCH  56  70
BRANCH  57  81
ATOM     81  C   UNL A   1      46.278  29.099  31.831  1.00  0.00     0.064 A 
ATOM     82  C   UNL A   1      47.240  29.357  30.845  1.00  0.00     0.173 A 
ATOM     83  C   UNL A   1      46.661  28.308  32.925  1.00  0.00     0.173 A 
ATOM     84  F   UNL A   1      46.916  30.088  29.768  1.00  0.00    -0.203 F 
ATOM     85  C   UNL A   1      48.531  28.841  30.947  1.00  0.00     0.198 A 
ATOM     86  C   UNL A   1      47.960  27.816  33.040  1.00  0.00     0.198 A 
ATOM     87  F   UNL A   1      45.778  28.030  33.894  1.00  0.00    -0.203 F 
ATOM     88  F   UNL A   1      49.423  29.075  29.975  1.00  0.00    -0.200 F 
ATOM     89  C   UNL A   1      48.893  28.080  32.049  1.00  0.00     0.200 A 
ATOM     90  F   UNL A   1      48.307  27.095  34.114  1.00  0.00    -0.200 F 
ATOM     91  F   UNL A   1      50.138  27.598  32.154  1.00  0.00    -0.200 F 
ENDBRANCH  57  81
BRANCH  69  92
ATOM     92  C   UNL A   1      43.132  34.675  34.629  1.00  0.00     0.064 A 
ATOM     93  C   UNL A   1      43.036  34.478  36.015  1.00  0.00     0.173 A 
ATOM     94  C   UNL A   1      43.695  35.880  34.177  1.00  0.00     0.173 A 
ATOM     95  F   UNL A   1      42.499  33.350  36.502  1.00  0.00    -0.203 F 
ATOM     96  C   UNL A   1      43.446  35.466  36.909  1.00  0.00     0.198 A 
ATOM     97  C   UNL A   1      44.140  36.847  35.074  1.00  0.00     0.198 A 
ATOM     98  F   UNL A   1      43.823  36.116  32.863  1.00  0.00    -0.203 F 
ATOM     99  F   UNL A   1      43.282  35.283  38.227  1.00  0.00    -0.200 F 
ATOM    100  C   UNL A   1      44.001  36.645  36.438  1.00  0.00     0.200 A 
ATOM    101  F   UNL A   1      44.695  37.978  34.617  1.00  0.00    -0.200 F 
ATOM    102  F   UNL A   1      44.395  37.594  37.300  1.00  0.00    -0.200 F 
ENDBRANCH  69  92
ENDBRANCH  43  44
ENDBRANCH  36  38
ENDBRANCH  35  36
ENDBRANCH  34  35
ENDBRANCH  33  34
ENDBRANCH  32  33
ENDBRANCH  31  32
ENDBRANCH  30  31
ENDBRANCH  29  30
ENDBRANCH   1  29
TORSDOF 23
ENDMDL
