MODEL 1
REMARK VINA RESULT:     -10.8      0.000      0.000
REMARK SMILES C[C@H]1OCC[C@@H]1C(=O)Nc1sc2c(c1C(=O)OCCOCCOCCOCCOC(=O)c1ccc(-c3c4nc(c(-c5c(F)c(F)c(F)c(F)c5F)c5ccc([nH]5)c(-c5c(F)c(F)c(F)c(F)c5F)c5nc(c(-c6c(F)c(F)c(F)c(F)c6F)c6ccc3[nH]6)C=C5)C=C4)cc1)CCC2
REMARK SMILES IDX 23 1 22 2 21 3 20 4 19 5 18 6 17 7 15 8 16 9 14 10 10 11
REMARK SMILES IDX 11 12 12 13 13 14 97 15 95 16 96 17 9 18 7 19 8 20 6 22 1 23
REMARK SMILES IDX 2 24 3 25 4 26 5 27 24 28 25 29 26 30 27 31 28 32 29 33
REMARK SMILES IDX 30 34 31 35 32 36 33 37 94 38 34 39 93 40 35 41 36 42 37 43
REMARK SMILES IDX 87 44 38 45 92 46 86 47 88 48 39 49 91 50 85 51 84 52 40 54
REMARK SMILES IDX 72 55 52 56 71 57 53 58 56 59 70 60 89 61 54 62 55 63 69 65
REMARK SMILES IDX 90 66 57 67 41 68 42 69 50 70 43 71 44 72 48 73 51 74 45 75
REMARK SMILES IDX 46 76 49 77 47 78 73 79 74 80 82 81 75 82 76 83 80 84 83 85
REMARK SMILES IDX 77 86 78 87 81 88 79 89 58 90 59 91 67 92 60 93 61 94 65 95
REMARK SMILES IDX 68 96 62 97 63 98 66 99 64 100
REMARK H PARENT 9 21 88 53 56 64
REMARK Flexibility Score: inf
ROOT
ATOM      1  O   UNL A   1      33.222  29.882  26.795  1.00  0.00    -0.377 OA
ENDROOT
BRANCH   1   2
ATOM      2  C   UNL A   1      32.047  29.159  26.442  1.00  0.00     0.188 C 
BRANCH   2   3
ATOM      3  C   UNL A   1      31.856  27.967  27.363  1.00  0.00     0.188 C 
BRANCH   3   4
ATOM      4  O   UNL A   1      30.835  27.091  26.902  1.00  0.00    -0.376 OA
BRANCH   4   5
ATOM      5  C   UNL A   1      31.295  25.866  26.315  1.00  0.00     0.202 C 
BRANCH   5   6
ATOM      6  C   UNL A   1      30.249  24.733  26.306  1.00  0.00     0.261 C 
BRANCH   6   7
ATOM      7  O   UNL A   1      30.730  23.476  25.754  1.00  0.00    -0.460 OA
BRANCH   7   8
ATOM      8  C   UNL A   1      31.094  23.521  24.422  1.00  0.00     0.341 C 
ATOM      9  O   UNL A   1      30.303  23.707  23.510  1.00  0.00    -0.246 OA
BRANCH   8  10
ATOM     10  C   UNL A   1      32.531  23.335  24.173  1.00  0.00     0.098 A 
ATOM     11  C   UNL A   1      33.166  23.630  22.964  1.00  0.00     0.110 A 
ATOM     12  S   UNL A   1      34.780  23.054  22.856  1.00  0.00    -0.122 S 
ATOM     13  C   UNL A   1      34.772  22.761  24.492  1.00  0.00     0.011 A 
ATOM     14  C   UNL A   1      33.551  22.928  25.092  1.00  0.00    -0.017 A 
ATOM     15  C   UNL A   1      35.886  22.443  25.408  1.00  0.00     0.047 C 
ATOM     16  C   UNL A   1      33.677  22.720  26.561  1.00  0.00     0.038 C 
ATOM     17  C   UNL A   1      35.230  22.792  26.772  1.00  0.00     0.010 C 
BRANCH  11  18
ATOM     18  N   UNL A   1      32.757  24.294  21.823  1.00  0.00    -0.317 N 
ATOM     19  C   UNL A   1      32.891  25.665  21.723  1.00  0.00     0.230 C 
ATOM     20  O   UNL A   1      33.382  26.118  20.682  1.00  0.00    -0.274 OA
ATOM     21  H   UNL A   1      32.368  23.786  21.075  1.00  0.00     0.170 HD
BRANCH  19  22
ATOM     22  C   UNL A   1      32.348  26.644  22.771  1.00  0.00     0.110 C 
ATOM     23  C   UNL A   1      30.047  27.568  23.267  1.00  0.00     0.039 C 
ATOM     24  C   UNL A   1      31.256  27.619  22.336  1.00  0.00     0.127 C 
ATOM     25  O   UNL A   1      31.756  28.966  22.480  1.00  0.00    -0.378 OA
ATOM     26  C   UNL A   1      33.104  28.911  22.922  1.00  0.00     0.161 C 
ATOM     27  C   UNL A   1      33.321  27.529  23.478  1.00  0.00     0.044 C 
ENDBRANCH  19  22
ENDBRANCH  11  18
ENDBRANCH   8  10
ENDBRANCH   7   8
ENDBRANCH   6   7
ENDBRANCH   5   6
ENDBRANCH   4   5
ENDBRANCH   3   4
ENDBRANCH   2   3
ENDBRANCH   1   2
BRANCH   1  28
ATOM     28  C   UNL A   1      33.024  31.203  27.289  1.00  0.00     0.188 C 
BRANCH  28  29
ATOM     29  C   UNL A   1      34.153  31.829  28.119  1.00  0.00     0.188 C 
BRANCH  29  30
ATOM     30  O   UNL A   1      34.868  32.969  27.630  1.00  0.00    -0.376 OA
BRANCH  30  31
ATOM     31  C   UNL A   1      35.022  34.159  28.404  1.00  0.00     0.202 C 
BRANCH  31  32
ATOM     32  C   UNL A   1      34.014  34.374  29.523  1.00  0.00     0.261 C 
BRANCH  32  33
ATOM     33  O   UNL A   1      34.738  34.652  30.706  1.00  0.00    -0.460 OA
BRANCH  33  34
ATOM     34  C   UNL A   1      33.925  34.859  31.763  1.00  0.00     0.338 C 
ATOM     35  O   UNL A   1      32.804  35.329  31.753  1.00  0.00    -0.246 OA
BRANCH  34  36
ATOM     36  C   UNL A   1      34.647  34.443  32.998  1.00  0.00     0.060 A 
ATOM     37  C   UNL A   1      35.848  35.137  33.061  1.00  0.00     0.016 A 
ATOM     38  C   UNL A   1      34.582  33.061  33.221  1.00  0.00     0.016 A 
ATOM     39  C   UNL A   1      36.945  34.423  32.665  1.00  0.00     0.010 A 
ATOM     40  C   UNL A   1      35.671  32.332  32.825  1.00  0.00     0.010 A 
ATOM     41  C   UNL A   1      36.807  33.040  32.449  1.00  0.00    -0.014 A 
BRANCH  41  42
ATOM     42  C   UNL A   1      38.009  32.344  32.080  1.00  0.00     0.031 A 
ATOM     43  C   UNL A   1      38.878  32.204  33.264  1.00  0.00     0.074 A 
ATOM     44  C   UNL A   1      38.270  31.868  30.856  1.00  0.00     0.049 A 
ATOM     45  N   UNL A   1      39.993  32.811  33.489  1.00  0.00    -0.248 NA
ATOM     46  C   UNL A   1      38.296  31.535  34.441  1.00  0.00     0.031 C 
ATOM     47  C   UNL A   1      37.385  31.712  29.704  1.00  0.00     0.029 A 
ATOM     48  N   UNL A   1      39.438  31.330  30.426  1.00  0.00    -0.354 N 
ATOM     49  C   UNL A   1      40.342  32.454  34.783  1.00  0.00     0.074 A 
ATOM     50  C   UNL A   1      39.177  31.864  35.381  1.00  0.00     0.031 C 
ATOM     51  C   UNL A   1      37.988  30.908  28.796  1.00  0.00     0.029 A 
ATOM     52  C   UNL A   1      39.337  30.605  29.251  1.00  0.00     0.049 A 
ATOM     53  H   UNL A   1      40.287  31.445  30.910  1.00  0.00     0.167 HD
ATOM     54  C   UNL A   1      41.646  32.414  35.154  1.00  0.00     0.037 A 
ATOM     55  C   UNL A   1      40.285  29.749  28.795  1.00  0.00     0.037 A 
ATOM     56  C   UNL A   1      42.445  33.266  34.306  1.00  0.00     0.049 A 
ATOM     57  C   UNL A   1      41.559  30.085  29.495  1.00  0.00     0.074 A 
ATOM     58  C   UNL A   1      42.440  34.621  34.031  1.00  0.00     0.029 A 
ATOM     59  N   UNL A   1      43.156  32.684  33.284  1.00  0.00    -0.354 N 
ATOM     60  N   UNL A   1      42.241  31.176  29.281  1.00  0.00    -0.248 NA
ATOM     61  C   UNL A   1      41.830  29.424  30.766  1.00  0.00     0.031 C 
ATOM     62  C   UNL A   1      42.736  34.725  32.639  1.00  0.00     0.029 A 
ATOM     63  C   UNL A   1      42.957  33.436  32.153  1.00  0.00     0.049 A 
ATOM     64  H   UNL A   1      43.711  31.873  33.351  1.00  0.00     0.167 HD
ATOM     65  C   UNL A   1      42.694  31.566  30.535  1.00  0.00     0.074 A 
ATOM     66  C   UNL A   1      42.479  30.408  31.396  1.00  0.00     0.031 C 
ATOM     67  C   UNL A   1      42.928  32.881  30.821  1.00  0.00     0.037 A 
BRANCH  54  68
ATOM     68  C   UNL A   1      42.214  31.285  35.981  1.00  0.00     0.064 A 
ATOM     69  C   UNL A   1      43.074  31.607  37.047  1.00  0.00     0.173 A 
ATOM     70  C   UNL A   1      42.203  29.920  35.605  1.00  0.00     0.173 A 
ATOM     71  F   UNL A   1      43.169  32.868  37.491  1.00  0.00    -0.203 F 
ATOM     72  C   UNL A   1      43.930  30.660  37.613  1.00  0.00     0.198 A 
ATOM     73  C   UNL A   1      43.020  28.970  36.207  1.00  0.00     0.198 A 
ATOM     74  F   UNL A   1      41.490  29.450  34.576  1.00  0.00    -0.203 F 
ATOM     75  F   UNL A   1      44.828  31.045  38.529  1.00  0.00    -0.200 F 
ATOM     76  C   UNL A   1      43.911  29.346  37.184  1.00  0.00     0.200 A 
ATOM     77  F   UNL A   1      42.991  27.704  35.765  1.00  0.00    -0.200 F 
ATOM     78  F   UNL A   1      44.780  28.454  37.676  1.00  0.00    -0.200 F 
ENDBRANCH  54  68
BRANCH  55  79
ATOM     79  C   UNL A   1      40.100  28.462  28.085  1.00  0.00     0.064 A 
ATOM     80  C   UNL A   1      40.799  28.200  26.894  1.00  0.00     0.173 A 
ATOM     81  C   UNL A   1      39.472  27.359  28.696  1.00  0.00     0.173 A 
ATOM     82  F   UNL A   1      41.459  29.186  26.268  1.00  0.00    -0.203 F 
ATOM     83  C   UNL A   1      40.899  26.908  26.371  1.00  0.00     0.198 A 
ATOM     84  C   UNL A   1      39.564  26.071  28.166  1.00  0.00     0.198 A 
ATOM     85  F   UNL A   1      38.842  27.485  29.871  1.00  0.00    -0.203 F 
ATOM     86  F   UNL A   1      41.639  26.686  25.274  1.00  0.00    -0.200 F 
ATOM     87  C   UNL A   1      40.292  25.843  27.013  1.00  0.00     0.200 A 
ATOM     88  F   UNL A   1      39.000  25.044  28.818  1.00  0.00    -0.200 F 
ATOM     89  F   UNL A   1      40.444  24.594  26.551  1.00  0.00    -0.200 F 
ENDBRANCH  55  79
BRANCH  67  90
ATOM     90  C   UNL A   1      42.929  33.852  29.673  1.00  0.00     0.064 A 
ATOM     91  C   UNL A   1      44.057  34.136  28.881  1.00  0.00     0.173 A 
ATOM     92  C   UNL A   1      41.711  34.428  29.287  1.00  0.00     0.173 A 
ATOM     93  F   UNL A   1      45.233  33.542  29.118  1.00  0.00    -0.203 F 
ATOM     94  C   UNL A   1      43.975  35.002  27.792  1.00  0.00     0.198 A 
ATOM     95  C   UNL A   1      41.624  35.258  28.174  1.00  0.00     0.198 A 
ATOM     96  F   UNL A   1      40.589  34.148  29.971  1.00  0.00    -0.203 F 
ATOM     97  F   UNL A   1      45.070  35.277  27.068  1.00  0.00    -0.200 F 
ATOM     98  C   UNL A   1      42.758  35.558  27.436  1.00  0.00     0.200 A 
ATOM     99  F   UNL A   1      40.433  35.752  27.804  1.00  0.00    -0.200 F 
ATOM    100  F   UNL A   1      42.671  36.361  26.367  1.00  0.00    -0.200 F 
ENDBRANCH  67  90
ENDBRANCH  41  42
ENDBRANCH  34  36
ENDBRANCH  33  34
ENDBRANCH  32  33
ENDBRANCH  31  32
ENDBRANCH  30  31
ENDBRANCH  29  30
ENDBRANCH  28  29
ENDBRANCH   1  28
TORSDOF 22
ENDMDL
MODEL 2
REMARK VINA RESULT:     -10.6      3.008      4.820
REMARK SMILES C[C@H]1OCC[C@@H]1C(=O)Nc1sc2c(c1C(=O)OCCOCCOCCOCCOC(=O)c1ccc(-c3c4nc(c(-c5c(F)c(F)c(F)c(F)c5F)c5ccc([nH]5)c(-c5c(F)c(F)c(F)c(F)c5F)c5nc(c(-c6c(F)c(F)c(F)c(F)c6F)c6ccc3[nH]6)C=C5)C=C4)cc1)CCC2
REMARK SMILES IDX 23 1 22 2 21 3 20 4 19 5 18 6 17 7 15 8 16 9 14 10 10 11
REMARK SMILES IDX 11 12 12 13 13 14 97 15 95 16 96 17 9 18 7 19 8 20 6 22 1 23
REMARK SMILES IDX 2 24 3 25 4 26 5 27 24 28 25 29 26 30 27 31 28 32 29 33
REMARK SMILES IDX 30 34 31 35 32 36 33 37 94 38 34 39 93 40 35 41 36 42 37 43
REMARK SMILES IDX 87 44 38 45 92 46 86 47 88 48 39 49 91 50 85 51 84 52 40 54
REMARK SMILES IDX 72 55 52 56 71 57 53 58 56 59 70 60 89 61 54 62 55 63 69 65
REMARK SMILES IDX 90 66 57 67 41 68 42 69 50 70 43 71 44 72 48 73 51 74 45 75
REMARK SMILES IDX 46 76 49 77 47 78 73 79 74 80 82 81 75 82 76 83 80 84 83 85
REMARK SMILES IDX 77 86 78 87 81 88 79 89 58 90 59 91 67 92 60 93 61 94 65 95
REMARK SMILES IDX 68 96 62 97 63 98 66 99 64 100
REMARK H PARENT 9 21 88 53 56 64
REMARK Flexibility Score: inf
ROOT
ATOM      1  O   UNL A   1      31.957  28.600  26.983  1.00  0.00    -0.377 OA
ENDROOT
BRANCH   1   2
ATOM      2  C   UNL A   1      31.457  27.701  25.998  1.00  0.00     0.188 C 
BRANCH   2   3
ATOM      3  C   UNL A   1      32.012  26.305  26.217  1.00  0.00     0.188 C 
BRANCH   3   4
ATOM      4  O   UNL A   1      31.051  25.430  26.796  1.00  0.00    -0.376 OA
BRANCH   4   5
ATOM      5  C   UNL A   1      30.606  24.362  25.950  1.00  0.00     0.202 C 
BRANCH   5   6
ATOM      6  C   UNL A   1      31.219  24.375  24.535  1.00  0.00     0.261 C 
BRANCH   6   7
ATOM      7  O   UNL A   1      31.241  23.077  23.878  1.00  0.00    -0.460 OA
BRANCH   7   8
ATOM      8  C   UNL A   1      32.487  22.653  23.458  1.00  0.00     0.341 C 
ATOM      9  O   UNL A   1      32.786  22.487  22.286  1.00  0.00    -0.246 OA
BRANCH   8  10
ATOM     10  C   UNL A   1      33.452  22.421  24.543  1.00  0.00     0.098 A 
ATOM     11  C   UNL A   1      33.286  21.471  25.555  1.00  0.00     0.110 A 
ATOM     12  S   UNL A   1      34.415  21.607  26.842  1.00  0.00    -0.122 S 
ATOM     13  C   UNL A   1      35.330  22.638  25.914  1.00  0.00     0.011 A 
ATOM     14  C   UNL A   1      34.742  23.013  24.733  1.00  0.00    -0.017 A 
ATOM     15  C   UNL A   1      36.706  23.135  26.117  1.00  0.00     0.047 C 
ATOM     16  C   UNL A   1      35.677  23.865  23.950  1.00  0.00     0.038 C 
ATOM     17  C   UNL A   1      37.044  23.608  24.676  1.00  0.00     0.010 C 
BRANCH  11  18
ATOM     18  N   UNL A   1      32.388  20.436  25.738  1.00  0.00    -0.317 N 
ATOM     19  C   UNL A   1      32.760  19.132  25.480  1.00  0.00     0.230 C 
ATOM     20  O   UNL A   1      32.483  18.278  26.331  1.00  0.00    -0.274 OA
ATOM     21  H   UNL A   1      31.477  20.631  26.055  1.00  0.00     0.170 HD
BRANCH  19  22
ATOM     22  C   UNL A   1      33.375  18.677  24.151  1.00  0.00     0.110 C 
ATOM     23  C   UNL A   1      32.472  18.448  21.800  1.00  0.00     0.039 C 
ATOM     24  C   UNL A   1      32.500  17.855  23.207  1.00  0.00     0.127 C 
ATOM     25  O   UNL A   1      33.105  16.556  23.029  1.00  0.00    -0.378 OA
ATOM     26  C   UNL A   1      34.270  16.478  23.837  1.00  0.00     0.161 C 
ATOM     27  C   UNL A   1      34.645  17.892  24.195  1.00  0.00     0.044 C 
ENDBRANCH  19  22
ENDBRANCH  11  18
ENDBRANCH   8  10
ENDBRANCH   7   8
ENDBRANCH   6   7
ENDBRANCH   5   6
ENDBRANCH   4   5
ENDBRANCH   3   4
ENDBRANCH   2   3
ENDBRANCH   1   2
BRANCH   1  28
ATOM     28  C   UNL A   1      32.730  29.695  26.502  1.00  0.00     0.188 C 
BRANCH  28  29
ATOM     29  C   UNL A   1      34.089  29.952  27.167  1.00  0.00     0.188 C 
BRANCH  29  30
ATOM     30  O   UNL A   1      34.569  31.289  27.346  1.00  0.00    -0.376 OA
BRANCH  30  31
ATOM     31  C   UNL A   1      33.786  32.298  27.984  1.00  0.00     0.202 C 
BRANCH  31  32
ATOM     32  C   UNL A   1      34.470  33.087  29.091  1.00  0.00     0.261 C 
BRANCH  32  33
ATOM     33  O   UNL A   1      35.147  32.164  29.921  1.00  0.00    -0.460 OA
BRANCH  33  34
ATOM     34  C   UNL A   1      36.462  32.447  30.030  1.00  0.00     0.338 C 
ATOM     35  O   UNL A   1      37.160  33.038  29.229  1.00  0.00    -0.246 OA
BRANCH  34  36
ATOM     36  C   UNL A   1      36.960  31.874  31.312  1.00  0.00     0.060 A 
ATOM     37  C   UNL A   1      38.218  32.401  31.571  1.00  0.00     0.016 A 
ATOM     38  C   UNL A   1      36.696  30.502  31.429  1.00  0.00     0.016 A 
ATOM     39  C   UNL A   1      39.261  31.571  31.265  1.00  0.00     0.010 A 
ATOM     40  C   UNL A   1      37.729  29.659  31.120  1.00  0.00     0.010 A 
ATOM     41  C   UNL A   1      38.983  30.231  30.938  1.00  0.00    -0.014 A 
BRANCH  41  42
ATOM     42  C   UNL A   1      40.128  29.404  30.672  1.00  0.00     0.031 A 
ATOM     43  C   UNL A   1      40.884  29.198  31.922  1.00  0.00     0.074 A 
ATOM     44  C   UNL A   1      40.429  28.877  29.478  1.00  0.00     0.049 A 
ATOM     45  N   UNL A   1      42.038  29.688  32.225  1.00  0.00    -0.248 NA
ATOM     46  C   UNL A   1      40.147  28.619  33.058  1.00  0.00     0.031 C 
ATOM     47  C   UNL A   1      39.622  28.792  28.263  1.00  0.00     0.029 A 
ATOM     48  N   UNL A   1      41.561  28.210  29.148  1.00  0.00    -0.354 N 
ATOM     49  C   UNL A   1      42.248  29.323  33.547  1.00  0.00     0.074 A 
ATOM     50  C   UNL A   1      40.984  28.873  34.060  1.00  0.00     0.031 C 
ATOM     51  C   UNL A   1      40.203  27.909  27.415  1.00  0.00     0.029 A 
ATOM     52  C   UNL A   1      41.474  27.475  27.977  1.00  0.00     0.049 A 
ATOM     53  H   UNL A   1      42.379  28.244  29.694  1.00  0.00     0.167 HD
ATOM     54  C   UNL A   1      43.508  29.153  34.019  1.00  0.00     0.037 A 
ATOM     55  C   UNL A   1      42.356  26.513  27.608  1.00  0.00     0.037 A 
ATOM     56  C   UNL A   1      44.455  29.898  33.224  1.00  0.00     0.049 A 
ATOM     57  C   UNL A   1      43.602  26.728  28.400  1.00  0.00     0.074 A 
ATOM     58  C   UNL A   1      44.617  31.240  32.932  1.00  0.00     0.029 A 
ATOM     59  N   UNL A   1      45.176  29.222  32.269  1.00  0.00    -0.354 N 
ATOM     60  N   UNL A   1      44.410  27.736  28.226  1.00  0.00    -0.248 NA
ATOM     61  C   UNL A   1      43.702  26.069  29.697  1.00  0.00     0.031 C 
ATOM     62  C   UNL A   1      45.027  31.283  31.566  1.00  0.00     0.029 A 
ATOM     63  C   UNL A   1      45.145  29.967  31.116  1.00  0.00     0.049 A 
ATOM     64  H   UNL A   1      45.633  28.359  32.389  1.00  0.00     0.167 HD
ATOM     65  C   UNL A   1      44.806  28.102  29.506  1.00  0.00     0.074 A 
ATOM     66  C   UNL A   1      44.404  26.991  30.363  1.00  0.00     0.031 C 
ATOM     67  C   UNL A   1      45.158  29.390  29.793  1.00  0.00     0.037 A 
BRANCH  54  68
ATOM     68  C   UNL A   1      43.887  27.989  34.901  1.00  0.00     0.064 A 
ATOM     69  C   UNL A   1      43.620  26.688  34.439  1.00  0.00     0.173 A 
ATOM     70  C   UNL A   1      44.213  28.086  36.276  1.00  0.00     0.173 A 
ATOM     71  F   UNL A   1      43.300  26.470  33.156  1.00  0.00    -0.203 F 
ATOM     72  C   UNL A   1      43.576  25.593  35.306  1.00  0.00     0.198 A 
ATOM     73  C   UNL A   1      44.220  26.985  37.125  1.00  0.00     0.198 A 
ATOM     74  F   UNL A   1      44.438  29.250  36.893  1.00  0.00    -0.203 F 
ATOM     75  F   UNL A   1      43.181  24.399  34.844  1.00  0.00    -0.200 F 
ATOM     76  C   UNL A   1      43.864  25.746  36.650  1.00  0.00     0.200 A 
ATOM     77  F   UNL A   1      44.490  27.162  38.427  1.00  0.00    -0.200 F 
ATOM     78  F   UNL A   1      43.753  24.713  37.494  1.00  0.00    -0.200 F 
ENDBRANCH  54  68
BRANCH  55  79
ATOM     79  C   UNL A   1      42.088  25.239  26.902  1.00  0.00     0.064 A 
ATOM     80  C   UNL A   1      42.887  24.847  25.814  1.00  0.00     0.173 A 
ATOM     81  C   UNL A   1      41.247  24.250  27.447  1.00  0.00     0.173 A 
ATOM     82  F   UNL A   1      43.746  25.716  25.261  1.00  0.00    -0.203 F 
ATOM     83  C   UNL A   1      42.876  23.536  25.330  1.00  0.00     0.198 A 
ATOM     84  C   UNL A   1      41.229  22.944  26.956  1.00  0.00     0.198 A 
ATOM     85  F   UNL A   1      40.500  24.497  28.532  1.00  0.00    -0.203 F 
ATOM     86  F   UNL A   1      43.709  23.182  24.340  1.00  0.00    -0.200 F 
ATOM     87  C   UNL A   1      42.057  22.582  25.909  1.00  0.00     0.200 A 
ATOM     88  F   UNL A   1      40.457  22.022  27.548  1.00  0.00    -0.200 F 
ATOM     89  F   UNL A   1      42.095  21.310  25.491  1.00  0.00    -0.200 F 
ENDBRANCH  55  79
BRANCH  67  90
ATOM     90  C   UNL A   1      45.350  30.331  28.635  1.00  0.00     0.064 A 
ATOM     91  C   UNL A   1      44.307  31.049  28.022  1.00  0.00     0.173 A 
ATOM     92  C   UNL A   1      46.656  30.605  28.209  1.00  0.00     0.173 A 
ATOM     93  F   UNL A   1      43.042  30.924  28.444  1.00  0.00    -0.203 F 
ATOM     94  C   UNL A   1      44.561  31.953  26.991  1.00  0.00     0.198 A 
ATOM     95  C   UNL A   1      46.910  31.539  27.209  1.00  0.00     0.198 A 
ATOM     96  F   UNL A   1      47.697  29.992  28.797  1.00  0.00    -0.203 F 
ATOM     97  F   UNL A   1      43.546  32.606  26.405  1.00  0.00    -0.200 F 
ATOM     98  C   UNL A   1      45.862  32.201  26.590  1.00  0.00     0.200 A 
ATOM     99  F   UNL A   1      48.176  31.813  26.861  1.00  0.00    -0.200 F 
ATOM    100  F   UNL A   1      46.111  33.097  25.625  1.00  0.00    -0.200 F 
ENDBRANCH  67  90
ENDBRANCH  41  42
ENDBRANCH  34  36
ENDBRANCH  33  34
ENDBRANCH  32  33
ENDBRANCH  31  32
ENDBRANCH  30  31
ENDBRANCH  29  30
ENDBRANCH  28  29
ENDBRANCH   1  28
TORSDOF 22
ENDMDL
MODEL 3
REMARK VINA RESULT:     -10.6      3.138      5.249
REMARK SMILES C[C@H]1OCC[C@@H]1C(=O)Nc1sc2c(c1C(=O)OCCOCCOCCOCCOC(=O)c1ccc(-c3c4nc(c(-c5c(F)c(F)c(F)c(F)c5F)c5ccc([nH]5)c(-c5c(F)c(F)c(F)c(F)c5F)c5nc(c(-c6c(F)c(F)c(F)c(F)c6F)c6ccc3[nH]6)C=C5)C=C4)cc1)CCC2
REMARK SMILES IDX 23 1 22 2 21 3 20 4 19 5 18 6 17 7 15 8 16 9 14 10 10 11
REMARK SMILES IDX 11 12 12 13 13 14 97 15 95 16 96 17 9 18 7 19 8 20 6 22 1 23
REMARK SMILES IDX 2 24 3 25 4 26 5 27 24 28 25 29 26 30 27 31 28 32 29 33
REMARK SMILES IDX 30 34 31 35 32 36 33 37 94 38 34 39 93 40 35 41 36 42 37 43
REMARK SMILES IDX 87 44 38 45 92 46 86 47 88 48 39 49 91 50 85 51 84 52 40 54
REMARK SMILES IDX 72 55 52 56 71 57 53 58 56 59 70 60 89 61 54 62 55 63 69 65
REMARK SMILES IDX 90 66 57 67 41 68 42 69 50 70 43 71 44 72 48 73 51 74 45 75
REMARK SMILES IDX 46 76 49 77 47 78 73 79 74 80 82 81 75 82 76 83 80 84 83 85
REMARK SMILES IDX 77 86 78 87 81 88 79 89 58 90 59 91 67 92 60 93 61 94 65 95
REMARK SMILES IDX 68 96 62 97 63 98 66 99 64 100
REMARK H PARENT 9 21 88 53 56 64
REMARK Flexibility Score: inf
ROOT
ATOM      1  O   UNL A   1      31.897  33.869  27.401  1.00  0.00    -0.377 OA
ENDROOT
BRANCH   1   2
ATOM      2  C   UNL A   1      31.771  32.536  26.915  1.00  0.00     0.188 C 
BRANCH   2   3
ATOM      3  C   UNL A   1      33.053  31.757  27.153  1.00  0.00     0.188 C 
BRANCH   3   4
ATOM      4  O   UNL A   1      32.920  30.385  26.799  1.00  0.00    -0.376 OA
BRANCH   4   5
ATOM      5  C   UNL A   1      34.152  29.666  26.656  1.00  0.00     0.202 C 
BRANCH   5   6
ATOM      6  C   UNL A   1      34.054  28.164  26.989  1.00  0.00     0.261 C 
BRANCH   6   7
ATOM      7  O   UNL A   1      33.223  27.398  26.073  1.00  0.00    -0.460 OA
BRANCH   7   8
ATOM      8  C   UNL A   1      31.896  27.284  26.440  1.00  0.00     0.341 C 
ATOM      9  O   UNL A   1      31.513  27.275  27.600  1.00  0.00    -0.246 OA
BRANCH   8  10
ATOM     10  C   UNL A   1      30.956  27.182  25.314  1.00  0.00     0.098 A 
ATOM     11  C   UNL A   1      30.206  26.041  25.014  1.00  0.00     0.110 A 
ATOM     12  S   UNL A   1      29.413  26.099  23.493  1.00  0.00    -0.122 S 
ATOM     13  C   UNL A   1      29.733  27.728  23.401  1.00  0.00     0.011 A 
ATOM     14  C   UNL A   1      30.554  28.201  24.393  1.00  0.00    -0.017 A 
ATOM     15  C   UNL A   1      29.201  28.753  22.481  1.00  0.00     0.047 C 
ATOM     16  C   UNL A   1      30.706  29.676  24.261  1.00  0.00     0.038 C 
ATOM     17  C   UNL A   1      29.539  30.042  23.280  1.00  0.00     0.010 C 
BRANCH  11  18
ATOM     18  N   UNL A   1      29.973  24.861  25.695  1.00  0.00    -0.317 N 
ATOM     19  C   UNL A   1      31.026  24.063  26.094  1.00  0.00     0.230 C 
ATOM     20  O   UNL A   1      31.019  23.645  27.258  1.00  0.00    -0.274 OA
ATOM     21  H   UNL A   1      29.049  24.590  25.898  1.00  0.00     0.170 HD
BRANCH  19  22
ATOM     22  C   UNL A   1      32.120  23.570  25.139  1.00  0.00     0.110 C 
ATOM     23  C   UNL A   1      32.155  21.899  23.241  1.00  0.00     0.039 C 
ATOM     24  C   UNL A   1      32.116  22.092  24.755  1.00  0.00     0.127 C 
ATOM     25  O   UNL A   1      33.346  21.491  25.218  1.00  0.00    -0.378 OA
ATOM     26  C   UNL A   1      34.101  22.471  25.915  1.00  0.00     0.161 C 
ATOM     27  C   UNL A   1      33.545  23.811  25.516  1.00  0.00     0.044 C 
ENDBRANCH  19  22
ENDBRANCH  11  18
ENDBRANCH   8  10
ENDBRANCH   7   8
ENDBRANCH   6   7
ENDBRANCH   5   6
ENDBRANCH   4   5
ENDBRANCH   3   4
ENDBRANCH   2   3
ENDBRANCH   1   2
BRANCH   1  28
ATOM     28  C   UNL A   1      33.112  34.180  28.076  1.00  0.00     0.188 C 
BRANCH  28  29
ATOM     29  C   UNL A   1      33.013  34.971  29.388  1.00  0.00     0.188 C 
BRANCH  29  30
ATOM     30  O   UNL A   1      34.025  34.842  30.392  1.00  0.00    -0.376 OA
BRANCH  30  31
ATOM     31  C   UNL A   1      35.063  33.866  30.305  1.00  0.00     0.202 C 
BRANCH  31  32
ATOM     32  C   UNL A   1      34.795  32.530  30.982  1.00  0.00     0.261 C 
BRANCH  32  33
ATOM     33  O   UNL A   1      36.013  32.082  31.544  1.00  0.00    -0.460 OA
BRANCH  33  34
ATOM     34  C   UNL A   1      36.330  30.833  31.142  1.00  0.00     0.338 C 
ATOM     35  O   UNL A   1      36.151  29.794  31.747  1.00  0.00    -0.246 OA
BRANCH  34  36
ATOM     36  C   UNL A   1      36.989  30.924  29.810  1.00  0.00     0.060 A 
ATOM     37  C   UNL A   1      36.908  29.683  29.192  1.00  0.00     0.016 A 
ATOM     38  C   UNL A   1      38.186  31.652  29.848  1.00  0.00     0.016 A 
ATOM     39  C   UNL A   1      38.052  28.936  29.256  1.00  0.00     0.010 A 
ATOM     40  C   UNL A   1      39.339  30.917  29.917  1.00  0.00     0.010 A 
ATOM     41  C   UNL A   1      39.230  29.545  29.723  1.00  0.00    -0.014 A 
BRANCH  41  42
ATOM     42  C   UNL A   1      40.404  28.716  29.720  1.00  0.00     0.031 A 
ATOM     43  C   UNL A   1      40.811  28.437  31.111  1.00  0.00     0.074 A 
ATOM     44  C   UNL A   1      41.005  28.246  28.620  1.00  0.00     0.049 A 
ATOM     45  N   UNL A   1      41.847  28.895  31.728  1.00  0.00    -0.248 NA
ATOM     46  C   UNL A   1      39.803  27.812  31.986  1.00  0.00     0.031 C 
ATOM     47  C   UNL A   1      40.541  28.233  27.234  1.00  0.00     0.029 A 
ATOM     48  N   UNL A   1      42.184  27.580  28.559  1.00  0.00    -0.354 N 
ATOM     49  C   UNL A   1      41.706  28.461  33.038  1.00  0.00     0.074 A 
ATOM     50  C   UNL A   1      40.352  28.003  33.182  1.00  0.00     0.031 C 
ATOM     51  C   UNL A   1      41.322  27.386  26.521  1.00  0.00     0.029 A 
ATOM     52  C   UNL A   1      42.403  26.906  27.370  1.00  0.00     0.049 A 
ATOM     53  H   UNL A   1      42.832  27.575  29.300  1.00  0.00     0.167 HD
ATOM     54  C   UNL A   1      42.800  28.250  33.811  1.00  0.00     0.037 A 
ATOM     55  C   UNL A   1      43.350  25.952  27.192  1.00  0.00     0.037 A 
ATOM     56  C   UNL A   1      43.922  29.021  33.329  1.00  0.00     0.049 A 
ATOM     57  C   UNL A   1      44.348  26.109  28.290  1.00  0.00     0.074 A 
ATOM     58  C   UNL A   1      44.154  30.373  33.160  1.00  0.00     0.029 A 
ATOM     59  N   UNL A   1      44.865  28.384  32.559  1.00  0.00    -0.354 N 
ATOM     60  N   UNL A   1      45.174  27.114  28.384  1.00  0.00    -0.248 NA
ATOM     61  C   UNL A   1      44.108  25.384  29.532  1.00  0.00     0.031 C 
ATOM     62  C   UNL A   1      44.905  30.479  31.951  1.00  0.00     0.029 A 
ATOM     63  C   UNL A   1      45.135  29.186  31.478  1.00  0.00     0.049 A 
ATOM     64  H   UNL A   1      45.276  27.509  32.748  1.00  0.00     0.167 HD
ATOM     65  C   UNL A   1      45.225  27.409  29.740  1.00  0.00     0.074 A 
ATOM     66  C   UNL A   1      44.613  26.263  30.404  1.00  0.00     0.031 C 
ATOM     67  C   UNL A   1      45.490  28.676  30.175  1.00  0.00     0.037 A 
BRANCH  54  68
ATOM     68  C   UNL A   1      42.937  27.038  34.700  1.00  0.00     0.064 A 
ATOM     69  C   UNL A   1      42.912  27.226  36.093  1.00  0.00     0.173 A 
ATOM     70  C   UNL A   1      43.386  25.765  34.271  1.00  0.00     0.173 A 
ATOM     71  F   UNL A   1      42.505  28.391  36.618  1.00  0.00    -0.203 F 
ATOM     72  C   UNL A   1      43.400  26.261  36.976  1.00  0.00     0.198 A 
ATOM     73  C   UNL A   1      43.822  24.786  35.157  1.00  0.00     0.198 A 
ATOM     74  F   UNL A   1      43.528  25.435  32.984  1.00  0.00    -0.203 F 
ATOM     75  F   UNL A   1      43.484  26.541  38.283  1.00  0.00    -0.200 F 
ATOM     76  C   UNL A   1      43.865  25.046  36.506  1.00  0.00     0.200 A 
ATOM     77  F   UNL A   1      44.280  23.621  34.675  1.00  0.00    -0.200 F 
ATOM     78  F   UNL A   1      44.399  24.148  37.343  1.00  0.00    -0.200 F 
ENDBRANCH  54  68
BRANCH  55  79
ATOM     79  C   UNL A   1      43.274  24.719  26.375  1.00  0.00     0.064 A 
ATOM     80  C   UNL A   1      44.168  24.515  25.310  1.00  0.00     0.173 A 
ATOM     81  C   UNL A   1      42.534  23.596  26.791  1.00  0.00     0.173 A 
ATOM     82  F   UNL A   1      44.942  25.521  24.877  1.00  0.00    -0.203 F 
ATOM     83  C   UNL A   1      44.340  23.257  24.726  1.00  0.00     0.198 A 
ATOM     84  C   UNL A   1      42.698  22.343  26.200  1.00  0.00     0.198 A 
ATOM     85  F   UNL A   1      41.708  23.663  27.845  1.00  0.00    -0.203 F 
ATOM     86  F   UNL A   1      45.258  23.086  23.763  1.00  0.00    -0.200 F 
ATOM     87  C   UNL A   1      43.615  22.169  25.180  1.00  0.00     0.200 A 
ATOM     88  F   UNL A   1      42.014  21.291  26.673  1.00  0.00    -0.200 F 
ATOM     89  F   UNL A   1      43.828  20.949  24.668  1.00  0.00    -0.200 F 
ENDBRANCH  55  79
BRANCH  67  90
ATOM     90  C   UNL A   1      45.976  29.672  29.158  1.00  0.00     0.064 A 
ATOM     91  C   UNL A   1      47.323  29.818  28.779  1.00  0.00     0.173 A 
ATOM     92  C   UNL A   1      45.026  30.424  28.456  1.00  0.00     0.173 A 
ATOM     93  F   UNL A   1      48.280  29.057  29.326  1.00  0.00    -0.203 F 
ATOM     94  C   UNL A   1      47.700  30.719  27.784  1.00  0.00     0.198 A 
ATOM     95  C   UNL A   1      45.401  31.292  27.434  1.00  0.00     0.198 A 
ATOM     96  F   UNL A   1      43.719  30.285  28.735  1.00  0.00    -0.203 F 
ATOM     97  F   UNL A   1      48.994  30.859  27.459  1.00  0.00    -0.200 F 
ATOM     98  C   UNL A   1      46.738  31.451  27.109  1.00  0.00     0.200 A 
ATOM     99  F   UNL A   1      44.460  31.959  26.750  1.00  0.00    -0.200 F 
ATOM    100  F   UNL A   1      47.096  32.290  26.127  1.00  0.00    -0.200 F 
ENDBRANCH  67  90
ENDBRANCH  41  42
ENDBRANCH  34  36
ENDBRANCH  33  34
ENDBRANCH  32  33
ENDBRANCH  31  32
ENDBRANCH  30  31
ENDBRANCH  29  30
ENDBRANCH  28  29
ENDBRANCH   1  28
TORSDOF 22
ENDMDL
