MODEL 1
REMARK VINA RESULT:     -11.1      0.000      0.000
REMARK SMILES O=Cc1c(OCc2ccc(C(=O)OCCOCCOCCOCCOC(=O)c3ccc(-c4c5nc(c(-c6c(F)c(F)c(F)c(F)c6F)c6ccc([nH]6)c(-c6c(F)c(F)c(F)c(F)c6F)c6nc(c(-c7c(F)c(F)c(F)c(F)c7F)c7ccc4[nH]7)C=C6)C=C5)cc3)cc2)ccc2ccccc12
REMARK SMILES IDX 18 1 17 2 16 3 15 4 14 5 13 6 11 7 12 8 10 9 7 10 8 11 92 12
REMARK SMILES IDX 9 13 91 14 6 15 5 16 4 17 3 18 100 19 93 20 95 21 99 22
REMARK SMILES IDX 94 23 96 24 98 25 97 26 2 27 1 28 19 29 20 30 21 31 22 32
REMARK SMILES IDX 23 33 24 34 25 35 26 36 27 37 28 38 29 39 90 40 30 41 89 42
REMARK SMILES IDX 31 43 32 44 33 45 83 46 34 47 88 48 82 49 84 50 35 51 87 52
REMARK SMILES IDX 81 53 80 54 36 56 68 57 48 58 67 59 49 60 52 61 66 62 85 63
REMARK SMILES IDX 50 64 51 65 65 67 86 68 53 69 37 70 38 71 46 72 39 73 40 74
REMARK SMILES IDX 44 75 47 76 41 77 42 78 45 79 43 80 69 81 70 82 78 83 71 84
REMARK SMILES IDX 72 85 76 86 79 87 73 88 74 89 77 90 75 91 54 92 55 93 63 94
REMARK SMILES IDX 56 95 57 96 61 97 64 98 58 99 59 100 62 101 60 102
REMARK H PARENT 84 55 52 66
REMARK Flexibility Score: inf
ROOT
ATOM      1  C   UNL A   1      38.136  21.434  25.326  1.00  0.00     0.188 C 
ENDROOT
BRANCH   1   2
ATOM      2  C   UNL A   1      36.922  22.255  24.840  1.00  0.00     0.188 C 
BRANCH   2   3
ATOM      3  O   UNL A   1      35.898  21.466  24.259  1.00  0.00    -0.376 OA
BRANCH   3   4
ATOM      4  C   UNL A   1      35.125  20.616  25.085  1.00  0.00     0.202 C 
BRANCH   4   5
ATOM      5  C   UNL A   1      33.951  21.209  25.880  1.00  0.00     0.261 C 
BRANCH   5   6
ATOM      6  O   UNL A   1      32.699  21.265  25.193  1.00  0.00    -0.460 OA
BRANCH   6   7
ATOM      7  C   UNL A   1      32.658  22.030  24.081  1.00  0.00     0.338 C 
ATOM      8  O   UNL A   1      32.216  21.705  22.992  1.00  0.00    -0.246 OA
BRANCH   7   9
ATOM      9  C   UNL A   1      33.052  23.409  24.450  1.00  0.00     0.060 A 
ATOM     10  C   UNL A   1      33.599  26.047  25.170  1.00  0.00    -0.011 A 
ATOM     11  C   UNL A   1      33.060  25.162  26.114  1.00  0.00     0.008 A 
ATOM     12  C   UNL A   1      34.018  25.558  23.922  1.00  0.00     0.008 A 
ATOM     13  C   UNL A   1      32.767  23.852  25.747  1.00  0.00     0.016 A 
ATOM     14  C   UNL A   1      33.731  24.245  23.555  1.00  0.00     0.016 A 
BRANCH  10  15
ATOM     15  C   UNL A   1      33.557  27.542  25.425  1.00  0.00     0.265 C 
BRANCH  15  16
ATOM     16  O   UNL A   1      32.251  28.010  25.807  1.00  0.00    -0.488 OA
BRANCH  16  17
ATOM     17  C   UNL A   1      31.306  28.314  24.860  1.00  0.00     0.130 A 
ATOM     18  C   UNL A   1      30.903  29.659  24.744  1.00  0.00     0.064 A 
ATOM     19  C   UNL A   1      29.831  30.052  23.884  1.00  0.00    -0.004 A 
ATOM     20  C   UNL A   1      30.676  27.368  24.054  1.00  0.00     0.048 A 
ATOM     21  C   UNL A   1      29.159  29.041  23.158  1.00  0.00    -0.017 A 
ATOM     22  C   UNL A   1      29.391  31.387  23.683  1.00  0.00     0.009 A 
ATOM     23  C   UNL A   1      29.592  27.717  23.248  1.00  0.00     0.012 A 
ATOM     24  C   UNL A   1      28.073  29.358  22.325  1.00  0.00     0.009 A 
ATOM     25  C   UNL A   1      28.323  31.692  22.834  1.00  0.00     0.001 A 
ATOM     26  C   UNL A   1      27.656  30.676  22.163  1.00  0.00     0.001 A 
BRANCH  18  27
ATOM     27  C   UNL A   1      31.587  30.692  25.558  1.00  0.00     0.264 C 
ATOM     28  O   UNL A   1      31.303  30.931  26.725  1.00  0.00    -0.298 OA
ENDBRANCH  18  27
ENDBRANCH  16  17
ENDBRANCH  15  16
ENDBRANCH  10  15
ENDBRANCH   7   9
ENDBRANCH   6   7
ENDBRANCH   5   6
ENDBRANCH   4   5
ENDBRANCH   3   4
ENDBRANCH   2   3
ENDBRANCH   1   2
BRANCH   1  29
ATOM     29  O   UNL A   1      39.018  22.029  26.268  1.00  0.00    -0.377 OA
BRANCH  29  30
ATOM     30  C   UNL A   1      40.425  21.833  26.139  1.00  0.00     0.188 C 
BRANCH  30  31
ATOM     31  C   UNL A   1      41.201  20.804  27.000  1.00  0.00     0.188 C 
BRANCH  31  32
ATOM     32  O   UNL A   1      42.609  20.940  26.965  1.00  0.00    -0.376 OA
BRANCH  32  33
ATOM     33  C   UNL A   1      43.279  20.639  25.756  1.00  0.00     0.202 C 
BRANCH  33  34
ATOM     34  C   UNL A   1      44.014  21.792  25.060  1.00  0.00     0.261 C 
BRANCH  34  35
ATOM     35  O   UNL A   1      43.340  23.060  25.053  1.00  0.00    -0.460 OA
BRANCH  35  36
ATOM     36  C   UNL A   1      44.102  24.167  25.157  1.00  0.00     0.338 C 
ATOM     37  O   UNL A   1      45.107  24.438  24.520  1.00  0.00    -0.246 OA
BRANCH  36  38
ATOM     38  C   UNL A   1      43.406  25.104  26.062  1.00  0.00     0.060 A 
ATOM     39  C   UNL A   1      43.840  26.435  26.137  1.00  0.00     0.016 A 
ATOM     40  C   UNL A   1      42.320  24.670  26.824  1.00  0.00     0.016 A 
ATOM     41  C   UNL A   1      43.210  27.326  27.006  1.00  0.00     0.010 A 
ATOM     42  C   UNL A   1      41.704  25.556  27.710  1.00  0.00     0.010 A 
ATOM     43  C   UNL A   1      42.171  26.877  27.833  1.00  0.00    -0.014 A 
BRANCH  43  44
ATOM     44  C   UNL A   1      41.723  27.715  28.971  1.00  0.00     0.031 A 
ATOM     45  C   UNL A   1      42.496  27.631  30.259  1.00  0.00     0.074 A 
ATOM     46  C   UNL A   1      40.671  28.545  28.867  1.00  0.00     0.049 A 
ATOM     47  N   UNL A   1      42.273  28.215  31.408  1.00  0.00    -0.248 NA
ATOM     48  C   UNL A   1      43.684  26.761  30.246  1.00  0.00     0.031 C 
ATOM     49  C   UNL A   1      39.871  28.749  27.662  1.00  0.00     0.029 A 
ATOM     50  N   UNL A   1      40.092  29.367  29.802  1.00  0.00    -0.354 N 
ATOM     51  C   UNL A   1      43.283  27.777  32.253  1.00  0.00     0.074 A 
ATOM     52  C   UNL A   1      44.100  26.852  31.500  1.00  0.00     0.031 C 
ATOM     53  C   UNL A   1      38.893  29.632  27.935  1.00  0.00     0.029 A 
ATOM     54  C   UNL A   1      38.978  30.025  29.341  1.00  0.00     0.049 A 
ATOM     55  H   UNL A   1      40.442  29.474  30.715  1.00  0.00     0.167 HD
ATOM     56  C   UNL A   1      43.515  28.124  33.542  1.00  0.00     0.037 A 
ATOM     57  C   UNL A   1      38.117  30.832  29.992  1.00  0.00     0.037 A 
ATOM     58  C   UNL A   1      42.698  29.042  34.289  1.00  0.00     0.049 A 
ATOM     59  C   UNL A   1      38.349  31.139  31.451  1.00  0.00     0.074 A 
ATOM     60  C   UNL A   1      42.856  29.470  35.596  1.00  0.00     0.029 A 
ATOM     61  N   UNL A   1      41.560  29.664  33.799  1.00  0.00    -0.354 N 
ATOM     62  N   UNL A   1      39.320  30.743  32.239  1.00  0.00    -0.248 NA
ATOM     63  C   UNL A   1      37.365  32.010  32.110  1.00  0.00     0.031 C 
ATOM     64  C   UNL A   1      41.778  30.301  35.915  1.00  0.00     0.029 A 
ATOM     65  C   UNL A   1      40.987  30.450  34.787  1.00  0.00     0.049 A 
ATOM     66  H   UNL A   1      41.210  29.563  32.884  1.00  0.00     0.167 HD
ATOM     67  C   UNL A   1      39.086  31.345  33.470  1.00  0.00     0.074 A 
ATOM     68  C   UNL A   1      37.887  32.142  33.322  1.00  0.00     0.031 C 
ATOM     69  C   UNL A   1      39.800  31.249  34.620  1.00  0.00     0.037 A 
BRANCH  56  70
ATOM     70  C   UNL A   1      44.682  27.479  34.234  1.00  0.00     0.064 A 
ATOM     71  C   UNL A   1      44.559  26.255  34.911  1.00  0.00     0.173 A 
ATOM     72  C   UNL A   1      45.948  28.084  34.200  1.00  0.00     0.173 A 
ATOM     73  F   UNL A   1      43.368  25.642  34.987  1.00  0.00    -0.203 F 
ATOM     74  C   UNL A   1      45.652  25.677  35.552  1.00  0.00     0.198 A 
ATOM     75  C   UNL A   1      47.046  27.486  34.812  1.00  0.00     0.198 A 
ATOM     76  F   UNL A   1      46.123  29.253  33.566  1.00  0.00    -0.203 F 
ATOM     77  F   UNL A   1      45.498  24.537  36.238  1.00  0.00    -0.200 F 
ATOM     78  C   UNL A   1      46.895  26.289  35.495  1.00  0.00     0.200 A 
ATOM     79  F   UNL A   1      48.249  28.070  34.743  1.00  0.00    -0.200 F 
ATOM     80  F   UNL A   1      47.949  25.727  36.105  1.00  0.00    -0.200 F 
ENDBRANCH  56  70
BRANCH  57  81
ATOM     81  C   UNL A   1      36.940  31.400  29.278  1.00  0.00     0.064 A 
ATOM     82  C   UNL A   1      36.883  32.759  28.941  1.00  0.00     0.173 A 
ATOM     83  C   UNL A   1      35.834  30.602  28.950  1.00  0.00     0.173 A 
ATOM     84  F   UNL A   1      37.904  33.570  29.258  1.00  0.00    -0.203 F 
ATOM     85  C   UNL A   1      35.758  33.303  28.325  1.00  0.00     0.198 A 
ATOM     86  C   UNL A   1      34.723  31.140  28.303  1.00  0.00     0.198 A 
ATOM     87  F   UNL A   1      35.833  29.295  29.253  1.00  0.00    -0.203 F 
ATOM     88  F   UNL A   1      35.709  34.617  28.065  1.00  0.00    -0.200 F 
ATOM     89  C   UNL A   1      34.682  32.492  28.000  1.00  0.00     0.200 A 
ATOM     90  F   UNL A   1      33.690  30.349  27.980  1.00  0.00    -0.200 F 
ATOM     91  F   UNL A   1      33.600  33.015  27.406  1.00  0.00    -0.200 F 
ENDBRANCH  57  81
BRANCH  69  92
ATOM     92  C   UNL A   1      39.337  32.064  35.796  1.00  0.00     0.064 A 
ATOM     93  C   UNL A   1      39.780  33.378  36.011  1.00  0.00     0.173 A 
ATOM     94  C   UNL A   1      38.400  31.535  36.699  1.00  0.00     0.173 A 
ATOM     95  F   UNL A   1      40.683  33.929  35.186  1.00  0.00    -0.203 F 
ATOM     96  C   UNL A   1      39.329  34.118  37.102  1.00  0.00     0.198 A 
ATOM     97  C   UNL A   1      37.923  32.291  37.766  1.00  0.00     0.198 A 
ATOM     98  F   UNL A   1      37.934  30.287  36.536  1.00  0.00    -0.203 F 
ATOM     99  F   UNL A   1      39.809  35.350  37.318  1.00  0.00    -0.200 F 
ATOM    100  C   UNL A   1      38.395  33.577  37.972  1.00  0.00     0.200 A 
ATOM    101  F   UNL A   1      37.006  31.772  38.595  1.00  0.00    -0.200 F 
ATOM    102  F   UNL A   1      37.955  34.294  39.016  1.00  0.00    -0.200 F 
ENDBRANCH  69  92
ENDBRANCH  43  44
ENDBRANCH  36  38
ENDBRANCH  35  36
ENDBRANCH  34  35
ENDBRANCH  33  34
ENDBRANCH  32  33
ENDBRANCH  31  32
ENDBRANCH  30  31
ENDBRANCH  29  30
ENDBRANCH   1  29
TORSDOF 24
ENDMDL
MODEL 2
REMARK VINA RESULT:     -10.8      4.825      7.333
REMARK SMILES O=Cc1c(OCc2ccc(C(=O)OCCOCCOCCOCCOC(=O)c3ccc(-c4c5nc(c(-c6c(F)c(F)c(F)c(F)c6F)c6ccc([nH]6)c(-c6c(F)c(F)c(F)c(F)c6F)c6nc(c(-c7c(F)c(F)c(F)c(F)c7F)c7ccc4[nH]7)C=C6)C=C5)cc3)cc2)ccc2ccccc12
REMARK SMILES IDX 18 1 17 2 16 3 15 4 14 5 13 6 11 7 12 8 10 9 7 10 8 11 92 12
REMARK SMILES IDX 9 13 91 14 6 15 5 16 4 17 3 18 100 19 93 20 95 21 99 22
REMARK SMILES IDX 94 23 96 24 98 25 97 26 2 27 1 28 19 29 20 30 21 31 22 32
REMARK SMILES IDX 23 33 24 34 25 35 26 36 27 37 28 38 29 39 90 40 30 41 89 42
REMARK SMILES IDX 31 43 32 44 33 45 83 46 34 47 88 48 82 49 84 50 35 51 87 52
REMARK SMILES IDX 81 53 80 54 36 56 68 57 48 58 67 59 49 60 52 61 66 62 85 63
REMARK SMILES IDX 50 64 51 65 65 67 86 68 53 69 37 70 38 71 46 72 39 73 40 74
REMARK SMILES IDX 44 75 47 76 41 77 42 78 45 79 43 80 69 81 70 82 78 83 71 84
REMARK SMILES IDX 72 85 76 86 79 87 73 88 74 89 77 90 75 91 54 92 55 93 63 94
REMARK SMILES IDX 56 95 57 96 61 97 64 98 58 99 59 100 62 101 60 102
REMARK H PARENT 84 55 52 66
REMARK Flexibility Score: inf
ROOT
ATOM      1  C   UNL A   1      38.330  22.117  25.987  1.00  0.00     0.188 C 
ENDROOT
BRANCH   1   2
ATOM      2  C   UNL A   1      37.302  22.764  25.034  1.00  0.00     0.188 C 
BRANCH   2   3
ATOM      3  O   UNL A   1      35.970  22.713  25.516  1.00  0.00    -0.376 OA
BRANCH   3   4
ATOM      4  C   UNL A   1      35.442  21.480  25.967  1.00  0.00     0.202 C 
BRANCH   4   5
ATOM      5  C   UNL A   1      34.209  21.484  26.884  1.00  0.00     0.261 C 
BRANCH   5   6
ATOM      6  O   UNL A   1      33.097  20.706  26.436  1.00  0.00    -0.460 OA
BRANCH   6   7
ATOM      7  C   UNL A   1      32.852  20.716  25.109  1.00  0.00     0.338 C 
ATOM      8  O   UNL A   1      33.106  19.825  24.316  1.00  0.00    -0.246 OA
BRANCH   7   9
ATOM      9  C   UNL A   1      32.033  21.910  24.795  1.00  0.00     0.060 A 
ATOM     10  C   UNL A   1      30.661  24.248  24.143  1.00  0.00    -0.011 A 
ATOM     11  C   UNL A   1      31.259  23.483  23.132  1.00  0.00     0.008 A 
ATOM     12  C   UNL A   1      30.610  23.746  25.453  1.00  0.00     0.008 A 
ATOM     13  C   UNL A   1      31.962  22.328  23.461  1.00  0.00     0.016 A 
ATOM     14  C   UNL A   1      31.309  22.586  25.784  1.00  0.00     0.016 A 
BRANCH  10  15
ATOM     15  C   UNL A   1      30.242  25.678  23.861  1.00  0.00     0.265 C 
BRANCH  15  16
ATOM     16  O   UNL A   1      31.336  26.510  23.435  1.00  0.00    -0.488 OA
BRANCH  16  17
ATOM     17  C   UNL A   1      31.703  27.618  24.159  1.00  0.00     0.130 A 
ATOM     18  C   UNL A   1      32.843  27.516  24.981  1.00  0.00     0.064 A 
ATOM     19  C   UNL A   1      33.224  28.565  25.873  1.00  0.00    -0.004 A 
ATOM     20  C   UNL A   1      30.982  28.810  24.180  1.00  0.00     0.048 A 
ATOM     21  C   UNL A   1      32.405  29.718  25.929  1.00  0.00    -0.017 A 
ATOM     22  C   UNL A   1      34.376  28.556  26.703  1.00  0.00     0.009 A 
ATOM     23  C   UNL A   1      31.301  29.827  25.080  1.00  0.00     0.012 A 
ATOM     24  C   UNL A   1      32.704  30.768  26.812  1.00  0.00     0.009 A 
ATOM     25  C   UNL A   1      34.675  29.618  27.562  1.00  0.00     0.001 A 
ATOM     26  C   UNL A   1      33.833  30.720  27.625  1.00  0.00     0.001 A 
BRANCH  18  27
ATOM     27  C   UNL A   1      33.652  26.274  24.945  1.00  0.00     0.264 C 
ATOM     28  O   UNL A   1      33.665  25.449  25.849  1.00  0.00    -0.298 OA
ENDBRANCH  18  27
ENDBRANCH  16  17
ENDBRANCH  15  16
ENDBRANCH  10  15
ENDBRANCH   7   9
ENDBRANCH   6   7
ENDBRANCH   5   6
ENDBRANCH   4   5
ENDBRANCH   3   4
ENDBRANCH   2   3
ENDBRANCH   1   2
BRANCH   1  29
ATOM     29  O   UNL A   1      39.590  22.754  26.152  1.00  0.00    -0.377 OA
BRANCH  29  30
ATOM     30  C   UNL A   1      40.770  21.963  26.278  1.00  0.00     0.188 C 
BRANCH  30  31
ATOM     31  C   UNL A   1      41.327  21.519  27.654  1.00  0.00     0.188 C 
BRANCH  31  32
ATOM     32  O   UNL A   1      42.344  20.537  27.597  1.00  0.00    -0.376 OA
BRANCH  32  33
ATOM     33  C   UNL A   1      41.984  19.224  27.216  1.00  0.00     0.202 C 
BRANCH  33  34
ATOM     34  C   UNL A   1      42.755  18.601  26.044  1.00  0.00     0.261 C 
BRANCH  34  35
ATOM     35  O   UNL A   1      43.000  19.460  24.920  1.00  0.00    -0.460 OA
BRANCH  35  36
ATOM     36  C   UNL A   1      44.280  19.615  24.526  1.00  0.00     0.338 C 
ATOM     37  O   UNL A   1      44.960  18.828  23.888  1.00  0.00    -0.246 OA
BRANCH  36  38
ATOM     38  C   UNL A   1      44.679  21.001  24.844  1.00  0.00     0.060 A 
ATOM     39  C   UNL A   1      45.311  21.269  26.066  1.00  0.00     0.016 A 
ATOM     40  C   UNL A   1      44.438  22.029  23.931  1.00  0.00     0.016 A 
ATOM     41  C   UNL A   1      45.670  22.577  26.393  1.00  0.00     0.010 A 
ATOM     42  C   UNL A   1      44.777  23.341  24.269  1.00  0.00     0.010 A 
ATOM     43  C   UNL A   1      45.360  23.626  25.517  1.00  0.00    -0.014 A 
BRANCH  43  44
ATOM     44  C   UNL A   1      45.440  25.028  25.990  1.00  0.00     0.031 A 
ATOM     45  C   UNL A   1      46.772  25.723  25.923  1.00  0.00     0.074 A 
ATOM     46  C   UNL A   1      44.359  25.681  26.450  1.00  0.00     0.049 A 
ATOM     47  N   UNL A   1      47.112  26.920  26.325  1.00  0.00    -0.248 NA
ATOM     48  C   UNL A   1      47.875  24.954  25.322  1.00  0.00     0.031 C 
ATOM     49  C   UNL A   1      43.007  25.134  26.523  1.00  0.00     0.029 A 
ATOM     50  N   UNL A   1      44.237  26.953  26.954  1.00  0.00    -0.354 N 
ATOM     51  C   UNL A   1      48.464  27.043  26.035  1.00  0.00     0.074 A 
ATOM     52  C   UNL A   1      48.892  25.790  25.456  1.00  0.00     0.031 C 
ATOM     53  C   UNL A   1      42.191  26.062  27.054  1.00  0.00     0.029 A 
ATOM     54  C   UNL A   1      42.970  27.252  27.392  1.00  0.00     0.049 A 
ATOM     55  H   UNL A   1      44.986  27.590  26.997  1.00  0.00     0.167 HD
ATOM     56  C   UNL A   1      49.275  28.111  26.225  1.00  0.00     0.037 A 
ATOM     57  C   UNL A   1      42.506  28.353  28.015  1.00  0.00     0.037 A 
ATOM     58  C   UNL A   1      48.845  29.356  26.804  1.00  0.00     0.049 A 
ATOM     59  C   UNL A   1      43.448  29.500  28.291  1.00  0.00     0.074 A 
ATOM     60  C   UNL A   1      49.585  30.504  27.027  1.00  0.00     0.029 A 
ATOM     61  N   UNL A   1      47.562  29.611  27.265  1.00  0.00    -0.354 N 
ATOM     62  N   UNL A   1      44.719  29.622  27.991  1.00  0.00    -0.248 NA
ATOM     63  C   UNL A   1      42.886  30.666  28.989  1.00  0.00     0.031 C 
ATOM     64  C   UNL A   1      48.766  31.430  27.681  1.00  0.00     0.029 A 
ATOM     65  C   UNL A   1      47.496  30.888  27.800  1.00  0.00     0.049 A 
ATOM     66  H   UNL A   1      46.809  28.978  27.219  1.00  0.00     0.167 HD
ATOM     67  C   UNL A   1      45.098  30.886  28.429  1.00  0.00     0.074 A 
ATOM     68  C   UNL A   1      43.919  31.497  29.003  1.00  0.00     0.031 C 
ATOM     69  C   UNL A   1      46.312  31.488  28.358  1.00  0.00     0.037 A 
BRANCH  56  70
ATOM     70  C   UNL A   1      50.717  27.965  25.832  1.00  0.00     0.064 A 
ATOM     71  C   UNL A   1      51.717  27.677  26.775  1.00  0.00     0.173 A 
ATOM     72  C   UNL A   1      51.102  28.094  24.489  1.00  0.00     0.173 A 
ATOM     73  F   UNL A   1      51.406  27.560  28.075  1.00  0.00    -0.203 F 
ATOM     74  C   UNL A   1      53.049  27.553  26.392  1.00  0.00     0.198 A 
ATOM     75  C   UNL A   1      52.430  27.934  24.104  1.00  0.00     0.198 A 
ATOM     76  F   UNL A   1      50.188  28.367  23.546  1.00  0.00    -0.203 F 
ATOM     77  F   UNL A   1      53.994  27.332  27.317  1.00  0.00    -0.200 F 
ATOM     78  C   UNL A   1      53.404  27.673  25.056  1.00  0.00     0.200 A 
ATOM     79  F   UNL A   1      52.768  28.035  22.812  1.00  0.00    -0.200 F 
ATOM     80  F   UNL A   1      54.686  27.544  24.687  1.00  0.00    -0.200 F 
ENDBRANCH  56  70
BRANCH  57  81
ATOM     81  C   UNL A   1      41.080  28.427  28.439  1.00  0.00     0.064 A 
ATOM     82  C   UNL A   1      40.097  28.950  27.588  1.00  0.00     0.173 A 
ATOM     83  C   UNL A   1      40.679  28.009  29.716  1.00  0.00     0.173 A 
ATOM     84  F   UNL A   1      40.434  29.390  26.366  1.00  0.00    -0.203 F 
ATOM     85  C   UNL A   1      38.773  29.073  28.005  1.00  0.00     0.198 A 
ATOM     86  C   UNL A   1      39.349  28.100  30.121  1.00  0.00     0.198 A 
ATOM     87  F   UNL A   1      41.580  27.504  30.573  1.00  0.00    -0.203 F 
ATOM     88  F   UNL A   1      37.865  29.628  27.191  1.00  0.00    -0.200 F 
ATOM     89  C   UNL A   1      38.399  28.642  29.269  1.00  0.00     0.200 A 
ATOM     90  F   UNL A   1      38.989  27.671  31.338  1.00  0.00    -0.200 F 
ATOM     91  F   UNL A   1      37.126  28.759  29.669  1.00  0.00    -0.200 F 
ENDBRANCH  57  81
BRANCH  69  92
ATOM     92  C   UNL A   1      46.418  32.899  28.867  1.00  0.00     0.064 A 
ATOM     93  C   UNL A   1      46.796  33.187  30.187  1.00  0.00     0.173 A 
ATOM     94  C   UNL A   1      46.180  33.982  28.004  1.00  0.00     0.173 A 
ATOM     95  F   UNL A   1      47.026  32.192  31.056  1.00  0.00    -0.203 F 
ATOM     96  C   UNL A   1      46.899  34.504  30.632  1.00  0.00     0.198 A 
ATOM     97  C   UNL A   1      46.320  35.296  28.443  1.00  0.00     0.198 A 
ATOM     98  F   UNL A   1      45.825  33.765  26.728  1.00  0.00    -0.203 F 
ATOM     99  F   UNL A   1      47.206  34.754  31.913  1.00  0.00    -0.200 F 
ATOM    100  C   UNL A   1      46.669  35.556  29.758  1.00  0.00     0.200 A 
ATOM    101  F   UNL A   1      46.116  36.310  27.590  1.00  0.00    -0.200 F 
ATOM    102  F   UNL A   1      46.777  36.821  30.186  1.00  0.00    -0.200 F 
ENDBRANCH  69  92
ENDBRANCH  43  44
ENDBRANCH  36  38
ENDBRANCH  35  36
ENDBRANCH  34  35
ENDBRANCH  33  34
ENDBRANCH  32  33
ENDBRANCH  31  32
ENDBRANCH  30  31
ENDBRANCH  29  30
ENDBRANCH   1  29
TORSDOF 24
ENDMDL
MODEL 3
REMARK VINA RESULT:     -10.8      4.832      7.101
REMARK SMILES O=Cc1c(OCc2ccc(C(=O)OCCOCCOCCOCCOC(=O)c3ccc(-c4c5nc(c(-c6c(F)c(F)c(F)c(F)c6F)c6ccc([nH]6)c(-c6c(F)c(F)c(F)c(F)c6F)c6nc(c(-c7c(F)c(F)c(F)c(F)c7F)c7ccc4[nH]7)C=C6)C=C5)cc3)cc2)ccc2ccccc12
REMARK SMILES IDX 18 1 17 2 16 3 15 4 14 5 13 6 11 7 12 8 10 9 7 10 8 11 92 12
REMARK SMILES IDX 9 13 91 14 6 15 5 16 4 17 3 18 100 19 93 20 95 21 99 22
REMARK SMILES IDX 94 23 96 24 98 25 97 26 2 27 1 28 19 29 20 30 21 31 22 32
REMARK SMILES IDX 23 33 24 34 25 35 26 36 27 37 28 38 29 39 90 40 30 41 89 42
REMARK SMILES IDX 31 43 32 44 33 45 83 46 34 47 88 48 82 49 84 50 35 51 87 52
REMARK SMILES IDX 81 53 80 54 36 56 68 57 48 58 67 59 49 60 52 61 66 62 85 63
REMARK SMILES IDX 50 64 51 65 65 67 86 68 53 69 37 70 38 71 46 72 39 73 40 74
REMARK SMILES IDX 44 75 47 76 41 77 42 78 45 79 43 80 69 81 70 82 78 83 71 84
REMARK SMILES IDX 72 85 76 86 79 87 73 88 74 89 77 90 75 91 54 92 55 93 63 94
REMARK SMILES IDX 56 95 57 96 61 97 64 98 58 99 59 100 62 101 60 102
REMARK H PARENT 84 55 52 66
REMARK Flexibility Score: inf
ROOT
ATOM      1  C   UNL A   1      37.990  21.387  25.271  1.00  0.00     0.188 C 
ENDROOT
BRANCH   1   2
ATOM      2  C   UNL A   1      36.510  21.695  25.586  1.00  0.00     0.188 C 
BRANCH   2   3
ATOM      3  O   UNL A   1      35.605  21.190  24.620  1.00  0.00    -0.376 OA
BRANCH   3   4
ATOM      4  C   UNL A   1      34.664  20.203  25.000  1.00  0.00     0.202 C 
BRANCH   4   5
ATOM      5  C   UNL A   1      33.406  20.627  25.774  1.00  0.00     0.261 C 
BRANCH   5   6
ATOM      6  O   UNL A   1      32.249  20.898  24.980  1.00  0.00    -0.460 OA
BRANCH   6   7
ATOM      7  C   UNL A   1      32.358  21.898  24.080  1.00  0.00     0.338 C 
ATOM      8  O   UNL A   1      32.256  21.800  22.869  1.00  0.00    -0.246 OA
BRANCH   7   9
ATOM      9  C   UNL A   1      32.423  23.182  24.815  1.00  0.00     0.060 A 
ATOM     10  C   UNL A   1      32.396  25.667  26.080  1.00  0.00    -0.011 A 
ATOM     11  C   UNL A   1      31.285  24.819  26.183  1.00  0.00     0.008 A 
ATOM     12  C   UNL A   1      33.578  25.193  25.487  1.00  0.00     0.008 A 
ATOM     13  C   UNL A   1      31.291  23.588  25.532  1.00  0.00     0.016 A 
ATOM     14  C   UNL A   1      33.587  23.959  24.840  1.00  0.00     0.016 A 
BRANCH  10  15
ATOM     15  C   UNL A   1      32.262  27.135  26.437  1.00  0.00     0.265 C 
BRANCH  15  16
ATOM     16  O   UNL A   1      32.558  28.011  25.334  1.00  0.00    -0.488 OA
BRANCH  16  17
ATOM     17  C   UNL A   1      31.572  28.411  24.467  1.00  0.00     0.130 A 
ATOM     18  C   UNL A   1      31.028  29.699  24.643  1.00  0.00     0.064 A 
ATOM     19  C   UNL A   1      29.907  30.153  23.881  1.00  0.00    -0.004 A 
ATOM     20  C   UNL A   1      31.032  27.601  23.470  1.00  0.00     0.048 A 
ATOM     21  C   UNL A   1      29.334  29.258  22.947  1.00  0.00    -0.017 A 
ATOM     22  C   UNL A   1      29.326  31.446  23.971  1.00  0.00     0.009 A 
ATOM     23  C   UNL A   1      29.906  27.999  22.750  1.00  0.00     0.012 A 
ATOM     24  C   UNL A   1      28.208  29.631  22.194  1.00  0.00     0.009 A 
ATOM     25  C   UNL A   1      28.219  31.813  23.199  1.00  0.00     0.001 A 
ATOM     26  C   UNL A   1      27.653  30.902  22.319  1.00  0.00     0.001 A 
BRANCH  18  27
ATOM     27  C   UNL A   1      31.610  30.597  25.668  1.00  0.00     0.264 C 
ATOM     28  O   UNL A   1      31.125  30.760  26.780  1.00  0.00    -0.298 OA
ENDBRANCH  18  27
ENDBRANCH  16  17
ENDBRANCH  15  16
ENDBRANCH  10  15
ENDBRANCH   7   9
ENDBRANCH   6   7
ENDBRANCH   5   6
ENDBRANCH   4   5
ENDBRANCH   3   4
ENDBRANCH   2   3
ENDBRANCH   1   2
BRANCH   1  29
ATOM     29  O   UNL A   1      38.986  21.902  26.143  1.00  0.00    -0.377 OA
BRANCH  29  30
ATOM     30  C   UNL A   1      40.291  21.327  26.142  1.00  0.00     0.188 C 
BRANCH  30  31
ATOM     31  C   UNL A   1      40.678  20.151  27.074  1.00  0.00     0.188 C 
BRANCH  31  32
ATOM     32  O   UNL A   1      42.064  20.030  27.337  1.00  0.00    -0.376 OA
BRANCH  32  33
ATOM     33  C   UNL A   1      42.658  18.753  27.213  1.00  0.00     0.202 C 
BRANCH  33  34
ATOM     34  C   UNL A   1      43.125  18.334  25.812  1.00  0.00     0.261 C 
BRANCH  34  35
ATOM     35  O   UNL A   1      43.252  19.389  24.846  1.00  0.00    -0.460 OA
BRANCH  35  36
ATOM     36  C   UNL A   1      44.476  19.606  24.323  1.00  0.00     0.338 C 
ATOM     37  O   UNL A   1      45.104  18.872  23.578  1.00  0.00    -0.246 OA
BRANCH  36  38
ATOM     38  C   UNL A   1      44.868  20.988  24.664  1.00  0.00     0.060 A 
ATOM     39  C   UNL A   1      45.417  21.254  25.926  1.00  0.00     0.016 A 
ATOM     40  C   UNL A   1      44.702  22.015  23.733  1.00  0.00     0.016 A 
ATOM     41  C   UNL A   1      45.767  22.559  26.273  1.00  0.00     0.010 A 
ATOM     42  C   UNL A   1      45.032  23.325  24.089  1.00  0.00     0.010 A 
ATOM     43  C   UNL A   1      45.530  23.608  25.374  1.00  0.00    -0.014 A 
BRANCH  43  44
ATOM     44  C   UNL A   1      45.593  25.011  25.848  1.00  0.00     0.031 A 
ATOM     45  C   UNL A   1      46.919  25.719  25.791  1.00  0.00     0.074 A 
ATOM     46  C   UNL A   1      44.502  25.655  26.298  1.00  0.00     0.049 A 
ATOM     47  N   UNL A   1      47.244  26.919  26.196  1.00  0.00    -0.248 NA
ATOM     48  C   UNL A   1      48.034  24.960  25.200  1.00  0.00     0.031 C 
ATOM     49  C   UNL A   1      43.155  25.095  26.359  1.00  0.00     0.029 A 
ATOM     50  N   UNL A   1      44.364  26.926  26.799  1.00  0.00    -0.354 N 
ATOM     51  C   UNL A   1      48.597  27.055  25.917  1.00  0.00     0.074 A 
ATOM     52  C   UNL A   1      49.043  25.805  25.342  1.00  0.00     0.031 C 
ATOM     53  C   UNL A   1      42.325  26.015  26.883  1.00  0.00     0.029 A 
ATOM     54  C   UNL A   1      43.090  27.213  27.226  1.00  0.00     0.049 A 
ATOM     55  H   UNL A   1      45.107  27.569  26.849  1.00  0.00     0.167 HD
ATOM     56  C   UNL A   1      49.396  28.130  26.113  1.00  0.00     0.037 A 
ATOM     57  C   UNL A   1      42.610  28.310  27.844  1.00  0.00     0.037 A 
ATOM     58  C   UNL A   1      48.950  29.372  26.688  1.00  0.00     0.049 A 
ATOM     59  C   UNL A   1      43.539  29.466  28.128  1.00  0.00     0.074 A 
ATOM     60  C   UNL A   1      49.678  30.527  26.917  1.00  0.00     0.029 A 
ATOM     61  N   UNL A   1      47.661  29.614  27.138  1.00  0.00    -0.354 N 
ATOM     62  N   UNL A   1      44.812  29.599  27.839  1.00  0.00    -0.248 NA
ATOM     63  C   UNL A   1      42.961  30.626  28.820  1.00  0.00     0.031 C 
ATOM     64  C   UNL A   1      48.844  31.445  27.563  1.00  0.00     0.029 A 
ATOM     65  C   UNL A   1      47.579  30.891  27.671  1.00  0.00     0.049 A 
ATOM     66  H   UNL A   1      46.914  28.975  27.086  1.00  0.00     0.167 HD
ATOM     67  C   UNL A   1      45.175  30.867  28.279  1.00  0.00     0.074 A 
ATOM     68  C   UNL A   1      43.985  31.468  28.843  1.00  0.00     0.031 C 
ATOM     69  C   UNL A   1      46.383  31.480  28.219  1.00  0.00     0.037 A 
BRANCH  56  70
ATOM     70  C   UNL A   1      50.844  27.998  25.734  1.00  0.00     0.064 A 
ATOM     71  C   UNL A   1      51.278  28.135  24.406  1.00  0.00     0.173 A 
ATOM     72  C   UNL A   1      51.814  27.752  26.717  1.00  0.00     0.173 A 
ATOM     73  F   UNL A   1      50.390  28.354  23.424  1.00  0.00    -0.203 F 
ATOM     74  C   UNL A   1      52.624  28.001  24.074  1.00  0.00     0.198 A 
ATOM     75  C   UNL A   1      53.162  27.655  26.388  1.00  0.00     0.198 A 
ATOM     76  F   UNL A   1      51.454  27.614  28.003  1.00  0.00    -0.203 F 
ATOM     77  F   UNL A   1      53.008  28.081  22.793  1.00  0.00    -0.200 F 
ATOM     78  C   UNL A   1      53.565  27.770  25.066  1.00  0.00     0.200 A 
ATOM     79  F   UNL A   1      54.072  27.446  27.349  1.00  0.00    -0.200 F 
ATOM     80  F   UNL A   1      54.862  27.650  24.746  1.00  0.00    -0.200 F 
ENDBRANCH  56  70
BRANCH  57  81
ATOM     81  C   UNL A   1      41.181  28.371  28.256  1.00  0.00     0.064 A 
ATOM     82  C   UNL A   1      40.201  28.889  27.398  1.00  0.00     0.173 A 
ATOM     83  C   UNL A   1      40.771  27.944  29.528  1.00  0.00     0.173 A 
ATOM     84  F   UNL A   1      40.545  29.336  26.181  1.00  0.00    -0.203 F 
ATOM     85  C   UNL A   1      38.872  28.999  27.804  1.00  0.00     0.198 A 
ATOM     86  C   UNL A   1      39.437  28.024  29.921  1.00  0.00     0.198 A 
ATOM     87  F   UNL A   1      41.669  27.444  30.391  1.00  0.00    -0.203 F 
ATOM     88  F   UNL A   1      37.967  29.550  26.984  1.00  0.00    -0.200 F 
ATOM     89  C   UNL A   1      38.490  28.561  29.062  1.00  0.00     0.200 A 
ATOM     90  F   UNL A   1      39.070  27.587  31.134  1.00  0.00    -0.200 F 
ATOM     91  F   UNL A   1      37.212  28.666  29.452  1.00  0.00    -0.200 F 
ENDBRANCH  57  81
BRANCH  69  92
ATOM     92  C   UNL A   1      46.472  32.893  28.728  1.00  0.00     0.064 A 
ATOM     93  C   UNL A   1      46.368  34.000  27.874  1.00  0.00     0.173 A 
ATOM     94  C   UNL A   1      46.621  33.140  30.103  1.00  0.00     0.173 A 
ATOM     95  F   UNL A   1      46.235  33.822  26.551  1.00  0.00    -0.203 F 
ATOM     96  C   UNL A   1      46.443  35.300  28.371  1.00  0.00     0.198 A 
ATOM     97  C   UNL A   1      46.657  34.440  30.601  1.00  0.00     0.198 A 
ATOM     98  F   UNL A   1      46.715  32.118  30.968  1.00  0.00    -0.203 F 
ATOM     99  F   UNL A   1      46.397  36.341  27.528  1.00  0.00    -0.200 F 
ATOM    100  C   UNL A   1      46.578  35.518  29.734  1.00  0.00     0.200 A 
ATOM    101  F   UNL A   1      46.769  34.647  31.920  1.00  0.00    -0.200 F 
ATOM    102  F   UNL A   1      46.640  36.769  30.211  1.00  0.00    -0.200 F 
ENDBRANCH  69  92
ENDBRANCH  43  44
ENDBRANCH  36  38
ENDBRANCH  35  36
ENDBRANCH  34  35
ENDBRANCH  33  34
ENDBRANCH  32  33
ENDBRANCH  31  32
ENDBRANCH  30  31
ENDBRANCH  29  30
ENDBRANCH   1  29
TORSDOF 24
ENDMDL
