MODEL 1
REMARK VINA RESULT:     -10.3      0.000      0.000
REMARK SMILES O=C(OCCOCCOCCOCCOC(=O)c1ccc2c(c1)[C@@H]1C=CC[C@@H]1[C@H](c1ccncc1)N2)c1ccc(-c2c3nc(c(-c4c(F)c(F)c(F)c(F)c4F)c4ccc([nH]4)c(-c4c(F)c(F)c(F)c(F)c4F)c4nc(c(-c5c(F)c(F)c(F)c(F)c5F)c5ccc2[nH]5)C=C4)C=C3)cc1
REMARK SMILES IDX 8 1 7 2 6 3 5 4 4 5 3 6 2 7 1 8 37 9 38 10 99 11 39 12 98 13
REMARK SMILES IDX 40 14 41 15 42 16 92 17 43 18 97 19 91 20 93 21 44 22 96 23
REMARK SMILES IDX 90 24 89 25 45 27 77 28 57 29 76 30 58 31 61 32 75 33 94 34
REMARK SMILES IDX 59 35 60 36 74 38 95 39 62 40 46 41 47 42 55 43 48 44 49 45
REMARK SMILES IDX 53 46 56 47 50 48 51 49 54 50 52 51 78 52 79 53 87 54 80 55
REMARK SMILES IDX 81 56 85 57 88 58 82 59 83 60 86 61 84 62 63 63 64 64 72 65
REMARK SMILES IDX 65 66 66 67 70 68 73 69 67 70 68 71 71 72 69 73 9 74 10 75
REMARK SMILES IDX 11 76 12 77 13 78 14 79 15 80 16 81 17 82 18 83 19 84 23 85
REMARK SMILES IDX 20 86 22 87 21 88 24 89 36 90 25 91 28 92 29 93 26 95 27 96
REMARK SMILES IDX 30 97 31 98 35 99 32 100 34 101 33 102
REMARK H PARENT 93 26 61 37 36 94
REMARK Flexibility Score: inf
ROOT
ATOM      1  C   UNL A   1      34.968  31.943  27.959  1.00  0.00     0.188 C 
ENDROOT
BRANCH   1   2
ATOM      2  C   UNL A   1      35.455  32.681  29.204  1.00  0.00     0.188 C 
BRANCH   2   3
ATOM      3  O   UNL A   1      35.385  31.825  30.348  1.00  0.00    -0.376 OA
BRANCH   3   4
ATOM      4  C   UNL A   1      34.810  32.419  31.510  1.00  0.00     0.202 C 
BRANCH   4   5
ATOM      5  C   UNL A   1      35.409  33.781  31.865  1.00  0.00     0.261 C 
BRANCH   5   6
ATOM      6  O   UNL A   1      36.343  33.689  32.950  1.00  0.00    -0.460 OA
BRANCH   6   7
ATOM      7  C   UNL A   1      37.211  32.683  33.223  1.00  0.00     0.338 C 
ATOM      8  O   UNL A   1      36.987  31.979  34.208  1.00  0.00    -0.246 OA
BRANCH   7   9
ATOM      9  C   UNL A   1      38.410  32.340  32.388  1.00  0.00     0.060 A 
ATOM     10  C   UNL A   1      38.634  32.734  31.067  1.00  0.00     0.016 A 
ATOM     11  C   UNL A   1      39.417  31.588  33.020  1.00  0.00     0.016 A 
ATOM     12  C   UNL A   1      39.764  32.331  30.365  1.00  0.00     0.010 A 
ATOM     13  C   UNL A   1      40.571  31.197  32.334  1.00  0.00     0.010 A 
ATOM     14  C   UNL A   1      40.723  31.537  30.988  1.00  0.00    -0.014 A 
BRANCH  14  15
ATOM     15  C   UNL A   1      41.760  30.921  30.143  1.00  0.00     0.031 A 
ATOM     16  C   UNL A   1      43.044  31.672  29.961  1.00  0.00     0.074 A 
ATOM     17  C   UNL A   1      41.606  29.667  29.685  1.00  0.00     0.049 A 
ATOM     18  N   UNL A   1      44.094  31.369  29.247  1.00  0.00    -0.248 NA
ATOM     19  C   UNL A   1      43.166  32.938  30.706  1.00  0.00     0.031 C 
ATOM     20  C   UNL A   1      40.444  28.815  29.940  1.00  0.00     0.029 A 
ATOM     21  N   UNL A   1      42.441  28.883  28.935  1.00  0.00    -0.354 N 
ATOM     22  C   UNL A   1      44.986  32.416  29.435  1.00  0.00     0.074 A 
ATOM     23  C   UNL A   1      44.359  33.364  30.326  1.00  0.00     0.031 C 
ATOM     24  C   UNL A   1      40.647  27.618  29.366  1.00  0.00     0.029 A 
ATOM     25  C   UNL A   1      41.922  27.644  28.654  1.00  0.00     0.049 A 
ATOM     26  H   UNL A   1      43.328  29.180  28.628  1.00  0.00     0.167 HD
ATOM     27  C   UNL A   1      46.218  32.567  28.899  1.00  0.00     0.037 A 
ATOM     28  C   UNL A   1      42.417  26.663  27.877  1.00  0.00     0.037 A 
ATOM     29  C   UNL A   1      46.811  31.605  28.012  1.00  0.00     0.049 A 
ATOM     30  C   UNL A   1      43.745  26.901  27.204  1.00  0.00     0.074 A 
ATOM     31  C   UNL A   1      48.016  31.669  27.340  1.00  0.00     0.029 A 
ATOM     32  N   UNL A   1      46.223  30.392  27.676  1.00  0.00    -0.354 N 
ATOM     33  N   UNL A   1      44.558  27.926  27.317  1.00  0.00    -0.248 NA
ATOM     34  C   UNL A   1      44.218  25.859  26.284  1.00  0.00     0.031 C 
ATOM     35  C   UNL A   1      48.137  30.510  26.563  1.00  0.00     0.029 A 
ATOM     36  C   UNL A   1      47.031  29.703  26.790  1.00  0.00     0.049 A 
ATOM     37  H   UNL A   1      45.358  30.069  28.019  1.00  0.00     0.167 HD
ATOM     38  C   UNL A   1      45.641  27.651  26.494  1.00  0.00     0.074 A 
ATOM     39  C   UNL A   1      45.391  26.349  25.906  1.00  0.00     0.031 C 
ATOM     40  C   UNL A   1      46.740  28.404  26.237  1.00  0.00     0.037 A 
BRANCH  27  41
ATOM     41  C   UNL A   1      46.937  33.848  29.201  1.00  0.00     0.064 A 
ATOM     42  C   UNL A   1      47.936  33.928  30.184  1.00  0.00     0.173 A 
ATOM     43  C   UNL A   1      46.576  35.029  28.536  1.00  0.00     0.173 A 
ATOM     44  F   UNL A   1      48.294  32.834  30.873  1.00  0.00    -0.203 F 
ATOM     45  C   UNL A   1      48.519  35.150  30.514  1.00  0.00     0.198 A 
ATOM     46  C   UNL A   1      47.180  36.244  28.850  1.00  0.00     0.198 A 
ATOM     47  F   UNL A   1      45.621  35.010  27.595  1.00  0.00    -0.203 F 
ATOM     48  F   UNL A   1      49.420  35.215  31.504  1.00  0.00    -0.200 F 
ATOM     49  C   UNL A   1      48.142  36.306  29.847  1.00  0.00     0.200 A 
ATOM     50  F   UNL A   1      46.815  37.360  28.203  1.00  0.00    -0.200 F 
ATOM     51  F   UNL A   1      48.693  37.482  30.176  1.00  0.00    -0.200 F 
ENDBRANCH  27  41
BRANCH  28  52
ATOM     52  C   UNL A   1      41.643  25.413  27.655  1.00  0.00     0.064 A 
ATOM     53  C   UNL A   1      41.984  24.218  28.303  1.00  0.00     0.173 A 
ATOM     54  C   UNL A   1      40.544  25.385  26.781  1.00  0.00     0.173 A 
ATOM     55  F   UNL A   1      43.039  24.180  29.129  1.00  0.00    -0.203 F 
ATOM     56  C   UNL A   1      41.264  23.044  28.076  1.00  0.00     0.198 A 
ATOM     57  C   UNL A   1      39.807  24.219  26.579  1.00  0.00     0.198 A 
ATOM     58  F   UNL A   1      40.176  26.497  26.127  1.00  0.00    -0.203 F 
ATOM     59  F   UNL A   1      41.640  21.905  28.676  1.00  0.00    -0.200 F 
ATOM     60  C   UNL A   1      40.173  23.047  27.221  1.00  0.00     0.200 A 
ATOM     61  F   UNL A   1      38.746  24.232  25.760  1.00  0.00    -0.200 F 
ATOM     62  F   UNL A   1      39.480  21.920  27.008  1.00  0.00    -0.200 F 
ENDBRANCH  28  52
BRANCH  40  63
ATOM     63  C   UNL A   1      47.755  27.821  25.301  1.00  0.00     0.064 A 
ATOM     64  C   UNL A   1      47.617  27.934  23.911  1.00  0.00     0.173 A 
ATOM     65  C   UNL A   1      48.904  27.195  25.806  1.00  0.00     0.173 A 
ATOM     66  F   UNL A   1      46.528  28.512  23.384  1.00  0.00    -0.203 F 
ATOM     67  C   UNL A   1      48.589  27.421  23.056  1.00  0.00     0.198 A 
ATOM     68  C   UNL A   1      49.886  26.709  24.950  1.00  0.00     0.198 A 
ATOM     69  F   UNL A   1      49.080  27.072  27.131  1.00  0.00    -0.203 F 
ATOM     70  F   UNL A   1      48.420  27.502  21.730  1.00  0.00    -0.200 F 
ATOM     71  C   UNL A   1      49.725  26.818  23.576  1.00  0.00     0.200 A 
ATOM     72  F   UNL A   1      50.989  26.141  25.453  1.00  0.00    -0.200 F 
ATOM     73  F   UNL A   1      50.664  26.334  22.752  1.00  0.00    -0.200 F 
ENDBRANCH  40  63
ENDBRANCH  14  15
ENDBRANCH   7   9
ENDBRANCH   6   7
ENDBRANCH   5   6
ENDBRANCH   4   5
ENDBRANCH   3   4
ENDBRANCH   2   3
ENDBRANCH   1   2
BRANCH   1  74
ATOM     74  O   UNL A   1      35.172  30.532  27.982  1.00  0.00    -0.377 OA
BRANCH  74  75
ATOM     75  C   UNL A   1      34.269  29.736  27.221  1.00  0.00     0.188 C 
BRANCH  75  76
ATOM     76  C   UNL A   1      32.793  30.180  27.129  1.00  0.00     0.188 C 
BRANCH  76  77
ATOM     77  O   UNL A   1      31.948  29.321  26.374  1.00  0.00    -0.376 OA
BRANCH  77  78
ATOM     78  C   UNL A   1      31.397  29.890  25.190  1.00  0.00     0.202 C 
BRANCH  78  79
ATOM     79  C   UNL A   1      31.389  28.953  23.976  1.00  0.00     0.261 C 
BRANCH  79  80
ATOM     80  O   UNL A   1      31.759  27.592  24.250  1.00  0.00    -0.460 OA
BRANCH  80  81
ATOM     81  C   UNL A   1      32.987  27.165  23.874  1.00  0.00     0.338 C 
ATOM     82  O   UNL A   1      33.997  27.835  23.754  1.00  0.00    -0.246 OA
BRANCH  81  83
ATOM     83  C   UNL A   1      32.942  25.687  23.857  1.00  0.00     0.060 A 
ATOM     84  C   UNL A   1      32.383  25.040  22.751  1.00  0.00     0.018 A 
ATOM     85  C   UNL A   1      33.559  24.945  24.864  1.00  0.00     0.022 A 
ATOM     86  C   UNL A   1      32.471  23.650  22.644  1.00  0.00     0.027 A 
ATOM     87  C   UNL A   1      33.608  23.542  24.783  1.00  0.00    -0.017 A 
ATOM     88  C   UNL A   1      33.043  22.887  23.671  1.00  0.00     0.038 A 
ATOM     89  C   UNL A   1      34.209  22.757  25.926  1.00  0.00     0.049 C 
ATOM     90  N   UNL A   1      33.041  21.495  23.578  1.00  0.00    -0.378 N 
ATOM     91  C   UNL A   1      35.679  22.994  26.134  1.00  0.00    -0.023 C 
ATOM     92  C   UNL A   1      34.163  21.226  25.754  1.00  0.00     0.031 C 
ATOM     93  C   UNL A   1      33.016  20.777  24.846  1.00  0.00     0.114 C 
ATOM     94  H   UNL A   1      33.056  21.028  22.713  1.00  0.00     0.161 HD
ATOM     95  C   UNL A   1      36.419  21.924  25.819  1.00  0.00    -0.030 C 
ATOM     96  C   UNL A   1      35.573  20.804  25.308  1.00  0.00     0.034 C 
BRANCH  93  97
ATOM     97  C   UNL A   1      32.971  19.268  24.683  1.00  0.00    -0.022 A 
ATOM     98  C   UNL A   1      32.967  18.739  23.384  1.00  0.00     0.026 A 
ATOM     99  C   UNL A   1      32.897  18.369  25.751  1.00  0.00     0.026 A 
ATOM    100  C   UNL A   1      32.898  17.367  23.210  1.00  0.00     0.111 A 
ATOM    101  C   UNL A   1      32.844  17.008  25.476  1.00  0.00     0.111 A 
ATOM    102  N   UNL A   1      32.842  16.489  24.231  1.00  0.00    -0.265 NA
ENDBRANCH  93  97
ENDBRANCH  81  83
ENDBRANCH  80  81
ENDBRANCH  79  80
ENDBRANCH  78  79
ENDBRANCH  77  78
ENDBRANCH  76  77
ENDBRANCH  75  76
ENDBRANCH  74  75
ENDBRANCH   1  74
TORSDOF 21
ENDMDL
MODEL 2
REMARK VINA RESULT:     -10.0      6.718      9.460
REMARK SMILES O=C(OCCOCCOCCOCCOC(=O)c1ccc2c(c1)[C@@H]1C=CC[C@@H]1[C@H](c1ccncc1)N2)c1ccc(-c2c3nc(c(-c4c(F)c(F)c(F)c(F)c4F)c4ccc([nH]4)c(-c4c(F)c(F)c(F)c(F)c4F)c4nc(c(-c5c(F)c(F)c(F)c(F)c5F)c5ccc2[nH]5)C=C4)C=C3)cc1
REMARK SMILES IDX 8 1 7 2 6 3 5 4 4 5 3 6 2 7 1 8 37 9 38 10 99 11 39 12 98 13
REMARK SMILES IDX 40 14 41 15 42 16 92 17 43 18 97 19 91 20 93 21 44 22 96 23
REMARK SMILES IDX 90 24 89 25 45 27 77 28 57 29 76 30 58 31 61 32 75 33 94 34
REMARK SMILES IDX 59 35 60 36 74 38 95 39 62 40 46 41 47 42 55 43 48 44 49 45
REMARK SMILES IDX 53 46 56 47 50 48 51 49 54 50 52 51 78 52 79 53 87 54 80 55
REMARK SMILES IDX 81 56 85 57 88 58 82 59 83 60 86 61 84 62 63 63 64 64 72 65
REMARK SMILES IDX 65 66 66 67 70 68 73 69 67 70 68 71 71 72 69 73 9 74 10 75
REMARK SMILES IDX 11 76 12 77 13 78 14 79 15 80 16 81 17 82 18 83 19 84 23 85
REMARK SMILES IDX 20 86 22 87 21 88 24 89 36 90 25 91 28 92 29 93 26 95 27 96
REMARK SMILES IDX 30 97 31 98 35 99 32 100 34 101 33 102
REMARK H PARENT 93 26 61 37 36 94
REMARK Flexibility Score: inf
ROOT
ATOM      1  C   UNL A   1      34.934  31.890  27.951  1.00  0.00     0.188 C 
ENDROOT
BRANCH   1   2
ATOM      2  C   UNL A   1      35.180  33.076  28.882  1.00  0.00     0.188 C 
BRANCH   2   3
ATOM      3  O   UNL A   1      34.029  33.312  29.699  1.00  0.00    -0.376 OA
BRANCH   3   4
ATOM      4  C   UNL A   1      33.571  34.663  29.719  1.00  0.00     0.202 C 
BRANCH   4   5
ATOM      5  C   UNL A   1      33.668  35.325  31.094  1.00  0.00     0.261 C 
BRANCH   5   6
ATOM      6  O   UNL A   1      34.599  34.647  31.950  1.00  0.00    -0.460 OA
BRANCH   6   7
ATOM      7  C   UNL A   1      35.191  35.116  33.077  1.00  0.00     0.338 C 
ATOM      8  O   UNL A   1      34.739  36.144  33.582  1.00  0.00    -0.246 OA
BRANCH   7   9
ATOM      9  C   UNL A   1      36.340  34.451  33.777  1.00  0.00     0.060 A 
ATOM     10  C   UNL A   1      36.262  33.677  34.938  1.00  0.00     0.016 A 
ATOM     11  C   UNL A   1      37.604  34.589  33.174  1.00  0.00     0.016 A 
ATOM     12  C   UNL A   1      37.394  33.133  35.532  1.00  0.00     0.010 A 
ATOM     13  C   UNL A   1      38.748  34.025  33.747  1.00  0.00     0.010 A 
ATOM     14  C   UNL A   1      38.645  33.330  34.954  1.00  0.00    -0.014 A 
BRANCH  14  15
ATOM     15  C   UNL A   1      39.833  32.967  35.745  1.00  0.00     0.031 A 
ATOM     16  C   UNL A   1      40.313  33.951  36.769  1.00  0.00     0.074 A 
ATOM     17  C   UNL A   1      40.365  31.736  35.647  1.00  0.00     0.049 A 
ATOM     18  N   UNL A   1      41.344  33.890  37.566  1.00  0.00    -0.248 NA
ATOM     19  C   UNL A   1      39.499  35.170  36.928  1.00  0.00     0.031 C 
ATOM     20  C   UNL A   1      39.866  30.672  34.776  1.00  0.00     0.029 A 
ATOM     21  N   UNL A   1      41.421  31.167  36.306  1.00  0.00    -0.354 N 
ATOM     22  C   UNL A   1      41.319  35.069  38.298  1.00  0.00     0.074 A 
ATOM     23  C   UNL A   1      40.175  35.830  37.854  1.00  0.00     0.031 C 
ATOM     24  C   UNL A   1      40.609  29.570  34.966  1.00  0.00     0.029 A 
ATOM     25  C   UNL A   1      41.671  29.873  35.922  1.00  0.00     0.049 A 
ATOM     26  H   UNL A   1      41.949  31.639  36.989  1.00  0.00     0.167 HD
ATOM     27  C   UNL A   1      42.187  35.476  39.252  1.00  0.00     0.037 A 
ATOM     28  C   UNL A   1      42.671  29.049  36.285  1.00  0.00     0.037 A 
ATOM     29  C   UNL A   1      43.319  34.696  39.667  1.00  0.00     0.049 A 
ATOM     30  C   UNL A   1      43.687  29.567  37.271  1.00  0.00     0.074 A 
ATOM     31  C   UNL A   1      44.316  35.020  40.566  1.00  0.00     0.029 A 
ATOM     32  N   UNL A   1      43.596  33.418  39.198  1.00  0.00    -0.354 N 
ATOM     33  N   UNL A   1      43.711  30.715  37.908  1.00  0.00    -0.248 NA
ATOM     34  C   UNL A   1      44.822  28.688  37.577  1.00  0.00     0.031 C 
ATOM     35  C   UNL A   1      45.222  33.954  40.607  1.00  0.00     0.029 A 
ATOM     36  C   UNL A   1      44.762  32.945  39.773  1.00  0.00     0.049 A 
ATOM     37  H   UNL A   1      43.045  32.922  38.551  1.00  0.00     0.167 HD
ATOM     38  C   UNL A   1      44.853  30.694  38.696  1.00  0.00     0.074 A 
ATOM     39  C   UNL A   1      45.483  29.407  38.474  1.00  0.00     0.031 C 
ATOM     40  C   UNL A   1      45.346  31.651  39.523  1.00  0.00     0.037 A 
BRANCH  27  41
ATOM     41  C   UNL A   1      41.973  36.846  39.823  1.00  0.00     0.064 A 
ATOM     42  C   UNL A   1      41.061  37.087  40.862  1.00  0.00     0.173 A 
ATOM     43  C   UNL A   1      42.650  37.948  39.278  1.00  0.00     0.173 A 
ATOM     44  F   UNL A   1      40.362  36.074  41.395  1.00  0.00    -0.203 F 
ATOM     45  C   UNL A   1      40.809  38.383  41.307  1.00  0.00     0.198 A 
ATOM     46  C   UNL A   1      42.416  39.239  39.743  1.00  0.00     0.198 A 
ATOM     47  F   UNL A   1      43.526  37.775  38.276  1.00  0.00    -0.203 F 
ATOM     48  F   UNL A   1      39.883  38.597  42.252  1.00  0.00    -0.200 F 
ATOM     49  C   UNL A   1      41.487  39.457  40.750  1.00  0.00     0.200 A 
ATOM     50  F   UNL A   1      43.073  40.275  39.203  1.00  0.00    -0.200 F 
ATOM     51  F   UNL A   1      41.232  40.704  41.168  1.00  0.00    -0.200 F 
ENDBRANCH  27  41
BRANCH  28  52
ATOM     52  C   UNL A   1      42.788  27.694  35.684  1.00  0.00     0.064 A 
ATOM     53  C   UNL A   1      42.067  26.604  36.191  1.00  0.00     0.173 A 
ATOM     54  C   UNL A   1      43.633  27.457  34.587  1.00  0.00     0.173 A 
ATOM     55  F   UNL A   1      41.265  26.768  37.253  1.00  0.00    -0.203 F 
ATOM     56  C   UNL A   1      42.196  25.332  35.634  1.00  0.00     0.198 A 
ATOM     57  C   UNL A   1      43.737  26.191  34.012  1.00  0.00     0.198 A 
ATOM     58  F   UNL A   1      44.354  28.459  34.064  1.00  0.00    -0.203 F 
ATOM     59  F   UNL A   1      41.527  24.299  36.167  1.00  0.00    -0.200 F 
ATOM     60  C   UNL A   1      43.024  25.127  34.541  1.00  0.00     0.200 A 
ATOM     61  F   UNL A   1      44.531  26.004  32.949  1.00  0.00    -0.200 F 
ATOM     62  F   UNL A   1      43.142  23.905  34.004  1.00  0.00    -0.200 F 
ENDBRANCH  28  52
BRANCH  40  63
ATOM     63  C   UNL A   1      46.610  31.322  40.258  1.00  0.00     0.064 A 
ATOM     64  C   UNL A   1      47.867  31.659  39.738  1.00  0.00     0.173 A 
ATOM     65  C   UNL A   1      46.554  30.717  41.523  1.00  0.00     0.173 A 
ATOM     66  F   UNL A   1      47.968  32.226  38.527  1.00  0.00    -0.203 F 
ATOM     67  C   UNL A   1      49.029  31.382  40.452  1.00  0.00     0.198 A 
ATOM     68  C   UNL A   1      47.716  30.468  42.245  1.00  0.00     0.198 A 
ATOM     69  F   UNL A   1      45.371  30.385  42.062  1.00  0.00    -0.203 F 
ATOM     70  F   UNL A   1      50.224  31.673  39.921  1.00  0.00    -0.200 F 
ATOM     71  C   UNL A   1      48.952  30.795  41.708  1.00  0.00     0.200 A 
ATOM     72  F   UNL A   1      47.639  29.915  43.463  1.00  0.00    -0.200 F 
ATOM     73  F   UNL A   1      50.071  30.539  42.398  1.00  0.00    -0.200 F 
ENDBRANCH  40  63
ENDBRANCH  14  15
ENDBRANCH   7   9
ENDBRANCH   6   7
ENDBRANCH   5   6
ENDBRANCH   4   5
ENDBRANCH   3   4
ENDBRANCH   2   3
ENDBRANCH   1   2
BRANCH   1  74
ATOM     74  O   UNL A   1      33.579  31.720  27.544  1.00  0.00    -0.377 OA
BRANCH  74  75
ATOM     75  C   UNL A   1      33.161  30.397  27.224  1.00  0.00     0.188 C 
BRANCH  75  76
ATOM     76  C   UNL A   1      34.215  29.268  27.240  1.00  0.00     0.188 C 
BRANCH  76  77
ATOM     77  O   UNL A   1      33.915  28.148  26.416  1.00  0.00    -0.376 OA
BRANCH  77  78
ATOM     78  C   UNL A   1      33.744  28.435  25.031  1.00  0.00     0.202 C 
BRANCH  78  79
ATOM     79  C   UNL A   1      32.338  28.149  24.490  1.00  0.00     0.261 C 
BRANCH  79  80
ATOM     80  O   UNL A   1      31.562  27.217  25.261  1.00  0.00    -0.460 OA
BRANCH  80  81
ATOM     81  C   UNL A   1      30.516  26.597  24.668  1.00  0.00     0.338 C 
ATOM     82  O   UNL A   1      29.534  27.116  24.169  1.00  0.00    -0.246 OA
BRANCH  81  83
ATOM     83  C   UNL A   1      30.888  25.173  24.524  1.00  0.00     0.060 A 
ATOM     84  C   UNL A   1      30.594  24.514  23.327  1.00  0.00     0.018 A 
ATOM     85  C   UNL A   1      31.634  24.529  25.512  1.00  0.00     0.022 A 
ATOM     86  C   UNL A   1      31.074  23.220  23.112  1.00  0.00     0.027 A 
ATOM     87  C   UNL A   1      32.078  23.209  25.319  1.00  0.00    -0.017 A 
ATOM     88  C   UNL A   1      31.781  22.542  24.114  1.00  0.00     0.038 A 
ATOM     89  C   UNL A   1      32.813  22.506  26.436  1.00  0.00     0.049 C 
ATOM     90  N   UNL A   1      32.174  21.220  23.906  1.00  0.00    -0.378 N 
ATOM     91  C   UNL A   1      34.144  23.115  26.781  1.00  0.00    -0.023 C 
ATOM     92  C   UNL A   1      33.207  21.047  26.134  1.00  0.00     0.031 C 
ATOM     93  C   UNL A   1      32.283  20.397  25.103  1.00  0.00     0.114 C 
ATOM     94  H   UNL A   1      32.366  20.866  23.008  1.00  0.00     0.161 HD
ATOM     95  C   UNL A   1      35.170  22.326  26.439  1.00  0.00    -0.030 C 
ATOM     96  C   UNL A   1      34.701  21.076  25.770  1.00  0.00     0.034 C 
BRANCH  93  97
ATOM     97  C   UNL A   1      32.672  18.958  24.812  1.00  0.00    -0.022 A 
ATOM     98  C   UNL A   1      32.908  18.589  23.479  1.00  0.00     0.026 A 
ATOM     99  C   UNL A   1      32.777  17.963  25.789  1.00  0.00     0.026 A 
ATOM    100  C   UNL A   1      33.236  17.276  23.187  1.00  0.00     0.111 A 
ATOM    101  C   UNL A   1      33.124  16.677  25.398  1.00  0.00     0.111 A 
ATOM    102  N   UNL A   1      33.355  16.312  24.120  1.00  0.00    -0.265 NA
ENDBRANCH  93  97
ENDBRANCH  81  83
ENDBRANCH  80  81
ENDBRANCH  79  80
ENDBRANCH  78  79
ENDBRANCH  77  78
ENDBRANCH  76  77
ENDBRANCH  75  76
ENDBRANCH  74  75
ENDBRANCH   1  74
TORSDOF 21
ENDMDL
MODEL 3
REMARK VINA RESULT:      -9.8      6.654      9.721
REMARK SMILES O=C(OCCOCCOCCOCCOC(=O)c1ccc2c(c1)[C@@H]1C=CC[C@@H]1[C@H](c1ccncc1)N2)c1ccc(-c2c3nc(c(-c4c(F)c(F)c(F)c(F)c4F)c4ccc([nH]4)c(-c4c(F)c(F)c(F)c(F)c4F)c4nc(c(-c5c(F)c(F)c(F)c(F)c5F)c5ccc2[nH]5)C=C4)C=C3)cc1
REMARK SMILES IDX 8 1 7 2 6 3 5 4 4 5 3 6 2 7 1 8 37 9 38 10 99 11 39 12 98 13
REMARK SMILES IDX 40 14 41 15 42 16 92 17 43 18 97 19 91 20 93 21 44 22 96 23
REMARK SMILES IDX 90 24 89 25 45 27 77 28 57 29 76 30 58 31 61 32 75 33 94 34
REMARK SMILES IDX 59 35 60 36 74 38 95 39 62 40 46 41 47 42 55 43 48 44 49 45
REMARK SMILES IDX 53 46 56 47 50 48 51 49 54 50 52 51 78 52 79 53 87 54 80 55
REMARK SMILES IDX 81 56 85 57 88 58 82 59 83 60 86 61 84 62 63 63 64 64 72 65
REMARK SMILES IDX 65 66 66 67 70 68 73 69 67 70 68 71 71 72 69 73 9 74 10 75
REMARK SMILES IDX 11 76 12 77 13 78 14 79 15 80 16 81 17 82 18 83 19 84 23 85
REMARK SMILES IDX 20 86 22 87 21 88 24 89 36 90 25 91 28 92 29 93 26 95 27 96
REMARK SMILES IDX 30 97 31 98 35 99 32 100 34 101 33 102
REMARK H PARENT 93 26 61 37 36 94
REMARK Flexibility Score: inf
ROOT
ATOM      1  C   UNL A   1      42.845  22.467  25.532  1.00  0.00     0.188 C 
ENDROOT
BRANCH   1   2
ATOM      2  C   UNL A   1      43.549  23.776  25.182  1.00  0.00     0.188 C 
BRANCH   2   3
ATOM      3  O   UNL A   1      42.589  24.815  24.968  1.00  0.00    -0.376 OA
BRANCH   3   4
ATOM      4  C   UNL A   1      43.044  26.130  25.279  1.00  0.00     0.202 C 
BRANCH   4   5
ATOM      5  C   UNL A   1      41.933  27.070  25.749  1.00  0.00     0.261 C 
BRANCH   5   6
ATOM      6  O   UNL A   1      40.887  26.364  26.432  1.00  0.00    -0.460 OA
BRANCH   6   7
ATOM      7  C   UNL A   1      40.784  26.102  27.759  1.00  0.00     0.338 C 
ATOM      8  O   UNL A   1      39.660  25.914  28.225  1.00  0.00    -0.246 OA
BRANCH   7   9
ATOM      9  C   UNL A   1      41.949  25.989  28.699  1.00  0.00     0.060 A 
ATOM     10  C   UNL A   1      42.415  26.986  29.558  1.00  0.00     0.016 A 
ATOM     11  C   UNL A   1      42.597  24.740  28.743  1.00  0.00     0.016 A 
ATOM     12  C   UNL A   1      43.529  26.794  30.366  1.00  0.00     0.010 A 
ATOM     13  C   UNL A   1      43.704  24.525  29.570  1.00  0.00     0.010 A 
ATOM     14  C   UNL A   1      44.195  25.572  30.353  1.00  0.00    -0.014 A 
BRANCH  14  15
ATOM     15  C   UNL A   1      45.508  25.497  31.015  1.00  0.00     0.031 A 
ATOM     16  C   UNL A   1      46.703  25.965  30.241  1.00  0.00     0.074 A 
ATOM     17  C   UNL A   1      45.597  25.160  32.313  1.00  0.00     0.049 A 
ATOM     18  N   UNL A   1      47.965  25.974  30.577  1.00  0.00    -0.248 NA
ATOM     19  C   UNL A   1      46.432  26.522  28.903  1.00  0.00     0.031 C 
ATOM     20  C   UNL A   1      44.462  24.829  33.174  1.00  0.00     0.029 A 
ATOM     21  N   UNL A   1      46.685  25.072  33.138  1.00  0.00    -0.354 N 
ATOM     22  C   UNL A   1      48.637  26.507  29.486  1.00  0.00     0.074 A 
ATOM     23  C   UNL A   1      47.650  26.810  28.476  1.00  0.00     0.031 C 
ATOM     24  C   UNL A   1      44.914  24.586  34.416  1.00  0.00     0.029 A 
ATOM     25  C   UNL A   1      46.371  24.684  34.417  1.00  0.00     0.049 A 
ATOM     26  H   UNL A   1      47.603  25.268  32.843  1.00  0.00     0.167 HD
ATOM     27  C   UNL A   1      49.965  26.715  29.347  1.00  0.00     0.037 A 
ATOM     28  C   UNL A   1      47.185  24.407  35.453  1.00  0.00     0.037 A 
ATOM     29  C   UNL A   1      50.921  26.398  30.371  1.00  0.00     0.049 A 
ATOM     30  C   UNL A   1      48.670  24.545  35.238  1.00  0.00     0.074 A 
ATOM     31  C   UNL A   1      52.299  26.487  30.334  1.00  0.00     0.029 A 
ATOM     32  N   UNL A   1      50.580  25.925  31.632  1.00  0.00    -0.354 N 
ATOM     33  N   UNL A   1      49.317  24.975  34.179  1.00  0.00    -0.248 NA
ATOM     34  C   UNL A   1      49.541  24.144  36.350  1.00  0.00     0.031 C 
ATOM     35  C   UNL A   1      52.794  26.026  31.560  1.00  0.00     0.029 A 
ATOM     36  C   UNL A   1      51.722  25.697  32.378  1.00  0.00     0.049 A 
ATOM     37  H   UNL A   1      49.660  25.773  31.949  1.00  0.00     0.167 HD
ATOM     38  C   UNL A   1      50.665  24.907  34.497  1.00  0.00     0.074 A 
ATOM     39  C   UNL A   1      50.743  24.416  35.860  1.00  0.00     0.031 C 
ATOM     40  C   UNL A   1      51.747  25.213  33.736  1.00  0.00     0.037 A 
BRANCH  27  41
ATOM     41  C   UNL A   1      50.437  27.225  28.018  1.00  0.00     0.064 A 
ATOM     42  C   UNL A   1      50.539  28.597  27.739  1.00  0.00     0.173 A 
ATOM     43  C   UNL A   1      50.733  26.323  26.984  1.00  0.00     0.173 A 
ATOM     44  F   UNL A   1      50.233  29.501  28.682  1.00  0.00    -0.203 F 
ATOM     45  C   UNL A   1      50.884  29.045  26.466  1.00  0.00     0.198 A 
ATOM     46  C   UNL A   1      51.104  26.775  25.721  1.00  0.00     0.198 A 
ATOM     47  F   UNL A   1      50.642  25.002  27.194  1.00  0.00    -0.203 F 
ATOM     48  F   UNL A   1      50.907  30.359  26.203  1.00  0.00    -0.200 F 
ATOM     49  C   UNL A   1      51.168  28.135  25.458  1.00  0.00     0.200 A 
ATOM     50  F   UNL A   1      51.378  25.893  24.749  1.00  0.00    -0.200 F 
ATOM     51  F   UNL A   1      51.484  28.568  24.230  1.00  0.00    -0.200 F 
ENDBRANCH  27  41
BRANCH  28  52
ATOM     52  C   UNL A   1      46.624  23.931  36.746  1.00  0.00     0.064 A 
ATOM     53  C   UNL A   1      46.567  22.567  37.059  1.00  0.00     0.173 A 
ATOM     54  C   UNL A   1      46.124  24.836  37.697  1.00  0.00     0.173 A 
ATOM     55  F   UNL A   1      47.007  21.658  36.178  1.00  0.00    -0.203 F 
ATOM     56  C   UNL A   1      46.022  22.126  38.266  1.00  0.00     0.198 A 
ATOM     57  C   UNL A   1      45.608  24.396  38.915  1.00  0.00     0.198 A 
ATOM     58  F   UNL A   1      46.145  26.154  37.448  1.00  0.00    -0.203 F 
ATOM     59  F   UNL A   1      45.941  20.812  38.521  1.00  0.00    -0.200 F 
ATOM     60  C   UNL A   1      45.550  23.040  39.196  1.00  0.00     0.200 A 
ATOM     61  F   UNL A   1      45.165  25.286  39.813  1.00  0.00    -0.200 F 
ATOM     62  F   UNL A   1      45.032  22.616  40.356  1.00  0.00    -0.200 F 
ENDBRANCH  28  52
BRANCH  40  63
ATOM     63  C   UNL A   1      53.092  25.046  34.374  1.00  0.00     0.064 A 
ATOM     64  C   UNL A   1      53.642  26.042  35.192  1.00  0.00     0.173 A 
ATOM     65  C   UNL A   1      53.807  23.850  34.210  1.00  0.00     0.173 A 
ATOM     66  F   UNL A   1      52.999  27.206  35.366  1.00  0.00    -0.203 F 
ATOM     67  C   UNL A   1      54.875  25.854  35.809  1.00  0.00     0.198 A 
ATOM     68  C   UNL A   1      55.026  23.656  34.851  1.00  0.00     0.198 A 
ATOM     69  F   UNL A   1      53.314  22.867  33.443  1.00  0.00    -0.203 F 
ATOM     70  F   UNL A   1      55.405  26.834  36.554  1.00  0.00    -0.200 F 
ATOM     71  C   UNL A   1      55.561  24.659  35.645  1.00  0.00     0.200 A 
ATOM     72  F   UNL A   1      55.679  22.496  34.704  1.00  0.00    -0.200 F 
ATOM     73  F   UNL A   1      56.743  24.476  36.249  1.00  0.00    -0.200 F 
ENDBRANCH  40  63
ENDBRANCH  14  15
ENDBRANCH   7   9
ENDBRANCH   6   7
ENDBRANCH   5   6
ENDBRANCH   4   5
ENDBRANCH   3   4
ENDBRANCH   2   3
ENDBRANCH   1   2
BRANCH   1  74
ATOM     74  O   UNL A   1      41.640  22.616  26.278  1.00  0.00    -0.377 OA
BRANCH  74  75
ATOM     75  C   UNL A   1      40.742  21.511  26.284  1.00  0.00     0.188 C 
BRANCH  75  76
ATOM     76  C   UNL A   1      39.234  21.787  26.094  1.00  0.00     0.188 C 
BRANCH  76  77
ATOM     77  O   UNL A   1      38.522  20.790  25.371  1.00  0.00    -0.376 OA
BRANCH  77  78
ATOM     78  C   UNL A   1      37.327  21.232  24.733  1.00  0.00     0.202 C 
BRANCH  78  79
ATOM     79  C   UNL A   1      36.143  21.454  25.682  1.00  0.00     0.261 C 
BRANCH  79  80
ATOM     80  O   UNL A   1      35.120  22.334  25.190  1.00  0.00    -0.460 OA
BRANCH  80  81
ATOM     81  C   UNL A   1      34.062  21.799  24.537  1.00  0.00     0.338 C 
ATOM     82  O   UNL A   1      33.789  20.619  24.416  1.00  0.00    -0.246 OA
BRANCH  81  83
ATOM     83  C   UNL A   1      33.162  22.919  24.189  1.00  0.00     0.060 A 
ATOM     84  C   UNL A   1      31.888  22.633  23.688  1.00  0.00     0.018 A 
ATOM     85  C   UNL A   1      33.522  24.236  24.474  1.00  0.00     0.022 A 
ATOM     86  C   UNL A   1      30.968  23.667  23.501  1.00  0.00     0.027 A 
ATOM     87  C   UNL A   1      32.615  25.286  24.242  1.00  0.00    -0.017 A 
ATOM     88  C   UNL A   1      31.332  25.000  23.734  1.00  0.00     0.038 A 
ATOM     89  C   UNL A   1      33.057  26.711  24.481  1.00  0.00     0.049 C 
ATOM     90  N   UNL A   1      30.423  26.021  23.458  1.00  0.00    -0.378 N 
ATOM     91  C   UNL A   1      33.367  27.030  25.918  1.00  0.00    -0.023 C 
ATOM     92  C   UNL A   1      32.001  27.782  24.145  1.00  0.00     0.031 C 
ATOM     93  C   UNL A   1      31.006  27.304  23.086  1.00  0.00     0.114 C 
ATOM     94  H   UNL A   1      29.450  25.884  23.510  1.00  0.00     0.161 HD
ATOM     95  C   UNL A   1      32.473  27.866  26.458  1.00  0.00    -0.030 C 
ATOM     96  C   UNL A   1      31.392  28.216  25.489  1.00  0.00     0.034 C 
BRANCH  93  97
ATOM     97  C   UNL A   1      29.969  28.363  22.754  1.00  0.00    -0.022 A 
ATOM     98  C   UNL A   1      28.638  28.135  23.136  1.00  0.00     0.026 A 
ATOM     99  C   UNL A   1      30.252  29.542  22.058  1.00  0.00     0.026 A 
ATOM    100  C   UNL A   1      27.672  29.074  22.819  1.00  0.00     0.111 A 
ATOM    101  C   UNL A   1      29.216  30.430  21.799  1.00  0.00     0.111 A 
ATOM    102  N   UNL A   1      27.934  30.221  22.163  1.00  0.00    -0.265 NA
ENDBRANCH  93  97
ENDBRANCH  81  83
ENDBRANCH  80  81
ENDBRANCH  79  80
ENDBRANCH  78  79
ENDBRANCH  77  78
ENDBRANCH  76  77
ENDBRANCH  75  76
ENDBRANCH  74  75
ENDBRANCH   1  74
TORSDOF 21
ENDMDL
