MODEL 1
REMARK VINA RESULT:     -10.4      0.000      0.000
REMARK SMILES [NH3+][C@H]1C=C[C@H](C(=O)N2CC[NH+](CC(=O)OCCOCCOCCOCCOC(=O)c3ccc(-c4c5nc(c(-c6c(F)c(F)c(F)c(F)c6F)c6ccc([nH]6)c(-c6c(F)c(F)c(F)c(F)c6F)c6nc(c(-c7c(F)c(F)c(F)c(F)c7F)c7ccc4[nH]7)C=C6)C=C5)cc3)CC2)C1
REMARK SMILES IDX 20 1 19 2 18 3 17 4 16 5 15 6 13 7 14 8 12 9 11 10 6 11 7 12
REMARK SMILES IDX 8 13 9 14 94 15 10 16 93 17 5 19 2 20 3 21 95 22 4 23 1 24
REMARK SMILES IDX 21 28 22 29 23 30 24 31 25 32 26 33 27 34 28 35 29 36 30 37
REMARK SMILES IDX 31 38 92 39 32 40 91 41 33 42 34 43 35 44 85 45 36 46 90 47
REMARK SMILES IDX 84 48 86 49 37 50 89 51 83 52 82 53 38 55 70 56 50 57 69 58
REMARK SMILES IDX 51 59 54 60 68 61 87 62 52 63 53 64 67 66 88 67 55 68 39 69
REMARK SMILES IDX 40 70 48 71 41 72 42 73 46 74 49 75 43 76 44 77 47 78 45 79
REMARK SMILES IDX 71 80 72 81 80 82 73 83 74 84 78 85 81 86 75 87 76 88 79 89
REMARK SMILES IDX 77 90 56 91 57 92 65 93 58 94 59 95 63 96 66 97 60 98 61 99
REMARK SMILES IDX 64 100 62 101
REMARK H PARENT 11 18 1 25 1 26 1 27 86 54 54 65
REMARK Flexibility Score: inf
ROOT
ATOM      1  C   UNL A   1      38.675  21.582  25.746  1.00  0.00     0.188 C 
ENDROOT
BRANCH   1   2
ATOM      2  C   UNL A   1      37.336  21.998  25.135  1.00  0.00     0.188 C 
BRANCH   2   3
ATOM      3  O   UNL A   1      36.234  22.145  26.023  1.00  0.00    -0.376 OA
BRANCH   3   4
ATOM      4  C   UNL A   1      35.521  23.374  26.043  1.00  0.00     0.202 C 
BRANCH   4   5
ATOM      5  C   UNL A   1      35.131  24.061  24.722  1.00  0.00     0.261 C 
BRANCH   5   6
ATOM      6  O   UNL A   1      34.243  25.191  24.837  1.00  0.00    -0.459 OA
BRANCH   6   7
ATOM      7  C   UNL A   1      33.181  25.190  23.985  1.00  0.00     0.361 C 
ATOM      8  O   UNL A   1      33.268  25.415  22.779  1.00  0.00    -0.245 OA
BRANCH   7   9
ATOM      9  C   UNL A   1      31.861  24.774  24.623  1.00  0.00     0.386 C 
BRANCH   9  10
ATOM     10  N   UNL A   1      31.414  23.391  24.476  1.00  0.00    -0.323 N 
ATOM     11  C   UNL A   1      33.447  19.637  24.343  1.00  0.00     0.230 C 
ATOM     12  O   UNL A   1      34.544  19.617  24.900  1.00  0.00    -0.274 OA
ATOM     13  N   UNL A   1      32.643  20.772  24.357  1.00  0.00    -0.331 N 
ATOM     14  C   UNL A   1      32.712  21.654  23.196  1.00  0.00     0.181 C 
ATOM     15  C   UNL A   1      32.541  21.479  25.629  1.00  0.00     0.181 C 
ATOM     16  C   UNL A   1      31.620  22.731  23.189  1.00  0.00     0.284 C 
ATOM     17  C   UNL A   1      31.390  22.496  25.625  1.00  0.00     0.284 C 
ATOM     18  H   UNL A   1      30.431  23.662  24.458  1.00  0.00     0.348 HD
BRANCH  11  19
ATOM     19  C   UNL A   1      32.738  18.372  23.830  1.00  0.00     0.107 C 
ATOM     20  C   UNL A   1      33.158  16.399  25.205  1.00  0.00     0.205 C 
ATOM     21  C   UNL A   1      33.813  16.277  23.877  1.00  0.00     0.033 C 
ATOM     22  C   UNL A   1      32.153  17.534  24.968  1.00  0.00     0.087 C 
ATOM     23  C   UNL A   1      33.601  17.366  23.128  1.00  0.00    -0.012 C 
BRANCH  20  24
ATOM     24  N   UNL A   1      32.509  15.170  25.620  1.00  0.00    -0.352 N 
ATOM     25  H   UNL A   1      32.547  15.093  26.637  1.00  0.00     0.345 HD
ATOM     26  H   UNL A   1      32.988  14.374  25.200  1.00  0.00     0.345 HD
ATOM     27  H   UNL A   1      31.535  15.182  25.316  1.00  0.00     0.345 HD
ENDBRANCH  20  24
ENDBRANCH  11  19
ENDBRANCH   9  10
ENDBRANCH   7   9
ENDBRANCH   6   7
ENDBRANCH   5   6
ENDBRANCH   4   5
ENDBRANCH   3   4
ENDBRANCH   2   3
ENDBRANCH   1   2
BRANCH   1  28
ATOM     28  O   UNL A   1      39.145  22.489  26.732  1.00  0.00    -0.377 OA
BRANCH  28  29
ATOM     29  C   UNL A   1      40.538  22.515  27.040  1.00  0.00     0.188 C 
BRANCH  29  30
ATOM     30  C   UNL A   1      41.197  21.206  27.475  1.00  0.00     0.188 C 
BRANCH  30  31
ATOM     31  O   UNL A   1      41.996  20.541  26.497  1.00  0.00    -0.376 OA
BRANCH  31  32
ATOM     32  C   UNL A   1      42.269  19.159  26.705  1.00  0.00     0.202 C 
BRANCH  32  33
ATOM     33  C   UNL A   1      43.289  18.553  25.749  1.00  0.00     0.261 C 
BRANCH  33  34
ATOM     34  O   UNL A   1      43.390  19.296  24.529  1.00  0.00    -0.460 OA
BRANCH  34  35
ATOM     35  C   UNL A   1      44.642  19.594  24.111  1.00  0.00     0.338 C 
ATOM     36  O   UNL A   1      45.427  18.892  23.498  1.00  0.00    -0.246 OA
BRANCH  35  37
ATOM     37  C   UNL A   1      44.958  20.934  24.614  1.00  0.00     0.060 A 
ATOM     38  C   UNL A   1      45.653  21.139  25.803  1.00  0.00     0.016 A 
ATOM     39  C   UNL A   1      44.529  22.011  23.847  1.00  0.00     0.016 A 
ATOM     40  C   UNL A   1      45.895  22.450  26.238  1.00  0.00     0.010 A 
ATOM     41  C   UNL A   1      44.880  23.302  24.221  1.00  0.00     0.010 A 
ATOM     42  C   UNL A   1      45.500  23.549  25.456  1.00  0.00    -0.014 A 
BRANCH  42  43
ATOM     43  C   UNL A   1      45.559  24.952  25.962  1.00  0.00     0.031 A 
ATOM     44  C   UNL A   1      46.879  25.694  25.896  1.00  0.00     0.074 A 
ATOM     45  C   UNL A   1      44.490  25.563  26.513  1.00  0.00     0.049 A 
ATOM     46  N   UNL A   1      47.213  26.861  26.390  1.00  0.00    -0.248 NA
ATOM     47  C   UNL A   1      48.001  24.990  25.250  1.00  0.00     0.031 C 
ATOM     48  C   UNL A   1      43.172  24.964  26.720  1.00  0.00     0.029 A 
ATOM     49  N   UNL A   1      44.353  26.841  27.003  1.00  0.00    -0.354 N 
ATOM     50  C   UNL A   1      48.581  26.979  26.172  1.00  0.00     0.074 A 
ATOM     51  C   UNL A   1      49.034  25.724  25.621  1.00  0.00     0.031 C 
ATOM     52  C   UNL A   1      42.347  25.887  27.246  1.00  0.00     0.029 A 
ATOM     53  C   UNL A   1      43.085  27.132  27.447  1.00  0.00     0.049 A 
ATOM     54  H   UNL A   1      45.094  27.487  27.034  1.00  0.00     0.167 HD
ATOM     55  C   UNL A   1      49.389  28.054  26.336  1.00  0.00     0.037 A 
ATOM     56  C   UNL A   1      42.581  28.280  27.945  1.00  0.00     0.037 A 
ATOM     57  C   UNL A   1      48.922  29.340  26.769  1.00  0.00     0.049 A 
ATOM     58  C   UNL A   1      43.477  29.490  28.065  1.00  0.00     0.074 A 
ATOM     59  C   UNL A   1      49.626  30.524  26.875  1.00  0.00     0.029 A 
ATOM     60  N   UNL A   1      47.614  29.611  27.140  1.00  0.00    -0.354 N 
ATOM     61  N   UNL A   1      44.750  29.615  27.776  1.00  0.00    -0.248 NA
ATOM     62  C   UNL A   1      42.857  30.725  28.567  1.00  0.00     0.031 C 
ATOM     63  C   UNL A   1      48.752  31.508  27.347  1.00  0.00     0.029 A 
ATOM     64  C   UNL A   1      47.491  30.946  27.484  1.00  0.00     0.049 A 
ATOM     65  H   UNL A   1      46.882  28.954  27.157  1.00  0.00     0.167 HD
ATOM     66  C   UNL A   1      45.070  30.945  28.022  1.00  0.00     0.074 A 
ATOM     67  C   UNL A   1      43.855  31.592  28.467  1.00  0.00     0.031 C 
ATOM     68  C   UNL A   1      46.264  31.577  27.895  1.00  0.00     0.037 A 
BRANCH  55  69
ATOM     69  C   UNL A   1      50.844  27.885  25.999  1.00  0.00     0.064 A 
ATOM     70  C   UNL A   1      51.808  27.628  26.990  1.00  0.00     0.173 A 
ATOM     71  C   UNL A   1      51.288  27.996  24.673  1.00  0.00     0.173 A 
ATOM     72  F   UNL A   1      51.444  27.522  28.277  1.00  0.00    -0.203 F 
ATOM     73  C   UNL A   1      53.162  27.554  26.674  1.00  0.00     0.198 A 
ATOM     74  C   UNL A   1      52.638  27.875  24.355  1.00  0.00     0.198 A 
ATOM     75  F   UNL A   1      50.412  28.229  23.683  1.00  0.00    -0.203 F 
ATOM     76  F   UNL A   1      54.067  27.402  27.651  1.00  0.00    -0.200 F 
ATOM     77  C   UNL A   1      53.575  27.672  25.357  1.00  0.00     0.200 A 
ATOM     78  F   UNL A   1      53.035  27.971  23.079  1.00  0.00    -0.200 F 
ATOM     79  F   UNL A   1      54.879  27.602  25.054  1.00  0.00    -0.200 F 
ENDBRANCH  55  69
BRANCH  56  80
ATOM     80  C   UNL A   1      41.142  28.373  28.317  1.00  0.00     0.064 A 
ATOM     81  C   UNL A   1      40.203  28.909  27.421  1.00  0.00     0.173 A 
ATOM     82  C   UNL A   1      40.678  27.973  29.578  1.00  0.00     0.173 A 
ATOM     83  F   UNL A   1      40.597  29.327  26.209  1.00  0.00    -0.203 F 
ATOM     84  C   UNL A   1      38.868  29.073  27.784  1.00  0.00     0.198 A 
ATOM     85  C   UNL A   1      39.336  28.109  29.930  1.00  0.00     0.198 A 
ATOM     86  F   UNL A   1      41.530  27.451  30.473  1.00  0.00    -0.203 F 
ATOM     87  F   UNL A   1      38.008  29.647  26.931  1.00  0.00    -0.200 F 
ATOM     88  C   UNL A   1      38.433  28.670  29.038  1.00  0.00     0.200 A 
ATOM     89  F   UNL A   1      38.917  27.706  31.138  1.00  0.00    -0.200 F 
ATOM     90  F   UNL A   1      37.151  28.832  29.390  1.00  0.00    -0.200 F 
ENDBRANCH  56  80
BRANCH  68  91
ATOM     91  C   UNL A   1      46.309  33.050  28.182  1.00  0.00     0.064 A 
ATOM     92  C   UNL A   1      46.620  33.548  29.455  1.00  0.00     0.173 A 
ATOM     93  C   UNL A   1      46.095  33.977  27.149  1.00  0.00     0.173 A 
ATOM     94  F   UNL A   1      46.825  32.705  30.478  1.00  0.00    -0.203 F 
ATOM     95  C   UNL A   1      46.687  34.918  29.690  1.00  0.00     0.198 A 
ATOM     96  C   UNL A   1      46.198  35.346  27.380  1.00  0.00     0.198 A 
ATOM     97  F   UNL A   1      45.807  33.555  25.908  1.00  0.00    -0.203 F 
ATOM     98  F   UNL A   1      46.937  35.372  30.927  1.00  0.00    -0.200 F 
ATOM     99  C   UNL A   1      46.486  35.815  28.652  1.00  0.00     0.200 A 
ATOM    100  F   UNL A   1      46.024  36.210  26.370  1.00  0.00    -0.200 F 
ATOM    101  F   UNL A   1      46.564  37.134  28.878  1.00  0.00    -0.200 F 
ENDBRANCH  68  91
ENDBRANCH  42  43
ENDBRANCH  35  37
ENDBRANCH  34  35
ENDBRANCH  33  34
ENDBRANCH  32  33
ENDBRANCH  31  32
ENDBRANCH  30  31
ENDBRANCH  29  30
ENDBRANCH  28  29
ENDBRANCH   1  28
TORSDOF 23
ENDMDL
MODEL 2
REMARK VINA RESULT:     -10.2      5.020      7.489
REMARK SMILES [NH3+][C@H]1C=C[C@H](C(=O)N2CC[NH+](CC(=O)OCCOCCOCCOCCOC(=O)c3ccc(-c4c5nc(c(-c6c(F)c(F)c(F)c(F)c6F)c6ccc([nH]6)c(-c6c(F)c(F)c(F)c(F)c6F)c6nc(c(-c7c(F)c(F)c(F)c(F)c7F)c7ccc4[nH]7)C=C6)C=C5)cc3)CC2)C1
REMARK SMILES IDX 20 1 19 2 18 3 17 4 16 5 15 6 13 7 14 8 12 9 11 10 6 11 7 12
REMARK SMILES IDX 8 13 9 14 94 15 10 16 93 17 5 19 2 20 3 21 95 22 4 23 1 24
REMARK SMILES IDX 21 28 22 29 23 30 24 31 25 32 26 33 27 34 28 35 29 36 30 37
REMARK SMILES IDX 31 38 92 39 32 40 91 41 33 42 34 43 35 44 85 45 36 46 90 47
REMARK SMILES IDX 84 48 86 49 37 50 89 51 83 52 82 53 38 55 70 56 50 57 69 58
REMARK SMILES IDX 51 59 54 60 68 61 87 62 52 63 53 64 67 66 88 67 55 68 39 69
REMARK SMILES IDX 40 70 48 71 41 72 42 73 46 74 49 75 43 76 44 77 47 78 45 79
REMARK SMILES IDX 71 80 72 81 80 82 73 83 74 84 78 85 81 86 75 87 76 88 79 89
REMARK SMILES IDX 77 90 56 91 57 92 65 93 58 94 59 95 63 96 66 97 60 98 61 99
REMARK SMILES IDX 64 100 62 101
REMARK H PARENT 11 18 1 25 1 26 1 27 86 54 54 65
REMARK Flexibility Score: inf
ROOT
ATOM      1  C   UNL A   1      39.243  22.270  26.433  1.00  0.00     0.188 C 
ENDROOT
BRANCH   1   2
ATOM      2  C   UNL A   1      38.107  22.607  25.464  1.00  0.00     0.188 C 
BRANCH   2   3
ATOM      3  O   UNL A   1      36.777  22.474  25.950  1.00  0.00    -0.376 OA
BRANCH   3   4
ATOM      4  C   UNL A   1      35.906  23.595  25.899  1.00  0.00     0.202 C 
BRANCH   4   5
ATOM      5  C   UNL A   1      35.243  23.996  24.568  1.00  0.00     0.261 C 
BRANCH   5   6
ATOM      6  O   UNL A   1      34.363  25.136  24.620  1.00  0.00    -0.459 OA
BRANCH   6   7
ATOM      7  C   UNL A   1      33.499  25.258  23.575  1.00  0.00     0.361 C 
ATOM      8  O   UNL A   1      33.851  25.410  22.407  1.00  0.00    -0.245 OA
BRANCH   7   9
ATOM      9  C   UNL A   1      32.031  25.078  23.945  1.00  0.00     0.386 C 
BRANCH   9  10
ATOM     10  N   UNL A   1      31.491  23.724  24.043  1.00  0.00    -0.323 N 
ATOM     11  C   UNL A   1      33.264  19.878  24.590  1.00  0.00     0.230 C 
ATOM     12  O   UNL A   1      34.360  19.882  25.150  1.00  0.00    -0.274 OA
ATOM     13  N   UNL A   1      32.539  21.048  24.398  1.00  0.00    -0.331 N 
ATOM     14  C   UNL A   1      32.662  21.704  23.100  1.00  0.00     0.181 C 
ATOM     15  C   UNL A   1      32.492  21.974  25.524  1.00  0.00     0.181 C 
ATOM     16  C   UNL A   1      31.645  22.834  22.894  1.00  0.00     0.284 C 
ATOM     17  C   UNL A   1      31.412  23.050  25.332  1.00  0.00     0.284 C 
ATOM     18  H   UNL A   1      30.529  24.053  23.969  1.00  0.00     0.348 HD
BRANCH  11  19
ATOM     19  C   UNL A   1      32.468  18.592  24.304  1.00  0.00     0.107 C 
ATOM     20  C   UNL A   1      33.639  16.557  24.974  1.00  0.00     0.205 C 
ATOM     21  C   UNL A   1      33.542  16.658  23.495  1.00  0.00     0.033 C 
ATOM     22  C   UNL A   1      32.588  17.573  25.439  1.00  0.00     0.087 C 
ATOM     23  C   UNL A   1      32.918  17.782  23.125  1.00  0.00    -0.012 C 
BRANCH  20  24
ATOM     24  N   UNL A   1      33.361  15.219  25.460  1.00  0.00    -0.352 N 
ATOM     25  H   UNL A   1      33.281  14.580  24.669  1.00  0.00     0.345 HD
ATOM     26  H   UNL A   1      32.486  15.223  25.984  1.00  0.00     0.345 HD
ATOM     27  H   UNL A   1      34.121  14.914  26.069  1.00  0.00     0.345 HD
ENDBRANCH  20  24
ENDBRANCH  11  19
ENDBRANCH   9  10
ENDBRANCH   7   9
ENDBRANCH   6   7
ENDBRANCH   5   6
ENDBRANCH   4   5
ENDBRANCH   3   4
ENDBRANCH   2   3
ENDBRANCH   1   2
BRANCH   1  28
ATOM     28  O   UNL A   1      40.085  21.227  25.964  1.00  0.00    -0.377 OA
BRANCH  28  29
ATOM     29  C   UNL A   1      41.226  20.860  26.739  1.00  0.00     0.188 C 
BRANCH  29  30
ATOM     30  C   UNL A   1      42.150  19.777  26.180  1.00  0.00     0.188 C 
BRANCH  30  31
ATOM     31  O   UNL A   1      43.106  20.197  25.207  1.00  0.00    -0.376 OA
BRANCH  31  32
ATOM     32  C   UNL A   1      43.921  21.318  25.532  1.00  0.00     0.202 C 
BRANCH  32  33
ATOM     33  C   UNL A   1      44.046  22.364  24.431  1.00  0.00     0.261 C 
BRANCH  33  34
ATOM     34  O   UNL A   1      43.462  23.616  24.810  1.00  0.00    -0.460 OA
BRANCH  34  35
ATOM     35  C   UNL A   1      44.326  24.610  25.120  1.00  0.00     0.338 C 
ATOM     36  O   UNL A   1      45.368  24.914  24.566  1.00  0.00    -0.246 OA
BRANCH  35  37
ATOM     37  C   UNL A   1      43.832  25.244  26.346  1.00  0.00     0.060 A 
ATOM     38  C   UNL A   1      42.963  24.597  27.222  1.00  0.00     0.016 A 
ATOM     39  C   UNL A   1      44.270  26.537  26.607  1.00  0.00     0.016 A 
ATOM     40  C   UNL A   1      42.508  25.275  28.361  1.00  0.00     0.010 A 
ATOM     41  C   UNL A   1      43.913  27.155  27.798  1.00  0.00     0.010 A 
ATOM     42  C   UNL A   1      42.970  26.568  28.658  1.00  0.00    -0.014 A 
BRANCH  42  43
ATOM     43  C   UNL A   1      42.372  27.402  29.743  1.00  0.00     0.031 A 
ATOM     44  C   UNL A   1      43.028  27.393  31.110  1.00  0.00     0.074 A 
ATOM     45  C   UNL A   1      41.249  28.124  29.560  1.00  0.00     0.049 A 
ATOM     46  N   UNL A   1      42.625  27.921  32.239  1.00  0.00    -0.248 NA
ATOM     47  C   UNL A   1      44.273  26.615  31.241  1.00  0.00     0.031 C 
ATOM     48  C   UNL A   1      40.457  28.180  28.332  1.00  0.00     0.029 A 
ATOM     49  N   UNL A   1      40.578  28.957  30.424  1.00  0.00    -0.354 N 
ATOM     50  C   UNL A   1      43.525  27.476  33.201  1.00  0.00     0.074 A 
ATOM     51  C   UNL A   1      44.413  26.542  32.552  1.00  0.00     0.031 C 
ATOM     52  C   UNL A   1      39.438  29.041  28.504  1.00  0.00     0.029 A 
ATOM     53  C   UNL A   1      39.484  29.573  29.864  1.00  0.00     0.049 A 
ATOM     54  H   UNL A   1      40.855  29.100  31.357  1.00  0.00     0.167 HD
ATOM     55  C   UNL A   1      43.663  27.860  34.492  1.00  0.00     0.037 A 
ATOM     56  C   UNL A   1      38.628  30.472  30.392  1.00  0.00     0.037 A 
ATOM     57  C   UNL A   1      42.862  28.878  35.110  1.00  0.00     0.049 A 
ATOM     58  C   UNL A   1      38.830  30.938  31.815  1.00  0.00     0.074 A 
ATOM     59  C   UNL A   1      42.975  29.419  36.376  1.00  0.00     0.029 A 
ATOM     60  N   UNL A   1      41.808  29.527  34.485  1.00  0.00    -0.354 N 
ATOM     61  N   UNL A   1      39.737  30.574  32.689  1.00  0.00    -0.248 NA
ATOM     62  C   UNL A   1      37.896  31.957  32.316  1.00  0.00     0.031 C 
ATOM     63  C   UNL A   1      41.966  30.373  36.533  1.00  0.00     0.029 A 
ATOM     64  C   UNL A   1      41.258  30.462  35.344  1.00  0.00     0.049 A 
ATOM     65  H   UNL A   1      41.498  29.351  33.568  1.00  0.00     0.167 HD
ATOM     66  C   UNL A   1      39.507  31.343  33.824  1.00  0.00     0.074 A 
ATOM     67  C   UNL A   1      38.387  32.208  33.522  1.00  0.00     0.031 C 
ATOM     68  C   UNL A   1      40.162  31.335  35.012  1.00  0.00     0.037 A 
BRANCH  55  69
ATOM     69  C   UNL A   1      44.752  27.206  35.297  1.00  0.00     0.064 A 
ATOM     70  C   UNL A   1      44.520  26.037  36.043  1.00  0.00     0.173 A 
ATOM     71  C   UNL A   1      46.041  27.759  35.337  1.00  0.00     0.173 A 
ATOM     72  F   UNL A   1      43.305  25.469  36.050  1.00  0.00    -0.203 F 
ATOM     73  C   UNL A   1      45.516  25.488  36.847  1.00  0.00     0.198 A 
ATOM     74  C   UNL A   1      47.047  27.180  36.106  1.00  0.00     0.198 A 
ATOM     75  F   UNL A   1      46.324  28.867  34.635  1.00  0.00    -0.203 F 
ATOM     76  F   UNL A   1      45.239  24.428  37.620  1.00  0.00    -0.200 F 
ATOM     77  C   UNL A   1      46.779  26.056  36.874  1.00  0.00     0.200 A 
ATOM     78  F   UNL A   1      48.273  27.719  36.117  1.00  0.00    -0.200 F 
ATOM     79  F   UNL A   1      47.736  25.527  37.649  1.00  0.00    -0.200 F 
ENDBRANCH  55  69
BRANCH  56  80
ATOM     80  C   UNL A   1      37.530  31.045  29.565  1.00  0.00     0.064 A 
ATOM     81  C   UNL A   1      37.608  32.361  29.082  1.00  0.00     0.173 A 
ATOM     82  C   UNL A   1      36.368  30.316  29.273  1.00  0.00     0.173 A 
ATOM     83  F   UNL A   1      38.688  33.109  29.352  1.00  0.00    -0.203 F 
ATOM     84  C   UNL A   1      36.555  32.935  28.373  1.00  0.00     0.198 A 
ATOM     85  C   UNL A   1      35.328  30.881  28.536  1.00  0.00     0.198 A 
ATOM     86  F   UNL A   1      36.241  29.053  29.706  1.00  0.00    -0.203 F 
ATOM     87  F   UNL A   1      36.632  34.214  27.981  1.00  0.00    -0.200 F 
ATOM     88  C   UNL A   1      35.416  32.194  28.097  1.00  0.00     0.200 A 
ATOM     89  F   UNL A   1      34.234  30.157  28.260  1.00  0.00    -0.200 F 
ATOM     90  F   UNL A   1      34.402  32.747  27.419  1.00  0.00    -0.200 F 
ENDBRANCH  56  80
BRANCH  68  91
ATOM     91  C   UNL A   1      39.728  32.325  36.055  1.00  0.00     0.064 A 
ATOM     92  C   UNL A   1      40.353  33.572  36.198  1.00  0.00     0.173 A 
ATOM     93  C   UNL A   1      38.630  32.042  36.883  1.00  0.00     0.173 A 
ATOM     94  F   UNL A   1      41.412  33.888  35.437  1.00  0.00    -0.203 F 
ATOM     95  C   UNL A   1      39.914  34.487  37.150  1.00  0.00     0.198 A 
ATOM     96  C   UNL A   1      38.172  32.974  37.810  1.00  0.00     0.198 A 
ATOM     97  F   UNL A   1      37.987  30.869  36.779  1.00  0.00    -0.203 F 
ATOM     98  F   UNL A   1      40.558  35.653  37.303  1.00  0.00    -0.200 F 
ATOM     99  C   UNL A   1      38.819  34.192  37.948  1.00  0.00     0.200 A 
ATOM    100  F   UNL A   1      37.100  32.695  38.565  1.00  0.00    -0.200 F 
ATOM    101  F   UNL A   1      38.390  35.080  38.855  1.00  0.00    -0.200 F 
ENDBRANCH  68  91
ENDBRANCH  42  43
ENDBRANCH  35  37
ENDBRANCH  34  35
ENDBRANCH  33  34
ENDBRANCH  32  33
ENDBRANCH  31  32
ENDBRANCH  30  31
ENDBRANCH  29  30
ENDBRANCH  28  29
ENDBRANCH   1  28
TORSDOF 23
ENDMDL
MODEL 3
REMARK VINA RESULT:     -10.1      5.315      8.068
REMARK SMILES [NH3+][C@H]1C=C[C@H](C(=O)N2CC[NH+](CC(=O)OCCOCCOCCOCCOC(=O)c3ccc(-c4c5nc(c(-c6c(F)c(F)c(F)c(F)c6F)c6ccc([nH]6)c(-c6c(F)c(F)c(F)c(F)c6F)c6nc(c(-c7c(F)c(F)c(F)c(F)c7F)c7ccc4[nH]7)C=C6)C=C5)cc3)CC2)C1
REMARK SMILES IDX 20 1 19 2 18 3 17 4 16 5 15 6 13 7 14 8 12 9 11 10 6 11 7 12
REMARK SMILES IDX 8 13 9 14 94 15 10 16 93 17 5 19 2 20 3 21 95 22 4 23 1 24
REMARK SMILES IDX 21 28 22 29 23 30 24 31 25 32 26 33 27 34 28 35 29 36 30 37
REMARK SMILES IDX 31 38 92 39 32 40 91 41 33 42 34 43 35 44 85 45 36 46 90 47
REMARK SMILES IDX 84 48 86 49 37 50 89 51 83 52 82 53 38 55 70 56 50 57 69 58
REMARK SMILES IDX 51 59 54 60 68 61 87 62 52 63 53 64 67 66 88 67 55 68 39 69
REMARK SMILES IDX 40 70 48 71 41 72 42 73 46 74 49 75 43 76 44 77 47 78 45 79
REMARK SMILES IDX 71 80 72 81 80 82 73 83 74 84 78 85 81 86 75 87 76 88 79 89
REMARK SMILES IDX 77 90 56 91 57 92 65 93 58 94 59 95 63 96 66 97 60 98 61 99
REMARK SMILES IDX 64 100 62 101
REMARK H PARENT 11 18 1 25 1 26 1 27 86 54 54 65
REMARK Flexibility Score: inf
ROOT
ATOM      1  C   UNL A   1      42.356  19.382  26.378  1.00  0.00     0.188 C 
ENDROOT
BRANCH   1   2
ATOM      2  C   UNL A   1      40.885  19.568  26.002  1.00  0.00     0.188 C 
BRANCH   2   3
ATOM      3  O   UNL A   1      40.147  20.543  26.728  1.00  0.00    -0.376 OA
BRANCH   3   4
ATOM      4  C   UNL A   1      39.477  21.576  26.017  1.00  0.00     0.202 C 
BRANCH   4   5
ATOM      5  C   UNL A   1      37.969  21.460  25.729  1.00  0.00     0.261 C 
BRANCH   5   6
ATOM      6  O   UNL A   1      37.403  22.496  24.902  1.00  0.00    -0.459 OA
BRANCH   6   7
ATOM      7  C   UNL A   1      36.052  22.447  24.743  1.00  0.00     0.361 C 
ATOM      8  O   UNL A   1      35.489  22.452  23.651  1.00  0.00    -0.245 OA
BRANCH   7   9
ATOM      9  C   UNL A   1      35.270  22.269  26.040  1.00  0.00     0.386 C 
BRANCH   9  10
ATOM     10  N   UNL A   1      34.244  23.250  26.382  1.00  0.00    -0.323 N 
ATOM     11  C   UNL A   1      30.899  24.872  24.280  1.00  0.00     0.230 C 
ATOM     12  O   UNL A   1      30.445  24.155  23.387  1.00  0.00    -0.274 OA
ATOM     13  N   UNL A   1      31.948  24.451  25.089  1.00  0.00    -0.331 N 
ATOM     14  C   UNL A   1      33.292  24.884  24.719  1.00  0.00     0.181 C 
ATOM     15  C   UNL A   1      31.884  23.076  25.572  1.00  0.00     0.181 C 
ATOM     16  C   UNL A   1      34.342  24.585  25.797  1.00  0.00     0.284 C 
ATOM     17  C   UNL A   1      32.890  22.822  26.706  1.00  0.00     0.284 C 
ATOM     18  H   UNL A   1      34.608  23.370  27.327  1.00  0.00     0.348 HD
BRANCH  11  19
ATOM     19  C   UNL A   1      30.199  26.150  24.773  1.00  0.00     0.107 C 
ATOM     20  C   UNL A   1      31.491  28.182  24.367  1.00  0.00     0.205 C 
ATOM     21  C   UNL A   1      31.419  27.873  25.819  1.00  0.00     0.033 C 
ATOM     22  C   UNL A   1      30.363  27.314  23.794  1.00  0.00     0.087 C 
ATOM     23  C   UNL A   1      30.728  26.749  26.042  1.00  0.00    -0.012 C 
BRANCH  20  24
ATOM     24  N   UNL A   1      31.294  29.592  24.088  1.00  0.00    -0.352 N 
ATOM     25  H   UNL A   1      31.745  29.829  23.204  1.00  0.00     0.345 HD
ATOM     26  H   UNL A   1      31.702  30.147  24.839  1.00  0.00     0.345 HD
ATOM     27  H   UNL A   1      30.294  29.788  24.024  1.00  0.00     0.345 HD
ENDBRANCH  20  24
ENDBRANCH  11  19
ENDBRANCH   9  10
ENDBRANCH   7   9
ENDBRANCH   6   7
ENDBRANCH   5   6
ENDBRANCH   4   5
ENDBRANCH   3   4
ENDBRANCH   2   3
ENDBRANCH   1   2
BRANCH   1  28
ATOM     28  O   UNL A   1      43.115  18.742  25.362  1.00  0.00    -0.377 OA
BRANCH  28  29
ATOM     29  C   UNL A   1      44.519  18.986  25.292  1.00  0.00     0.188 C 
BRANCH  29  30
ATOM     30  C   UNL A   1      44.983  20.354  24.790  1.00  0.00     0.188 C 
BRANCH  30  31
ATOM     31  O   UNL A   1      45.988  21.008  25.563  1.00  0.00    -0.376 OA
BRANCH  31  32
ATOM     32  C   UNL A   1      46.097  22.421  25.434  1.00  0.00     0.202 C 
BRANCH  32  33
ATOM     33  C   UNL A   1      45.404  23.012  24.212  1.00  0.00     0.261 C 
BRANCH  33  34
ATOM     34  O   UNL A   1      44.501  24.067  24.563  1.00  0.00    -0.460 OA
BRANCH  34  35
ATOM     35  C   UNL A   1      43.300  23.688  25.057  1.00  0.00     0.338 C 
ATOM     36  O   UNL A   1      42.627  22.717  24.760  1.00  0.00    -0.246 OA
BRANCH  35  37
ATOM     37  C   UNL A   1      42.871  24.730  25.994  1.00  0.00     0.060 A 
ATOM     38  C   UNL A   1      43.654  25.847  26.277  1.00  0.00     0.016 A 
ATOM     39  C   UNL A   1      41.633  24.559  26.601  1.00  0.00     0.016 A 
ATOM     40  C   UNL A   1      43.193  26.790  27.206  1.00  0.00     0.010 A 
ATOM     41  C   UNL A   1      41.129  25.558  27.425  1.00  0.00     0.010 A 
ATOM     42  C   UNL A   1      41.928  26.650  27.801  1.00  0.00    -0.014 A 
BRANCH  42  43
ATOM     43  C   UNL A   1      41.476  27.514  28.932  1.00  0.00     0.031 A 
ATOM     44  C   UNL A   1      42.258  27.477  30.230  1.00  0.00     0.074 A 
ATOM     45  C   UNL A   1      40.376  28.290  28.851  1.00  0.00     0.049 A 
ATOM     46  N   UNL A   1      41.989  28.027  31.389  1.00  0.00    -0.248 NA
ATOM     47  C   UNL A   1      43.471  26.640  30.248  1.00  0.00     0.031 C 
ATOM     48  C   UNL A   1      39.475  28.381  27.703  1.00  0.00     0.029 A 
ATOM     49  N   UNL A   1      39.831  29.156  29.769  1.00  0.00    -0.354 N 
ATOM     50  C   UNL A   1      42.955  27.542  32.264  1.00  0.00     0.074 A 
ATOM     51  C   UNL A   1      43.731  26.564  31.541  1.00  0.00     0.031 C 
ATOM     52  C   UNL A   1      38.519  29.290  27.965  1.00  0.00     0.029 A 
ATOM     53  C   UNL A   1      38.719  29.823  29.311  1.00  0.00     0.049 A 
ATOM     54  H   UNL A   1      40.203  29.288  30.670  1.00  0.00     0.167 HD
ATOM     55  C   UNL A   1      43.233  27.922  33.534  1.00  0.00     0.037 A 
ATOM     56  C   UNL A   1      37.961  30.763  29.912  1.00  0.00     0.037 A 
ATOM     57  C   UNL A   1      42.544  28.978  34.217  1.00  0.00     0.049 A 
ATOM     58  C   UNL A   1      38.320  31.223  31.305  1.00  0.00     0.074 A 
ATOM     59  C   UNL A   1      42.803  29.517  35.463  1.00  0.00     0.029 A 
ATOM     60  N   UNL A   1      41.468  29.677  33.691  1.00  0.00    -0.354 N 
ATOM     61  N   UNL A   1      39.288  30.817  32.092  1.00  0.00    -0.248 NA
ATOM     62  C   UNL A   1      37.488  32.287  31.886  1.00  0.00     0.031 C 
ATOM     63  C   UNL A   1      41.861  30.519  35.708  1.00  0.00     0.029 A 
ATOM     64  C   UNL A   1      41.047  30.639  34.591  1.00  0.00     0.049 A 
ATOM     65  H   UNL A   1      41.063  29.513  32.808  1.00  0.00     0.167 HD
ATOM     66  C   UNL A   1      39.204  31.600  33.238  1.00  0.00     0.074 A 
ATOM     67  C   UNL A   1      38.103  32.516  33.038  1.00  0.00     0.031 C 
ATOM     68  C   UNL A   1      39.967  31.563  34.359  1.00  0.00     0.037 A 
BRANCH  55  69
ATOM     69  C   UNL A   1      44.361  27.218  34.236  1.00  0.00     0.064 A 
ATOM     70  C   UNL A   1      44.150  26.050  34.990  1.00  0.00     0.173 A 
ATOM     71  C   UNL A   1      45.669  27.722  34.169  1.00  0.00     0.173 A 
ATOM     72  F   UNL A   1      42.918  25.528  35.097  1.00  0.00    -0.203 F 
ATOM     73  C   UNL A   1      45.189  25.455  35.700  1.00  0.00     0.198 A 
ATOM     74  C   UNL A   1      46.714  27.096  34.843  1.00  0.00     0.198 A 
ATOM     75  F   UNL A   1      45.934  28.826  33.455  1.00  0.00    -0.203 F 
ATOM     76  F   UNL A   1      44.939  24.397  36.485  1.00  0.00    -0.200 F 
ATOM     77  C   UNL A   1      46.470  25.974  35.622  1.00  0.00     0.200 A 
ATOM     78  F   UNL A   1      47.957  27.589  34.753  1.00  0.00    -0.200 F 
ATOM     79  F   UNL A   1      47.469  25.401  36.307  1.00  0.00    -0.200 F 
ENDBRANCH  55  69
BRANCH  56  80
ATOM     80  C   UNL A   1      36.819  31.387  29.188  1.00  0.00     0.064 A 
ATOM     81  C   UNL A   1      36.851  32.743  28.830  1.00  0.00     0.173 A 
ATOM     82  C   UNL A   1      35.659  30.662  28.876  1.00  0.00     0.173 A 
ATOM     83  F   UNL A   1      37.927  33.488  29.125  1.00  0.00    -0.203 F 
ATOM     84  C   UNL A   1      35.758  33.358  28.222  1.00  0.00     0.198 A 
ATOM     85  C   UNL A   1      34.578  31.270  28.239  1.00  0.00     0.198 A 
ATOM     86  F   UNL A   1      35.575  29.361  29.192  1.00  0.00    -0.203 F 
ATOM     87  F   UNL A   1      35.794  34.669  27.951  1.00  0.00    -0.200 F 
ATOM     88  C   UNL A   1      34.622  32.620  27.924  1.00  0.00     0.200 A 
ATOM     89  F   UNL A   1      33.487  30.551  27.941  1.00  0.00    -0.200 F 
ATOM     90  F   UNL A   1      33.569  33.211  27.344  1.00  0.00    -0.200 F 
ENDBRANCH  56  80
BRANCH  68  91
ATOM     91  C   UNL A   1      39.683  32.575  35.431  1.00  0.00     0.064 A 
ATOM     92  C   UNL A   1      40.326  33.820  35.464  1.00  0.00     0.173 A 
ATOM     93  C   UNL A   1      38.706  32.315  36.406  1.00  0.00     0.173 A 
ATOM     94  F   UNL A   1      41.273  34.115  34.560  1.00  0.00    -0.203 F 
ATOM     95  C   UNL A   1      40.024  34.756  36.449  1.00  0.00     0.198 A 
ATOM     96  C   UNL A   1      38.380  33.267  37.367  1.00  0.00     0.198 A 
ATOM     97  F   UNL A   1      38.050  31.144  36.412  1.00  0.00    -0.203 F 
ATOM     98  F   UNL A   1      40.687  35.920  36.490  1.00  0.00    -0.200 F 
ATOM     99  C   UNL A   1      39.045  34.483  37.393  1.00  0.00     0.200 A 
ATOM    100  F   UNL A   1      37.420  33.010  38.266  1.00  0.00    -0.200 F 
ATOM    101  F   UNL A   1      38.746  35.391  38.332  1.00  0.00    -0.200 F 
ENDBRANCH  68  91
ENDBRANCH  42  43
ENDBRANCH  35  37
ENDBRANCH  34  35
ENDBRANCH  33  34
ENDBRANCH  32  33
ENDBRANCH  31  32
ENDBRANCH  30  31
ENDBRANCH  29  30
ENDBRANCH  28  29
ENDBRANCH   1  28
TORSDOF 23
ENDMDL
