MODEL 1
REMARK VINA RESULT:     -10.9      0.000      0.000
REMARK SMILES Cc1nsc(N(C)C(=O)Nc2cccc(Cl)c2)c1C(=O)OCCOCCOCCOCCOC(=O)c1ccc(-c2c3nc(c(-c4c(F)c(F)c(F)c(F)c4F)c4ccc([nH]4)c(-c4c(F)c(F)c(F)c(F)c4F)c4nc(c(-c5c(F)c(F)c(F)c(F)c5F)c5ccc2[nH]5)C=C4)C=C3)cc1
REMARK SMILES IDX 26 1 25 2 24 3 23 4 22 5 21 6 19 7 20 8 18 9 1 10 2 11 3 12
REMARK SMILES IDX 4 13 5 14 6 15 7 16 8 17 9 18 10 19 11 21 12 22 17 23 13 24
REMARK SMILES IDX 15 25 14 26 16 27 27 28 28 29 29 30 30 31 31 32 32 33 33 34
REMARK SMILES IDX 34 35 35 36 36 37 37 38 98 39 38 40 97 41 39 42 40 43 41 44
REMARK SMILES IDX 91 45 42 46 96 47 90 48 92 49 43 50 95 51 89 52 88 53 44 55
REMARK SMILES IDX 76 56 56 57 75 58 57 59 60 60 74 61 93 62 58 63 59 64 73 66
REMARK SMILES IDX 94 67 61 68 45 69 46 70 54 71 47 72 48 73 52 74 55 75 49 76
REMARK SMILES IDX 50 77 53 78 51 79 77 80 78 81 86 82 79 83 80 84 84 85 87 86
REMARK SMILES IDX 81 87 82 88 85 89 83 90 62 91 63 92 71 93 64 94 65 95 69 96
REMARK SMILES IDX 72 97 66 98 67 99 70 100 68 101
REMARK H PARENT 10 20 92 54 60 65
REMARK Flexibility Score: inf
ROOT
ATOM      1  C   UNL A   1      32.904  29.653  25.029  1.00  0.00     0.188 C 
ENDROOT
BRANCH   1   2
ATOM      2  C   UNL A   1      31.551  28.942  24.794  1.00  0.00     0.188 C 
BRANCH   2   3
ATOM      3  O   UNL A   1      30.982  28.296  25.927  1.00  0.00    -0.376 OA
BRANCH   3   4
ATOM      4  C   UNL A   1      30.908  26.878  25.897  1.00  0.00     0.202 C 
BRANCH   4   5
ATOM      5  C   UNL A   1      32.286  26.224  25.819  1.00  0.00     0.261 C 
BRANCH   5   6
ATOM      6  O   UNL A   1      32.232  24.876  26.303  1.00  0.00    -0.460 OA
BRANCH   6   7
ATOM      7  C   UNL A   1      32.013  23.891  25.379  1.00  0.00     0.343 C 
ATOM      8  O   UNL A   1      31.008  23.221  25.309  1.00  0.00    -0.246 OA
BRANCH   7   9
ATOM      9  C   UNL A   1      33.215  23.681  24.579  1.00  0.00     0.118 A 
ATOM     10  C   UNL A   1      32.153  24.673  22.377  1.00  0.00     0.069 C 
ATOM     11  C   UNL A   1      33.284  24.139  23.197  1.00  0.00     0.068 A 
ATOM     12  N   UNL A   1      34.461  24.017  22.594  1.00  0.00    -0.195 NA
ATOM     13  S   UNL A   1      35.509  23.314  23.639  1.00  0.00    -0.017 S 
ATOM     14  C   UNL A   1      34.340  22.888  24.854  1.00  0.00     0.134 A 
BRANCH  14  15
ATOM     15  N   UNL A   1      34.727  21.850  25.769  1.00  0.00    -0.286 N 
ATOM     16  C   UNL A   1      36.103  21.310  25.715  1.00  0.00     0.156 C 
BRANCH  15  17
ATOM     17  C   UNL A   1      33.746  21.224  26.554  1.00  0.00     0.326 C 
ATOM     18  O   UNL A   1      33.618  21.377  27.765  1.00  0.00    -0.248 OA
ATOM     19  N   UNL A   1      32.717  20.561  25.932  1.00  0.00    -0.307 N 
ATOM     20  H   UNL A   1      31.816  20.880  26.165  1.00  0.00     0.171 HD
BRANCH  19  21
ATOM     21  C   UNL A   1      32.750  19.499  25.016  1.00  0.00     0.044 A 
ATOM     22  C   UNL A   1      32.548  19.695  23.649  1.00  0.00     0.026 A 
ATOM     23  C   UNL A   1      32.988  18.212  25.510  1.00  0.00     0.046 A 
ATOM     24  C   UNL A   1      32.521  18.601  22.783  1.00  0.00     0.004 A 
ATOM     25  C   UNL A   1      32.931  17.122  24.643  1.00  0.00     0.043 A 
ATOM     26  C   UNL A   1      32.694  17.310  23.284  1.00  0.00     0.020 A 
ATOM     27  Cl  UNL A   1      33.118  15.528  25.264  1.00  0.00    -0.084 Cl
ENDBRANCH  19  21
ENDBRANCH  15  17
ENDBRANCH  14  15
ENDBRANCH   7   9
ENDBRANCH   6   7
ENDBRANCH   5   6
ENDBRANCH   4   5
ENDBRANCH   3   4
ENDBRANCH   2   3
ENDBRANCH   1   2
BRANCH   1  28
ATOM     28  O   UNL A   1      33.562  29.676  26.293  1.00  0.00    -0.377 OA
BRANCH  28  29
ATOM     29  C   UNL A   1      33.378  30.808  27.126  1.00  0.00     0.188 C 
BRANCH  29  30
ATOM     30  C   UNL A   1      34.579  31.161  28.038  1.00  0.00     0.188 C 
BRANCH  30  31
ATOM     31  O   UNL A   1      35.203  32.405  27.727  1.00  0.00    -0.376 OA
BRANCH  31  32
ATOM     32  C   UNL A   1      36.293  32.877  28.504  1.00  0.00     0.202 C 
BRANCH  32  33
ATOM     33  C   UNL A   1      36.395  32.355  29.938  1.00  0.00     0.261 C 
BRANCH  33  34
ATOM     34  O   UNL A   1      37.302  31.281  30.086  1.00  0.00    -0.460 OA
BRANCH  34  35
ATOM     35  C   UNL A   1      36.872  30.269  30.855  1.00  0.00     0.338 C 
ATOM     36  O   UNL A   1      36.273  30.345  31.914  1.00  0.00    -0.246 OA
BRANCH  35  37
ATOM     37  C   UNL A   1      37.293  29.008  30.231  1.00  0.00     0.060 A 
ATOM     38  C   UNL A   1      37.923  28.107  31.089  1.00  0.00     0.016 A 
ATOM     39  C   UNL A   1      37.451  28.973  28.839  1.00  0.00     0.016 A 
ATOM     40  C   UNL A   1      39.022  27.457  30.598  1.00  0.00     0.010 A 
ATOM     41  C   UNL A   1      38.564  28.348  28.353  1.00  0.00     0.010 A 
ATOM     42  C   UNL A   1      39.398  27.731  29.281  1.00  0.00    -0.014 A 
BRANCH  42  43
ATOM     43  C   UNL A   1      40.784  27.519  28.952  1.00  0.00     0.031 A 
ATOM     44  C   UNL A   1      41.079  26.206  28.368  1.00  0.00     0.074 A 
ATOM     45  C   UNL A   1      41.682  28.503  29.139  1.00  0.00     0.049 A 
ATOM     46  N   UNL A   1      41.885  25.305  28.817  1.00  0.00    -0.248 NA
ATOM     47  C   UNL A   1      40.289  25.800  27.199  1.00  0.00     0.031 C 
ATOM     48  C   UNL A   1      41.438  29.916  29.448  1.00  0.00     0.029 A 
ATOM     49  N   UNL A   1      43.026  28.455  28.963  1.00  0.00    -0.354 N 
ATOM     50  C   UNL A   1      41.812  24.261  27.907  1.00  0.00     0.074 A 
ATOM     51  C   UNL A   1      40.720  24.555  27.017  1.00  0.00     0.031 C 
ATOM     52  C   UNL A   1      42.564  30.620  29.196  1.00  0.00     0.029 A 
ATOM     53  C   UNL A   1      43.618  29.696  28.810  1.00  0.00     0.049 A 
ATOM     54  H   UNL A   1      43.535  27.613  28.945  1.00  0.00     0.167 HD
ATOM     55  C   UNL A   1      42.791  23.325  27.826  1.00  0.00     0.037 A 
ATOM     56  C   UNL A   1      44.842  29.923  28.276  1.00  0.00     0.037 A 
ATOM     57  C   UNL A   1      43.593  23.285  29.018  1.00  0.00     0.049 A 
ATOM     58  C   UNL A   1      45.598  28.640  28.328  1.00  0.00     0.074 A 
ATOM     59  C   UNL A   1      43.317  23.014  30.345  1.00  0.00     0.029 A 
ATOM     60  N   UNL A   1      44.824  23.893  29.008  1.00  0.00    -0.354 N 
ATOM     61  N   UNL A   1      46.023  28.083  29.430  1.00  0.00    -0.248 NA
ATOM     62  C   UNL A   1      45.490  27.740  27.184  1.00  0.00     0.031 C 
ATOM     63  C   UNL A   1      44.171  23.877  31.090  1.00  0.00     0.029 A 
ATOM     64  C   UNL A   1      44.931  24.607  30.176  1.00  0.00     0.049 A 
ATOM     65  H   UNL A   1      45.501  23.829  28.297  1.00  0.00     0.167 HD
ATOM     66  C   UNL A   1      45.843  26.719  29.235  1.00  0.00     0.074 A 
ATOM     67  C   UNL A   1      45.605  26.563  27.805  1.00  0.00     0.031 C 
ATOM     68  C   UNL A   1      45.611  25.876  30.285  1.00  0.00     0.037 A 
BRANCH  55  69
ATOM     69  C   UNL A   1      43.196  22.666  26.540  1.00  0.00     0.064 A 
ATOM     70  C   UNL A   1      43.019  21.280  26.391  1.00  0.00     0.173 A 
ATOM     71  C   UNL A   1      43.996  23.294  25.559  1.00  0.00     0.173 A 
ATOM     72  F   UNL A   1      42.300  20.583  27.284  1.00  0.00    -0.203 F 
ATOM     73  C   UNL A   1      43.648  20.567  25.369  1.00  0.00     0.198 A 
ATOM     74  C   UNL A   1      44.570  22.590  24.506  1.00  0.00     0.198 A 
ATOM     75  F   UNL A   1      44.343  24.585  25.643  1.00  0.00    -0.203 F 
ATOM     76  F   UNL A   1      43.550  19.232  25.336  1.00  0.00    -0.200 F 
ATOM     77  C   UNL A   1      44.423  21.222  24.429  1.00  0.00     0.200 A 
ATOM     78  F   UNL A   1      45.332  23.241  23.617  1.00  0.00    -0.200 F 
ATOM     79  F   UNL A   1      45.070  20.533  23.480  1.00  0.00    -0.200 F 
ENDBRANCH  55  69
BRANCH  56  80
ATOM     80  C   UNL A   1      45.252  31.083  27.447  1.00  0.00     0.064 A 
ATOM     81  C   UNL A   1      44.407  31.600  26.454  1.00  0.00     0.173 A 
ATOM     82  C   UNL A   1      46.392  31.855  27.755  1.00  0.00     0.173 A 
ATOM     83  F   UNL A   1      43.269  30.965  26.140  1.00  0.00    -0.203 F 
ATOM     84  C   UNL A   1      44.687  32.809  25.807  1.00  0.00     0.198 A 
ATOM     85  C   UNL A   1      46.682  33.049  27.096  1.00  0.00     0.198 A 
ATOM     86  F   UNL A   1      47.209  31.519  28.763  1.00  0.00    -0.203 F 
ATOM     87  F   UNL A   1      43.829  33.299  24.903  1.00  0.00    -0.200 F 
ATOM     88  C   UNL A   1      45.824  33.533  26.129  1.00  0.00     0.200 A 
ATOM     89  F   UNL A   1      47.770  33.753  27.445  1.00  0.00    -0.200 F 
ATOM     90  F   UNL A   1      46.073  34.710  25.539  1.00  0.00    -0.200 F 
ENDBRANCH  56  80
BRANCH  68  91
ATOM     91  C   UNL A   1      45.804  26.413  31.675  1.00  0.00     0.064 A 
ATOM     92  C   UNL A   1      44.774  27.016  32.418  1.00  0.00     0.173 A 
ATOM     93  C   UNL A   1      47.011  26.156  32.338  1.00  0.00     0.173 A 
ATOM     94  F   UNL A   1      43.555  27.188  31.889  1.00  0.00    -0.203 F 
ATOM     95  C   UNL A   1      44.961  27.387  33.747  1.00  0.00     0.198 A 
ATOM     96  C   UNL A   1      47.184  26.494  33.678  1.00  0.00     0.198 A 
ATOM     97  F   UNL A   1      48.007  25.522  31.700  1.00  0.00    -0.203 F 
ATOM     98  F   UNL A   1      43.963  27.968  34.429  1.00  0.00    -0.200 F 
ATOM     99  C   UNL A   1      46.163  27.119  34.378  1.00  0.00     0.200 A 
ATOM    100  F   UNL A   1      48.328  26.183  34.302  1.00  0.00    -0.200 F 
ATOM    101  F   UNL A   1      46.328  27.432  35.671  1.00  0.00    -0.200 F 
ENDBRANCH  68  91
ENDBRANCH  42  43
ENDBRANCH  35  37
ENDBRANCH  34  35
ENDBRANCH  33  34
ENDBRANCH  32  33
ENDBRANCH  31  32
ENDBRANCH  30  31
ENDBRANCH  29  30
ENDBRANCH  28  29
ENDBRANCH   1  28
TORSDOF 23
ENDMDL
MODEL 2
REMARK VINA RESULT:     -10.9      3.691      8.396
REMARK SMILES Cc1nsc(N(C)C(=O)Nc2cccc(Cl)c2)c1C(=O)OCCOCCOCCOCCOC(=O)c1ccc(-c2c3nc(c(-c4c(F)c(F)c(F)c(F)c4F)c4ccc([nH]4)c(-c4c(F)c(F)c(F)c(F)c4F)c4nc(c(-c5c(F)c(F)c(F)c(F)c5F)c5ccc2[nH]5)C=C4)C=C3)cc1
REMARK SMILES IDX 26 1 25 2 24 3 23 4 22 5 21 6 19 7 20 8 18 9 1 10 2 11 3 12
REMARK SMILES IDX 4 13 5 14 6 15 7 16 8 17 9 18 10 19 11 21 12 22 17 23 13 24
REMARK SMILES IDX 15 25 14 26 16 27 27 28 28 29 29 30 30 31 31 32 32 33 33 34
REMARK SMILES IDX 34 35 35 36 36 37 37 38 98 39 38 40 97 41 39 42 40 43 41 44
REMARK SMILES IDX 91 45 42 46 96 47 90 48 92 49 43 50 95 51 89 52 88 53 44 55
REMARK SMILES IDX 76 56 56 57 75 58 57 59 60 60 74 61 93 62 58 63 59 64 73 66
REMARK SMILES IDX 94 67 61 68 45 69 46 70 54 71 47 72 48 73 52 74 55 75 49 76
REMARK SMILES IDX 50 77 53 78 51 79 77 80 78 81 86 82 79 83 80 84 84 85 87 86
REMARK SMILES IDX 81 87 82 88 85 89 83 90 62 91 63 92 71 93 64 94 65 95 69 96
REMARK SMILES IDX 72 97 66 98 67 99 70 100 68 101
REMARK H PARENT 10 20 92 54 60 65
REMARK Flexibility Score: inf
ROOT
ATOM      1  C   UNL A   1      38.047  21.766  25.731  1.00  0.00     0.188 C 
ENDROOT
BRANCH   1   2
ATOM      2  C   UNL A   1      37.220  22.084  24.463  1.00  0.00     0.188 C 
BRANCH   2   3
ATOM      3  O   UNL A   1      35.806  22.039  24.614  1.00  0.00    -0.376 OA
BRANCH   3   4
ATOM      4  C   UNL A   1      35.032  22.830  23.724  1.00  0.00     0.202 C 
BRANCH   4   5
ATOM      5  C   UNL A   1      34.278  23.948  24.443  1.00  0.00     0.261 C 
BRANCH   5   6
ATOM      6  O   UNL A   1      34.398  25.180  23.722  1.00  0.00    -0.460 OA
BRANCH   6   7
ATOM      7  C   UNL A   1      33.555  25.365  22.660  1.00  0.00     0.343 C 
ATOM      8  O   UNL A   1      33.714  24.885  21.560  1.00  0.00    -0.246 OA
BRANCH   7   9
ATOM      9  C   UNL A   1      32.514  26.325  23.010  1.00  0.00     0.118 A 
ATOM     10  C   UNL A   1      33.910  28.416  22.209  1.00  0.00     0.069 C 
ATOM     11  C   UNL A   1      32.670  27.742  22.706  1.00  0.00     0.068 A 
ATOM     12  N   UNL A   1      31.617  28.516  22.946  1.00  0.00    -0.195 NA
ATOM     13  S   UNL A   1      30.426  27.588  23.582  1.00  0.00    -0.017 S 
ATOM     14  C   UNL A   1      31.381  26.155  23.821  1.00  0.00     0.134 A 
BRANCH  14  15
ATOM     15  N   UNL A   1      30.873  25.206  24.773  1.00  0.00    -0.286 N 
ATOM     16  C   UNL A   1      30.579  23.824  24.336  1.00  0.00     0.156 C 
BRANCH  15  17
ATOM     17  C   UNL A   1      30.469  25.652  26.041  1.00  0.00     0.326 C 
ATOM     18  O   UNL A   1      29.391  25.390  26.564  1.00  0.00    -0.248 OA
ATOM     19  N   UNL A   1      31.396  26.242  26.866  1.00  0.00    -0.307 N 
ATOM     20  H   UNL A   1      31.511  25.804  27.740  1.00  0.00     0.171 HD
BRANCH  19  21
ATOM     21  C   UNL A   1      32.203  27.370  26.658  1.00  0.00     0.044 A 
ATOM     22  C   UNL A   1      33.576  27.263  26.426  1.00  0.00     0.026 A 
ATOM     23  C   UNL A   1      31.595  28.629  26.695  1.00  0.00     0.046 A 
ATOM     24  C   UNL A   1      34.352  28.416  26.292  1.00  0.00     0.004 A 
ATOM     25  C   UNL A   1      32.382  29.775  26.588  1.00  0.00     0.043 A 
ATOM     26  C   UNL A   1      33.757  29.674  26.393  1.00  0.00     0.020 A 
ATOM     27  Cl  UNL A   1      31.653  31.327  26.737  1.00  0.00    -0.084 Cl
ENDBRANCH  19  21
ENDBRANCH  15  17
ENDBRANCH  14  15
ENDBRANCH   7   9
ENDBRANCH   6   7
ENDBRANCH   5   6
ENDBRANCH   4   5
ENDBRANCH   3   4
ENDBRANCH   2   3
ENDBRANCH   1   2
BRANCH   1  28
ATOM     28  O   UNL A   1      39.175  22.537  26.138  1.00  0.00    -0.377 OA
BRANCH  28  29
ATOM     29  C   UNL A   1      40.439  21.899  26.198  1.00  0.00     0.188 C 
BRANCH  29  30
ATOM     30  C   UNL A   1      40.799  21.268  27.565  1.00  0.00     0.188 C 
BRANCH  30  31
ATOM     31  O   UNL A   1      41.443  19.998  27.470  1.00  0.00    -0.376 OA
BRANCH  31  32
ATOM     32  C   UNL A   1      41.655  19.392  26.205  1.00  0.00     0.202 C 
BRANCH  32  33
ATOM     33  C   UNL A   1      43.084  19.418  25.658  1.00  0.00     0.261 C 
BRANCH  33  34
ATOM     34  O   UNL A   1      43.707  20.683  25.762  1.00  0.00    -0.460 OA
BRANCH  34  35
ATOM     35  C   UNL A   1      44.787  20.856  24.984  1.00  0.00     0.338 C 
ATOM     36  O   UNL A   1      45.635  20.028  24.698  1.00  0.00    -0.246 OA
BRANCH  35  37
ATOM     37  C   UNL A   1      44.824  22.260  24.558  1.00  0.00     0.060 A 
ATOM     38  C   UNL A   1      46.013  22.931  24.839  1.00  0.00     0.016 A 
ATOM     39  C   UNL A   1      43.609  22.922  24.336  1.00  0.00     0.016 A 
ATOM     40  C   UNL A   1      45.900  24.210  25.312  1.00  0.00     0.010 A 
ATOM     41  C   UNL A   1      43.489  24.188  24.835  1.00  0.00     0.010 A 
ATOM     42  C   UNL A   1      44.613  24.736  25.446  1.00  0.00    -0.014 A 
BRANCH  42  43
ATOM     43  C   UNL A   1      44.446  25.788  26.415  1.00  0.00     0.031 A 
ATOM     44  C   UNL A   1      45.455  26.851  26.343  1.00  0.00     0.074 A 
ATOM     45  C   UNL A   1      43.399  25.770  27.259  1.00  0.00     0.049 A 
ATOM     46  N   UNL A   1      46.270  27.230  27.267  1.00  0.00    -0.248 NA
ATOM     47  C   UNL A   1      45.661  27.491  25.038  1.00  0.00     0.031 C 
ATOM     48  C   UNL A   1      42.208  24.914  27.220  1.00  0.00     0.029 A 
ATOM     49  N   UNL A   1      43.130  26.624  28.278  1.00  0.00    -0.354 N 
ATOM     50  C   UNL A   1      47.006  28.263  26.707  1.00  0.00     0.074 A 
ATOM     51  C   UNL A   1      46.692  28.288  25.302  1.00  0.00     0.031 C 
ATOM     52  C   UNL A   1      41.255  25.454  28.011  1.00  0.00     0.029 A 
ATOM     53  C   UNL A   1      41.806  26.624  28.677  1.00  0.00     0.049 A 
ATOM     54  H   UNL A   1      43.815  27.194  28.696  1.00  0.00     0.167 HD
ATOM     55  C   UNL A   1      47.669  29.160  27.480  1.00  0.00     0.037 A 
ATOM     56  C   UNL A   1      41.200  27.599  29.395  1.00  0.00     0.037 A 
ATOM     57  C   UNL A   1      47.887  28.659  28.810  1.00  0.00     0.049 A 
ATOM     58  C   UNL A   1      42.271  28.395  30.060  1.00  0.00     0.074 A 
ATOM     59  C   UNL A   1      48.572  27.573  29.321  1.00  0.00     0.029 A 
ATOM     60  N   UNL A   1      47.072  29.099  29.824  1.00  0.00    -0.354 N 
ATOM     61  N   UNL A   1      43.023  27.948  31.030  1.00  0.00    -0.248 NA
ATOM     62  C   UNL A   1      42.812  29.543  29.339  1.00  0.00     0.031 C 
ATOM     63  C   UNL A   1      47.805  27.138  30.440  1.00  0.00     0.029 A 
ATOM     64  C   UNL A   1      46.711  27.997  30.558  1.00  0.00     0.049 A 
ATOM     65  H   UNL A   1      46.796  30.029  29.991  1.00  0.00     0.167 HD
ATOM     66  C   UNL A   1      44.283  28.477  30.780  1.00  0.00     0.074 A 
ATOM     67  C   UNL A   1      44.070  29.524  29.787  1.00  0.00     0.031 C 
ATOM     68  C   UNL A   1      45.417  27.827  31.177  1.00  0.00     0.037 A 
BRANCH  55  69
ATOM     69  C   UNL A   1      47.843  30.602  27.104  1.00  0.00     0.064 A 
ATOM     70  C   UNL A   1      49.132  31.163  27.109  1.00  0.00     0.173 A 
ATOM     71  C   UNL A   1      46.771  31.517  27.005  1.00  0.00     0.173 A 
ATOM     72  F   UNL A   1      50.217  30.383  27.227  1.00  0.00    -0.203 F 
ATOM     73  C   UNL A   1      49.328  32.545  27.078  1.00  0.00     0.198 A 
ATOM     74  C   UNL A   1      46.974  32.890  26.911  1.00  0.00     0.198 A 
ATOM     75  F   UNL A   1      45.493  31.132  27.107  1.00  0.00    -0.203 F 
ATOM     76  F   UNL A   1      50.565  33.041  27.206  1.00  0.00    -0.200 F 
ATOM     77  C   UNL A   1      48.249  33.406  26.980  1.00  0.00     0.200 A 
ATOM     78  F   UNL A   1      45.915  33.708  26.836  1.00  0.00    -0.200 F 
ATOM     79  F   UNL A   1      48.434  34.733  27.004  1.00  0.00    -0.200 F 
ENDBRANCH  55  69
BRANCH  56  80
ATOM     80  C   UNL A   1      39.796  28.061  29.268  1.00  0.00     0.064 A 
ATOM     81  C   UNL A   1      38.943  28.105  30.380  1.00  0.00     0.173 A 
ATOM     82  C   UNL A   1      39.317  28.679  28.093  1.00  0.00     0.173 A 
ATOM     83  F   UNL A   1      39.341  27.597  31.555  1.00  0.00    -0.203 F 
ATOM     84  C   UNL A   1      37.690  28.726  30.319  1.00  0.00     0.198 A 
ATOM     85  C   UNL A   1      38.060  29.278  28.027  1.00  0.00     0.198 A 
ATOM     86  F   UNL A   1      40.090  28.797  27.004  1.00  0.00    -0.203 F 
ATOM     87  F   UNL A   1      36.925  28.797  31.418  1.00  0.00    -0.200 F 
ATOM     88  C   UNL A   1      37.249  29.311  29.143  1.00  0.00     0.200 A 
ATOM     89  F   UNL A   1      37.665  29.870  26.890  1.00  0.00    -0.200 F 
ATOM     90  F   UNL A   1      36.067  29.940  29.096  1.00  0.00    -0.200 F 
ENDBRANCH  56  80
BRANCH  68  91
ATOM     91  C   UNL A   1      45.269  26.657  32.107  1.00  0.00     0.064 A 
ATOM     92  C   UNL A   1      45.248  26.784  33.507  1.00  0.00     0.173 A 
ATOM     93  C   UNL A   1      44.964  25.399  31.570  1.00  0.00     0.173 A 
ATOM     94  F   UNL A   1      45.414  27.978  34.091  1.00  0.00    -0.203 F 
ATOM     95  C   UNL A   1      44.983  25.693  34.330  1.00  0.00     0.198 A 
ATOM     96  C   UNL A   1      44.663  24.317  32.393  1.00  0.00     0.198 A 
ATOM     97  F   UNL A   1      44.903  25.234  30.240  1.00  0.00    -0.203 F 
ATOM     98  F   UNL A   1      44.978  25.841  35.662  1.00  0.00    -0.200 F 
ATOM     99  C   UNL A   1      44.683  24.462  33.772  1.00  0.00     0.200 A 
ATOM    100  F   UNL A   1      44.319  23.142  31.850  1.00  0.00    -0.200 F 
ATOM    101  F   UNL A   1      44.381  23.421  34.562  1.00  0.00    -0.200 F 
ENDBRANCH  68  91
ENDBRANCH  42  43
ENDBRANCH  35  37
ENDBRANCH  34  35
ENDBRANCH  33  34
ENDBRANCH  32  33
ENDBRANCH  31  32
ENDBRANCH  30  31
ENDBRANCH  29  30
ENDBRANCH  28  29
ENDBRANCH   1  28
TORSDOF 23
ENDMDL
MODEL 3
REMARK VINA RESULT:     -10.8      4.203      8.763
REMARK SMILES Cc1nsc(N(C)C(=O)Nc2cccc(Cl)c2)c1C(=O)OCCOCCOCCOCCOC(=O)c1ccc(-c2c3nc(c(-c4c(F)c(F)c(F)c(F)c4F)c4ccc([nH]4)c(-c4c(F)c(F)c(F)c(F)c4F)c4nc(c(-c5c(F)c(F)c(F)c(F)c5F)c5ccc2[nH]5)C=C4)C=C3)cc1
REMARK SMILES IDX 26 1 25 2 24 3 23 4 22 5 21 6 19 7 20 8 18 9 1 10 2 11 3 12
REMARK SMILES IDX 4 13 5 14 6 15 7 16 8 17 9 18 10 19 11 21 12 22 17 23 13 24
REMARK SMILES IDX 15 25 14 26 16 27 27 28 28 29 29 30 30 31 31 32 32 33 33 34
REMARK SMILES IDX 34 35 35 36 36 37 37 38 98 39 38 40 97 41 39 42 40 43 41 44
REMARK SMILES IDX 91 45 42 46 96 47 90 48 92 49 43 50 95 51 89 52 88 53 44 55
REMARK SMILES IDX 76 56 56 57 75 58 57 59 60 60 74 61 93 62 58 63 59 64 73 66
REMARK SMILES IDX 94 67 61 68 45 69 46 70 54 71 47 72 48 73 52 74 55 75 49 76
REMARK SMILES IDX 50 77 53 78 51 79 77 80 78 81 86 82 79 83 80 84 84 85 87 86
REMARK SMILES IDX 81 87 82 88 85 89 83 90 62 91 63 92 71 93 64 94 65 95 69 96
REMARK SMILES IDX 72 97 66 98 67 99 70 100 68 101
REMARK H PARENT 10 20 92 54 60 65
REMARK Flexibility Score: inf
ROOT
ATOM      1  C   UNL A   1      38.737  21.603  25.479  1.00  0.00     0.188 C 
ENDROOT
BRANCH   1   2
ATOM      2  C   UNL A   1      37.229  21.647  25.820  1.00  0.00     0.188 C 
BRANCH   2   3
ATOM      3  O   UNL A   1      36.516  22.782  25.342  1.00  0.00    -0.376 OA
BRANCH   3   4
ATOM      4  C   UNL A   1      36.510  23.001  23.938  1.00  0.00     0.202 C 
BRANCH   4   5
ATOM      5  C   UNL A   1      35.110  23.288  23.399  1.00  0.00     0.261 C 
BRANCH   5   6
ATOM      6  O   UNL A   1      34.667  24.587  23.813  1.00  0.00    -0.460 OA
BRANCH   6   7
ATOM      7  C   UNL A   1      33.610  25.129  23.135  1.00  0.00     0.343 C 
ATOM      8  O   UNL A   1      33.594  25.354  21.946  1.00  0.00    -0.246 OA
BRANCH   7   9
ATOM      9  C   UNL A   1      32.562  25.516  24.072  1.00  0.00     0.118 A 
ATOM     10  C   UNL A   1      31.256  23.234  23.847  1.00  0.00     0.069 C 
ATOM     11  C   UNL A   1      31.517  24.575  24.457  1.00  0.00     0.068 A 
ATOM     12  N   UNL A   1      30.685  24.976  25.411  1.00  0.00    -0.195 NA
ATOM     13  S   UNL A   1      31.093  26.502  25.847  1.00  0.00    -0.017 S 
ATOM     14  C   UNL A   1      32.235  26.788  24.568  1.00  0.00     0.134 A 
BRANCH  14  15
ATOM     15  N   UNL A   1      32.527  28.164  24.276  1.00  0.00    -0.286 N 
ATOM     16  C   UNL A   1      32.576  29.146  25.381  1.00  0.00     0.156 C 
BRANCH  15  17
ATOM     17  C   UNL A   1      32.558  28.593  22.940  1.00  0.00     0.326 C 
ATOM     18  O   UNL A   1      33.573  28.931  22.338  1.00  0.00    -0.248 OA
ATOM     19  N   UNL A   1      31.437  28.433  22.163  1.00  0.00    -0.307 N 
ATOM     20  H   UNL A   1      31.572  27.900  21.346  1.00  0.00     0.171 HD
BRANCH  19  21
ATOM     21  C   UNL A   1      30.132  28.910  22.350  1.00  0.00     0.044 A 
ATOM     22  C   UNL A   1      29.151  28.149  22.988  1.00  0.00     0.026 A 
ATOM     23  C   UNL A   1      29.824  30.188  21.871  1.00  0.00     0.046 A 
ATOM     24  C   UNL A   1      27.847  28.637  23.092  1.00  0.00     0.004 A 
ATOM     25  C   UNL A   1      28.514  30.656  21.953  1.00  0.00     0.043 A 
ATOM     26  C   UNL A   1      27.524  29.884  22.557  1.00  0.00     0.020 A 
ATOM     27  Cl  UNL A   1      28.108  32.183  21.271  1.00  0.00    -0.084 Cl
ENDBRANCH  19  21
ENDBRANCH  15  17
ENDBRANCH  14  15
ENDBRANCH   7   9
ENDBRANCH   6   7
ENDBRANCH   5   6
ENDBRANCH   4   5
ENDBRANCH   3   4
ENDBRANCH   2   3
ENDBRANCH   1   2
BRANCH   1  28
ATOM     28  O   UNL A   1      39.739  21.251  26.430  1.00  0.00    -0.377 OA
BRANCH  28  29
ATOM     29  C   UNL A   1      40.359  19.981  26.315  1.00  0.00     0.188 C 
BRANCH  29  30
ATOM     30  C   UNL A   1      41.809  19.901  26.849  1.00  0.00     0.188 C 
BRANCH  30  31
ATOM     31  O   UNL A   1      42.713  19.214  25.985  1.00  0.00    -0.376 OA
BRANCH  31  32
ATOM     32  C   UNL A   1      43.685  19.934  25.243  1.00  0.00     0.202 C 
BRANCH  32  33
ATOM     33  C   UNL A   1      43.848  21.418  25.576  1.00  0.00     0.261 C 
BRANCH  33  34
ATOM     34  O   UNL A   1      42.831  22.235  25.031  1.00  0.00    -0.460 OA
BRANCH  34  35
ATOM     35  C   UNL A   1      42.967  23.550  25.262  1.00  0.00     0.338 C 
ATOM     36  O   UNL A   1      43.744  24.321  24.726  1.00  0.00    -0.246 OA
BRANCH  35  37
ATOM     37  C   UNL A   1      42.041  23.924  26.339  1.00  0.00     0.060 A 
ATOM     38  C   UNL A   1      40.993  24.758  25.953  1.00  0.00     0.016 A 
ATOM     39  C   UNL A   1      42.483  23.818  27.665  1.00  0.00     0.016 A 
ATOM     40  C   UNL A   1      40.678  25.783  26.803  1.00  0.00     0.010 A 
ATOM     41  C   UNL A   1      42.192  24.857  28.504  1.00  0.00     0.010 A 
ATOM     42  C   UNL A   1      41.412  25.887  27.987  1.00  0.00    -0.014 A 
BRANCH  42  43
ATOM     43  C   UNL A   1      41.490  27.196  28.581  1.00  0.00     0.031 A 
ATOM     44  C   UNL A   1      42.632  28.003  28.137  1.00  0.00     0.074 A 
ATOM     45  C   UNL A   1      40.533  27.612  29.431  1.00  0.00     0.049 A 
ATOM     46  N   UNL A   1      43.575  28.504  28.860  1.00  0.00    -0.248 NA
ATOM     47  C   UNL A   1      42.809  28.173  26.689  1.00  0.00     0.031 C 
ATOM     48  C   UNL A   1      39.231  26.995  29.713  1.00  0.00     0.029 A 
ATOM     49  N   UNL A   1      40.485  28.767  30.139  1.00  0.00    -0.354 N 
ATOM     50  C   UNL A   1      44.399  29.180  27.973  1.00  0.00     0.074 A 
ATOM     51  C   UNL A   1      43.965  28.828  26.646  1.00  0.00     0.031 C 
ATOM     52  C   UNL A   1      38.443  27.901  30.332  1.00  0.00     0.029 A 
ATOM     53  C   UNL A   1      39.217  29.109  30.573  1.00  0.00     0.049 A 
ATOM     54  H   UNL A   1      41.281  29.314  30.328  1.00  0.00     0.167 HD
ATOM     55  C   UNL A   1      45.253  30.145  28.397  1.00  0.00     0.037 A 
ATOM     56  C   UNL A   1      38.829  30.344  30.971  1.00  0.00     0.037 A 
ATOM     57  C   UNL A   1      45.517  30.044  29.806  1.00  0.00     0.049 A 
ATOM     58  C   UNL A   1      40.060  31.113  31.306  1.00  0.00     0.074 A 
ATOM     59  C   UNL A   1      46.080  29.066  30.605  1.00  0.00     0.029 A 
ATOM     60  N   UNL A   1      44.870  30.900  30.663  1.00  0.00    -0.354 N 
ATOM     61  N   UNL A   1      40.824  30.864  32.336  1.00  0.00    -0.248 NA
ATOM     62  C   UNL A   1      40.694  31.880  30.239  1.00  0.00     0.031 C 
ATOM     63  C   UNL A   1      45.363  29.127  31.834  1.00  0.00     0.029 A 
ATOM     64  C   UNL A   1      44.421  30.150  31.721  1.00  0.00     0.049 A 
ATOM     65  H   UNL A   1      44.749  31.869  30.540  1.00  0.00     0.167 HD
ATOM     66  C   UNL A   1      42.120  31.073  31.880  1.00  0.00     0.074 A 
ATOM     67  C   UNL A   1      41.972  31.789  30.618  1.00  0.00     0.031 C 
ATOM     68  C   UNL A   1      43.178  30.395  32.414  1.00  0.00     0.037 A 
BRANCH  55  69
ATOM     69  C   UNL A   1      45.601  31.354  27.579  1.00  0.00     0.064 A 
ATOM     70  C   UNL A   1      46.923  31.530  27.138  1.00  0.00     0.173 A 
ATOM     71  C   UNL A   1      44.751  32.475  27.444  1.00  0.00     0.173 A 
ATOM     72  F   UNL A   1      47.818  30.536  27.247  1.00  0.00    -0.203 F 
ATOM     73  C   UNL A   1      47.376  32.758  26.654  1.00  0.00     0.198 A 
ATOM     74  C   UNL A   1      45.190  33.679  26.903  1.00  0.00     0.198 A 
ATOM     75  F   UNL A   1      43.503  32.486  27.929  1.00  0.00    -0.203 F 
ATOM     76  F   UNL A   1      48.672  32.916  26.359  1.00  0.00    -0.200 F 
ATOM     77  C   UNL A   1      46.510  33.831  26.539  1.00  0.00     0.200 A 
ATOM     78  F   UNL A   1      44.340  34.711  26.817  1.00  0.00    -0.200 F 
ATOM     79  F   UNL A   1      46.956  35.024  26.124  1.00  0.00    -0.200 F 
ENDBRANCH  55  69
BRANCH  56  80
ATOM     80  C   UNL A   1      37.500  30.971  30.763  1.00  0.00     0.064 A 
ATOM     81  C   UNL A   1      36.683  31.316  31.849  1.00  0.00     0.173 A 
ATOM     82  C   UNL A   1      37.092  31.453  29.501  1.00  0.00     0.173 A 
ATOM     83  F   UNL A   1      37.026  30.954  33.093  1.00  0.00    -0.203 F 
ATOM     84  C   UNL A   1      35.527  32.089  31.682  1.00  0.00     0.198 A 
ATOM     85  C   UNL A   1      35.930  32.205  29.332  1.00  0.00     0.198 A 
ATOM     86  F   UNL A   1      37.854  31.283  28.411  1.00  0.00    -0.203 F 
ATOM     87  F   UNL A   1      34.801  32.444  32.750  1.00  0.00    -0.200 F 
ATOM     88  C   UNL A   1      35.152  32.532  30.424  1.00  0.00     0.200 A 
ATOM     89  F   UNL A   1      35.602  32.655  28.112  1.00  0.00    -0.200 F 
ATOM     90  F   UNL A   1      34.069  33.305  30.269  1.00  0.00    -0.200 F 
ENDBRANCH  56  80
BRANCH  68  91
ATOM     91  C   UNL A   1      42.947  29.606  33.671  1.00  0.00     0.064 A 
ATOM     92  C   UNL A   1      43.066  30.157  34.960  1.00  0.00     0.173 A 
ATOM     93  C   UNL A   1      42.422  28.311  33.570  1.00  0.00     0.173 A 
ATOM     94  F   UNL A   1      43.449  31.428  35.131  1.00  0.00    -0.203 F 
ATOM     95  C   UNL A   1      42.721  29.426  36.094  1.00  0.00     0.198 A 
ATOM     96  C   UNL A   1      42.043  27.596  34.703  1.00  0.00     0.198 A 
ATOM     97  F   UNL A   1      42.222  27.759  32.363  1.00  0.00    -0.203 F 
ATOM     98  F   UNL A   1      42.853  29.974  37.311  1.00  0.00    -0.200 F 
ATOM     99  C   UNL A   1      42.202  28.149  35.965  1.00  0.00     0.200 A 
ATOM    100  F   UNL A   1      41.489  26.383  34.572  1.00  0.00    -0.200 F 
ATOM    101  F   UNL A   1      41.825  27.463  37.053  1.00  0.00    -0.200 F 
ENDBRANCH  68  91
ENDBRANCH  42  43
ENDBRANCH  35  37
ENDBRANCH  34  35
ENDBRANCH  33  34
ENDBRANCH  32  33
ENDBRANCH  31  32
ENDBRANCH  30  31
ENDBRANCH  29  30
ENDBRANCH  28  29
ENDBRANCH   1  28
TORSDOF 23
ENDMDL
