MODEL 1
REMARK VINA RESULT:      -9.8      0.000      0.000
REMARK SMILES CCCCCCNC(=O)Oc1cccc(-c2ccc([C@@H](C)C(=O)OCCOCCOCCOCCOC(=O)c3ccc(-c4c5nc(c(-c6c(F)c(F)c(F)c(F)c6F)c6ccc([nH]6)c(-c6c(F)c(F)c(F)c(F)c6F)c6nc(c(-c7c(F)c(F)c(F)c(F)c7F)c7ccc4[nH]7)C=C6)C=C5)cc3)cc2C)c1
REMARK SMILES IDX 26 1 25 2 24 3 22 4 23 5 20 6 21 7 19 8 16 9 17 10 103 11
REMARK SMILES IDX 18 12 102 13 104 14 15 15 11 16 12 17 105 18 13 19 14 20
REMARK SMILES IDX 10 21 8 22 7 23 9 25 6 26 5 27 4 28 3 29 2 30 1 31 27 32
REMARK SMILES IDX 28 33 29 34 30 35 31 36 32 37 33 38 34 39 35 40 36 41 37 42
REMARK SMILES IDX 38 43 39 44 40 45 101 46 41 47 100 48 42 49 43 50 44 51
REMARK SMILES IDX 94 52 45 53 99 54 93 55 95 56 46 57 98 58 92 59 91 60 47 62
REMARK SMILES IDX 79 63 59 64 78 65 60 66 63 67 77 68 96 69 61 70 62 71 76 73
REMARK SMILES IDX 97 74 64 75 48 76 49 77 57 78 50 79 51 80 55 81 58 82 52 83
REMARK SMILES IDX 53 84 56 85 54 86 80 87 81 88 89 89 82 90 83 91 87 92 90 93
REMARK SMILES IDX 84 94 85 95 88 96 86 97 65 98 66 99 74 100 67 101 68 102
REMARK SMILES IDX 72 103 75 104 69 105 70 106 73 107 71 108
REMARK H PARENT 7 24 95 61 63 72
REMARK Flexibility Score: inf
ROOT
ATOM      1  C   UNL A   1      34.252  28.841  24.345  1.00  0.00     0.202 C 
ENDROOT
BRANCH   1   2
ATOM      2  C   UNL A   1      33.069  29.415  23.543  1.00  0.00     0.261 C 
BRANCH   2   3
ATOM      3  O   UNL A   1      32.336  28.497  22.702  1.00  0.00    -0.463 OA
BRANCH   3   4
ATOM      4  C   UNL A   1      30.996  28.679  22.644  1.00  0.00     0.313 C 
ATOM      5  O   UNL A   1      30.469  29.789  22.581  1.00  0.00    -0.252 OA
BRANCH   4   6
ATOM      6  C   UNL A   1      30.140  27.414  22.698  1.00  0.00     0.126 C 
ATOM      7  C   UNL A   1      28.758  27.792  23.220  1.00  0.00     0.025 C 
BRANCH   6   8
ATOM      8  C   UNL A   1      30.649  26.132  23.361  1.00  0.00    -0.034 A 
ATOM      9  C   UNL A   1      31.612  23.793  24.740  1.00  0.00    -0.015 A 
ATOM     10  C   UNL A   1      31.443  23.830  23.336  1.00  0.00     0.009 A 
ATOM     11  C   UNL A   1      31.268  24.956  25.460  1.00  0.00    -0.043 A 
ATOM     12  C   UNL A   1      30.979  24.973  22.658  1.00  0.00     0.005 A 
ATOM     13  C   UNL A   1      30.803  26.098  24.764  1.00  0.00     0.008 A 
ATOM     14  C   UNL A   1      31.339  25.057  26.963  1.00  0.00     0.045 C 
BRANCH   9  15
ATOM     15  C   UNL A   1      32.237  22.598  25.365  1.00  0.00    -0.014 A 
ATOM     16  C   UNL A   1      32.650  20.205  25.527  1.00  0.00     0.133 A 
ATOM     17  C   UNL A   1      33.291  20.365  26.754  1.00  0.00     0.047 A 
ATOM     18  C   UNL A   1      32.138  21.303  24.822  1.00  0.00     0.056 A 
ATOM     19  C   UNL A   1      33.432  21.641  27.284  1.00  0.00     0.004 A 
ATOM     20  C   UNL A   1      32.904  22.741  26.600  1.00  0.00     0.009 A 
BRANCH  16  21
ATOM     21  O   UNL A   1      32.402  18.870  25.141  1.00  0.00    -0.410 OA
BRANCH  21  22
ATOM     22  C   UNL A   1      32.694  18.433  23.858  1.00  0.00     0.412 C 
ATOM     23  N   UNL A   1      33.967  17.942  23.734  1.00  0.00    -0.321 N 
ATOM     24  H   UNL A   1      34.223  17.612  22.843  1.00  0.00     0.167 HD
ATOM     25  O   UNL A   1      31.934  18.475  22.898  1.00  0.00    -0.224 OA
BRANCH  23  26
ATOM     26  C   UNL A   1      34.980  17.851  24.770  1.00  0.00     0.119 C 
BRANCH  26  27
ATOM     27  C   UNL A   1      36.127  18.841  24.549  1.00  0.00     0.021 C 
BRANCH  27  28
ATOM     28  C   UNL A   1      35.816  20.292  24.940  1.00  0.00     0.002 C 
BRANCH  28  29
ATOM     29  C   UNL A   1      36.747  21.353  24.345  1.00  0.00    -0.000 C 
BRANCH  29  30
ATOM     30  C   UNL A   1      36.051  22.532  23.659  1.00  0.00    -0.003 C 
ATOM     31  C   UNL A   1      35.734  23.680  24.605  1.00  0.00     0.004 C 
ENDBRANCH  29  30
ENDBRANCH  28  29
ENDBRANCH  27  28
ENDBRANCH  26  27
ENDBRANCH  23  26
ENDBRANCH  21  22
ENDBRANCH  16  21
ENDBRANCH   9  15
ENDBRANCH   6   8
ENDBRANCH   4   6
ENDBRANCH   3   4
ENDBRANCH   2   3
ENDBRANCH   1   2
BRANCH   1  32
ATOM     32  O   UNL A   1      34.245  28.857  25.765  1.00  0.00    -0.376 OA
BRANCH  32  33
ATOM     33  C   UNL A   1      33.417  29.768  26.476  1.00  0.00     0.188 C 
BRANCH  33  34
ATOM     34  C   UNL A   1      34.021  30.857  27.375  1.00  0.00     0.188 C 
BRANCH  34  35
ATOM     35  O   UNL A   1      33.103  31.807  27.874  1.00  0.00    -0.377 OA
BRANCH  35  36
ATOM     36  C   UNL A   1      33.545  33.154  27.905  1.00  0.00     0.188 C 
BRANCH  36  37
ATOM     37  C   UNL A   1      35.051  33.385  28.116  1.00  0.00     0.188 C 
BRANCH  37  38
ATOM     38  O   UNL A   1      35.365  34.130  29.287  1.00  0.00    -0.376 OA
BRANCH  38  39
ATOM     39  C   UNL A   1      34.309  34.520  30.155  1.00  0.00     0.202 C 
BRANCH  39  40
ATOM     40  C   UNL A   1      34.351  34.042  31.617  1.00  0.00     0.261 C 
BRANCH  40  41
ATOM     41  O   UNL A   1      34.650  32.654  31.829  1.00  0.00    -0.460 OA
BRANCH  41  42
ATOM     42  C   UNL A   1      35.647  32.349  32.686  1.00  0.00     0.338 C 
ATOM     43  O   UNL A   1      35.680  32.552  33.880  1.00  0.00    -0.246 OA
BRANCH  42  44
ATOM     44  C   UNL A   1      36.619  31.495  31.963  1.00  0.00     0.060 A 
ATOM     45  C   UNL A   1      37.688  30.951  32.687  1.00  0.00     0.016 A 
ATOM     46  C   UNL A   1      36.500  31.253  30.593  1.00  0.00     0.016 A 
ATOM     47  C   UNL A   1      38.677  30.219  32.033  1.00  0.00     0.010 A 
ATOM     48  C   UNL A   1      37.507  30.539  29.931  1.00  0.00     0.010 A 
ATOM     49  C   UNL A   1      38.625  30.062  30.642  1.00  0.00    -0.014 A 
BRANCH  49  50
ATOM     50  C   UNL A   1      39.854  29.625  29.930  1.00  0.00     0.031 A 
ATOM     51  C   UNL A   1      40.977  30.620  29.782  1.00  0.00     0.074 A 
ATOM     52  C   UNL A   1      40.016  28.359  29.507  1.00  0.00     0.049 A 
ATOM     53  N   UNL A   1      42.152  30.477  29.223  1.00  0.00    -0.248 NA
ATOM     54  C   UNL A   1      40.743  31.959  30.350  1.00  0.00     0.031 C 
ATOM     55  C   UNL A   1      39.034  27.287  29.649  1.00  0.00     0.029 A 
ATOM     56  N   UNL A   1      41.080  27.761  28.876  1.00  0.00    -0.354 N 
ATOM     57  C   UNL A   1      42.794  31.700  29.379  1.00  0.00     0.074 A 
ATOM     58  C   UNL A   1      41.867  32.588  30.043  1.00  0.00     0.031 C 
ATOM     59  C   UNL A   1      39.541  26.160  29.117  1.00  0.00     0.029 A 
ATOM     60  C   UNL A   1      40.867  26.439  28.570  1.00  0.00     0.049 A 
ATOM     61  H   UNL A   1      41.915  28.235  28.662  1.00  0.00     0.167 HD
ATOM     62  C   UNL A   1      44.052  32.048  29.017  1.00  0.00     0.037 A 
ATOM     63  C   UNL A   1      41.652  25.564  27.908  1.00  0.00     0.037 A 
ATOM     64  C   UNL A   1      44.975  31.168  28.352  1.00  0.00     0.049 A 
ATOM     65  C   UNL A   1      43.009  26.013  27.418  1.00  0.00     0.074 A 
ATOM     66  C   UNL A   1      46.267  31.430  27.932  1.00  0.00     0.029 A 
ATOM     67  N   UNL A   1      44.699  29.854  28.004  1.00  0.00    -0.354 N 
ATOM     68  N   UNL A   1      43.613  27.165  27.582  1.00  0.00    -0.248 NA
ATOM     69  C   UNL A   1      43.793  25.033  26.651  1.00  0.00     0.031 C 
ATOM     70  C   UNL A   1      46.755  30.292  27.282  1.00  0.00     0.029 A 
ATOM     71  C   UNL A   1      45.789  29.300  27.353  1.00  0.00     0.049 A 
ATOM     72  H   UNL A   1      43.855  29.384  28.193  1.00  0.00     0.167 HD
ATOM     73  C   UNL A   1      44.859  27.034  26.978  1.00  0.00     0.074 A 
ATOM     74  C   UNL A   1      44.930  25.686  26.459  1.00  0.00     0.031 C 
ATOM     75  C   UNL A   1      45.854  27.947  26.861  1.00  0.00     0.037 A 
BRANCH  62  76
ATOM     76  C   UNL A   1      44.500  33.449  29.318  1.00  0.00     0.064 A 
ATOM     77  C   UNL A   1      45.187  33.765  30.500  1.00  0.00     0.173 A 
ATOM     78  C   UNL A   1      44.277  34.480  28.394  1.00  0.00     0.173 A 
ATOM     79  F   UNL A   1      45.412  32.817  31.425  1.00  0.00    -0.203 F 
ATOM     80  C   UNL A   1      45.617  35.065  30.754  1.00  0.00     0.198 A 
ATOM     81  C   UNL A   1      44.735  35.772  28.637  1.00  0.00     0.198 A 
ATOM     82  F   UNL A   1      43.625  34.232  27.247  1.00  0.00    -0.203 F 
ATOM     83  F   UNL A   1      46.233  35.352  31.909  1.00  0.00    -0.200 F 
ATOM     84  C   UNL A   1      45.399  36.065  29.818  1.00  0.00     0.200 A 
ATOM     85  F   UNL A   1      44.537  36.735  27.724  1.00  0.00    -0.200 F 
ATOM     86  F   UNL A   1      45.825  37.313  30.058  1.00  0.00    -0.200 F 
ENDBRANCH  62  76
BRANCH  63  87
ATOM     87  C   UNL A   1      41.182  24.175  27.643  1.00  0.00     0.064 A 
ATOM     88  C   UNL A   1      41.809  23.070  28.238  1.00  0.00     0.173 A 
ATOM     89  C   UNL A   1      40.143  23.921  26.735  1.00  0.00     0.173 A 
ATOM     90  F   UNL A   1      42.827  23.256  29.091  1.00  0.00    -0.203 F 
ATOM     91  C   UNL A   1      41.440  21.767  27.908  1.00  0.00     0.198 A 
ATOM     92  C   UNL A   1      39.752  22.618  26.432  1.00  0.00     0.198 A 
ATOM     93  F   UNL A   1      39.513  24.938  26.131  1.00  0.00    -0.203 F 
ATOM     94  F   UNL A   1      42.106  20.731  28.435  1.00  0.00    -0.200 F 
ATOM     95  C   UNL A   1      40.410  21.542  27.008  1.00  0.00     0.200 A 
ATOM     96  F   UNL A   1      38.748  22.405  25.570  1.00  0.00    -0.200 F 
ATOM     97  F   UNL A   1      40.062  20.289  26.683  1.00  0.00    -0.200 F 
ENDBRANCH  63  87
BRANCH  75  98
ATOM     98  C   UNL A   1      47.128  27.507  26.195  1.00  0.00     0.064 A 
ATOM     99  C   UNL A   1      47.340  27.672  24.818  1.00  0.00     0.173 A 
ATOM    100  C   UNL A   1      48.169  26.950  26.954  1.00  0.00     0.173 A 
ATOM    101  F   UNL A   1      46.375  28.191  24.044  1.00  0.00    -0.203 F 
ATOM    102  C   UNL A   1      48.531  27.264  24.222  1.00  0.00     0.198 A 
ATOM    103  C   UNL A   1      49.372  26.577  26.362  1.00  0.00     0.198 A 
ATOM    104  F   UNL A   1      48.025  26.779  28.278  1.00  0.00    -0.203 F 
ATOM    105  F   UNL A   1      48.688  27.380  22.896  1.00  0.00    -0.200 F 
ATOM    106  C   UNL A   1      49.549  26.725  24.995  1.00  0.00     0.200 A 
ATOM    107  F   UNL A   1      50.360  26.074  27.115  1.00  0.00    -0.200 F 
ATOM    108  F   UNL A   1      50.697  26.342  24.421  1.00  0.00    -0.200 F 
ENDBRANCH  75  98
ENDBRANCH  49  50
ENDBRANCH  42  44
ENDBRANCH  41  42
ENDBRANCH  40  41
ENDBRANCH  39  40
ENDBRANCH  38  39
ENDBRANCH  37  38
ENDBRANCH  36  37
ENDBRANCH  35  36
ENDBRANCH  34  35
ENDBRANCH  33  34
ENDBRANCH  32  33
ENDBRANCH   1  32
TORSDOF 29
ENDMDL
MODEL 2
REMARK VINA RESULT:      -8.7      3.557      6.750
REMARK SMILES CCCCCCNC(=O)Oc1cccc(-c2ccc([C@@H](C)C(=O)OCCOCCOCCOCCOC(=O)c3ccc(-c4c5nc(c(-c6c(F)c(F)c(F)c(F)c6F)c6ccc([nH]6)c(-c6c(F)c(F)c(F)c(F)c6F)c6nc(c(-c7c(F)c(F)c(F)c(F)c7F)c7ccc4[nH]7)C=C6)C=C5)cc3)cc2C)c1
REMARK SMILES IDX 26 1 25 2 24 3 22 4 23 5 20 6 21 7 19 8 16 9 17 10 103 11
REMARK SMILES IDX 18 12 102 13 104 14 15 15 11 16 12 17 105 18 13 19 14 20
REMARK SMILES IDX 10 21 8 22 7 23 9 25 6 26 5 27 4 28 3 29 2 30 1 31 27 32
REMARK SMILES IDX 28 33 29 34 30 35 31 36 32 37 33 38 34 39 35 40 36 41 37 42
REMARK SMILES IDX 38 43 39 44 40 45 101 46 41 47 100 48 42 49 43 50 44 51
REMARK SMILES IDX 94 52 45 53 99 54 93 55 95 56 46 57 98 58 92 59 91 60 47 62
REMARK SMILES IDX 79 63 59 64 78 65 60 66 63 67 77 68 96 69 61 70 62 71 76 73
REMARK SMILES IDX 97 74 64 75 48 76 49 77 57 78 50 79 51 80 55 81 58 82 52 83
REMARK SMILES IDX 53 84 56 85 54 86 80 87 81 88 89 89 82 90 83 91 87 92 90 93
REMARK SMILES IDX 84 94 85 95 88 96 86 97 65 98 66 99 74 100 67 101 68 102
REMARK SMILES IDX 72 103 75 104 69 105 70 106 73 107 71 108
REMARK H PARENT 7 24 95 61 63 72
REMARK Flexibility Score: inf
ROOT
ATOM      1  C   UNL A   1      33.762  28.561  23.885  1.00  0.00     0.202 C 
ENDROOT
BRANCH   1   2
ATOM      2  C   UNL A   1      32.464  29.174  23.326  1.00  0.00     0.261 C 
BRANCH   2   3
ATOM      3  O   UNL A   1      31.799  28.453  22.265  1.00  0.00    -0.463 OA
BRANCH   3   4
ATOM      4  C   UNL A   1      30.453  28.578  22.209  1.00  0.00     0.313 C 
ATOM      5  O   UNL A   1      29.887  29.575  21.760  1.00  0.00    -0.252 OA
BRANCH   4   6
ATOM      6  C   UNL A   1      29.643  27.413  22.776  1.00  0.00     0.126 C 
ATOM      7  C   UNL A   1      28.493  27.985  23.598  1.00  0.00     0.025 C 
BRANCH   6   8
ATOM      8  C   UNL A   1      30.318  26.250  23.505  1.00  0.00    -0.034 A 
ATOM      9  C   UNL A   1      31.634  24.157  24.984  1.00  0.00    -0.015 A 
ATOM     10  C   UNL A   1      31.054  23.938  23.713  1.00  0.00     0.009 A 
ATOM     11  C   UNL A   1      31.528  25.456  25.524  1.00  0.00    -0.043 A 
ATOM     12  C   UNL A   1      30.416  24.960  22.984  1.00  0.00     0.005 A 
ATOM     13  C   UNL A   1      30.883  26.473  24.780  1.00  0.00     0.008 A 
ATOM     14  C   UNL A   1      32.044  25.835  26.890  1.00  0.00     0.045 C 
BRANCH   9  15
ATOM     15  C   UNL A   1      32.409  23.064  25.628  1.00  0.00    -0.014 A 
ATOM     16  C   UNL A   1      33.042  20.730  25.903  1.00  0.00     0.133 A 
ATOM     17  C   UNL A   1      33.763  21.028  27.058  1.00  0.00     0.047 A 
ATOM     18  C   UNL A   1      32.381  21.730  25.178  1.00  0.00     0.056 A 
ATOM     19  C   UNL A   1      33.834  22.345  27.493  1.00  0.00     0.004 A 
ATOM     20  C   UNL A   1      33.158  23.348  26.789  1.00  0.00     0.009 A 
BRANCH  16  21
ATOM     21  O   UNL A   1      32.882  19.356  25.625  1.00  0.00    -0.410 OA
BRANCH  21  22
ATOM     22  C   UNL A   1      33.053  18.864  24.340  1.00  0.00     0.412 C 
ATOM     23  N   UNL A   1      34.321  18.400  24.106  1.00  0.00    -0.321 N 
ATOM     24  H   UNL A   1      34.494  18.034  23.209  1.00  0.00     0.167 HD
ATOM     25  O   UNL A   1      32.197  18.840  23.463  1.00  0.00    -0.224 OA
BRANCH  23  26
ATOM     26  C   UNL A   1      35.439  18.387  25.034  1.00  0.00     0.119 C 
BRANCH  26  27
ATOM     27  C   UNL A   1      36.587  19.287  24.573  1.00  0.00     0.021 C 
BRANCH  27  28
ATOM     28  C   UNL A   1      36.599  20.691  25.193  1.00  0.00     0.002 C 
BRANCH  28  29
ATOM     29  C   UNL A   1      37.306  21.773  24.370  1.00  0.00    -0.000 C 
BRANCH  29  30
ATOM     30  C   UNL A   1      36.531  23.083  24.199  1.00  0.00    -0.003 C 
ATOM     31  C   UNL A   1      35.227  22.919  23.435  1.00  0.00     0.004 C 
ENDBRANCH  29  30
ENDBRANCH  28  29
ENDBRANCH  27  28
ENDBRANCH  26  27
ENDBRANCH  23  26
ENDBRANCH  21  22
ENDBRANCH  16  21
ENDBRANCH   9  15
ENDBRANCH   6   8
ENDBRANCH   4   6
ENDBRANCH   3   4
ENDBRANCH   2   3
ENDBRANCH   1   2
BRANCH   1  32
ATOM     32  O   UNL A   1      33.969  28.448  25.285  1.00  0.00    -0.376 OA
BRANCH  32  33
ATOM     33  C   UNL A   1      33.359  29.363  26.185  1.00  0.00     0.188 C 
BRANCH  33  34
ATOM     34  C   UNL A   1      34.175  30.062  27.283  1.00  0.00     0.188 C 
BRANCH  34  35
ATOM     35  O   UNL A   1      33.592  31.233  27.816  1.00  0.00    -0.377 OA
BRANCH  35  36
ATOM     36  C   UNL A   1      34.487  32.267  28.191  1.00  0.00     0.188 C 
BRANCH  36  37
ATOM     37  C   UNL A   1      35.840  31.833  28.781  1.00  0.00     0.188 C 
BRANCH  37  38
ATOM     38  O   UNL A   1      35.780  31.449  30.150  1.00  0.00    -0.376 OA
BRANCH  38  39
ATOM     39  C   UNL A   1      35.022  32.244  31.052  1.00  0.00     0.202 C 
BRANCH  39  40
ATOM     40  C   UNL A   1      35.610  32.531  32.445  1.00  0.00     0.261 C 
BRANCH  40  41
ATOM     41  O   UNL A   1      36.334  31.460  33.067  1.00  0.00    -0.460 OA
BRANCH  41  42
ATOM     42  C   UNL A   1      37.210  31.777  34.044  1.00  0.00     0.338 C 
ATOM     43  O   UNL A   1      36.979  32.367  35.077  1.00  0.00    -0.246 OA
BRANCH  42  44
ATOM     44  C   UNL A   1      38.480  31.069  33.760  1.00  0.00     0.060 A 
ATOM     45  C   UNL A   1      39.648  31.528  34.384  1.00  0.00     0.016 A 
ATOM     46  C   UNL A   1      38.532  29.989  32.875  1.00  0.00     0.016 A 
ATOM     47  C   UNL A   1      40.879  30.952  34.076  1.00  0.00     0.010 A 
ATOM     48  C   UNL A   1      39.772  29.428  32.546  1.00  0.00     0.010 A 
ATOM     49  C   UNL A   1      40.957  29.942  33.109  1.00  0.00    -0.014 A 
BRANCH  49  50
ATOM     50  C   UNL A   1      42.284  29.618  32.525  1.00  0.00     0.031 A 
ATOM     51  C   UNL A   1      43.033  28.436  33.083  1.00  0.00     0.074 A 
ATOM     52  C   UNL A   1      42.776  30.290  31.468  1.00  0.00     0.049 A 
ATOM     53  N   UNL A   1      44.193  27.940  32.732  1.00  0.00    -0.248 NA
ATOM     54  C   UNL A   1      42.379  27.708  34.184  1.00  0.00     0.031 C 
ATOM     55  C   UNL A   1      42.119  31.408  30.796  1.00  0.00     0.029 A 
ATOM     56  N   UNL A   1      43.946  30.117  30.770  1.00  0.00    -0.354 N 
ATOM     57  C   UNL A   1      44.400  26.844  33.562  1.00  0.00     0.074 A 
ATOM     58  C   UNL A   1      43.272  26.772  34.464  1.00  0.00     0.031 C 
ATOM     59  C   UNL A   1      42.899  31.824  29.781  1.00  0.00     0.029 A 
ATOM     60  C   UNL A   1      44.122  31.023  29.754  1.00  0.00     0.049 A 
ATOM     61  H   UNL A   1      44.598  29.410  30.980  1.00  0.00     0.167 HD
ATOM     62  C   UNL A   1      45.431  25.965  33.562  1.00  0.00     0.037 A 
ATOM     63  C   UNL A   1      45.161  31.192  28.911  1.00  0.00     0.037 A 
ATOM     64  C   UNL A   1      46.556  26.038  32.671  1.00  0.00     0.049 A 
ATOM     65  C   UNL A   1      46.349  30.263  29.008  1.00  0.00     0.074 A 
ATOM     66  C   UNL A   1      47.657  25.203  32.600  1.00  0.00     0.029 A 
ATOM     67  N   UNL A   1      46.727  27.009  31.695  1.00  0.00    -0.354 N 
ATOM     68  N   UNL A   1      46.530  29.223  29.784  1.00  0.00    -0.248 NA
ATOM     69  C   UNL A   1      47.476  30.534  28.103  1.00  0.00     0.031 C 
ATOM     70  C   UNL A   1      48.520  25.700  31.619  1.00  0.00     0.029 A 
ATOM     71  C   UNL A   1      47.927  26.807  31.033  1.00  0.00     0.049 A 
ATOM     72  H   UNL A   1      46.089  27.733  31.500  1.00  0.00     0.167 HD
ATOM     73  C   UNL A   1      47.768  28.694  29.435  1.00  0.00     0.074 A 
ATOM     74  C   UNL A   1      48.286  29.518  28.365  1.00  0.00     0.031 C 
ATOM     75  C   UNL A   1      48.419  27.623  29.953  1.00  0.00     0.037 A 
BRANCH  62  76
ATOM     76  C   UNL A   1      45.397  24.855  34.573  1.00  0.00     0.064 A 
ATOM     77  C   UNL A   1      44.898  23.583  34.254  1.00  0.00     0.173 A 
ATOM     78  C   UNL A   1      45.910  25.053  35.864  1.00  0.00     0.173 A 
ATOM     79  F   UNL A   1      44.381  23.346  33.038  1.00  0.00    -0.203 F 
ATOM     80  C   UNL A   1      44.895  22.557  35.195  1.00  0.00     0.198 A 
ATOM     81  C   UNL A   1      45.935  24.017  36.792  1.00  0.00     0.198 A 
ATOM     82  F   UNL A   1      46.401  26.250  36.221  1.00  0.00    -0.203 F 
ATOM     83  F   UNL A   1      44.374  21.363  34.881  1.00  0.00    -0.200 F 
ATOM     84  C   UNL A   1      45.423  22.772  36.460  1.00  0.00     0.200 A 
ATOM     85  F   UNL A   1      46.458  24.221  38.010  1.00  0.00    -0.200 F 
ATOM     86  F   UNL A   1      45.432  21.779  37.360  1.00  0.00    -0.200 F 
ENDBRANCH  62  76
BRANCH  63  87
ATOM     87  C   UNL A   1      45.153  32.294  27.908  1.00  0.00     0.064 A 
ATOM     88  C   UNL A   1      45.810  33.508  28.157  1.00  0.00     0.173 A 
ATOM     89  C   UNL A   1      44.429  32.181  26.711  1.00  0.00     0.173 A 
ATOM     90  F   UNL A   1      46.492  33.679  29.300  1.00  0.00    -0.203 F 
ATOM     91  C   UNL A   1      45.714  34.576  27.267  1.00  0.00     0.198 A 
ATOM     92  C   UNL A   1      44.363  33.238  25.805  1.00  0.00     0.198 A 
ATOM     93  F   UNL A   1      43.776  31.046  26.424  1.00  0.00    -0.203 F 
ATOM     94  F   UNL A   1      46.290  35.748  27.565  1.00  0.00    -0.200 F 
ATOM     95  C   UNL A   1      44.993  34.439  26.090  1.00  0.00     0.200 A 
ATOM     96  F   UNL A   1      43.675  33.097  24.664  1.00  0.00    -0.200 F 
ATOM     97  F   UNL A   1      44.892  35.470  25.239  1.00  0.00    -0.200 F 
ENDBRANCH  63  87
BRANCH  75  98
ATOM     98  C   UNL A   1      49.737  27.245  29.337  1.00  0.00     0.064 A 
ATOM     99  C   UNL A   1      50.949  27.787  29.788  1.00  0.00     0.173 A 
ATOM    100  C   UNL A   1      49.790  26.294  28.306  1.00  0.00     0.173 A 
ATOM    101  F   UNL A   1      50.956  28.708  30.764  1.00  0.00    -0.203 F 
ATOM    102  C   UNL A   1      52.161  27.418  29.208  1.00  0.00     0.198 A 
ATOM    103  C   UNL A   1      51.005  25.898  27.754  1.00  0.00     0.198 A 
ATOM    104  F   UNL A   1      48.662  25.734  27.843  1.00  0.00    -0.203 F 
ATOM    105  F   UNL A   1      53.300  27.992  29.618  1.00  0.00    -0.200 F 
ATOM    106  C   UNL A   1      52.188  26.468  28.198  1.00  0.00     0.200 A 
ATOM    107  F   UNL A   1      51.030  24.967  26.791  1.00  0.00    -0.200 F 
ATOM    108  F   UNL A   1      53.355  26.107  27.647  1.00  0.00    -0.200 F 
ENDBRANCH  75  98
ENDBRANCH  49  50
ENDBRANCH  42  44
ENDBRANCH  41  42
ENDBRANCH  40  41
ENDBRANCH  39  40
ENDBRANCH  38  39
ENDBRANCH  37  38
ENDBRANCH  36  37
ENDBRANCH  35  36
ENDBRANCH  34  35
ENDBRANCH  33  34
ENDBRANCH  32  33
ENDBRANCH   1  32
TORSDOF 29
ENDMDL
MODEL 3
REMARK VINA RESULT:      -8.4      6.096     13.421
REMARK SMILES CCCCCCNC(=O)Oc1cccc(-c2ccc([C@@H](C)C(=O)OCCOCCOCCOCCOC(=O)c3ccc(-c4c5nc(c(-c6c(F)c(F)c(F)c(F)c6F)c6ccc([nH]6)c(-c6c(F)c(F)c(F)c(F)c6F)c6nc(c(-c7c(F)c(F)c(F)c(F)c7F)c7ccc4[nH]7)C=C6)C=C5)cc3)cc2C)c1
REMARK SMILES IDX 26 1 25 2 24 3 22 4 23 5 20 6 21 7 19 8 16 9 17 10 103 11
REMARK SMILES IDX 18 12 102 13 104 14 15 15 11 16 12 17 105 18 13 19 14 20
REMARK SMILES IDX 10 21 8 22 7 23 9 25 6 26 5 27 4 28 3 29 2 30 1 31 27 32
REMARK SMILES IDX 28 33 29 34 30 35 31 36 32 37 33 38 34 39 35 40 36 41 37 42
REMARK SMILES IDX 38 43 39 44 40 45 101 46 41 47 100 48 42 49 43 50 44 51
REMARK SMILES IDX 94 52 45 53 99 54 93 55 95 56 46 57 98 58 92 59 91 60 47 62
REMARK SMILES IDX 79 63 59 64 78 65 60 66 63 67 77 68 96 69 61 70 62 71 76 73
REMARK SMILES IDX 97 74 64 75 48 76 49 77 57 78 50 79 51 80 55 81 58 82 52 83
REMARK SMILES IDX 53 84 56 85 54 86 80 87 81 88 89 89 82 90 83 91 87 92 90 93
REMARK SMILES IDX 84 94 85 95 88 96 86 97 65 98 66 99 74 100 67 101 68 102
REMARK SMILES IDX 72 103 75 104 69 105 70 106 73 107 71 108
REMARK H PARENT 7 24 95 61 63 72
REMARK Flexibility Score: inf
ROOT
ATOM      1  C   UNL A   1      40.404  22.363  27.198  1.00  0.00     0.202 C 
ENDROOT
BRANCH   1   2
ATOM      2  C   UNL A   1      40.614  23.723  27.890  1.00  0.00     0.261 C 
BRANCH   2   3
ATOM      3  O   UNL A   1      41.878  24.386  27.671  1.00  0.00    -0.463 OA
BRANCH   3   4
ATOM      4  C   UNL A   1      42.772  24.320  28.684  1.00  0.00     0.313 C 
ATOM      5  O   UNL A   1      42.791  23.404  29.507  1.00  0.00    -0.252 OA
BRANCH   4   6
ATOM      6  C   UNL A   1      43.760  25.480  28.790  1.00  0.00     0.126 C 
ATOM      7  C   UNL A   1      44.884  25.069  29.735  1.00  0.00     0.025 C 
BRANCH   6   8
ATOM      8  C   UNL A   1      43.290  26.907  29.079  1.00  0.00    -0.034 A 
ATOM      9  C   UNL A   1      42.380  29.553  29.767  1.00  0.00    -0.015 A 
ATOM     10  C   UNL A   1      42.683  29.177  28.438  1.00  0.00     0.009 A 
ATOM     11  C   UNL A   1      42.560  28.576  30.769  1.00  0.00    -0.043 A 
ATOM     12  C   UNL A   1      43.122  27.883  28.097  1.00  0.00     0.005 A 
ATOM     13  C   UNL A   1      43.002  27.279  30.411  1.00  0.00     0.008 A 
ATOM     14  C   UNL A   1      42.334  28.837  32.237  1.00  0.00     0.045 C 
BRANCH   9  15
ATOM     15  C   UNL A   1      41.792  30.893  30.027  1.00  0.00    -0.014 A 
ATOM     16  C   UNL A   1      39.929  32.383  30.510  1.00  0.00     0.133 A 
ATOM     17  C   UNL A   1      40.728  33.505  30.293  1.00  0.00     0.047 A 
ATOM     18  C   UNL A   1      40.447  31.086  30.398  1.00  0.00     0.056 A 
ATOM     19  C   UNL A   1      42.067  33.331  29.967  1.00  0.00     0.004 A 
ATOM     20  C   UNL A   1      42.588  32.041  29.828  1.00  0.00     0.009 A 
BRANCH  16  21
ATOM     21  O   UNL A   1      38.551  32.642  30.672  1.00  0.00    -0.410 OA
BRANCH  21  22
ATOM     22  C   UNL A   1      37.726  32.821  29.573  1.00  0.00     0.412 C 
ATOM     23  N   UNL A   1      36.840  31.791  29.394  1.00  0.00    -0.321 N 
ATOM     24  H   UNL A   1      36.226  31.872  28.629  1.00  0.00     0.167 HD
ATOM     25  O   UNL A   1      37.755  33.773  28.803  1.00  0.00    -0.224 OA
BRANCH  23  26
ATOM     26  C   UNL A   1      36.705  30.594  30.205  1.00  0.00     0.119 C 
BRANCH  26  27
ATOM     27  C   UNL A   1      36.546  29.331  29.355  1.00  0.00     0.021 C 
BRANCH  27  28
ATOM     28  C   UNL A   1      37.322  29.339  28.030  1.00  0.00     0.002 C 
BRANCH  28  29
ATOM     29  C   UNL A   1      38.836  29.134  28.148  1.00  0.00    -0.000 C 
BRANCH  29  30
ATOM     30  C   UNL A   1      39.301  27.677  28.226  1.00  0.00    -0.003 C 
ATOM     31  C   UNL A   1      39.304  27.118  29.640  1.00  0.00     0.004 C 
ENDBRANCH  29  30
ENDBRANCH  28  29
ENDBRANCH  27  28
ENDBRANCH  26  27
ENDBRANCH  23  26
ENDBRANCH  21  22
ENDBRANCH  16  21
ENDBRANCH   9  15
ENDBRANCH   6   8
ENDBRANCH   4   6
ENDBRANCH   3   4
ENDBRANCH   2   3
ENDBRANCH   1   2
BRANCH   1  32
ATOM     32  O   UNL A   1      41.513  21.560  26.819  1.00  0.00    -0.376 OA
BRANCH  32  33
ATOM     33  C   UNL A   1      42.221  21.823  25.615  1.00  0.00     0.188 C 
BRANCH  33  34
ATOM     34  C   UNL A   1      43.755  21.764  25.566  1.00  0.00     0.188 C 
BRANCH  34  35
ATOM     35  O   UNL A   1      44.411  23.008  25.698  1.00  0.00    -0.377 OA
BRANCH  35  36
ATOM     36  C   UNL A   1      45.510  23.049  26.593  1.00  0.00     0.188 C 
BRANCH  36  37
ATOM     37  C   UNL A   1      46.450  24.262  26.482  1.00  0.00     0.188 C 
BRANCH  37  38
ATOM     38  O   UNL A   1      47.654  24.132  27.229  1.00  0.00    -0.376 OA
BRANCH  38  39
ATOM     39  C   UNL A   1      48.521  25.255  27.330  1.00  0.00     0.202 C 
BRANCH  39  40
ATOM     40  C   UNL A   1      48.632  26.204  26.124  1.00  0.00     0.261 C 
BRANCH  40  41
ATOM     41  O   UNL A   1      48.014  27.492  26.263  1.00  0.00    -0.460 OA
BRANCH  41  42
ATOM     42  C   UNL A   1      48.781  28.514  26.699  1.00  0.00     0.338 C 
ATOM     43  O   UNL A   1      49.677  29.070  26.101  1.00  0.00    -0.246 OA
BRANCH  42  44
ATOM     44  C   UNL A   1      48.189  29.015  27.961  1.00  0.00     0.060 A 
ATOM     45  C   UNL A   1      46.824  28.792  28.188  1.00  0.00     0.016 A 
ATOM     46  C   UNL A   1      48.952  29.718  28.897  1.00  0.00     0.016 A 
ATOM     47  C   UNL A   1      46.205  29.325  29.316  1.00  0.00     0.010 A 
ATOM     48  C   UNL A   1      48.325  30.275  30.018  1.00  0.00     0.010 A 
ATOM     49  C   UNL A   1      46.937  30.122  30.205  1.00  0.00    -0.014 A 
BRANCH  49  50
ATOM     50  C   UNL A   1      46.196  30.980  31.166  1.00  0.00     0.031 A 
ATOM     51  C   UNL A   1      45.761  30.368  32.471  1.00  0.00     0.074 A 
ATOM     52  C   UNL A   1      45.993  32.289  30.935  1.00  0.00     0.049 A 
ATOM     53  N   UNL A   1      45.122  30.910  33.477  1.00  0.00    -0.248 NA
ATOM     54  C   UNL A   1      46.100  28.949  32.674  1.00  0.00     0.031 C 
ATOM     55  C   UNL A   1      46.422  33.015  29.742  1.00  0.00     0.029 A 
ATOM     56  N   UNL A   1      45.376  33.244  31.707  1.00  0.00    -0.354 N 
ATOM     57  C   UNL A   1      44.991  29.904  34.427  1.00  0.00     0.074 A 
ATOM     58  C   UNL A   1      45.575  28.707  33.864  1.00  0.00     0.031 C 
ATOM     59  C   UNL A   1      46.053  34.304  29.861  1.00  0.00     0.029 A 
ATOM     60  C   UNL A   1      45.335  34.486  31.121  1.00  0.00     0.049 A 
ATOM     61  H   UNL A   1      44.999  33.056  32.596  1.00  0.00     0.167 HD
ATOM     62  C   UNL A   1      44.450  29.974  35.667  1.00  0.00     0.037 A 
ATOM     63  C   UNL A   1      44.766  35.630  31.551  1.00  0.00     0.037 A 
ATOM     64  C   UNL A   1      43.864  31.162  36.227  1.00  0.00     0.049 A 
ATOM     65  C   UNL A   1      44.070  35.650  32.892  1.00  0.00     0.074 A 
ATOM     66  C   UNL A   1      43.278  31.331  37.468  1.00  0.00     0.029 A 
ATOM     67  N   UNL A   1      43.787  32.384  35.577  1.00  0.00    -0.354 N 
ATOM     68  N   UNL A   1      43.964  34.700  33.789  1.00  0.00    -0.248 NA
ATOM     69  C   UNL A   1      43.417  36.910  33.280  1.00  0.00     0.031 C 
ATOM     70  C   UNL A   1      42.796  32.642  37.549  1.00  0.00     0.029 A 
ATOM     71  C   UNL A   1      43.140  33.307  36.383  1.00  0.00     0.049 A 
ATOM     72  H   UNL A   1      44.140  32.569  34.677  1.00  0.00     0.167 HD
ATOM     73  C   UNL A   1      43.271  35.256  34.859  1.00  0.00     0.074 A 
ATOM     74  C   UNL A   1      42.998  36.632  34.507  1.00  0.00     0.031 C 
ATOM     75  C   UNL A   1      42.894  34.681  36.027  1.00  0.00     0.037 A 
BRANCH  62  76
ATOM     76  C   UNL A   1      44.448  28.723  36.497  1.00  0.00     0.064 A 
ATOM     77  C   UNL A   1      43.402  27.792  36.424  1.00  0.00     0.173 A 
ATOM     78  C   UNL A   1      45.528  28.430  37.343  1.00  0.00     0.173 A 
ATOM     79  F   UNL A   1      42.337  28.032  35.642  1.00  0.00    -0.203 F 
ATOM     80  C   UNL A   1      43.426  26.624  37.184  1.00  0.00     0.198 A 
ATOM     81  C   UNL A   1      45.565  27.248  38.076  1.00  0.00     0.198 A 
ATOM     82  F   UNL A   1      46.557  29.286  37.449  1.00  0.00    -0.203 F 
ATOM     83  F   UNL A   1      42.394  25.771  37.131  1.00  0.00    -0.200 F 
ATOM     84  C   UNL A   1      44.512  26.349  38.001  1.00  0.00     0.200 A 
ATOM     85  F   UNL A   1      46.622  26.976  38.855  1.00  0.00    -0.200 F 
ATOM     86  F   UNL A   1      44.541  25.218  38.720  1.00  0.00    -0.200 F 
ENDBRANCH  62  76
BRANCH  63  87
ATOM     87  C   UNL A   1      44.802  36.858  30.708  1.00  0.00     0.064 A 
ATOM     88  C   UNL A   1      43.756  37.164  29.824  1.00  0.00     0.173 A 
ATOM     89  C   UNL A   1      45.914  37.714  30.718  1.00  0.00     0.173 A 
ATOM     90  F   UNL A   1      42.682  36.363  29.754  1.00  0.00    -0.203 F 
ATOM     91  C   UNL A   1      43.837  38.254  28.960  1.00  0.00     0.198 A 
ATOM     92  C   UNL A   1      45.978  38.824  29.878  1.00  0.00     0.198 A 
ATOM     93  F   UNL A   1      46.946  37.466  31.538  1.00  0.00    -0.203 F 
ATOM     94  F   UNL A   1      42.857  38.479  28.075  1.00  0.00    -0.200 F 
ATOM     95  C   UNL A   1      44.947  39.085  28.990  1.00  0.00     0.200 A 
ATOM     96  F   UNL A   1      47.048  39.630  29.918  1.00  0.00    -0.200 F 
ATOM     97  F   UNL A   1      45.030  40.128  28.151  1.00  0.00    -0.200 F 
ENDBRANCH  63  87
BRANCH  75  98
ATOM     98  C   UNL A   1      42.194  35.549  37.035  1.00  0.00     0.064 A 
ATOM     99  C   UNL A   1      40.796  35.598  37.127  1.00  0.00     0.173 A 
ATOM    100  C   UNL A   1      42.936  36.310  37.952  1.00  0.00     0.173 A 
ATOM    101  F   UNL A   1      40.037  34.898  36.269  1.00  0.00    -0.203 F 
ATOM    102  C   UNL A   1      40.167  36.403  38.074  1.00  0.00     0.198 A 
ATOM    103  C   UNL A   1      42.306  37.085  38.921  1.00  0.00     0.198 A 
ATOM    104  F   UNL A   1      44.278  36.292  37.918  1.00  0.00    -0.203 F 
ATOM    105  F   UNL A   1      38.829  36.478  38.104  1.00  0.00    -0.200 F 
ATOM    106  C   UNL A   1      40.922  37.139  38.975  1.00  0.00     0.200 A 
ATOM    107  F   UNL A   1      43.038  37.780  39.802  1.00  0.00    -0.200 F 
ATOM    108  F   UNL A   1      40.315  37.906  39.891  1.00  0.00    -0.200 F 
ENDBRANCH  75  98
ENDBRANCH  49  50
ENDBRANCH  42  44
ENDBRANCH  41  42
ENDBRANCH  40  41
ENDBRANCH  39  40
ENDBRANCH  38  39
ENDBRANCH  37  38
ENDBRANCH  36  37
ENDBRANCH  35  36
ENDBRANCH  34  35
ENDBRANCH  33  34
ENDBRANCH  32  33
ENDBRANCH   1  32
TORSDOF 29
ENDMDL
