MODEL 1
REMARK VINA RESULT:     -11.2      0.000      0.000
REMARK SMILES Cc1ccccc1NC(=O)C[NH+]1CCC(CC(=O)OCCOCCOCCOCCOC(=O)c2ccc(-c3c4nc(c(-c5c(F)c(F)c(F)c(F)c5F)c5ccc([nH]5)c(-c5c(F)c(F)c(F)c(F)c5F)c5nc(c(-c6c(F)c(F)c(F)c(F)c6F)c6ccc3[nH]6)C=C5)C=C4)cc2)CC1
REMARK SMILES IDX 24 1 23 2 22 3 21 4 20 5 19 6 17 7 18 8 16 9 15 10 12 11
REMARK SMILES IDX 13 12 98 13 14 15 97 16 11 17 9 18 8 19 10 21 7 22 1 23 2 24
REMARK SMILES IDX 3 25 4 26 6 27 5 28 25 29 26 30 27 31 28 32 29 33 30 34
REMARK SMILES IDX 31 35 32 36 33 37 34 38 35 39 96 40 36 41 95 42 37 43 38 44
REMARK SMILES IDX 39 45 89 46 40 47 94 48 88 49 90 50 41 51 93 52 87 53 86 54
REMARK SMILES IDX 42 56 74 57 54 58 73 59 55 60 58 61 72 62 91 63 56 64 57 65
REMARK SMILES IDX 71 67 92 68 59 69 43 70 44 71 52 72 45 73 46 74 50 75 53 76
REMARK SMILES IDX 47 77 48 78 51 79 49 80 75 81 76 82 84 83 77 84 78 85 82 86
REMARK SMILES IDX 85 87 79 88 80 89 83 90 81 91 60 92 61 93 69 94 62 95 63 96
REMARK SMILES IDX 67 97 70 98 64 99 65 100 68 101 66 102
REMARK H PARENT 12 14 8 20 90 55 58 66
REMARK Flexibility Score: inf
ROOT
ATOM      1  C   UNL A   1      46.360  19.839  25.154  1.00  0.00     0.188 C 
ENDROOT
BRANCH   1   2
ATOM      2  C   UNL A   1      45.187  18.928  24.601  1.00  0.00     0.188 C 
BRANCH   2   3
ATOM      3  O   UNL A   1      44.127  18.136  25.324  1.00  0.00    -0.376 OA
BRANCH   3   4
ATOM      4  C   UNL A   1      42.733  18.689  25.999  1.00  0.00     0.202 C 
BRANCH   4   5
ATOM      5  C   UNL A   1      41.915  20.317  26.464  1.00  0.00     0.261 C 
BRANCH   5   6
ATOM      6  O   UNL A   1      40.179  20.934  26.577  1.00  0.00    -0.463 OA
BRANCH   6   7
ATOM      7  C   UNL A   1      39.170  22.088  26.167  1.00  0.00     0.306 C 
ATOM      8  O   UNL A   1      39.402  23.244  26.558  1.00  0.00    -0.252 OA
BRANCH   7   9
ATOM      9  C   UNL A   1      37.554  21.860  25.397  1.00  0.00     0.126 C 
BRANCH   9  10
ATOM     10  C   UNL A   1      35.905  22.136  25.723  1.00  0.00     0.011 C 
ATOM     11  N   UNL A   1      32.980  22.928  24.998  1.00  0.00    -0.327 N 
ATOM     12  C   UNL A   1      33.811  23.775  25.822  1.00  0.00     0.262 C 
ATOM     13  C   UNL A   1      33.391  21.531  25.150  1.00  0.00     0.262 C 
ATOM     14  H   UNL A   1      33.128  23.096  24.002  1.00  0.00     0.348 HD
ATOM     15  C   UNL A   1      35.270  23.499  25.514  1.00  0.00     0.066 C 
ATOM     16  C   UNL A   1      34.927  21.232  24.897  1.00  0.00     0.066 C 
BRANCH  11  17
ATOM     17  C   UNL A   1      31.536  23.291  25.108  1.00  0.00     0.363 C 
BRANCH  17  18
ATOM     18  C   UNL A   1      31.064  23.922  26.453  1.00  0.00     0.279 C 
ATOM     19  N   UNL A   1      30.582  25.205  26.523  1.00  0.00    -0.321 N 
ATOM     20  H   UNL A   1      30.194  25.482  27.384  1.00  0.00     0.170 HD
ATOM     21  O   UNL A   1      31.046  23.257  27.496  1.00  0.00    -0.268 OA
BRANCH  19  22
ATOM     22  C   UNL A   1      30.583  26.161  25.505  1.00  0.00     0.044 A 
ATOM     23  C   UNL A   1      32.706  27.274  26.434  1.00  0.00     0.046 C 
ATOM     24  C   UNL A   1      31.525  27.202  25.506  1.00  0.00    -0.027 A 
ATOM     25  C   UNL A   1      31.315  28.279  24.628  1.00  0.00     0.005 A 
ATOM     26  C   UNL A   1      30.233  28.292  23.744  1.00  0.00     0.000 A 
ATOM     27  C   UNL A   1      29.577  26.121  24.531  1.00  0.00     0.026 A 
ATOM     28  C   UNL A   1      29.386  27.193  23.667  1.00  0.00     0.002 A 
ENDBRANCH  19  22
ENDBRANCH  17  18
ENDBRANCH  11  17
ENDBRANCH   9  10
ENDBRANCH   7   9
ENDBRANCH   6   7
ENDBRANCH   5   6
ENDBRANCH   4   5
ENDBRANCH   3   4
ENDBRANCH   2   3
ENDBRANCH   1   2
BRANCH   1  29
ATOM     29  O   UNL A   1      46.406  21.235  24.994  1.00  0.00    -0.377 OA
BRANCH  29  30
ATOM     30  C   UNL A   1      45.159  21.874  25.081  1.00  0.00     0.188 C 
BRANCH  30  31
ATOM     31  C   UNL A   1      44.975  23.163  24.258  1.00  0.00     0.188 C 
BRANCH  31  32
ATOM     32  O   UNL A   1      46.062  24.081  24.359  1.00  0.00    -0.376 OA
BRANCH  32  33
ATOM     33  C   UNL A   1      45.941  25.072  25.379  1.00  0.00     0.202 C 
BRANCH  33  34
ATOM     34  C   UNL A   1      46.985  24.898  26.492  1.00  0.00     0.261 C 
BRANCH  34  35
ATOM     35  O   UNL A   1      47.716  26.127  26.673  1.00  0.00    -0.460 OA
BRANCH  35  36
ATOM     36  C   UNL A   1      48.171  26.326  27.941  1.00  0.00     0.338 C 
ATOM     37  O   UNL A   1      48.504  25.449  28.716  1.00  0.00    -0.246 OA
BRANCH  36  38
ATOM     38  C   UNL A   1      47.936  27.753  28.320  1.00  0.00     0.060 A 
ATOM     39  C   UNL A   1      48.767  28.352  29.254  1.00  0.00     0.016 A 
ATOM     40  C   UNL A   1      46.744  28.402  27.971  1.00  0.00     0.016 A 
ATOM     41  C   UNL A   1      48.312  29.499  29.930  1.00  0.00     0.010 A 
ATOM     42  C   UNL A   1      46.222  29.418  28.783  1.00  0.00     0.010 A 
ATOM     43  C   UNL A   1      46.953  29.919  29.868  1.00  0.00    -0.014 A 
BRANCH  43  44
ATOM     44  C   UNL A   1      46.215  31.006  30.823  1.00  0.00     0.031 A 
ATOM     45  C   UNL A   1      45.282  29.688  31.607  1.00  0.00     0.074 A 
ATOM     46  C   UNL A   1      46.019  32.651  30.850  1.00  0.00     0.049 A 
ATOM     47  N   UNL A   1      43.992  29.675  31.847  1.00  0.00    -0.248 NA
ATOM     48  C   UNL A   1      45.777  28.310  31.887  1.00  0.00     0.031 C 
ATOM     49  C   UNL A   1      45.203  33.749  31.860  1.00  0.00     0.029 A 
ATOM     50  N   UNL A   1      46.026  33.774  29.845  1.00  0.00    -0.354 N 
ATOM     51  C   UNL A   1      43.719  28.724  32.775  1.00  0.00     0.074 A 
ATOM     52  C   UNL A   1      44.748  27.745  32.540  1.00  0.00     0.031 C 
ATOM     53  C   UNL A   1      44.845  34.927  31.384  1.00  0.00     0.029 A 
ATOM     54  C   UNL A   1      45.007  34.778  30.010  1.00  0.00     0.049 A 
ATOM     55  H   UNL A   1      46.688  33.818  29.117  1.00  0.00     0.167 HD
ATOM     56  C   UNL A   1      42.823  28.955  33.788  1.00  0.00     0.037 A 
ATOM     57  C   UNL A   1      43.991  35.189  29.196  1.00  0.00     0.037 A 
ATOM     58  C   UNL A   1      42.348  30.367  33.866  1.00  0.00     0.049 A 
ATOM     59  C   UNL A   1      42.576  34.914  29.827  1.00  0.00     0.074 A 
ATOM     60  C   UNL A   1      42.632  31.413  34.738  1.00  0.00     0.029 A 
ATOM     61  N   UNL A   1      41.662  30.980  32.812  1.00  0.00    -0.354 N 
ATOM     62  N   UNL A   1      42.380  34.316  30.989  1.00  0.00    -0.248 NA
ATOM     63  C   UNL A   1      41.295  35.182  29.175  1.00  0.00     0.031 C 
ATOM     64  C   UNL A   1      42.074  32.628  34.227  1.00  0.00     0.029 A 
ATOM     65  C   UNL A   1      41.450  32.353  33.024  1.00  0.00     0.049 A 
ATOM     66  H   UNL A   1      41.360  30.500  32.008  1.00  0.00     0.167 HD
ATOM     67  C   UNL A   1      41.067  33.965  31.155  1.00  0.00     0.074 A 
ATOM     68  C   UNL A   1      40.414  34.615  30.026  1.00  0.00     0.031 C 
ATOM     69  C   UNL A   1      40.573  33.124  32.128  1.00  0.00     0.037 A 
BRANCH  56  70
ATOM     70  C   UNL A   1      42.703  27.937  34.916  1.00  0.00     0.064 A 
ATOM     71  C   UNL A   1      43.595  27.881  36.005  1.00  0.00     0.173 A 
ATOM     72  C   UNL A   1      41.700  26.944  34.930  1.00  0.00     0.173 A 
ATOM     73  F   UNL A   1      44.500  28.841  36.223  1.00  0.00    -0.203 F 
ATOM     74  C   UNL A   1      43.582  26.830  36.931  1.00  0.00     0.198 A 
ATOM     75  C   UNL A   1      41.718  25.864  35.822  1.00  0.00     0.198 A 
ATOM     76  F   UNL A   1      40.659  27.009  34.086  1.00  0.00    -0.203 F 
ATOM     77  F   UNL A   1      44.466  26.821  37.940  1.00  0.00    -0.200 F 
ATOM     78  C   UNL A   1      42.675  25.797  36.812  1.00  0.00     0.200 A 
ATOM     79  F   UNL A   1      40.806  24.887  35.709  1.00  0.00    -0.200 F 
ATOM     80  F   UNL A   1      42.702  24.763  37.665  1.00  0.00    -0.200 F 
ENDBRANCH  56  70
BRANCH  57  81
ATOM     81  C   UNL A   1      44.403  35.291  27.779  1.00  0.00     0.064 A 
ATOM     82  C   UNL A   1      45.359  36.291  27.474  1.00  0.00     0.173 A 
ATOM     83  C   UNL A   1      44.214  34.281  26.840  1.00  0.00     0.173 A 
ATOM     84  F   UNL A   1      45.521  37.335  28.305  1.00  0.00    -0.203 F 
ATOM     85  C   UNL A   1      46.232  36.159  26.403  1.00  0.00     0.198 A 
ATOM     86  C   UNL A   1      45.093  34.150  25.760  1.00  0.00     0.198 A 
ATOM     87  F   UNL A   1      43.284  33.336  27.041  1.00  0.00    -0.203 F 
ATOM     88  F   UNL A   1      47.217  37.049  26.226  1.00  0.00    -0.200 F 
ATOM     89  C   UNL A   1      46.127  35.059  25.572  1.00  0.00     0.200 A 
ATOM     90  F   UNL A   1      44.993  33.086  24.952  1.00  0.00    -0.200 F 
ATOM     91  F   UNL A   1      47.036  34.859  24.607  1.00  0.00    -0.200 F 
ENDBRANCH  57  81
BRANCH  69  92
ATOM     92  C   UNL A   1      39.089  33.005  32.366  1.00  0.00     0.064 A 
ATOM     93  C   UNL A   1      38.407  33.908  33.201  1.00  0.00     0.173 A 
ATOM     94  C   UNL A   1      38.342  31.904  31.901  1.00  0.00     0.173 A 
ATOM     95  F   UNL A   1      39.055  34.934  33.773  1.00  0.00    -0.203 F 
ATOM     96  C   UNL A   1      37.047  33.769  33.475  1.00  0.00     0.198 A 
ATOM     97  C   UNL A   1      36.998  31.734  32.225  1.00  0.00     0.198 A 
ATOM     98  F   UNL A   1      38.888  30.974  31.106  1.00  0.00    -0.203 F 
ATOM     99  F   UNL A   1      36.419  34.695  34.212  1.00  0.00    -0.200 F 
ATOM    100  C   UNL A   1      36.344  32.680  32.991  1.00  0.00     0.200 A 
ATOM    101  F   UNL A   1      36.338  30.655  31.783  1.00  0.00    -0.200 F 
ATOM    102  F   UNL A   1      35.038  32.543  33.257  1.00  0.00    -0.200 F 
ENDBRANCH  69  92
ENDBRANCH  43  44
ENDBRANCH  36  38
ENDBRANCH  35  36
ENDBRANCH  34  35
ENDBRANCH  33  34
ENDBRANCH  32  33
ENDBRANCH  31  32
ENDBRANCH  30  31
ENDBRANCH  29  30
ENDBRANCH   1  29
TORSDOF 24
ENDMDL
MODEL 2
REMARK VINA RESULT:     -11.2      5.346     13.207
REMARK SMILES Cc1ccccc1NC(=O)C[NH+]1CCC(CC(=O)OCCOCCOCCOCCOC(=O)c2ccc(-c3c4nc(c(-c5c(F)c(F)c(F)c(F)c5F)c5ccc([nH]5)c(-c5c(F)c(F)c(F)c(F)c5F)c5nc(c(-c6c(F)c(F)c(F)c(F)c6F)c6ccc3[nH]6)C=C5)C=C4)cc2)CC1
REMARK SMILES IDX 24 1 23 2 22 3 21 4 20 5 19 6 17 7 18 8 16 9 15 10 12 11
REMARK SMILES IDX 13 12 98 13 14 15 97 16 11 17 9 18 8 19 10 21 7 22 1 23 2 24
REMARK SMILES IDX 3 25 4 26 6 27 5 28 25 29 26 30 27 31 28 32 29 33 30 34
REMARK SMILES IDX 31 35 32 36 33 37 34 38 35 39 96 40 36 41 95 42 37 43 38 44
REMARK SMILES IDX 39 45 89 46 40 47 94 48 88 49 90 50 41 51 93 52 87 53 86 54
REMARK SMILES IDX 42 56 74 57 54 58 73 59 55 60 58 61 72 62 91 63 56 64 57 65
REMARK SMILES IDX 71 67 92 68 59 69 43 70 44 71 52 72 45 73 46 74 50 75 53 76
REMARK SMILES IDX 47 77 48 78 51 79 49 80 75 81 76 82 84 83 77 84 78 85 82 86
REMARK SMILES IDX 85 87 79 88 80 89 83 90 81 91 60 92 61 93 69 94 62 95 63 96
REMARK SMILES IDX 67 97 70 98 64 99 65 100 68 101 66 102
REMARK H PARENT 12 14 8 20 90 55 58 66
REMARK Flexibility Score: inf
ROOT
ATOM      1  C   UNL A   1      33.124  36.857  31.428  1.00  0.00     0.188 C 
ENDROOT
BRANCH   1   2
ATOM      2  C   UNL A   1      33.003  35.870  32.661  1.00  0.00     0.188 C 
BRANCH   2   3
ATOM      3  O   UNL A   1      33.530  34.471  32.862  1.00  0.00    -0.376 OA
BRANCH   3   4
ATOM      4  C   UNL A   1      35.096  33.987  32.985  1.00  0.00     0.202 C 
BRANCH   4   5
ATOM      5  C   UNL A   1      36.827  34.638  32.643  1.00  0.00     0.261 C 
BRANCH   5   6
ATOM      6  O   UNL A   1      38.341  33.985  31.813  1.00  0.00    -0.463 OA
BRANCH   6   7
ATOM      7  C   UNL A   1      39.111  33.818  30.436  1.00  0.00     0.306 C 
ATOM      8  O   UNL A   1      39.267  32.674  29.980  1.00  0.00    -0.252 OA
BRANCH   7   9
ATOM      9  C   UNL A   1      40.027  35.109  29.570  1.00  0.00     0.126 C 
BRANCH   9  10
ATOM     10  C   UNL A   1      41.614  35.464  29.061  1.00  0.00     0.011 C 
ATOM     11  N   UNL A   1      44.365  34.822  27.747  1.00  0.00    -0.327 N 
ATOM     12  C   UNL A   1      44.233  35.008  29.173  1.00  0.00     0.262 C 
ATOM     13  C   UNL A   1      43.331  35.591  27.050  1.00  0.00     0.262 C 
ATOM     14  H   UNL A   1      44.159  33.864  27.462  1.00  0.00     0.348 HD
ATOM     15  C   UNL A   1      42.810  34.692  29.591  1.00  0.00     0.066 C 
ATOM     16  C   UNL A   1      41.841  35.325  27.517  1.00  0.00     0.066 C 
BRANCH  11  17
ATOM     17  C   UNL A   1      45.787  34.922  27.303  1.00  0.00     0.363 C 
BRANCH  17  18
ATOM     18  C   UNL A   1      46.040  35.262  25.803  1.00  0.00     0.279 C 
ATOM     19  N   UNL A   1      46.555  36.472  25.410  1.00  0.00    -0.321 N 
ATOM     20  H   UNL A   1      46.795  36.559  24.460  1.00  0.00     0.170 HD
ATOM     21  O   UNL A   1      45.846  34.420  24.918  1.00  0.00    -0.268 OA
BRANCH  19  22
ATOM     22  C   UNL A   1      46.774  37.594  26.213  1.00  0.00     0.044 A 
ATOM     23  C   UNL A   1      49.323  37.267  26.124  1.00  0.00     0.046 C 
ATOM     24  C   UNL A   1      48.071  37.924  26.636  1.00  0.00    -0.027 A 
ATOM     25  C   UNL A   1      48.206  38.886  27.653  1.00  0.00     0.005 A 
ATOM     26  C   UNL A   1      47.088  39.532  28.190  1.00  0.00     0.000 A 
ATOM     27  C   UNL A   1      45.674  38.334  26.664  1.00  0.00     0.026 A 
ATOM     28  C   UNL A   1      45.825  39.286  27.667  1.00  0.00     0.002 A 
ENDBRANCH  19  22
ENDBRANCH  17  18
ENDBRANCH  11  17
ENDBRANCH   9  10
ENDBRANCH   7   9
ENDBRANCH   6   7
ENDBRANCH   5   6
ENDBRANCH   4   5
ENDBRANCH   3   4
ENDBRANCH   2   3
ENDBRANCH   1   2
BRANCH   1  29
ATOM     29  O   UNL A   1      32.396  36.709  30.234  1.00  0.00    -0.377 OA
BRANCH  29  30
ATOM     30  C   UNL A   1      33.130  36.165  29.167  1.00  0.00     0.188 C 
BRANCH  30  31
ATOM     31  C   UNL A   1      33.795  34.796  29.403  1.00  0.00     0.188 C 
BRANCH  31  32
ATOM     32  O   UNL A   1      33.880  33.979  28.236  1.00  0.00    -0.376 OA
BRANCH  32  33
ATOM     33  C   UNL A   1      35.196  33.573  27.862  1.00  0.00     0.202 C 
BRANCH  33  34
ATOM     34  C   UNL A   1      35.885  32.740  28.952  1.00  0.00     0.261 C 
BRANCH  34  35
ATOM     35  O   UNL A   1      35.131  31.538  29.200  1.00  0.00    -0.460 OA
BRANCH  35  36
ATOM     36  C   UNL A   1      35.178  30.627  28.189  1.00  0.00     0.338 C 
ATOM     37  O   UNL A   1      34.250  30.336  27.459  1.00  0.00    -0.246 OA
BRANCH  36  38
ATOM     38  C   UNL A   1      36.453  29.852  28.297  1.00  0.00     0.060 A 
ATOM     39  C   UNL A   1      36.831  29.337  29.528  1.00  0.00     0.016 A 
ATOM     40  C   UNL A   1      37.398  29.876  27.263  1.00  0.00     0.016 A 
ATOM     41  C   UNL A   1      38.181  29.007  29.739  1.00  0.00     0.010 A 
ATOM     42  C   UNL A   1      38.763  29.733  27.543  1.00  0.00     0.010 A 
ATOM     43  C   UNL A   1      39.204  29.406  28.832  1.00  0.00    -0.014 A 
BRANCH  43  44
ATOM     44  C   UNL A   1      40.807  29.385  29.087  1.00  0.00     0.031 A 
ATOM     45  C   UNL A   1      40.865  27.658  28.598  1.00  0.00     0.074 A 
ATOM     46  C   UNL A   1      41.919  30.341  29.858  1.00  0.00     0.049 A 
ATOM     47  N   UNL A   1      41.480  26.685  29.228  1.00  0.00    -0.248 NA
ATOM     48  C   UNL A   1      40.029  27.018  27.544  1.00  0.00     0.031 C 
ATOM     49  C   UNL A   1      43.596  30.259  30.128  1.00  0.00     0.029 A 
ATOM     50  N   UNL A   1      41.912  31.339  30.988  1.00  0.00    -0.354 N 
ATOM     51  C   UNL A   1      41.633  25.633  28.384  1.00  0.00     0.074 A 
ATOM     52  C   UNL A   1      40.497  25.758  27.509  1.00  0.00     0.031 C 
ATOM     53  C   UNL A   1      44.122  30.910  31.149  1.00  0.00     0.029 A 
ATOM     54  C   UNL A   1      43.011  31.254  31.914  1.00  0.00     0.049 A 
ATOM     55  H   UNL A   1      41.198  32.009  31.088  1.00  0.00     0.167 HD
ATOM     56  C   UNL A   1      42.801  24.914  28.349  1.00  0.00     0.037 A 
ATOM     57  C   UNL A   1      43.057  31.011  33.256  1.00  0.00     0.037 A 
ATOM     58  C   UNL A   1      43.902  25.506  29.164  1.00  0.00     0.049 A 
ATOM     59  C   UNL A   1      43.826  29.679  33.593  1.00  0.00     0.074 A 
ATOM     60  C   UNL A   1      45.061  26.196  28.828  1.00  0.00     0.029 A 
ATOM     61  N   UNL A   1      43.788  25.687  30.546  1.00  0.00    -0.354 N 
ATOM     62  N   UNL A   1      44.336  28.862  32.688  1.00  0.00    -0.248 NA
ATOM     63  C   UNL A   1      43.989  29.115  34.932  1.00  0.00     0.031 C 
ATOM     64  C   UNL A   1      45.657  26.740  30.009  1.00  0.00     0.029 A 
ATOM     65  C   UNL A   1      44.865  26.406  31.093  1.00  0.00     0.049 A 
ATOM     66  H   UNL A   1      43.034  25.347  31.079  1.00  0.00     0.167 HD
ATOM     67  C   UNL A   1      44.696  27.664  33.244  1.00  0.00     0.074 A 
ATOM     68  C   UNL A   1      44.542  27.911  34.672  1.00  0.00     0.031 C 
ATOM     69  C   UNL A   1      45.028  26.520  32.551  1.00  0.00     0.037 A 
BRANCH  56  70
ATOM     70  C   UNL A   1      42.999  23.878  27.249  1.00  0.00     0.064 A 
ATOM     71  C   UNL A   1      42.597  22.533  27.373  1.00  0.00     0.173 A 
ATOM     72  C   UNL A   1      43.640  24.187  26.030  1.00  0.00     0.173 A 
ATOM     73  F   UNL A   1      41.840  22.116  28.393  1.00  0.00    -0.203 F 
ATOM     74  C   UNL A   1      42.950  21.556  26.434  1.00  0.00     0.198 A 
ATOM     75  C   UNL A   1      44.041  23.203  25.116  1.00  0.00     0.198 A 
ATOM     76  F   UNL A   1      43.876  25.462  25.684  1.00  0.00    -0.203 F 
ATOM     77  F   UNL A   1      42.552  20.287  26.611  1.00  0.00    -0.200 F 
ATOM     78  C   UNL A   1      43.712  21.882  25.330  1.00  0.00     0.200 A 
ATOM     79  F   UNL A   1      44.753  23.547  24.033  1.00  0.00    -0.200 F 
ATOM     80  F   UNL A   1      44.099  20.935  24.463  1.00  0.00    -0.200 F 
ENDBRANCH  56  70
BRANCH  57  81
ATOM     81  C   UNL A   1      41.984  31.709  33.998  1.00  0.00     0.064 A 
ATOM     82  C   UNL A   1      40.849  30.933  34.338  1.00  0.00     0.173 A 
ATOM     83  C   UNL A   1      42.165  32.909  34.680  1.00  0.00     0.173 A 
ATOM     84  F   UNL A   1      40.579  29.809  33.652  1.00  0.00    -0.203 F 
ATOM     85  C   UNL A   1      40.073  31.228  35.450  1.00  0.00     0.198 A 
ATOM     86  C   UNL A   1      41.381  33.207  35.799  1.00  0.00     0.198 A 
ATOM     87  F   UNL A   1      43.187  33.718  34.367  1.00  0.00    -0.203 F 
ATOM     88  F   UNL A   1      39.094  30.396  35.827  1.00  0.00    -0.200 F 
ATOM     89  C   UNL A   1      40.371  32.344  36.209  1.00  0.00     0.200 A 
ATOM     90  F   UNL A   1      41.667  34.289  36.537  1.00  0.00    -0.200 F 
ATOM     91  F   UNL A   1      39.706  32.577  37.350  1.00  0.00    -0.200 F 
ENDBRANCH  57  81
BRANCH  69  92
ATOM     92  C   UNL A   1      45.644  25.340  33.259  1.00  0.00     0.064 A 
ATOM     93  C   UNL A   1      44.856  24.273  33.725  1.00  0.00     0.173 A 
ATOM     94  C   UNL A   1      47.004  25.316  33.629  1.00  0.00     0.173 A 
ATOM     95  F   UNL A   1      43.532  24.255  33.510  1.00  0.00    -0.203 F 
ATOM     96  C   UNL A   1      45.411  23.208  34.435  1.00  0.00     0.198 A 
ATOM     97  C   UNL A   1      47.544  24.281  34.389  1.00  0.00     0.198 A 
ATOM     98  F   UNL A   1      47.850  26.284  33.249  1.00  0.00    -0.203 F 
ATOM     99  F   UNL A   1      44.637  22.174  34.793  1.00  0.00    -0.200 F 
ATOM    100  C   UNL A   1      46.753  23.214  34.770  1.00  0.00     0.200 A 
ATOM    101  F   UNL A   1      48.836  24.318  34.741  1.00  0.00    -0.200 F 
ATOM    102  F   UNL A   1      47.285  22.193  35.455  1.00  0.00    -0.200 F 
ENDBRANCH  69  92
ENDBRANCH  43  44
ENDBRANCH  36  38
ENDBRANCH  35  36
ENDBRANCH  34  35
ENDBRANCH  33  34
ENDBRANCH  32  33
ENDBRANCH  31  32
ENDBRANCH  30  31
ENDBRANCH  29  30
ENDBRANCH   1  29
TORSDOF 24
ENDMDL
MODEL 3
REMARK VINA RESULT:     -11.1      3.844      7.057
REMARK SMILES Cc1ccccc1NC(=O)C[NH+]1CCC(CC(=O)OCCOCCOCCOCCOC(=O)c2ccc(-c3c4nc(c(-c5c(F)c(F)c(F)c(F)c5F)c5ccc([nH]5)c(-c5c(F)c(F)c(F)c(F)c5F)c5nc(c(-c6c(F)c(F)c(F)c(F)c6F)c6ccc3[nH]6)C=C5)C=C4)cc2)CC1
REMARK SMILES IDX 24 1 23 2 22 3 21 4 20 5 19 6 17 7 18 8 16 9 15 10 12 11
REMARK SMILES IDX 13 12 98 13 14 15 97 16 11 17 9 18 8 19 10 21 7 22 1 23 2 24
REMARK SMILES IDX 3 25 4 26 6 27 5 28 25 29 26 30 27 31 28 32 29 33 30 34
REMARK SMILES IDX 31 35 32 36 33 37 34 38 35 39 96 40 36 41 95 42 37 43 38 44
REMARK SMILES IDX 39 45 89 46 40 47 94 48 88 49 90 50 41 51 93 52 87 53 86 54
REMARK SMILES IDX 42 56 74 57 54 58 73 59 55 60 58 61 72 62 91 63 56 64 57 65
REMARK SMILES IDX 71 67 92 68 59 69 43 70 44 71 52 72 45 73 46 74 50 75 53 76
REMARK SMILES IDX 47 77 48 78 51 79 49 80 75 81 76 82 84 83 77 84 78 85 82 86
REMARK SMILES IDX 85 87 79 88 80 89 83 90 81 91 60 92 61 93 69 94 62 95 63 96
REMARK SMILES IDX 67 97 70 98 64 99 65 100 68 101 66 102
REMARK H PARENT 12 14 8 20 90 55 58 66
REMARK Flexibility Score: inf
ROOT
ATOM      1  C   UNL A   1      46.058  20.495  25.257  1.00  0.00     0.188 C 
ENDROOT
BRANCH   1   2
ATOM      2  C   UNL A   1      45.416  19.274  24.478  1.00  0.00     0.188 C 
BRANCH   2   3
ATOM      3  O   UNL A   1      44.186  18.453  24.771  1.00  0.00    -0.376 OA
BRANCH   3   4
ATOM      4  C   UNL A   1      42.810  18.926  25.538  1.00  0.00     0.202 C 
BRANCH   4   5
ATOM      5  C   UNL A   1      42.223  20.254  26.734  1.00  0.00     0.261 C 
BRANCH   5   6
ATOM      6  O   UNL A   1      40.613  21.080  27.098  1.00  0.00    -0.463 OA
BRANCH   6   7
ATOM      7  C   UNL A   1      39.631  22.263  26.708  1.00  0.00     0.306 C 
ATOM      8  O   UNL A   1      39.763  23.356  27.284  1.00  0.00    -0.252 OA
BRANCH   7   9
ATOM      9  C   UNL A   1      38.150  22.121  25.687  1.00  0.00     0.126 C 
BRANCH   9  10
ATOM     10  C   UNL A   1      36.454  22.106  25.845  1.00  0.00     0.011 C 
ATOM     11  N   UNL A   1      33.554  23.066  25.229  1.00  0.00    -0.327 N 
ATOM     12  C   UNL A   1      34.183  23.328  26.502  1.00  0.00     0.262 C 
ATOM     13  C   UNL A   1      34.108  21.841  24.647  1.00  0.00     0.262 C 
ATOM     14  H   UNL A   1      33.791  23.770  24.530  1.00  0.00     0.348 HD
ATOM     15  C   UNL A   1      35.690  23.327  26.328  1.00  0.00     0.066 C 
ATOM     16  C   UNL A   1      35.686  21.792  24.516  1.00  0.00     0.066 C 
BRANCH  11  17
ATOM     17  C   UNL A   1      32.074  23.252  25.292  1.00  0.00     0.363 C 
BRANCH  17  18
ATOM     18  C   UNL A   1      31.498  23.925  26.574  1.00  0.00     0.279 C 
ATOM     19  N   UNL A   1      31.381  25.287  26.689  1.00  0.00    -0.321 N 
ATOM     20  H   UNL A   1      30.898  25.622  27.479  1.00  0.00     0.170 HD
ATOM     21  O   UNL A   1      31.063  23.242  27.510  1.00  0.00    -0.268 OA
BRANCH  19  22
ATOM     22  C   UNL A   1      31.874  26.251  25.807  1.00  0.00     0.044 A 
ATOM     23  C   UNL A   1      29.670  26.290  24.481  1.00  0.00     0.046 C 
ATOM     24  C   UNL A   1      31.110  26.662  24.703  1.00  0.00    -0.027 A 
ATOM     25  C   UNL A   1      31.752  27.419  23.705  1.00  0.00     0.005 A 
ATOM     26  C   UNL A   1      33.092  27.794  23.832  1.00  0.00     0.000 A 
ATOM     27  C   UNL A   1      33.175  26.738  25.987  1.00  0.00     0.026 A 
ATOM     28  C   UNL A   1      33.793  27.488  24.992  1.00  0.00     0.002 A 
ENDBRANCH  19  22
ENDBRANCH  17  18
ENDBRANCH  11  17
ENDBRANCH   9  10
ENDBRANCH   7   9
ENDBRANCH   6   7
ENDBRANCH   5   6
ENDBRANCH   4   5
ENDBRANCH   3   4
ENDBRANCH   2   3
ENDBRANCH   1   2
BRANCH   1  29
ATOM     29  O   UNL A   1      46.179  21.788  24.718  1.00  0.00    -0.377 OA
BRANCH  29  30
ATOM     30  C   UNL A   1      45.008  22.285  24.124  1.00  0.00     0.188 C 
BRANCH  30  31
ATOM     31  C   UNL A   1      44.540  23.685  24.564  1.00  0.00     0.188 C 
BRANCH  31  32
ATOM     32  O   UNL A   1      43.620  23.678  25.654  1.00  0.00    -0.376 OA
BRANCH  32  33
ATOM     33  C   UNL A   1      43.148  24.958  26.072  1.00  0.00     0.202 C 
BRANCH  33  34
ATOM     34  C   UNL A   1      43.965  26.111  25.471  1.00  0.00     0.261 C 
BRANCH  34  35
ATOM     35  O   UNL A   1      44.276  27.076  26.494  1.00  0.00    -0.460 OA
BRANCH  35  36
ATOM     36  C   UNL A   1      45.457  26.853  27.134  1.00  0.00     0.338 C 
ATOM     37  O   UNL A   1      46.512  26.581  26.592  1.00  0.00    -0.246 OA
BRANCH  36  38
ATOM     38  C   UNL A   1      45.195  26.723  28.600  1.00  0.00     0.060 A 
ATOM     39  C   UNL A   1      44.531  25.601  29.073  1.00  0.00     0.016 A 
ATOM     40  C   UNL A   1      45.349  27.819  29.458  1.00  0.00     0.016 A 
ATOM     41  C   UNL A   1      43.904  25.663  30.330  1.00  0.00     0.010 A 
ATOM     42  C   UNL A   1      44.560  27.939  30.611  1.00  0.00     0.010 A 
ATOM     43  C   UNL A   1      43.718  26.897  31.017  1.00  0.00    -0.014 A 
BRANCH  43  44
ATOM     44  C   UNL A   1      42.753  27.176  32.293  1.00  0.00     0.031 A 
ATOM     45  C   UNL A   1      41.815  28.363  31.326  1.00  0.00     0.074 A 
ATOM     46  C   UNL A   1      42.790  26.878  33.923  1.00  0.00     0.049 A 
ATOM     47  N   UNL A   1      41.451  29.567  31.701  1.00  0.00    -0.248 NA
ATOM     48  C   UNL A   1      41.516  28.266  29.870  1.00  0.00     0.031 C 
ATOM     49  C   UNL A   1      41.762  27.223  35.232  1.00  0.00     0.029 A 
ATOM     50  N   UNL A   1      43.847  26.652  34.973  1.00  0.00    -0.354 N 
ATOM     51  C   UNL A   1      40.453  30.004  30.892  1.00  0.00     0.074 A 
ATOM     52  C   UNL A   1      40.737  29.339  29.648  1.00  0.00     0.031 C 
ATOM     53  C   UNL A   1      42.261  27.270  36.454  1.00  0.00     0.029 A 
ATOM     54  C   UNL A   1      43.635  27.308  36.237  1.00  0.00     0.049 A 
ATOM     55  H   UNL A   1      44.637  26.089  34.805  1.00  0.00     0.167 HD
ATOM     56  C   UNL A   1      39.371  30.678  31.398  1.00  0.00     0.037 A 
ATOM     57  C   UNL A   1      44.365  28.241  36.914  1.00  0.00     0.037 A 
ATOM     58  C   UNL A   1      39.319  30.708  32.889  1.00  0.00     0.049 A 
ATOM     59  C   UNL A   1      43.586  29.598  37.083  1.00  0.00     0.074 A 
ATOM     60  C   UNL A   1      38.533  30.038  33.821  1.00  0.00     0.029 A 
ATOM     61  N   UNL A   1      40.330  31.294  33.656  1.00  0.00    -0.354 N 
ATOM     62  N   UNL A   1      42.381  29.833  36.594  1.00  0.00    -0.248 NA
ATOM     63  C   UNL A   1      44.123  30.807  37.707  1.00  0.00     0.031 C 
ATOM     64  C   UNL A   1      39.048  30.267  35.136  1.00  0.00     0.029 A 
ATOM     65  C   UNL A   1      40.169  31.071  35.034  1.00  0.00     0.049 A 
ATOM     66  H   UNL A   1      41.075  31.809  33.272  1.00  0.00     0.167 HD
ATOM     67  C   UNL A   1      42.071  31.166  36.650  1.00  0.00     0.074 A 
ATOM     68  C   UNL A   1      43.163  31.719  37.443  1.00  0.00     0.031 C 
ATOM     69  C   UNL A   1      41.013  31.776  36.013  1.00  0.00     0.037 A 
BRANCH  56  70
ATOM     70  C   UNL A   1      38.186  30.968  30.484  1.00  0.00     0.064 A 
ATOM     71  C   UNL A   1      37.295  29.974  30.035  1.00  0.00     0.173 A 
ATOM     72  C   UNL A   1      37.917  32.262  29.988  1.00  0.00     0.173 A 
ATOM     73  F   UNL A   1      37.316  28.733  30.533  1.00  0.00    -0.203 F 
ATOM     74  C   UNL A   1      36.327  30.222  29.052  1.00  0.00     0.198 A 
ATOM     75  C   UNL A   1      36.987  32.502  28.968  1.00  0.00     0.198 A 
ATOM     76  F   UNL A   1      38.539  33.335  30.500  1.00  0.00    -0.203 F 
ATOM     77  F   UNL A   1      35.516  29.233  28.651  1.00  0.00    -0.200 F 
ATOM     78  C   UNL A   1      36.206  31.475  28.485  1.00  0.00     0.200 A 
ATOM     79  F   UNL A   1      36.861  33.735  28.454  1.00  0.00    -0.200 F 
ATOM     80  F   UNL A   1      35.318  31.696  27.504  1.00  0.00    -0.200 F 
ENDBRANCH  56  70
BRANCH  57  81
ATOM     81  C   UNL A   1      45.819  27.973  36.861  1.00  0.00     0.064 A 
ATOM     82  C   UNL A   1      46.290  26.910  37.670  1.00  0.00     0.173 A 
ATOM     83  C   UNL A   1      46.655  28.420  35.842  1.00  0.00     0.173 A 
ATOM     84  F   UNL A   1      45.562  26.497  38.721  1.00  0.00    -0.203 F 
ATOM     85  C   UNL A   1      47.427  26.189  37.332  1.00  0.00     0.198 A 
ATOM     86  C   UNL A   1      47.801  27.694  35.504  1.00  0.00     0.198 A 
ATOM     87  F   UNL A   1      46.294  29.460  35.078  1.00  0.00    -0.203 F 
ATOM     88  F   UNL A   1      47.767  25.101  38.035  1.00  0.00    -0.200 F 
ATOM     89  C   UNL A   1      48.158  26.555  36.217  1.00  0.00     0.200 A 
ATOM     90  F   UNL A   1      48.512  28.048  34.424  1.00  0.00    -0.200 F 
ATOM     91  F   UNL A   1      49.188  25.799  35.812  1.00  0.00    -0.200 F 
ENDBRANCH  57  81
BRANCH  69  92
ATOM     92  C   UNL A   1      40.625  33.195  36.344  1.00  0.00     0.064 A 
ATOM     93  C   UNL A   1      41.195  34.286  35.666  1.00  0.00     0.173 A 
ATOM     94  C   UNL A   1      39.803  33.508  37.445  1.00  0.00     0.173 A 
ATOM     95  F   UNL A   1      42.070  34.091  34.668  1.00  0.00    -0.203 F 
ATOM     96  C   UNL A   1      40.888  35.603  36.009  1.00  0.00     0.198 A 
ATOM     97  C   UNL A   1      39.545  34.824  37.823  1.00  0.00     0.198 A 
ATOM     98  F   UNL A   1      39.211  32.550  38.172  1.00  0.00    -0.203 F 
ATOM     99  F   UNL A   1      41.394  36.613  35.286  1.00  0.00    -0.200 F 
ATOM    100  C   UNL A   1      40.067  35.872  37.090  1.00  0.00     0.200 A 
ATOM    101  F   UNL A   1      38.780  35.071  38.895  1.00  0.00    -0.200 F 
ATOM    102  F   UNL A   1      39.775  37.136  37.421  1.00  0.00    -0.200 F 
ENDBRANCH  69  92
ENDBRANCH  43  44
ENDBRANCH  36  38
ENDBRANCH  35  36
ENDBRANCH  34  35
ENDBRANCH  33  34
ENDBRANCH  32  33
ENDBRANCH  31  32
ENDBRANCH  30  31
ENDBRANCH  29  30
ENDBRANCH   1  29
TORSDOF 24
ENDMDL
