MODEL 1
REMARK VINA RESULT:     -11.3      0.000      0.000
REMARK SMILES NC(=O)c1c(-c2ccc(Cl)cc2)csc1NC(=O)[C@H]1[C@@H](C(=O)OCCOCCOCCOCCOC(=O)c2ccc(-c3c4nc(c(-c5c(F)c(F)c(F)c(F)c5F)c5ccc([nH]5)c(-c5c(F)c(F)c(F)c(F)c5F)c5nc(c(-c6c(F)c(F)c(F)c(F)c6F)c6ccc3[nH]6)C=C5)C=C4)cc2)[C@@H]2CC[C@H]1O2
REMARK SMILES IDX 28 1 27 2 26 3 25 4 24 5 23 6 21 7 22 8 20 9 19 10 104 11
REMARK SMILES IDX 101 12 103 13 105 14 102 15 17 16 16 17 18 19 15 20 4 21
REMARK SMILES IDX 5 22 13 23 14 24 2 25 1 26 3 29 6 30 7 31 12 32 8 33 11 34
REMARK SMILES IDX 9 35 10 36 29 37 30 38 31 39 32 40 33 41 34 42 35 43 36 44
REMARK SMILES IDX 37 45 38 46 39 47 100 48 40 49 99 50 41 51 42 52 43 53 93 54
REMARK SMILES IDX 44 55 98 56 92 57 94 58 45 59 97 60 91 61 90 62 46 64 78 65
REMARK SMILES IDX 58 66 77 67 59 68 62 69 76 70 95 71 60 72 61 73 75 75 96 76
REMARK SMILES IDX 63 77 47 78 48 79 56 80 49 81 50 82 54 83 57 84 51 85 52 86
REMARK SMILES IDX 55 87 53 88 79 89 80 90 88 91 81 92 82 93 86 94 89 95 83 96
REMARK SMILES IDX 84 97 87 98 85 99 64 100 65 101 73 102 66 103 67 104 71 105
REMARK SMILES IDX 74 106 68 107 69 108 72 109 70 110
REMARK H PARENT 16 18 1 27 1 28 94 63 62 74
REMARK Flexibility Score: inf
ROOT
ATOM      1  C   UNL A   1      39.333  22.424  26.462  1.00  0.00     0.188 C 
ENDROOT
BRANCH   1   2
ATOM      2  C   UNL A   1      38.139  22.395  25.488  1.00  0.00     0.188 C 
BRANCH   2   3
ATOM      3  O   UNL A   1      37.107  21.555  26.003  1.00  0.00    -0.376 OA
BRANCH   3   4
ATOM      4  C   UNL A   1      36.467  20.699  25.060  1.00  0.00     0.202 C 
BRANCH   4   5
ATOM      5  C   UNL A   1      34.965  20.897  24.751  1.00  0.00     0.261 C 
BRANCH   5   6
ATOM      6  O   UNL A   1      34.066  20.461  25.801  1.00  0.00    -0.463 OA
BRANCH   6   7
ATOM      7  C   UNL A   1      32.834  20.034  25.500  1.00  0.00     0.312 C 
ATOM      8  O   UNL A   1      32.527  18.844  25.479  1.00  0.00    -0.252 OA
BRANCH   7   9
ATOM      9  C   UNL A   1      31.772  21.122  25.360  1.00  0.00     0.143 C 
ATOM     10  C   UNL A   1      31.529  22.136  24.214  1.00  0.00     0.124 C 
ATOM     11  C   UNL A   1      31.692  23.491  24.948  1.00  0.00     0.132 C 
ATOM     12  C   UNL A   1      31.891  22.059  26.573  1.00  0.00     0.133 C 
ATOM     13  C   UNL A   1      30.490  23.829  25.830  1.00  0.00     0.035 C 
ATOM     14  O   UNL A   1      32.623  23.166  26.004  1.00  0.00    -0.373 OA
ATOM     15  C   UNL A   1      30.566  22.744  26.901  1.00  0.00     0.036 C 
BRANCH  10  16
ATOM     16  C   UNL A   1      32.276  22.159  22.879  1.00  0.00     0.231 C 
ATOM     17  N   UNL A   1      33.163  23.160  22.529  1.00  0.00    -0.317 N 
ATOM     18  H   UNL A   1      33.687  22.947  21.723  1.00  0.00     0.170 HD
ATOM     19  O   UNL A   1      32.088  21.290  22.025  1.00  0.00    -0.274 OA
BRANCH  17  20
ATOM     20  C   UNL A   1      33.473  24.404  23.071  1.00  0.00     0.108 A 
ATOM     21  C   UNL A   1      32.745  25.593  22.957  1.00  0.00     0.082 A 
ATOM     22  C   UNL A   1      33.245  26.583  23.904  1.00  0.00     0.007 A 
ATOM     23  C   UNL A   1      34.400  26.159  24.523  1.00  0.00     0.076 A 
ATOM     24  S   UNL A   1      34.894  24.664  23.947  1.00  0.00    -0.125 S 
BRANCH  21  25
ATOM     25  C   UNL A   1      31.596  25.725  22.060  1.00  0.00     0.252 C 
ATOM     26  N   UNL A   1      31.877  25.951  20.743  1.00  0.00    -0.365 N 
ATOM     27  H   UNL A   1      31.145  26.048  20.092  1.00  0.00     0.159 HD
ATOM     28  H   UNL A   1      32.813  26.016  20.443  1.00  0.00     0.159 HD
ATOM     29  O   UNL A   1      30.437  25.586  22.435  1.00  0.00    -0.269 OA
ENDBRANCH  21  25
BRANCH  22  30
ATOM     30  C   UNL A   1      32.683  27.859  24.322  1.00  0.00    -0.017 A 
ATOM     31  C   UNL A   1      33.397  28.678  25.207  1.00  0.00     0.010 A 
ATOM     32  C   UNL A   1      31.404  28.241  23.901  1.00  0.00     0.010 A 
ATOM     33  C   UNL A   1      32.840  29.873  25.663  1.00  0.00     0.021 A 
ATOM     34  C   UNL A   1      30.851  29.442  24.353  1.00  0.00     0.021 A 
ATOM     35  C   UNL A   1      31.571  30.251  25.230  1.00  0.00     0.041 A 
ATOM     36  Cl  UNL A   1      30.890  31.728  25.787  1.00  0.00    -0.084 Cl
ENDBRANCH  22  30
ENDBRANCH  17  20
ENDBRANCH  10  16
ENDBRANCH   7   9
ENDBRANCH   6   7
ENDBRANCH   5   6
ENDBRANCH   4   5
ENDBRANCH   3   4
ENDBRANCH   2   3
ENDBRANCH   1   2
BRANCH   1  37
ATOM     37  O   UNL A   1      39.800  21.160  26.902  1.00  0.00    -0.377 OA
BRANCH  37  38
ATOM     38  C   UNL A   1      41.029  21.207  27.588  1.00  0.00     0.188 C 
BRANCH  38  39
ATOM     39  C   UNL A   1      42.110  20.286  26.986  1.00  0.00     0.188 C 
BRANCH  39  40
ATOM     40  O   UNL A   1      42.554  20.359  25.630  1.00  0.00    -0.376 OA
BRANCH  40  41
ATOM     41  C   UNL A   1      43.911  20.564  25.283  1.00  0.00     0.202 C 
BRANCH  41  42
ATOM     42  C   UNL A   1      44.505  21.965  25.508  1.00  0.00     0.261 C 
BRANCH  42  43
ATOM     43  O   UNL A   1      43.570  23.044  25.592  1.00  0.00    -0.460 OA
BRANCH  43  44
ATOM     44  C   UNL A   1      44.060  24.289  25.396  1.00  0.00     0.338 C 
ATOM     45  O   UNL A   1      44.828  24.670  24.529  1.00  0.00    -0.246 OA
BRANCH  44  46
ATOM     46  C   UNL A   1      43.370  25.186  26.348  1.00  0.00     0.060 A 
ATOM     47  C   UNL A   1      43.721  26.544  26.378  1.00  0.00     0.016 A 
ATOM     48  C   UNL A   1      42.315  24.708  27.132  1.00  0.00     0.016 A 
ATOM     49  C   UNL A   1      43.000  27.435  27.166  1.00  0.00     0.010 A 
ATOM     50  C   UNL A   1      41.639  25.587  27.976  1.00  0.00     0.010 A 
ATOM     51  C   UNL A   1      41.996  26.946  28.008  1.00  0.00    -0.014 A 
BRANCH  51  52
ATOM     52  C   UNL A   1      41.538  27.795  29.126  1.00  0.00     0.031 A 
ATOM     53  C   UNL A   1      42.300  27.686  30.415  1.00  0.00     0.074 A 
ATOM     54  C   UNL A   1      40.506  28.644  28.997  1.00  0.00     0.049 A 
ATOM     55  N   UNL A   1      42.082  28.265  31.565  1.00  0.00    -0.248 NA
ATOM     56  C   UNL A   1      43.473  26.793  30.401  1.00  0.00     0.031 C 
ATOM     57  C   UNL A   1      39.738  28.867  27.774  1.00  0.00     0.029 A 
ATOM     58  N   UNL A   1      39.923  29.472  29.921  1.00  0.00    -0.354 N 
ATOM     59  C   UNL A   1      43.083  27.803  32.407  1.00  0.00     0.074 A 
ATOM     60  C   UNL A   1      43.892  26.875  31.652  1.00  0.00     0.031 C 
ATOM     61  C   UNL A   1      38.767  29.761  28.030  1.00  0.00     0.029 A 
ATOM     62  C   UNL A   1      38.826  30.143  29.441  1.00  0.00     0.049 A 
ATOM     63  H   UNL A   1      40.259  29.575  30.841  1.00  0.00     0.167 HD
ATOM     64  C   UNL A   1      43.309  28.130  33.699  1.00  0.00     0.037 A 
ATOM     65  C   UNL A   1      37.960  30.948  30.087  1.00  0.00     0.037 A 
ATOM     66  C   UNL A   1      42.486  29.044  34.443  1.00  0.00     0.049 A 
ATOM     67  C   UNL A   1      38.178  31.227  31.555  1.00  0.00     0.074 A 
ATOM     68  C   UNL A   1      42.620  29.452  35.756  1.00  0.00     0.029 A 
ATOM     69  N   UNL A   1      41.362  29.679  33.934  1.00  0.00    -0.354 N 
ATOM     70  N   UNL A   1      39.137  30.806  32.346  1.00  0.00    -0.248 NA
ATOM     71  C   UNL A   1      37.196  32.096  32.218  1.00  0.00     0.031 C 
ATOM     72  C   UNL A   1      41.541  30.285  36.062  1.00  0.00     0.029 A 
ATOM     73  C   UNL A   1      40.776  30.457  34.918  1.00  0.00     0.049 A 
ATOM     74  H   UNL A   1      41.032  29.592  33.011  1.00  0.00     0.167 HD
ATOM     75  C   UNL A   1      38.896  31.387  33.585  1.00  0.00     0.074 A 
ATOM     76  C   UNL A   1      37.704  32.196  33.439  1.00  0.00     0.031 C 
ATOM     77  C   UNL A   1      39.598  31.268  34.740  1.00  0.00     0.037 A 
BRANCH  64  78
ATOM     78  C   UNL A   1      44.460  27.463  34.391  1.00  0.00     0.064 A 
ATOM     79  C   UNL A   1      45.752  28.010  34.379  1.00  0.00     0.173 A 
ATOM     80  C   UNL A   1      44.265  26.259  35.085  1.00  0.00     0.173 A 
ATOM     81  F   UNL A   1      45.998  29.147  33.710  1.00  0.00    -0.203 F 
ATOM     82  C   UNL A   1      46.810  27.364  35.012  1.00  0.00     0.198 A 
ATOM     83  C   UNL A   1      45.317  25.635  35.748  1.00  0.00     0.198 A 
ATOM     84  F   UNL A   1      43.050  25.690  35.124  1.00  0.00    -0.203 F 
ATOM     85  F   UNL A   1      48.046  27.877  34.941  1.00  0.00    -0.200 F 
ATOM     86  C   UNL A   1      46.590  26.183  35.704  1.00  0.00     0.200 A 
ATOM     87  F   UNL A   1      45.099  24.499  36.425  1.00  0.00    -0.200 F 
ATOM     88  F   UNL A   1      47.607  25.566  36.322  1.00  0.00    -0.200 F 
ENDBRANCH  64  78
BRANCH  65  89
ATOM     89  C   UNL A   1      36.800  31.535  29.362  1.00  0.00     0.064 A 
ATOM     90  C   UNL A   1      36.781  32.888  29.000  1.00  0.00     0.173 A 
ATOM     91  C   UNL A   1      35.675  30.760  29.042  1.00  0.00     0.173 A 
ATOM     92  F   UNL A   1      37.821  33.678  29.307  1.00  0.00    -0.203 F 
ATOM     93  C   UNL A   1      35.674  33.450  28.365  1.00  0.00     0.198 A 
ATOM     94  C   UNL A   1      34.582  31.315  28.380  1.00  0.00     0.198 A 
ATOM     95  F   UNL A   1      35.637  29.461  29.371  1.00  0.00    -0.203 F 
ATOM     96  F   UNL A   1      35.661  34.759  28.081  1.00  0.00    -0.200 F 
ATOM     97  C   UNL A   1      34.578  32.661  28.051  1.00  0.00     0.200 A 
ATOM     98  F   UNL A   1      33.529  30.547  28.068  1.00  0.00    -0.200 F 
ATOM     99  F   UNL A   1      33.513  33.202  27.442  1.00  0.00    -0.200 F 
ENDBRANCH  65  89
BRANCH  77 100
ATOM    100  C   UNL A   1      39.134  32.071  35.922  1.00  0.00     0.064 A 
ATOM    101  C   UNL A   1      38.290  31.531  36.901  1.00  0.00     0.173 A 
ATOM    102  C   UNL A   1      39.604  33.381  36.108  1.00  0.00     0.173 A 
ATOM    103  F   UNL A   1      37.805  30.288  36.765  1.00  0.00    -0.203 F 
ATOM    104  C   UNL A   1      37.911  32.282  38.011  1.00  0.00     0.198 A 
ATOM    105  C   UNL A   1      39.253  34.116  37.236  1.00  0.00     0.198 A 
ATOM    106  F   UNL A   1      40.425  33.942  35.207  1.00  0.00    -0.203 F 
ATOM    107  F   UNL A   1      37.064  31.764  38.911  1.00  0.00    -0.200 F 
ATOM    108  C   UNL A   1      38.401  33.570  38.183  1.00  0.00     0.200 A 
ATOM    109  F   UNL A   1      39.745  35.350  37.410  1.00  0.00    -0.200 F 
ATOM    110  F   UNL A   1      38.049  34.284  39.261  1.00  0.00    -0.200 F 
ENDBRANCH  77 100
ENDBRANCH  51  52
ENDBRANCH  44  46
ENDBRANCH  43  44
ENDBRANCH  42  43
ENDBRANCH  41  42
ENDBRANCH  40  41
ENDBRANCH  39  40
ENDBRANCH  38  39
ENDBRANCH  37  38
ENDBRANCH   1  37
TORSDOF 24
ENDMDL
MODEL 2
REMARK VINA RESULT:     -10.9      5.414      9.135
REMARK SMILES NC(=O)c1c(-c2ccc(Cl)cc2)csc1NC(=O)[C@H]1[C@@H](C(=O)OCCOCCOCCOCCOC(=O)c2ccc(-c3c4nc(c(-c5c(F)c(F)c(F)c(F)c5F)c5ccc([nH]5)c(-c5c(F)c(F)c(F)c(F)c5F)c5nc(c(-c6c(F)c(F)c(F)c(F)c6F)c6ccc3[nH]6)C=C5)C=C4)cc2)[C@@H]2CC[C@H]1O2
REMARK SMILES IDX 28 1 27 2 26 3 25 4 24 5 23 6 21 7 22 8 20 9 19 10 104 11
REMARK SMILES IDX 101 12 103 13 105 14 102 15 17 16 16 17 18 19 15 20 4 21
REMARK SMILES IDX 5 22 13 23 14 24 2 25 1 26 3 29 6 30 7 31 12 32 8 33 11 34
REMARK SMILES IDX 9 35 10 36 29 37 30 38 31 39 32 40 33 41 34 42 35 43 36 44
REMARK SMILES IDX 37 45 38 46 39 47 100 48 40 49 99 50 41 51 42 52 43 53 93 54
REMARK SMILES IDX 44 55 98 56 92 57 94 58 45 59 97 60 91 61 90 62 46 64 78 65
REMARK SMILES IDX 58 66 77 67 59 68 62 69 76 70 95 71 60 72 61 73 75 75 96 76
REMARK SMILES IDX 63 77 47 78 48 79 56 80 49 81 50 82 54 83 57 84 51 85 52 86
REMARK SMILES IDX 55 87 53 88 79 89 80 90 88 91 81 92 82 93 86 94 89 95 83 96
REMARK SMILES IDX 84 97 87 98 85 99 64 100 65 101 73 102 66 103 67 104 71 105
REMARK SMILES IDX 74 106 68 107 69 108 72 109 70 110
REMARK H PARENT 16 18 1 27 1 28 94 63 62 74
REMARK Flexibility Score: inf
ROOT
ATOM      1  C   UNL A   1      43.836  23.027  28.040  1.00  0.00     0.188 C 
ENDROOT
BRANCH   1   2
ATOM      2  C   UNL A   1      43.090  24.226  28.658  1.00  0.00     0.188 C 
BRANCH   2   3
ATOM      3  O   UNL A   1      42.937  25.260  27.686  1.00  0.00    -0.376 OA
BRANCH   3   4
ATOM      4  C   UNL A   1      41.599  25.671  27.414  1.00  0.00     0.202 C 
BRANCH   4   5
ATOM      5  C   UNL A   1      40.876  26.609  28.408  1.00  0.00     0.261 C 
BRANCH   5   6
ATOM      6  O   UNL A   1      39.863  27.458  27.814  1.00  0.00    -0.463 OA
BRANCH   6   7
ATOM      7  C   UNL A   1      40.086  28.769  27.661  1.00  0.00     0.312 C 
ATOM      8  O   UNL A   1      41.037  29.214  27.023  1.00  0.00    -0.252 OA
BRANCH   7   9
ATOM      9  C   UNL A   1      38.983  29.693  28.173  1.00  0.00     0.143 C 
ATOM     10  C   UNL A   1      38.937  30.583  29.441  1.00  0.00     0.124 C 
ATOM     11  C   UNL A   1      37.714  30.002  30.193  1.00  0.00     0.132 C 
ATOM     12  C   UNL A   1      37.706  28.855  28.346  1.00  0.00     0.133 C 
ATOM     13  C   UNL A   1      36.384  30.414  29.560  1.00  0.00     0.035 C 
ATOM     14  O   UNL A   1      37.711  28.620  29.771  1.00  0.00    -0.373 OA
ATOM     15  C   UNL A   1      36.441  29.701  28.210  1.00  0.00     0.036 C 
BRANCH  10  16
ATOM     16  C   UNL A   1      40.101  30.807  30.407  1.00  0.00     0.231 C 
ATOM     17  N   UNL A   1      39.933  31.292  31.691  1.00  0.00    -0.317 N 
ATOM     18  H   UNL A   1      40.746  31.218  32.241  1.00  0.00     0.170 HD
ATOM     19  O   UNL A   1      41.267  30.599  30.064  1.00  0.00    -0.274 OA
BRANCH  17  20
ATOM     20  C   UNL A   1      38.859  31.861  32.371  1.00  0.00     0.108 A 
ATOM     21  C   UNL A   1      38.178  33.042  32.060  1.00  0.00     0.082 A 
ATOM     22  C   UNL A   1      36.945  33.131  32.833  1.00  0.00     0.007 A 
ATOM     23  C   UNL A   1      36.866  32.139  33.785  1.00  0.00     0.076 A 
ATOM     24  S   UNL A   1      38.242  31.179  33.788  1.00  0.00    -0.125 S 
BRANCH  21  25
ATOM     25  C   UNL A   1      38.645  33.967  31.026  1.00  0.00     0.252 C 
ATOM     26  N   UNL A   1      37.793  34.192  29.983  1.00  0.00    -0.365 N 
ATOM     27  H   UNL A   1      38.053  34.805  29.258  1.00  0.00     0.159 HD
ATOM     28  H   UNL A   1      36.918  33.742  29.956  1.00  0.00     0.159 HD
ATOM     29  O   UNL A   1      39.714  34.565  31.098  1.00  0.00    -0.269 OA
ENDBRANCH  21  25
BRANCH  22  30
ATOM     30  C   UNL A   1      35.808  34.030  32.699  1.00  0.00    -0.017 A 
ATOM     31  C   UNL A   1      35.526  34.954  33.715  1.00  0.00     0.010 A 
ATOM     32  C   UNL A   1      34.954  33.931  31.594  1.00  0.00     0.010 A 
ATOM     33  C   UNL A   1      34.403  35.775  33.625  1.00  0.00     0.021 A 
ATOM     34  C   UNL A   1      33.834  34.760  31.503  1.00  0.00     0.021 A 
ATOM     35  C   UNL A   1      33.565  35.678  32.517  1.00  0.00     0.041 A 
ATOM     36  Cl  UNL A   1      32.185  36.698  32.405  1.00  0.00    -0.084 Cl
ENDBRANCH  22  30
ENDBRANCH  17  20
ENDBRANCH  10  16
ENDBRANCH   7   9
ENDBRANCH   6   7
ENDBRANCH   5   6
ENDBRANCH   4   5
ENDBRANCH   3   4
ENDBRANCH   2   3
ENDBRANCH   1   2
BRANCH   1  37
ATOM     37  O   UNL A   1      43.031  22.098  27.334  1.00  0.00    -0.377 OA
BRANCH  37  38
ATOM     38  C   UNL A   1      43.227  22.109  25.939  1.00  0.00     0.188 C 
BRANCH  38  39
ATOM     39  C   UNL A   1      44.371  21.189  25.467  1.00  0.00     0.188 C 
BRANCH  39  40
ATOM     40  O   UNL A   1      45.709  21.634  25.239  1.00  0.00    -0.376 OA
BRANCH  40  41
ATOM     41  C   UNL A   1      46.013  22.739  24.406  1.00  0.00     0.202 C 
BRANCH  41  42
ATOM     42  C   UNL A   1      46.476  24.040  25.083  1.00  0.00     0.261 C 
BRANCH  42  43
ATOM     43  O   UNL A   1      45.860  25.247  24.626  1.00  0.00    -0.460 OA
BRANCH  43  44
ATOM     44  C   UNL A   1      46.628  26.360  24.626  1.00  0.00     0.338 C 
ATOM     45  O   UNL A   1      47.530  26.654  23.859  1.00  0.00    -0.246 OA
BRANCH  44  46
ATOM     46  C   UNL A   1      46.080  27.271  25.653  1.00  0.00     0.060 A 
ATOM     47  C   UNL A   1      46.964  27.907  26.539  1.00  0.00     0.016 A 
ATOM     48  C   UNL A   1      44.715  27.572  25.675  1.00  0.00     0.016 A 
ATOM     49  C   UNL A   1      46.492  28.868  27.426  1.00  0.00     0.010 A 
ATOM     50  C   UNL A   1      44.232  28.483  26.612  1.00  0.00     0.010 A 
ATOM     51  C   UNL A   1      45.117  29.114  27.502  1.00  0.00    -0.014 A 
BRANCH  51  52
ATOM     52  C   UNL A   1      44.588  29.794  28.701  1.00  0.00     0.031 A 
ATOM     53  C   UNL A   1      44.434  31.285  28.621  1.00  0.00     0.074 A 
ATOM     54  C   UNL A   1      44.235  29.116  29.804  1.00  0.00     0.049 A 
ATOM     55  N   UNL A   1      44.052  32.135  29.536  1.00  0.00    -0.248 NA
ATOM     56  C   UNL A   1      44.761  31.903  27.323  1.00  0.00     0.031 C 
ATOM     57  C   UNL A   1      44.291  27.665  29.962  1.00  0.00     0.029 A 
ATOM     58  N   UNL A   1      43.767  29.572  31.009  1.00  0.00    -0.354 N 
ATOM     59  C   UNL A   1      44.100  33.381  28.927  1.00  0.00     0.074 A 
ATOM     60  C   UNL A   1      44.574  33.186  27.577  1.00  0.00     0.031 C 
ATOM     61  C   UNL A   1      43.890  27.349  31.207  1.00  0.00     0.029 A 
ATOM     62  C   UNL A   1      43.586  28.578  31.939  1.00  0.00     0.049 A 
ATOM     63  H   UNL A   1      43.578  30.521  31.191  1.00  0.00     0.167 HD
ATOM     64  C   UNL A   1      43.770  34.583  29.451  1.00  0.00     0.037 A 
ATOM     65  C   UNL A   1      43.242  28.668  33.238  1.00  0.00     0.037 A 
ATOM     66  C   UNL A   1      43.314  34.763  30.802  1.00  0.00     0.049 A 
ATOM     67  C   UNL A   1      42.968  30.032  33.828  1.00  0.00     0.074 A 
ATOM     68  C   UNL A   1      42.951  35.933  31.440  1.00  0.00     0.029 A 
ATOM     69  N   UNL A   1      43.176  33.738  31.726  1.00  0.00    -0.354 N 
ATOM     70  N   UNL A   1      42.993  31.208  33.246  1.00  0.00    -0.248 NA
ATOM     71  C   UNL A   1      42.615  30.079  35.253  1.00  0.00     0.031 C 
ATOM     72  C   UNL A   1      42.653  35.626  32.770  1.00  0.00     0.029 A 
ATOM     73  C   UNL A   1      42.758  34.253  32.941  1.00  0.00     0.049 A 
ATOM     74  H   UNL A   1      43.347  32.785  31.545  1.00  0.00     0.167 HD
ATOM     75  C   UNL A   1      42.624  32.127  34.221  1.00  0.00     0.074 A 
ATOM     76  C   UNL A   1      42.373  31.370  35.429  1.00  0.00     0.031 C 
ATOM     77  C   UNL A   1      42.497  33.474  34.126  1.00  0.00     0.037 A 
BRANCH  64  78
ATOM     78  C   UNL A   1      43.936  35.788  28.574  1.00  0.00     0.064 A 
ATOM     79  C   UNL A   1      45.186  36.390  28.368  1.00  0.00     0.173 A 
ATOM     80  C   UNL A   1      42.825  36.344  27.922  1.00  0.00     0.173 A 
ATOM     81  F   UNL A   1      46.276  35.913  28.986  1.00  0.00    -0.203 F 
ATOM     82  C   UNL A   1      45.313  37.519  27.563  1.00  0.00     0.198 A 
ATOM     83  C   UNL A   1      42.962  37.450  27.089  1.00  0.00     0.198 A 
ATOM     84  F   UNL A   1      41.605  35.810  28.088  1.00  0.00    -0.203 F 
ATOM     85  F   UNL A   1      46.508  38.110  27.425  1.00  0.00    -0.200 F 
ATOM     86  C   UNL A   1      44.203  38.042  26.917  1.00  0.00     0.200 A 
ATOM     87  F   UNL A   1      41.889  37.947  26.457  1.00  0.00    -0.200 F 
ATOM     88  F   UNL A   1      44.328  39.124  26.135  1.00  0.00    -0.200 F 
ENDBRANCH  64  78
BRANCH  65  89
ATOM     89  C   UNL A   1      43.152  27.442  34.076  1.00  0.00     0.064 A 
ATOM     90  C   UNL A   1      41.915  26.853  34.369  1.00  0.00     0.173 A 
ATOM     91  C   UNL A   1      44.300  26.850  34.624  1.00  0.00     0.173 A 
ATOM     92  F   UNL A   1      40.785  27.396  33.891  1.00  0.00    -0.203 F 
ATOM     93  C   UNL A   1      41.826  25.733  35.195  1.00  0.00     0.198 A 
ATOM     94  C   UNL A   1      44.213  25.712  35.424  1.00  0.00     0.198 A 
ATOM     95  F   UNL A   1      45.510  27.376  34.382  1.00  0.00    -0.203 F 
ATOM     96  F   UNL A   1      40.625  25.225  35.503  1.00  0.00    -0.200 F 
ATOM     97  C   UNL A   1      42.976  25.161  35.717  1.00  0.00     0.200 A 
ATOM     98  F   UNL A   1      45.328  25.156  35.918  1.00  0.00    -0.200 F 
ATOM     99  F   UNL A   1      42.890  24.085  36.511  1.00  0.00    -0.200 F 
ENDBRANCH  65  89
BRANCH  77 100
ATOM    100  C   UNL A   1      42.015  34.215  35.340  1.00  0.00     0.064 A 
ATOM    101  C   UNL A   1      40.652  34.428  35.587  1.00  0.00     0.173 A 
ATOM    102  C   UNL A   1      42.935  34.658  36.304  1.00  0.00     0.173 A 
ATOM    103  F   UNL A   1      39.733  34.034  34.693  1.00  0.00    -0.203 F 
ATOM    104  C   UNL A   1      40.228  35.079  36.744  1.00  0.00     0.198 A 
ATOM    105  C   UNL A   1      42.507  35.274  37.475  1.00  0.00     0.198 A 
ATOM    106  F   UNL A   1      44.251  34.468  36.123  1.00  0.00    -0.203 F 
ATOM    107  F   UNL A   1      38.924  35.314  36.938  1.00  0.00    -0.200 F 
ATOM    108  C   UNL A   1      41.155  35.492  37.691  1.00  0.00     0.200 A 
ATOM    109  F   UNL A   1      43.401  35.653  38.398  1.00  0.00    -0.200 F 
ATOM    110  F   UNL A   1      40.743  36.102  38.811  1.00  0.00    -0.200 F 
ENDBRANCH  77 100
ENDBRANCH  51  52
ENDBRANCH  44  46
ENDBRANCH  43  44
ENDBRANCH  42  43
ENDBRANCH  41  42
ENDBRANCH  40  41
ENDBRANCH  39  40
ENDBRANCH  38  39
ENDBRANCH  37  38
ENDBRANCH   1  37
TORSDOF 24
ENDMDL
MODEL 3
REMARK VINA RESULT:     -10.6      5.282      7.489
REMARK SMILES NC(=O)c1c(-c2ccc(Cl)cc2)csc1NC(=O)[C@H]1[C@@H](C(=O)OCCOCCOCCOCCOC(=O)c2ccc(-c3c4nc(c(-c5c(F)c(F)c(F)c(F)c5F)c5ccc([nH]5)c(-c5c(F)c(F)c(F)c(F)c5F)c5nc(c(-c6c(F)c(F)c(F)c(F)c6F)c6ccc3[nH]6)C=C5)C=C4)cc2)[C@@H]2CC[C@H]1O2
REMARK SMILES IDX 28 1 27 2 26 3 25 4 24 5 23 6 21 7 22 8 20 9 19 10 104 11
REMARK SMILES IDX 101 12 103 13 105 14 102 15 17 16 16 17 18 19 15 20 4 21
REMARK SMILES IDX 5 22 13 23 14 24 2 25 1 26 3 29 6 30 7 31 12 32 8 33 11 34
REMARK SMILES IDX 9 35 10 36 29 37 30 38 31 39 32 40 33 41 34 42 35 43 36 44
REMARK SMILES IDX 37 45 38 46 39 47 100 48 40 49 99 50 41 51 42 52 43 53 93 54
REMARK SMILES IDX 44 55 98 56 92 57 94 58 45 59 97 60 91 61 90 62 46 64 78 65
REMARK SMILES IDX 58 66 77 67 59 68 62 69 76 70 95 71 60 72 61 73 75 75 96 76
REMARK SMILES IDX 63 77 47 78 48 79 56 80 49 81 50 82 54 83 57 84 51 85 52 86
REMARK SMILES IDX 55 87 53 88 79 89 80 90 88 91 81 92 82 93 86 94 89 95 83 96
REMARK SMILES IDX 84 97 87 98 85 99 64 100 65 101 73 102 66 103 67 104 71 105
REMARK SMILES IDX 74 106 68 107 69 108 72 109 70 110
REMARK H PARENT 16 18 1 27 1 28 94 63 62 74
REMARK Flexibility Score: inf
ROOT
ATOM      1  C   UNL A   1      42.909  22.560  27.882  1.00  0.00     0.188 C 
ENDROOT
BRANCH   1   2
ATOM      2  C   UNL A   1      42.176  23.902  28.073  1.00  0.00     0.188 C 
BRANCH   2   3
ATOM      3  O   UNL A   1      41.548  24.294  26.852  1.00  0.00    -0.376 OA
BRANCH   3   4
ATOM      4  C   UNL A   1      40.702  25.440  26.923  1.00  0.00     0.202 C 
BRANCH   4   5
ATOM      5  C   UNL A   1      40.799  26.381  28.145  1.00  0.00     0.261 C 
BRANCH   5   6
ATOM      6  O   UNL A   1      39.711  27.329  28.269  1.00  0.00    -0.463 OA
BRANCH   6   7
ATOM      7  C   UNL A   1      39.768  28.508  27.637  1.00  0.00     0.312 C 
ATOM      8  O   UNL A   1      40.487  28.707  26.661  1.00  0.00    -0.252 OA
BRANCH   7   9
ATOM      9  C   UNL A   1      38.745  29.550  28.084  1.00  0.00     0.143 C 
ATOM     10  C   UNL A   1      38.820  30.595  29.226  1.00  0.00     0.124 C 
ATOM     11  C   UNL A   1      37.619  30.184  30.113  1.00  0.00     0.132 C 
ATOM     12  C   UNL A   1      37.441  28.814  28.434  1.00  0.00     0.133 C 
ATOM     13  C   UNL A   1      36.275  30.586  29.506  1.00  0.00     0.035 C 
ATOM     14  O   UNL A   1      37.523  28.762  29.875  1.00  0.00    -0.373 OA
ATOM     15  C   UNL A   1      36.214  29.706  28.259  1.00  0.00     0.036 C 
BRANCH  10  16
ATOM     16  C   UNL A   1      40.052  30.874  30.090  1.00  0.00     0.231 C 
ATOM     17  N   UNL A   1      39.972  31.375  31.376  1.00  0.00    -0.317 N 
ATOM     18  H   UNL A   1      40.830  31.338  31.858  1.00  0.00     0.170 HD
ATOM     19  O   UNL A   1      41.192  30.699  29.655  1.00  0.00    -0.274 OA
BRANCH  17  20
ATOM     20  C   UNL A   1      38.939  31.919  32.135  1.00  0.00     0.108 A 
ATOM     21  C   UNL A   1      38.160  33.042  31.838  1.00  0.00     0.082 A 
ATOM     22  C   UNL A   1      37.007  33.104  32.728  1.00  0.00     0.007 A 
ATOM     23  C   UNL A   1      37.083  32.161  33.729  1.00  0.00     0.076 A 
ATOM     24  S   UNL A   1      38.508  31.281  33.638  1.00  0.00    -0.125 S 
BRANCH  21  25
ATOM     25  C   UNL A   1      38.465  33.934  30.719  1.00  0.00     0.252 C 
ATOM     26  N   UNL A   1      39.591  34.697  30.840  1.00  0.00    -0.365 N 
ATOM     27  H   UNL A   1      39.847  35.317  30.119  1.00  0.00     0.159 HD
ATOM     28  H   UNL A   1      40.147  34.630  31.650  1.00  0.00     0.159 HD
ATOM     29  O   UNL A   1      37.796  33.970  29.691  1.00  0.00    -0.269 OA
ENDBRANCH  21  25
BRANCH  22  30
ATOM     30  C   UNL A   1      35.810  33.930  32.668  1.00  0.00    -0.017 A 
ATOM     31  C   UNL A   1      34.951  33.833  31.565  1.00  0.00     0.010 A 
ATOM     32  C   UNL A   1      35.548  34.871  33.671  1.00  0.00     0.010 A 
ATOM     33  C   UNL A   1      33.836  34.666  31.466  1.00  0.00     0.021 A 
ATOM     34  C   UNL A   1      34.426  35.698  33.575  1.00  0.00     0.021 A 
ATOM     35  C   UNL A   1      33.577  35.591  32.475  1.00  0.00     0.041 A 
ATOM     36  Cl  UNL A   1      32.197  36.610  32.356  1.00  0.00    -0.084 Cl
ENDBRANCH  22  30
ENDBRANCH  17  20
ENDBRANCH  10  16
ENDBRANCH   7   9
ENDBRANCH   6   7
ENDBRANCH   5   6
ENDBRANCH   4   5
ENDBRANCH   3   4
ENDBRANCH   2   3
ENDBRANCH   1   2
BRANCH   1  37
ATOM     37  O   UNL A   1      42.084  21.438  27.620  1.00  0.00    -0.377 OA
BRANCH  37  38
ATOM     38  C   UNL A   1      42.021  21.074  26.261  1.00  0.00     0.188 C 
BRANCH  38  39
ATOM     39  C   UNL A   1      43.176  20.156  25.811  1.00  0.00     0.188 C 
BRANCH  39  40
ATOM     40  O   UNL A   1      44.405  20.633  25.263  1.00  0.00    -0.376 OA
BRANCH  40  41
ATOM     41  C   UNL A   1      44.520  21.897  24.635  1.00  0.00     0.202 C 
BRANCH  41  42
ATOM     42  C   UNL A   1      45.343  22.981  25.351  1.00  0.00     0.261 C 
BRANCH  42  43
ATOM     43  O   UNL A   1      44.893  24.329  25.191  1.00  0.00    -0.460 OA
BRANCH  43  44
ATOM     44  C   UNL A   1      45.848  25.275  25.044  1.00  0.00     0.338 C 
ATOM     45  O   UNL A   1      46.775  25.295  24.251  1.00  0.00    -0.246 OA
BRANCH  44  46
ATOM     46  C   UNL A   1      45.489  26.401  25.932  1.00  0.00     0.060 A 
ATOM     47  C   UNL A   1      46.515  27.125  26.560  1.00  0.00     0.016 A 
ATOM     48  C   UNL A   1      44.156  26.802  26.062  1.00  0.00     0.016 A 
ATOM     49  C   UNL A   1      46.215  28.268  27.293  1.00  0.00     0.010 A 
ATOM     50  C   UNL A   1      43.849  27.906  26.855  1.00  0.00     0.010 A 
ATOM     51  C   UNL A   1      44.877  28.626  27.487  1.00  0.00    -0.014 A 
BRANCH  51  52
ATOM     52  C   UNL A   1      44.548  29.556  28.586  1.00  0.00     0.031 A 
ATOM     53  C   UNL A   1      44.289  28.947  29.934  1.00  0.00     0.074 A 
ATOM     54  C   UNL A   1      44.505  30.885  28.403  1.00  0.00     0.049 A 
ATOM     55  N   UNL A   1      43.926  29.517  31.051  1.00  0.00    -0.248 NA
ATOM     56  C   UNL A   1      44.464  27.487  30.030  1.00  0.00     0.031 C 
ATOM     57  C   UNL A   1      44.797  31.579  27.151  1.00  0.00     0.029 A 
ATOM     58  N   UNL A   1      44.186  31.888  29.282  1.00  0.00    -0.354 N 
ATOM     59  C   UNL A   1      43.823  28.487  31.975  1.00  0.00     0.074 A 
ATOM     60  C   UNL A   1      44.132  27.255  31.288  1.00  0.00     0.031 C 
ATOM     61  C   UNL A   1      44.622  32.900  27.337  1.00  0.00     0.029 A 
ATOM     62  C   UNL A   1      44.174  33.135  28.709  1.00  0.00     0.049 A 
ATOM     63  H   UNL A   1      43.985  31.729  30.232  1.00  0.00     0.167 HD
ATOM     64  C   UNL A   1      43.503  28.566  33.286  1.00  0.00     0.037 A 
ATOM     65  C   UNL A   1      43.810  34.321  29.237  1.00  0.00     0.037 A 
ATOM     66  C   UNL A   1      43.182  29.798  33.953  1.00  0.00     0.049 A 
ATOM     67  C   UNL A   1      43.367  34.371  30.680  1.00  0.00     0.074 A 
ATOM     68  C   UNL A   1      42.845  29.999  35.278  1.00  0.00     0.029 A 
ATOM     69  N   UNL A   1      43.146  31.039  33.333  1.00  0.00    -0.354 N 
ATOM     70  N   UNL A   1      43.290  33.400  31.559  1.00  0.00    -0.248 NA
ATOM     71  C   UNL A   1      42.963  35.683  31.203  1.00  0.00     0.031 C 
ATOM     72  C   UNL A   1      42.542  31.353  35.446  1.00  0.00     0.029 A 
ATOM     73  C   UNL A   1      42.764  32.009  34.244  1.00  0.00     0.049 A 
ATOM     74  H   UNL A   1      43.362  31.206  32.387  1.00  0.00     0.167 HD
ATOM     75  C   UNL A   1      42.867  33.988  32.745  1.00  0.00     0.074 A 
ATOM     76  C   UNL A   1      42.712  35.402  32.474  1.00  0.00     0.031 C 
ATOM     77  C   UNL A   1      42.634  33.414  33.952  1.00  0.00     0.037 A 
BRANCH  64  78
ATOM     78  C   UNL A   1      43.443  27.284  34.062  1.00  0.00     0.064 A 
ATOM     79  C   UNL A   1      44.603  26.619  34.488  1.00  0.00     0.173 A 
ATOM     80  C   UNL A   1      42.204  26.716  34.392  1.00  0.00     0.173 A 
ATOM     81  F   UNL A   1      45.814  27.107  34.178  1.00  0.00    -0.203 F 
ATOM     82  C   UNL A   1      44.524  25.421  35.191  1.00  0.00     0.198 A 
ATOM     83  C   UNL A   1      42.128  25.537  35.127  1.00  0.00     0.198 A 
ATOM     84  F   UNL A   1      41.063  27.308  34.005  1.00  0.00    -0.203 F 
ATOM     85  F   UNL A   1      45.646  24.775  35.540  1.00  0.00    -0.200 F 
ATOM     86  C   UNL A   1      43.287  24.886  35.519  1.00  0.00     0.200 A 
ATOM     87  F   UNL A   1      40.931  25.028  35.451  1.00  0.00    -0.200 F 
ATOM     88  F   UNL A   1      43.212  23.736  36.204  1.00  0.00    -0.200 F 
ENDBRANCH  64  78
BRANCH  65  89
ATOM     89  C   UNL A   1      43.832  35.551  28.401  1.00  0.00     0.064 A 
ATOM     90  C   UNL A   1      45.024  36.256  28.179  1.00  0.00     0.173 A 
ATOM     91  C   UNL A   1      42.658  36.063  27.829  1.00  0.00     0.173 A 
ATOM     92  F   UNL A   1      46.169  35.822  28.726  1.00  0.00    -0.203 F 
ATOM     93  C   UNL A   1      45.036  37.436  27.438  1.00  0.00     0.198 A 
ATOM     94  C   UNL A   1      42.677  37.226  27.062  1.00  0.00     0.198 A 
ATOM     95  F   UNL A   1      41.489  35.433  28.014  1.00  0.00    -0.203 F 
ATOM     96  F   UNL A   1      46.179  38.118  27.289  1.00  0.00    -0.200 F 
ATOM     97  C   UNL A   1      43.864  37.917  26.875  1.00  0.00     0.200 A 
ATOM     98  F   UNL A   1      41.543  37.681  26.510  1.00  0.00    -0.200 F 
ATOM     99  F   UNL A   1      43.876  39.052  26.162  1.00  0.00    -0.200 F 
ENDBRANCH  65  89
BRANCH  77 100
ATOM    100  C   UNL A   1      42.241  34.316  35.087  1.00  0.00     0.064 A 
ATOM    101  C   UNL A   1      43.179  34.803  36.008  1.00  0.00     0.173 A 
ATOM    102  C   UNL A   1      40.912  34.752  35.210  1.00  0.00     0.173 A 
ATOM    103  F   UNL A   1      44.459  34.408  35.941  1.00  0.00    -0.203 F 
ATOM    104  C   UNL A   1      42.797  35.674  37.025  1.00  0.00     0.198 A 
ATOM    105  C   UNL A   1      40.540  35.651  36.204  1.00  0.00     0.198 A 
ATOM    106  F   UNL A   1      39.976  34.327  34.347  1.00  0.00    -0.203 F 
ATOM    107  F   UNL A   1      43.700  36.090  37.923  1.00  0.00    -0.200 F 
ATOM    108  C   UNL A   1      41.481  36.105  37.116  1.00  0.00     0.200 A 
ATOM    109  F   UNL A   1      39.274  36.083  36.277  1.00  0.00    -0.200 F 
ATOM    110  F   UNL A   1      41.119  36.957  38.086  1.00  0.00    -0.200 F 
ENDBRANCH  77 100
ENDBRANCH  51  52
ENDBRANCH  44  46
ENDBRANCH  43  44
ENDBRANCH  42  43
ENDBRANCH  41  42
ENDBRANCH  40  41
ENDBRANCH  39  40
ENDBRANCH  38  39
ENDBRANCH  37  38
ENDBRANCH   1  37
TORSDOF 24
ENDMDL
