MODEL 1
REMARK VINA RESULT:      -9.4      0.000      0.000
REMARK SMILES C[C@H](CCC(=O)OCCOCCOCCOCCOC(=O)c1ccc(-c2c3nc(c(-c4c(F)c(F)c(F)c(F)c4F)c4ccc([nH]4)c(-c4c(F)c(F)c(F)c(F)c4F)c4nc(c(-c5c(F)c(F)c(F)c(F)c5F)c5ccc2[nH]5)C=C4)C=C3)cc1)NC(=O)c1ccc(C[NH3+])o1
REMARK SMILES IDX 11 1 10 2 9 3 8 4 7 5 5 6 6 7 4 8 3 9 2 10 1 11 85 12 86 13
REMARK SMILES IDX 87 15 88 16 89 17 94 18 90 19 91 20 92 21 93 22 12 26 13 27
REMARK SMILES IDX 14 28 15 29 16 30 17 31 18 32 19 33 20 34 21 35 22 36 23 37
REMARK SMILES IDX 84 38 24 39 83 40 25 41 26 42 27 43 77 44 28 45 82 46 76 47
REMARK SMILES IDX 78 48 29 49 81 50 75 51 74 52 30 54 62 55 42 56 61 57 43 58
REMARK SMILES IDX 46 59 60 60 79 61 44 62 45 63 59 65 80 66 47 67 31 68 32 69
REMARK SMILES IDX 40 70 33 71 34 72 38 73 41 74 35 75 36 76 39 77 37 78 63 79
REMARK SMILES IDX 64 80 72 81 65 82 66 83 70 84 73 85 67 86 68 87 71 88 69 89
REMARK SMILES IDX 48 90 49 91 57 92 50 93 51 94 55 95 58 96 52 97 53 98 56 99
REMARK SMILES IDX 54 100
REMARK H PARENT 85 14 93 23 93 24 93 25 78 53 46 64
REMARK Flexibility Score: inf
ROOT
ATOM      1  C   UNL A   1      34.723  28.864  26.508  1.00  0.00     0.188 C 
ENDROOT
BRANCH   1   2
ATOM      2  O   UNL A   1      33.733  27.961  26.035  1.00  0.00    -0.376 OA
BRANCH   2   3
ATOM      3  C   UNL A   1      33.808  27.466  24.705  1.00  0.00     0.202 C 
BRANCH   3   4
ATOM      4  C   UNL A   1      33.776  25.954  24.446  1.00  0.00     0.261 C 
BRANCH   4   5
ATOM      5  O   UNL A   1      33.893  25.135  25.623  1.00  0.00    -0.463 OA
BRANCH   5   6
ATOM      6  C   UNL A   1      34.754  24.095  25.565  1.00  0.00     0.305 C 
ATOM      7  O   UNL A   1      35.591  23.928  24.687  1.00  0.00    -0.252 OA
BRANCH   6   8
ATOM      8  C   UNL A   1      34.656  23.162  26.759  1.00  0.00     0.125 C 
BRANCH   8   9
ATOM      9  C   UNL A   1      35.186  21.726  26.664  1.00  0.00     0.036 C 
BRANCH   9  10
ATOM     10  C   UNL A   1      35.147  21.086  25.269  1.00  0.00     0.080 C 
ATOM     11  C   UNL A   1      36.492  20.452  24.937  1.00  0.00     0.031 C 
BRANCH  10  12
ATOM     12  N   UNL A   1      34.103  20.060  25.221  1.00  0.00    -0.347 N 
ATOM     13  C   UNL A   1      32.734  20.165  25.078  1.00  0.00     0.287 C 
ATOM     14  H   UNL A   1      34.434  19.137  25.307  1.00  0.00     0.164 HD
ATOM     15  O   UNL A   1      32.082  19.139  25.293  1.00  0.00    -0.266 OA
BRANCH  13  16
ATOM     16  C   UNL A   1      32.120  21.420  24.693  1.00  0.00     0.191 A 
ATOM     17  C   UNL A   1      31.992  22.106  23.497  1.00  0.00     0.057 A 
ATOM     18  O   UNL A   1      31.468  22.130  25.674  1.00  0.00    -0.450 OA
ATOM     19  C   UNL A   1      31.322  23.320  23.781  1.00  0.00     0.052 A 
ATOM     20  C   UNL A   1      31.037  23.302  25.129  1.00  0.00     0.159 A 
BRANCH  20  21
ATOM     21  C   UNL A   1      30.398  24.276  26.048  1.00  0.00     0.335 C 
BRANCH  21  22
ATOM     22  N   UNL A   1      29.537  23.590  27.010  1.00  0.00    -0.351 N 
ATOM     23  H   UNL A   1      28.585  23.550  26.647  1.00  0.00     0.344 HD
ATOM     24  H   UNL A   1      29.543  24.097  27.895  1.00  0.00     0.344 HD
ATOM     25  H   UNL A   1      29.883  22.642  27.161  1.00  0.00     0.344 HD
ENDBRANCH  21  22
ENDBRANCH  20  21
ENDBRANCH  13  16
ENDBRANCH  10  12
ENDBRANCH   9  10
ENDBRANCH   8   9
ENDBRANCH   6   8
ENDBRANCH   5   6
ENDBRANCH   4   5
ENDBRANCH   3   4
ENDBRANCH   2   3
ENDBRANCH   1   2
BRANCH   1  26
ATOM     26  C   UNL A   1      34.409  29.908  27.594  1.00  0.00     0.188 C 
BRANCH  26  27
ATOM     27  O   UNL A   1      35.529  30.588  28.134  1.00  0.00    -0.377 OA
BRANCH  27  28
ATOM     28  C   UNL A   1      35.505  32.005  27.979  1.00  0.00     0.188 C 
BRANCH  28  29
ATOM     29  C   UNL A   1      34.278  32.697  28.597  1.00  0.00     0.188 C 
BRANCH  29  30
ATOM     30  O   UNL A   1      34.269  32.641  30.017  1.00  0.00    -0.376 OA
BRANCH  30  31
ATOM     31  C   UNL A   1      34.723  33.777  30.741  1.00  0.00     0.202 C 
BRANCH  31  32
ATOM     32  C   UNL A   1      35.341  33.569  32.139  1.00  0.00     0.261 C 
BRANCH  32  33
ATOM     33  O   UNL A   1      35.530  32.214  32.580  1.00  0.00    -0.460 OA
BRANCH  33  34
ATOM     34  C   UNL A   1      36.645  31.925  33.274  1.00  0.00     0.338 C 
ATOM     35  O   UNL A   1      36.832  32.106  34.471  1.00  0.00    -0.246 OA
BRANCH  34  36
ATOM     36  C   UNL A   1      37.571  31.176  32.400  1.00  0.00     0.060 A 
ATOM     37  C   UNL A   1      38.586  30.415  32.995  1.00  0.00     0.016 A 
ATOM     38  C   UNL A   1      37.485  31.271  31.009  1.00  0.00     0.016 A 
ATOM     39  C   UNL A   1      39.563  29.813  32.204  1.00  0.00     0.010 A 
ATOM     40  C   UNL A   1      38.475  30.680  30.217  1.00  0.00     0.010 A 
ATOM     41  C   UNL A   1      39.550  29.996  30.815  1.00  0.00    -0.014 A 
BRANCH  41  42
ATOM     42  C   UNL A   1      40.770  29.676  30.032  1.00  0.00     0.031 A 
ATOM     43  C   UNL A   1      40.857  28.327  29.365  1.00  0.00     0.074 A 
ATOM     44  C   UNL A   1      41.753  30.575  29.861  1.00  0.00     0.049 A 
ATOM     45  N   UNL A   1      41.811  27.817  28.627  1.00  0.00    -0.248 NA
ATOM     46  C   UNL A   1      39.705  27.430  29.558  1.00  0.00     0.031 C 
ATOM     47  C   UNL A   1      41.768  31.927  30.413  1.00  0.00     0.029 A 
ATOM     48  N   UNL A   1      42.933  30.478  29.165  1.00  0.00    -0.354 N 
ATOM     49  C   UNL A   1      41.378  26.542  28.278  1.00  0.00     0.074 A 
ATOM     50  C   UNL A   1      40.094  26.342  28.911  1.00  0.00     0.031 C 
ATOM     51  C   UNL A   1      42.903  32.538  30.032  1.00  0.00     0.029 A 
ATOM     52  C   UNL A   1      43.709  31.608  29.241  1.00  0.00     0.049 A 
ATOM     53  H   UNL A   1      43.197  29.676  28.659  1.00  0.00     0.167 HD
ATOM     54  C   UNL A   1      41.991  25.624  27.492  1.00  0.00     0.037 A 
ATOM     55  C   UNL A   1      44.938  31.851  28.742  1.00  0.00     0.037 A 
ATOM     56  C   UNL A   1      43.270  25.823  26.864  1.00  0.00     0.049 A 
ATOM     57  C   UNL A   1      45.637  30.779  27.939  1.00  0.00     0.074 A 
ATOM     58  C   UNL A   1      43.970  24.963  26.036  1.00  0.00     0.029 A 
ATOM     59  N   UNL A   1      44.048  26.963  27.005  1.00  0.00    -0.354 N 
ATOM     60  N   UNL A   1      45.212  29.590  27.588  1.00  0.00    -0.248 NA
ATOM     61  C   UNL A   1      46.991  31.094  27.459  1.00  0.00     0.031 C 
ATOM     62  C   UNL A   1      45.199  25.555  25.728  1.00  0.00     0.029 A 
ATOM     63  C   UNL A   1      45.236  26.815  26.304  1.00  0.00     0.049 A 
ATOM     64  H   UNL A   1      43.795  27.760  27.525  1.00  0.00     0.167 HD
ATOM     65  C   UNL A   1      46.225  29.030  26.818  1.00  0.00     0.074 A 
ATOM     66  C   UNL A   1      47.281  30.017  26.742  1.00  0.00     0.031 C 
ATOM     67  C   UNL A   1      46.275  27.810  26.225  1.00  0.00     0.037 A 
BRANCH  54  68
ATOM     68  C   UNL A   1      41.299  24.303  27.303  1.00  0.00     0.064 A 
ATOM     69  C   UNL A   1      41.770  23.125  27.902  1.00  0.00     0.173 A 
ATOM     70  C   UNL A   1      40.136  24.218  26.522  1.00  0.00     0.173 A 
ATOM     71  F   UNL A   1      42.885  23.146  28.648  1.00  0.00    -0.203 F 
ATOM     72  C   UNL A   1      41.125  21.907  27.696  1.00  0.00     0.198 A 
ATOM     73  C   UNL A   1      39.473  23.007  26.346  1.00  0.00     0.198 A 
ATOM     74  F   UNL A   1      39.637  25.315  25.930  1.00  0.00    -0.203 F 
ATOM     75  F   UNL A   1      41.628  20.785  28.230  1.00  0.00    -0.200 F 
ATOM     76  C   UNL A   1      39.974  21.850  26.924  1.00  0.00     0.200 A 
ATOM     77  F   UNL A   1      38.353  22.957  25.613  1.00  0.00    -0.200 F 
ATOM     78  F   UNL A   1      39.352  20.679  26.730  1.00  0.00    -0.200 F 
ENDBRANCH  54  68
BRANCH  55  79
ATOM     79  C   UNL A   1      45.597  33.163  28.984  1.00  0.00     0.064 A 
ATOM     80  C   UNL A   1      45.427  34.231  28.094  1.00  0.00     0.173 A 
ATOM     81  C   UNL A   1      46.435  33.364  30.090  1.00  0.00     0.173 A 
ATOM     82  F   UNL A   1      44.661  34.081  27.003  1.00  0.00    -0.203 F 
ATOM     83  C   UNL A   1      46.085  35.444  28.290  1.00  0.00     0.198 A 
ATOM     84  C   UNL A   1      47.067  34.587  30.303  1.00  0.00     0.198 A 
ATOM     85  F   UNL A   1      46.639  32.370  30.968  1.00  0.00    -0.203 F 
ATOM     86  F   UNL A   1      45.949  36.431  27.393  1.00  0.00    -0.200 F 
ATOM     87  C   UNL A   1      46.899  35.623  29.398  1.00  0.00     0.200 A 
ATOM     88  F   UNL A   1      47.845  34.759  31.380  1.00  0.00    -0.200 F 
ATOM     89  F   UNL A   1      47.532  36.789  29.586  1.00  0.00    -0.200 F 
ENDBRANCH  55  79
BRANCH  67  90
ATOM     90  C   UNL A   1      47.488  27.493  25.394  1.00  0.00     0.064 A 
ATOM     91  C   UNL A   1      47.516  27.703  24.007  1.00  0.00     0.173 A 
ATOM     92  C   UNL A   1      48.653  27.002  26.005  1.00  0.00     0.173 A 
ATOM     93  F   UNL A   1      46.426  28.160  23.372  1.00  0.00    -0.203 F 
ATOM     94  C   UNL A   1      48.650  27.398  23.259  1.00  0.00     0.198 A 
ATOM     95  C   UNL A   1      49.798  26.733  25.258  1.00  0.00     0.198 A 
ATOM     96  F   UNL A   1      48.688  26.793  27.329  1.00  0.00    -0.203 F 
ATOM     97  F   UNL A   1      48.632  27.550  21.928  1.00  0.00    -0.200 F 
ATOM     98  C   UNL A   1      49.792  26.921  23.885  1.00  0.00     0.200 A 
ATOM     99  F   UNL A   1      50.905  26.290  25.869  1.00  0.00    -0.200 F 
ATOM    100  F   UNL A   1      50.884  26.633  23.163  1.00  0.00    -0.200 F 
ENDBRANCH  67  90
ENDBRANCH  41  42
ENDBRANCH  34  36
ENDBRANCH  33  34
ENDBRANCH  32  33
ENDBRANCH  31  32
ENDBRANCH  30  31
ENDBRANCH  29  30
ENDBRANCH  28  29
ENDBRANCH  27  28
ENDBRANCH  26  27
ENDBRANCH   1  26
TORSDOF 26
ENDMDL
MODEL 2
REMARK VINA RESULT:      -8.4      2.788      8.781
REMARK SMILES C[C@H](CCC(=O)OCCOCCOCCOCCOC(=O)c1ccc(-c2c3nc(c(-c4c(F)c(F)c(F)c(F)c4F)c4ccc([nH]4)c(-c4c(F)c(F)c(F)c(F)c4F)c4nc(c(-c5c(F)c(F)c(F)c(F)c5F)c5ccc2[nH]5)C=C4)C=C3)cc1)NC(=O)c1ccc(C[NH3+])o1
REMARK SMILES IDX 11 1 10 2 9 3 8 4 7 5 5 6 6 7 4 8 3 9 2 10 1 11 85 12 86 13
REMARK SMILES IDX 87 15 88 16 89 17 94 18 90 19 91 20 92 21 93 22 12 26 13 27
REMARK SMILES IDX 14 28 15 29 16 30 17 31 18 32 19 33 20 34 21 35 22 36 23 37
REMARK SMILES IDX 84 38 24 39 83 40 25 41 26 42 27 43 77 44 28 45 82 46 76 47
REMARK SMILES IDX 78 48 29 49 81 50 75 51 74 52 30 54 62 55 42 56 61 57 43 58
REMARK SMILES IDX 46 59 60 60 79 61 44 62 45 63 59 65 80 66 47 67 31 68 32 69
REMARK SMILES IDX 40 70 33 71 34 72 38 73 41 74 35 75 36 76 39 77 37 78 63 79
REMARK SMILES IDX 64 80 72 81 65 82 66 83 70 84 73 85 67 86 68 87 71 88 69 89
REMARK SMILES IDX 48 90 49 91 57 92 50 93 51 94 55 95 58 96 52 97 53 98 56 99
REMARK SMILES IDX 54 100
REMARK H PARENT 85 14 93 23 93 24 93 25 78 53 46 64
REMARK Flexibility Score: inf
ROOT
ATOM      1  C   UNL A   1      33.500  20.904  24.913  1.00  0.00     0.188 C 
ENDROOT
BRANCH   1   2
ATOM      2  O   UNL A   1      33.164  22.034  24.120  1.00  0.00    -0.376 OA
BRANCH   2   3
ATOM      3  C   UNL A   1      32.048  21.974  23.243  1.00  0.00     0.202 C 
BRANCH   3   4
ATOM      4  C   UNL A   1      31.285  23.257  22.884  1.00  0.00     0.261 C 
BRANCH   4   5
ATOM      5  O   UNL A   1      32.021  24.476  23.083  1.00  0.00    -0.463 OA
BRANCH   5   6
ATOM      6  C   UNL A   1      32.478  25.106  21.980  1.00  0.00     0.305 C 
ATOM      7  O   UNL A   1      33.206  24.598  21.135  1.00  0.00    -0.252 OA
BRANCH   6   8
ATOM      8  C   UNL A   1      31.934  26.514  21.818  1.00  0.00     0.125 C 
BRANCH   8   9
ATOM      9  C   UNL A   1      32.683  27.708  22.423  1.00  0.00     0.036 C 
BRANCH   9  10
ATOM     10  C   UNL A   1      31.812  28.766  23.115  1.00  0.00     0.080 C 
ATOM     11  C   UNL A   1      30.555  28.125  23.693  1.00  0.00     0.031 C 
BRANCH  10  12
ATOM     12  N   UNL A   1      32.569  29.405  24.194  1.00  0.00    -0.347 N 
ATOM     13  C   UNL A   1      33.041  28.904  25.390  1.00  0.00     0.287 C 
ATOM     14  H   UNL A   1      32.777  30.355  24.039  1.00  0.00     0.164 HD
ATOM     15  O   UNL A   1      33.459  29.734  26.203  1.00  0.00    -0.266 OA
BRANCH  13  16
ATOM     16  C   UNL A   1      33.039  27.479  25.653  1.00  0.00     0.191 A 
ATOM     17  C   UNL A   1      32.121  26.600  26.204  1.00  0.00     0.057 A 
ATOM     18  O   UNL A   1      34.148  26.764  25.267  1.00  0.00    -0.450 OA
ATOM     19  C   UNL A   1      32.733  25.324  26.239  1.00  0.00     0.052 A 
ATOM     20  C   UNL A   1      33.980  25.475  25.674  1.00  0.00     0.159 A 
BRANCH  20  21
ATOM     21  C   UNL A   1      35.117  24.547  25.453  1.00  0.00     0.335 C 
BRANCH  21  22
ATOM     22  N   UNL A   1      35.144  24.083  24.067  1.00  0.00    -0.351 N 
ATOM     23  H   UNL A   1      34.190  24.015  23.713  1.00  0.00     0.344 HD
ATOM     24  H   UNL A   1      35.591  23.167  24.023  1.00  0.00     0.344 HD
ATOM     25  H   UNL A   1      35.671  24.745  23.497  1.00  0.00     0.344 HD
ENDBRANCH  21  22
ENDBRANCH  20  21
ENDBRANCH  13  16
ENDBRANCH  10  12
ENDBRANCH   9  10
ENDBRANCH   8   9
ENDBRANCH   6   8
ENDBRANCH   5   6
ENDBRANCH   4   5
ENDBRANCH   3   4
ENDBRANCH   2   3
ENDBRANCH   1   2
BRANCH   1  26
ATOM     26  C   UNL A   1      32.560  19.691  25.027  1.00  0.00     0.188 C 
BRANCH  26  27
ATOM     27  O   UNL A   1      33.125  18.529  25.610  1.00  0.00    -0.377 OA
BRANCH  27  28
ATOM     28  C   UNL A   1      33.761  17.643  24.691  1.00  0.00     0.188 C 
BRANCH  28  29
ATOM     29  C   UNL A   1      35.093  18.158  24.121  1.00  0.00     0.188 C 
BRANCH  29  30
ATOM     30  O   UNL A   1      35.897  18.809  25.096  1.00  0.00    -0.376 OA
BRANCH  30  31
ATOM     31  C   UNL A   1      37.026  19.551  24.656  1.00  0.00     0.202 C 
BRANCH  31  32
ATOM     32  C   UNL A   1      37.548  20.704  25.538  1.00  0.00     0.261 C 
BRANCH  32  33
ATOM     33  O   UNL A   1      38.927  21.077  25.385  1.00  0.00    -0.460 OA
BRANCH  33  34
ATOM     34  C   UNL A   1      39.748  20.909  26.436  1.00  0.00     0.338 C 
ATOM     35  O   UNL A   1      40.244  19.856  26.818  1.00  0.00    -0.246 OA
BRANCH  34  36
ATOM     36  C   UNL A   1      40.117  22.234  26.972  1.00  0.00     0.060 A 
ATOM     37  C   UNL A   1      39.553  23.376  26.387  1.00  0.00     0.016 A 
ATOM     38  C   UNL A   1      41.059  22.361  27.997  1.00  0.00     0.016 A 
ATOM     39  C   UNL A   1      39.986  24.644  26.769  1.00  0.00     0.010 A 
ATOM     40  C   UNL A   1      41.504  23.634  28.369  1.00  0.00     0.010 A 
ATOM     41  C   UNL A   1      41.010  24.778  27.716  1.00  0.00    -0.014 A 
BRANCH  41  42
ATOM     42  C   UNL A   1      41.711  26.081  27.842  1.00  0.00     0.031 A 
ATOM     43  C   UNL A   1      41.019  27.195  28.584  1.00  0.00     0.074 A 
ATOM     44  C   UNL A   1      42.955  26.260  27.368  1.00  0.00     0.049 A 
ATOM     45  N   UNL A   1      41.425  28.416  28.833  1.00  0.00    -0.248 NA
ATOM     46  C   UNL A   1      39.683  26.887  29.122  1.00  0.00     0.031 C 
ATOM     47  C   UNL A   1      43.749  25.250  26.674  1.00  0.00     0.029 A 
ATOM     48  N   UNL A   1      43.768  27.367  27.404  1.00  0.00    -0.354 N 
ATOM     49  C   UNL A   1      40.393  29.019  29.544  1.00  0.00     0.074 A 
ATOM     50  C   UNL A   1      39.331  28.045  29.659  1.00  0.00     0.031 C 
ATOM     51  C   UNL A   1      44.941  25.782  26.351  1.00  0.00     0.029 A 
ATOM     52  C   UNL A   1      44.977  27.180  26.783  1.00  0.00     0.049 A 
ATOM     53  H   UNL A   1      43.509  28.212  27.836  1.00  0.00     0.167 HD
ATOM     54  C   UNL A   1      40.340  30.269  30.064  1.00  0.00     0.037 A 
ATOM     55  C   UNL A   1      45.987  28.047  26.573  1.00  0.00     0.037 A 
ATOM     56  C   UNL A   1      41.397  31.238  29.947  1.00  0.00     0.049 A 
ATOM     57  C   UNL A   1      45.869  29.462  27.089  1.00  0.00     0.074 A 
ATOM     58  C   UNL A   1      41.449  32.526  30.452  1.00  0.00     0.029 A 
ATOM     59  N   UNL A   1      42.588  31.028  29.267  1.00  0.00    -0.354 N 
ATOM     60  N   UNL A   1      44.906  30.017  27.785  1.00  0.00    -0.248 NA
ATOM     61  C   UNL A   1      46.988  30.368  26.791  1.00  0.00     0.031 C 
ATOM     62  C   UNL A   1      42.643  33.116  30.022  1.00  0.00     0.029 A 
ATOM     63  C   UNL A   1      43.367  32.174  29.312  1.00  0.00     0.049 A 
ATOM     64  H   UNL A   1      42.842  30.189  28.819  1.00  0.00     0.167 HD
ATOM     65  C   UNL A   1      45.318  31.321  28.039  1.00  0.00     0.074 A 
ATOM     66  C   UNL A   1      46.625  31.469  27.434  1.00  0.00     0.031 C 
ATOM     67  C   UNL A   1      44.673  32.305  28.715  1.00  0.00     0.037 A 
BRANCH  54  68
ATOM     68  C   UNL A   1      39.076  30.671  30.772  1.00  0.00     0.064 A 
ATOM     69  C   UNL A   1      37.992  31.244  30.089  1.00  0.00     0.173 A 
ATOM     70  C   UNL A   1      38.943  30.465  32.154  1.00  0.00     0.173 A 
ATOM     71  F   UNL A   1      38.070  31.475  28.770  1.00  0.00    -0.203 F 
ATOM     72  C   UNL A   1      36.838  31.628  30.769  1.00  0.00     0.198 A 
ATOM     73  C   UNL A   1      37.775  30.817  32.825  1.00  0.00     0.198 A 
ATOM     74  F   UNL A   1      39.946  29.916  32.856  1.00  0.00    -0.203 F 
ATOM     75  F   UNL A   1      35.839  32.227  30.106  1.00  0.00    -0.200 F 
ATOM     76  C   UNL A   1      36.728  31.409  32.134  1.00  0.00     0.200 A 
ATOM     77  F   UNL A   1      37.665  30.591  34.140  1.00  0.00    -0.200 F 
ATOM     78  F   UNL A   1      35.616  31.775  32.786  1.00  0.00    -0.200 F 
ENDBRANCH  54  68
BRANCH  55  79
ATOM     79  C   UNL A   1      47.205  27.612  25.838  1.00  0.00     0.064 A 
ATOM     80  C   UNL A   1      48.332  27.136  26.522  1.00  0.00     0.173 A 
ATOM     81  C   UNL A   1      47.280  27.696  24.440  1.00  0.00     0.173 A 
ATOM     82  F   UNL A   1      48.322  27.066  27.861  1.00  0.00    -0.203 F 
ATOM     83  C   UNL A   1      49.492  26.778  25.838  1.00  0.00     0.198 A 
ATOM     84  C   UNL A   1      48.430  27.307  23.755  1.00  0.00     0.198 A 
ATOM     85  F   UNL A   1      46.234  28.154  23.736  1.00  0.00    -0.203 F 
ATOM     86  F   UNL A   1      50.574  26.378  26.522  1.00  0.00    -0.200 F 
ATOM     87  C   UNL A   1      49.538  26.858  24.455  1.00  0.00     0.200 A 
ATOM     88  F   UNL A   1      48.467  27.377  22.417  1.00  0.00    -0.200 F 
ATOM     89  F   UNL A   1      50.654  26.513  23.798  1.00  0.00    -0.200 F 
ENDBRANCH  55  79
BRANCH  67  90
ATOM     90  C   UNL A   1      45.393  33.615  28.886  1.00  0.00     0.064 A 
ATOM     91  C   UNL A   1      45.295  34.647  27.941  1.00  0.00     0.173 A 
ATOM     92  C   UNL A   1      46.167  33.850  30.034  1.00  0.00     0.173 A 
ATOM     93  F   UNL A   1      44.578  34.471  26.821  1.00  0.00    -0.203 F 
ATOM     94  C   UNL A   1      45.975  35.849  28.120  1.00  0.00     0.198 A 
ATOM     95  C   UNL A   1      46.815  35.068  30.227  1.00  0.00     0.198 A 
ATOM     96  F   UNL A   1      46.287  32.904  30.976  1.00  0.00    -0.203 F 
ATOM     97  F   UNL A   1      45.915  36.797  27.175  1.00  0.00    -0.200 F 
ATOM     98  C   UNL A   1      46.727  36.062  29.265  1.00  0.00     0.200 A 
ATOM     99  F   UNL A   1      47.527  35.277  31.343  1.00  0.00    -0.200 F 
ATOM    100  F   UNL A   1      47.376  37.223  29.437  1.00  0.00    -0.200 F 
ENDBRANCH  67  90
ENDBRANCH  41  42
ENDBRANCH  34  36
ENDBRANCH  33  34
ENDBRANCH  32  33
ENDBRANCH  31  32
ENDBRANCH  30  31
ENDBRANCH  29  30
ENDBRANCH  28  29
ENDBRANCH  27  28
ENDBRANCH  26  27
ENDBRANCH   1  26
TORSDOF 26
ENDMDL
MODEL 3
REMARK VINA RESULT:      -8.4      3.166      8.685
REMARK SMILES C[C@H](CCC(=O)OCCOCCOCCOCCOC(=O)c1ccc(-c2c3nc(c(-c4c(F)c(F)c(F)c(F)c4F)c4ccc([nH]4)c(-c4c(F)c(F)c(F)c(F)c4F)c4nc(c(-c5c(F)c(F)c(F)c(F)c5F)c5ccc2[nH]5)C=C4)C=C3)cc1)NC(=O)c1ccc(C[NH3+])o1
REMARK SMILES IDX 11 1 10 2 9 3 8 4 7 5 5 6 6 7 4 8 3 9 2 10 1 11 85 12 86 13
REMARK SMILES IDX 87 15 88 16 89 17 94 18 90 19 91 20 92 21 93 22 12 26 13 27
REMARK SMILES IDX 14 28 15 29 16 30 17 31 18 32 19 33 20 34 21 35 22 36 23 37
REMARK SMILES IDX 84 38 24 39 83 40 25 41 26 42 27 43 77 44 28 45 82 46 76 47
REMARK SMILES IDX 78 48 29 49 81 50 75 51 74 52 30 54 62 55 42 56 61 57 43 58
REMARK SMILES IDX 46 59 60 60 79 61 44 62 45 63 59 65 80 66 47 67 31 68 32 69
REMARK SMILES IDX 40 70 33 71 34 72 38 73 41 74 35 75 36 76 39 77 37 78 63 79
REMARK SMILES IDX 64 80 72 81 65 82 66 83 70 84 73 85 67 86 68 87 71 88 69 89
REMARK SMILES IDX 48 90 49 91 57 92 50 93 51 94 55 95 58 96 52 97 53 98 56 99
REMARK SMILES IDX 54 100
REMARK H PARENT 85 14 93 23 93 24 93 25 78 53 46 64
REMARK Flexibility Score: inf
ROOT
ATOM      1  C   UNL A   1      33.363  20.982  25.127  1.00  0.00     0.188 C 
ENDROOT
BRANCH   1   2
ATOM      2  O   UNL A   1      32.960  22.232  24.582  1.00  0.00    -0.376 OA
BRANCH   2   3
ATOM      3  C   UNL A   1      31.702  22.345  23.932  1.00  0.00     0.202 C 
BRANCH   3   4
ATOM      4  C   UNL A   1      30.791  23.543  24.230  1.00  0.00     0.261 C 
BRANCH   4   5
ATOM      5  O   UNL A   1      31.454  24.682  24.806  1.00  0.00    -0.463 OA
BRANCH   5   6
ATOM      6  C   UNL A   1      30.726  25.466  25.630  1.00  0.00     0.305 C 
ATOM      7  O   UNL A   1      29.502  25.500  25.664  1.00  0.00    -0.252 OA
BRANCH   6   8
ATOM      8  C   UNL A   1      31.571  26.266  26.606  1.00  0.00     0.125 C 
BRANCH   8   9
ATOM      9  C   UNL A   1      32.163  27.618  26.189  1.00  0.00     0.036 C 
BRANCH   9  10
ATOM     10  C   UNL A   1      33.680  27.644  25.954  1.00  0.00     0.080 C 
ATOM     11  C   UNL A   1      34.170  26.277  25.492  1.00  0.00     0.031 C 
BRANCH  10  12
ATOM     12  N   UNL A   1      34.008  28.645  24.936  1.00  0.00    -0.347 N 
ATOM     13  C   UNL A   1      33.547  28.812  23.646  1.00  0.00     0.287 C 
ATOM     14  H   UNL A   1      34.673  29.314  25.221  1.00  0.00     0.164 HD
ATOM     15  O   UNL A   1      34.167  29.616  22.945  1.00  0.00    -0.266 OA
BRANCH  13  16
ATOM     16  C   UNL A   1      32.397  28.073  23.165  1.00  0.00     0.191 A 
ATOM     17  C   UNL A   1      32.234  26.905  22.440  1.00  0.00     0.057 A 
ATOM     18  O   UNL A   1      31.153  28.560  23.491  1.00  0.00    -0.450 OA
ATOM     19  C   UNL A   1      30.844  26.728  22.238  1.00  0.00     0.052 A 
ATOM     20  C   UNL A   1      30.221  27.776  22.881  1.00  0.00     0.159 A 
BRANCH  20  21
ATOM     21  C   UNL A   1      28.803  28.192  23.011  1.00  0.00     0.335 C 
BRANCH  21  22
ATOM     22  N   UNL A   1      28.001  27.116  23.593  1.00  0.00    -0.351 N 
ATOM     23  H   UNL A   1      27.163  26.974  23.029  1.00  0.00     0.344 HD
ATOM     24  H   UNL A   1      27.732  27.368  24.545  1.00  0.00     0.344 HD
ATOM     25  H   UNL A   1      28.548  26.256  23.611  1.00  0.00     0.344 HD
ENDBRANCH  21  22
ENDBRANCH  20  21
ENDBRANCH  13  16
ENDBRANCH  10  12
ENDBRANCH   9  10
ENDBRANCH   8   9
ENDBRANCH   6   8
ENDBRANCH   5   6
ENDBRANCH   4   5
ENDBRANCH   3   4
ENDBRANCH   2   3
ENDBRANCH   1   2
BRANCH   1  26
ATOM     26  C   UNL A   1      32.514  19.712  24.944  1.00  0.00     0.188 C 
BRANCH  26  27
ATOM     27  O   UNL A   1      32.968  18.565  25.643  1.00  0.00    -0.377 OA
BRANCH  27  28
ATOM     28  C   UNL A   1      33.529  17.543  24.822  1.00  0.00     0.188 C 
BRANCH  28  29
ATOM     29  C   UNL A   1      34.916  17.873  24.246  1.00  0.00     0.188 C 
BRANCH  29  30
ATOM     30  O   UNL A   1      35.744  18.572  25.166  1.00  0.00    -0.376 OA
BRANCH  30  31
ATOM     31  C   UNL A   1      36.719  19.469  24.652  1.00  0.00     0.202 C 
BRANCH  31  32
ATOM     32  C   UNL A   1      37.004  20.777  25.417  1.00  0.00     0.261 C 
BRANCH  32  33
ATOM     33  O   UNL A   1      38.269  21.417  25.180  1.00  0.00    -0.460 OA
BRANCH  33  34
ATOM     34  C   UNL A   1      39.274  21.168  26.037  1.00  0.00     0.338 C 
ATOM     35  O   UNL A   1      39.866  20.106  26.186  1.00  0.00    -0.246 OA
BRANCH  34  36
ATOM     36  C   UNL A   1      39.692  22.438  26.665  1.00  0.00     0.060 A 
ATOM     37  C   UNL A   1      39.139  23.635  26.191  1.00  0.00     0.016 A 
ATOM     38  C   UNL A   1      40.668  22.460  27.665  1.00  0.00     0.016 A 
ATOM     39  C   UNL A   1      39.615  24.858  26.659  1.00  0.00     0.010 A 
ATOM     40  C   UNL A   1      41.156  23.689  28.122  1.00  0.00     0.010 A 
ATOM     41  C   UNL A   1      40.671  24.893  27.580  1.00  0.00    -0.014 A 
BRANCH  41  42
ATOM     42  C   UNL A   1      41.407  26.165  27.786  1.00  0.00     0.031 A 
ATOM     43  C   UNL A   1      40.718  27.276  28.536  1.00  0.00     0.074 A 
ATOM     44  C   UNL A   1      42.678  26.318  27.377  1.00  0.00     0.049 A 
ATOM     45  N   UNL A   1      41.151  28.473  28.848  1.00  0.00    -0.248 NA
ATOM     46  C   UNL A   1      39.348  26.996  28.999  1.00  0.00     0.031 C 
ATOM     47  C   UNL A   1      43.471  25.306  26.685  1.00  0.00     0.029 A 
ATOM     48  N   UNL A   1      43.524  27.394  27.492  1.00  0.00    -0.354 N 
ATOM     49  C   UNL A   1      40.107  29.086  29.531  1.00  0.00     0.074 A 
ATOM     50  C   UNL A   1      39.008  28.146  29.560  1.00  0.00     0.031 C 
ATOM     51  C   UNL A   1      44.693  25.807  26.438  1.00  0.00     0.029 A 
ATOM     52  C   UNL A   1      44.755  27.187  26.922  1.00  0.00     0.049 A 
ATOM     53  H   UNL A   1      43.273  28.232  27.943  1.00  0.00     0.167 HD
ATOM     54  C   UNL A   1      40.070  30.318  30.094  1.00  0.00     0.037 A 
ATOM     55  C   UNL A   1      45.802  28.026  26.792  1.00  0.00     0.037 A 
ATOM     56  C   UNL A   1      41.163  31.254  30.062  1.00  0.00     0.049 A 
ATOM     57  C   UNL A   1      45.706  29.425  27.354  1.00  0.00     0.074 A 
ATOM     58  C   UNL A   1      41.233  32.520  30.616  1.00  0.00     0.029 A 
ATOM     59  N   UNL A   1      42.377  31.026  29.431  1.00  0.00    -0.354 N 
ATOM     60  N   UNL A   1      44.730  29.989  28.023  1.00  0.00    -0.248 NA
ATOM     61  C   UNL A   1      46.867  30.301  27.142  1.00  0.00     0.031 C 
ATOM     62  C   UNL A   1      42.464  33.084  30.265  1.00  0.00     0.029 A 
ATOM     63  C   UNL A   1      43.191  32.142  29.555  1.00  0.00     0.049 A 
ATOM     64  H   UNL A   1      42.625  30.195  28.965  1.00  0.00     0.167 HD
ATOM     65  C   UNL A   1      45.171  31.267  28.345  1.00  0.00     0.074 A 
ATOM     66  C   UNL A   1      46.510  31.391  27.807  1.00  0.00     0.031 C 
ATOM     67  C   UNL A   1      44.527  32.249  29.026  1.00  0.00     0.037 A 
BRANCH  54  68
ATOM     68  C   UNL A   1      38.787  30.738  30.756  1.00  0.00     0.064 A 
ATOM     69  C   UNL A   1      37.703  31.246  30.022  1.00  0.00     0.173 A 
ATOM     70  C   UNL A   1      38.635  30.617  32.146  1.00  0.00     0.173 A 
ATOM     71  F   UNL A   1      37.799  31.396  28.693  1.00  0.00    -0.203 F 
ATOM     72  C   UNL A   1      36.532  31.649  30.659  1.00  0.00     0.198 A 
ATOM     73  C   UNL A   1      37.450  30.987  32.775  1.00  0.00     0.198 A 
ATOM     74  F   UNL A   1      39.636  30.132  32.896  1.00  0.00    -0.203 F 
ATOM     75  F   UNL A   1      35.533  32.186  29.945  1.00  0.00    -0.200 F 
ATOM     76  C   UNL A   1      36.404  31.513  32.033  1.00  0.00     0.200 A 
ATOM     77  F   UNL A   1      37.323  30.841  34.101  1.00  0.00    -0.200 F 
ATOM     78  F   UNL A   1      35.275  31.898  32.644  1.00  0.00    -0.200 F 
ENDBRANCH  54  68
BRANCH  55  79
ATOM     79  C   UNL A   1      47.039  27.575  26.099  1.00  0.00     0.064 A 
ATOM     80  C   UNL A   1      47.184  27.717  24.713  1.00  0.00     0.173 A 
ATOM     81  C   UNL A   1      48.087  26.964  26.803  1.00  0.00     0.173 A 
ATOM     82  F   UNL A   1      46.197  28.268  23.989  1.00  0.00    -0.203 F 
ATOM     83  C   UNL A   1      48.319  27.248  24.054  1.00  0.00     0.198 A 
ATOM     84  C   UNL A   1      49.235  26.524  26.148  1.00  0.00     0.198 A 
ATOM     85  F   UNL A   1      47.996  26.793  28.131  1.00  0.00    -0.203 F 
ATOM     86  F   UNL A   1      48.406  27.348  22.720  1.00  0.00    -0.200 F 
ATOM     87  C   UNL A   1      49.346  26.658  24.773  1.00  0.00     0.200 A 
ATOM     88  F   UNL A   1      50.231  25.962  26.848  1.00  0.00    -0.200 F 
ATOM     89  F   UNL A   1      50.438  26.207  24.140  1.00  0.00    -0.200 F 
ENDBRANCH  55  79
BRANCH  67  90
ATOM     90  C   UNL A   1      45.281  33.526  29.278  1.00  0.00     0.064 A 
ATOM     91  C   UNL A   1      45.164  34.639  28.432  1.00  0.00     0.173 A 
ATOM     92  C   UNL A   1      46.109  33.646  30.406  1.00  0.00     0.173 A 
ATOM     93  F   UNL A   1      44.396  34.575  27.334  1.00  0.00    -0.203 F 
ATOM     94  C   UNL A   1      45.876  35.810  28.685  1.00  0.00     0.198 A 
ATOM     95  C   UNL A   1      46.789  34.831  30.675  1.00  0.00     0.198 A 
ATOM     96  F   UNL A   1      46.249  32.618  31.256  1.00  0.00    -0.203 F 
ATOM     97  F   UNL A   1      45.794  36.838  27.830  1.00  0.00    -0.200 F 
ATOM     98  C   UNL A   1      46.681  35.907  29.810  1.00  0.00     0.200 A 
ATOM     99  F   UNL A   1      47.552  34.928  31.773  1.00  0.00    -0.200 F 
ATOM    100  F   UNL A   1      47.360  37.037  30.054  1.00  0.00    -0.200 F 
ENDBRANCH  67  90
ENDBRANCH  41  42
ENDBRANCH  34  36
ENDBRANCH  33  34
ENDBRANCH  32  33
ENDBRANCH  31  32
ENDBRANCH  30  31
ENDBRANCH  29  30
ENDBRANCH  28  29
ENDBRANCH  27  28
ENDBRANCH  26  27
ENDBRANCH   1  26
TORSDOF 26
ENDMDL
