MODEL 1
REMARK VINA RESULT:     -11.2      0.000      0.000
REMARK SMILES C[C@H](C(=O)OCCOCCOCCOCCOC(=O)c1ccc(-c2c3nc(c(-c4c(F)c(F)c(F)c(F)c4F)c4ccc([nH]4)c(-c4c(F)c(F)c(F)c(F)c4F)c4nc(c(-c5c(F)c(F)c(F)c(F)c5F)c5ccc2[nH]5)C=C4)C=C3)cc1)c1ccc2c3cc(Cl)ccc3n(C(=O)c3cocn3)c2c1
REMARK SMILES IDX 10 1 9 2 8 3 7 4 6 5 5 6 3 7 4 8 2 9 1 10 83 11 84 12 103 13
REMARK SMILES IDX 85 14 102 15 86 16 94 17 87 18 93 19 88 20 92 21 89 22 91 23
REMARK SMILES IDX 90 24 95 25 96 26 97 27 98 28 101 29 99 30 100 31 11 32
REMARK SMILES IDX 12 33 13 34 14 35 15 36 16 37 17 38 18 39 19 40 20 41 21 42
REMARK SMILES IDX 82 43 22 44 81 45 23 46 24 47 25 48 75 49 26 50 80 51 74 52
REMARK SMILES IDX 76 53 27 54 79 55 73 56 72 57 28 59 60 60 40 61 59 62 41 63
REMARK SMILES IDX 44 64 58 65 77 66 42 67 43 68 57 70 78 71 45 72 29 73 30 74
REMARK SMILES IDX 38 75 31 76 32 77 36 78 39 79 33 80 34 81 37 82 35 83 61 84
REMARK SMILES IDX 62 85 70 86 63 87 64 88 68 89 71 90 65 91 66 92 69 93 67 94
REMARK SMILES IDX 46 95 47 96 55 97 48 98 49 99 53 100 56 101 50 102 51 103
REMARK SMILES IDX 54 104 52 105
REMARK H PARENT 76 58 44 69
REMARK Flexibility Score: inf
ROOT
ATOM      1  C   UNL A   1      38.000  21.227  25.208  1.00  0.00     0.188 C 
ENDROOT
BRANCH   1   2
ATOM      2  C   UNL A   1      36.502  20.886  25.364  1.00  0.00     0.188 C 
BRANCH   2   3
ATOM      3  O   UNL A   1      35.624  21.754  26.079  1.00  0.00    -0.376 OA
BRANCH   3   4
ATOM      4  C   UNL A   1      34.334  21.303  26.451  1.00  0.00     0.202 C 
BRANCH   4   5
ATOM      5  C   UNL A   1      33.527  20.411  25.482  1.00  0.00     0.261 C 
BRANCH   5   6
ATOM      6  O   UNL A   1      33.548  20.774  24.082  1.00  0.00    -0.463 OA
BRANCH   6   7
ATOM      7  C   UNL A   1      32.817  21.860  23.734  1.00  0.00     0.313 C 
ATOM      8  O   UNL A   1      31.588  21.871  23.778  1.00  0.00    -0.252 OA
BRANCH   7   9
ATOM      9  C   UNL A   1      33.613  23.078  23.233  1.00  0.00     0.126 C 
ATOM     10  C   UNL A   1      33.216  23.283  21.760  1.00  0.00     0.025 C 
BRANCH   9  11
ATOM     11  C   UNL A   1      33.604  24.410  24.009  1.00  0.00    -0.032 A 
ATOM     12  C   UNL A   1      34.586  24.671  24.970  1.00  0.00     0.005 A 
ATOM     13  C   UNL A   1      32.645  25.421  23.765  1.00  0.00     0.032 A 
ATOM     14  C   UNL A   1      34.667  25.918  25.619  1.00  0.00     0.011 A 
ATOM     15  C   UNL A   1      32.639  26.620  24.528  1.00  0.00     0.058 A 
ATOM     16  C   UNL A   1      33.689  26.912  25.386  1.00  0.00     0.008 A 
ATOM     17  N   UNL A   1      31.678  27.648  24.638  1.00  0.00    -0.274 N 
ATOM     18  C   UNL A   1      33.495  28.243  25.854  1.00  0.00     0.009 A 
ATOM     19  C   UNL A   1      32.200  28.644  25.486  1.00  0.00     0.057 A 
ATOM     20  C   UNL A   1      34.305  29.108  26.625  1.00  0.00     0.031 A 
ATOM     21  C   UNL A   1      31.649  29.819  26.043  1.00  0.00     0.029 A 
ATOM     22  C   UNL A   1      33.784  30.316  27.082  1.00  0.00     0.041 A 
ATOM     23  C   UNL A   1      32.462  30.649  26.832  1.00  0.00     0.023 A 
ATOM     24  Cl  UNL A   1      34.779  31.379  28.001  1.00  0.00    -0.084 Cl
BRANCH  17  25
ATOM     25  C   UNL A   1      30.373  27.554  24.066  1.00  0.00     0.284 C 
ATOM     26  O   UNL A   1      29.692  26.612  24.469  1.00  0.00    -0.266 OA
BRANCH  25  27
ATOM     27  C   UNL A   1      29.758  28.457  23.096  1.00  0.00     0.167 A 
ATOM     28  C   UNL A   1      28.435  28.779  22.889  1.00  0.00     0.231 A 
ATOM     29  N   UNL A   1      30.540  29.296  22.309  1.00  0.00    -0.211 NA
ATOM     30  O   UNL A   1      28.378  29.814  21.998  1.00  0.00    -0.451 OA
ATOM     31  C   UNL A   1      29.680  30.088  21.719  1.00  0.00     0.308 A 
ENDBRANCH  25  27
ENDBRANCH  17  25
ENDBRANCH   9  11
ENDBRANCH   7   9
ENDBRANCH   6   7
ENDBRANCH   5   6
ENDBRANCH   4   5
ENDBRANCH   3   4
ENDBRANCH   2   3
ENDBRANCH   1   2
BRANCH   1  32
ATOM     32  O   UNL A   1      38.465  22.279  26.032  1.00  0.00    -0.377 OA
BRANCH  32  33
ATOM     33  C   UNL A   1      39.789  22.145  26.502  1.00  0.00     0.188 C 
BRANCH  33  34
ATOM     34  C   UNL A   1      40.456  20.781  26.267  1.00  0.00     0.188 C 
BRANCH  34  35
ATOM     35  O   UNL A   1      41.665  20.610  26.994  1.00  0.00    -0.376 OA
BRANCH  35  36
ATOM     36  C   UNL A   1      42.199  19.306  27.156  1.00  0.00     0.202 C 
BRANCH  36  37
ATOM     37  C   UNL A   1      42.835  18.635  25.928  1.00  0.00     0.261 C 
BRANCH  37  38
ATOM     38  O   UNL A   1      43.116  19.476  24.801  1.00  0.00    -0.460 OA
BRANCH  38  39
ATOM     39  C   UNL A   1      44.406  19.650  24.456  1.00  0.00     0.338 C 
ATOM     40  O   UNL A   1      45.109  18.876  23.828  1.00  0.00    -0.246 OA
BRANCH  39  41
ATOM     41  C   UNL A   1      44.781  21.041  24.792  1.00  0.00     0.060 A 
ATOM     42  C   UNL A   1      45.314  21.300  26.062  1.00  0.00     0.016 A 
ATOM     43  C   UNL A   1      44.645  22.073  23.860  1.00  0.00     0.016 A 
ATOM     44  C   UNL A   1      45.681  22.598  26.416  1.00  0.00     0.010 A 
ATOM     45  C   UNL A   1      44.983  23.380  24.227  1.00  0.00     0.010 A 
ATOM     46  C   UNL A   1      45.469  23.651  25.519  1.00  0.00    -0.014 A 
BRANCH  46  47
ATOM     47  C   UNL A   1      45.531  25.047  26.016  1.00  0.00     0.031 A 
ATOM     48  C   UNL A   1      46.859  25.751  25.968  1.00  0.00     0.074 A 
ATOM     49  C   UNL A   1      44.438  25.690  26.461  1.00  0.00     0.049 A 
ATOM     50  N   UNL A   1      47.182  26.956  26.363  1.00  0.00    -0.248 NA
ATOM     51  C   UNL A   1      47.978  24.988  25.390  1.00  0.00     0.031 C 
ATOM     52  C   UNL A   1      43.088  25.132  26.504  1.00  0.00     0.029 A 
ATOM     53  N   UNL A   1      44.296  26.959  26.964  1.00  0.00    -0.354 N 
ATOM     54  C   UNL A   1      48.538  27.088  26.090  1.00  0.00     0.074 A 
ATOM     55  C   UNL A   1      48.985  25.835  25.525  1.00  0.00     0.031 C 
ATOM     56  C   UNL A   1      42.254  26.054  27.018  1.00  0.00     0.029 A 
ATOM     57  C   UNL A   1      43.018  27.251  27.370  1.00  0.00     0.049 A 
ATOM     58  H   UNL A   1      45.041  27.600  27.028  1.00  0.00     0.167 HD
ATOM     59  C   UNL A   1      49.337  28.163  26.289  1.00  0.00     0.037 A 
ATOM     60  C   UNL A   1      42.531  28.352  27.978  1.00  0.00     0.037 A 
ATOM     61  C   UNL A   1      48.886  29.406  26.856  1.00  0.00     0.049 A 
ATOM     62  C   UNL A   1      43.462  29.504  28.268  1.00  0.00     0.074 A 
ATOM     63  C   UNL A   1      49.611  30.563  27.083  1.00  0.00     0.029 A 
ATOM     64  N   UNL A   1      47.594  29.648  27.298  1.00  0.00    -0.354 N 
ATOM     65  N   UNL A   1      44.736  29.636  27.985  1.00  0.00    -0.248 NA
ATOM     66  C   UNL A   1      42.884  30.663  28.963  1.00  0.00     0.031 C 
ATOM     67  C   UNL A   1      48.774  31.480  27.725  1.00  0.00     0.029 A 
ATOM     68  C   UNL A   1      47.508  30.924  27.831  1.00  0.00     0.049 A 
ATOM     69  H   UNL A   1      46.848  29.008  27.242  1.00  0.00     0.167 HD
ATOM     70  C   UNL A   1      45.101  30.901  28.431  1.00  0.00     0.074 A 
ATOM     71  C   UNL A   1      43.910  31.502  28.995  1.00  0.00     0.031 C 
ATOM     72  C   UNL A   1      46.311  31.512  28.378  1.00  0.00     0.037 A 
BRANCH  59  73
ATOM     73  C   UNL A   1      50.789  28.025  25.930  1.00  0.00     0.064 A 
ATOM     74  C   UNL A   1      51.247  28.175  24.614  1.00  0.00     0.173 A 
ATOM     75  C   UNL A   1      51.739  27.759  26.928  1.00  0.00     0.173 A 
ATOM     76  F   UNL A   1      50.379  28.412  23.618  1.00  0.00    -0.203 F 
ATOM     77  C   UNL A   1      52.599  28.037  24.305  1.00  0.00     0.198 A 
ATOM     78  C   UNL A   1      53.093  27.656  26.621  1.00  0.00     0.198 A 
ATOM     79  F   UNL A   1      51.356  27.606  28.205  1.00  0.00    -0.203 F 
ATOM     80  F   UNL A   1      53.007  28.131  23.031  1.00  0.00    -0.200 F 
ATOM     81  C   UNL A   1      53.521  27.786  25.309  1.00  0.00     0.200 A 
ATOM     82  F   UNL A   1      53.983  27.427  27.597  1.00  0.00    -0.200 F 
ATOM     83  F   UNL A   1      54.821  27.662  25.012  1.00  0.00    -0.200 F 
ENDBRANCH  59  73
BRANCH  60  84
ATOM     84  C   UNL A   1      41.096  28.421  28.365  1.00  0.00     0.064 A 
ATOM     85  C   UNL A   1      40.136  28.966  27.501  1.00  0.00     0.173 A 
ATOM     86  C   UNL A   1      40.660  27.976  29.623  1.00  0.00     0.173 A 
ATOM     87  F   UNL A   1      40.505  29.433  26.299  1.00  0.00    -0.203 F 
ATOM     88  C   UNL A   1      38.801  29.084  27.887  1.00  0.00     0.198 A 
ATOM     89  C   UNL A   1      39.320  28.064  29.995  1.00  0.00     0.198 A 
ATOM     90  F   UNL A   1      41.536  27.453  30.492  1.00  0.00    -0.203 F 
ATOM     91  F   UNL A   1      37.916  29.660  27.062  1.00  0.00    -0.200 F 
ATOM     92  C   UNL A   1      38.393  28.626  29.131  1.00  0.00     0.200 A 
ATOM     93  F   UNL A   1      38.929  27.610  31.193  1.00  0.00    -0.200 F 
ATOM     94  F   UNL A   1      37.110  28.739  29.500  1.00  0.00    -0.200 F 
ENDBRANCH  60  84
BRANCH  72  95
ATOM     95  C   UNL A   1      46.402  32.920  28.895  1.00  0.00     0.064 A 
ATOM     96  C   UNL A   1      46.132  34.030  28.080  1.00  0.00     0.173 A 
ATOM     97  C   UNL A   1      46.719  33.159  30.242  1.00  0.00     0.173 A 
ATOM     98  F   UNL A   1      45.834  33.858  26.783  1.00  0.00    -0.203 F 
ATOM     99  C   UNL A   1      46.206  35.325  28.586  1.00  0.00     0.198 A 
ATOM    100  C   UNL A   1      46.755  34.454  30.753  1.00  0.00     0.198 A 
ATOM    101  F   UNL A   1      46.976  32.136  31.070  1.00  0.00    -0.203 F 
ATOM    102  F   UNL A   1      45.998  36.372  27.774  1.00  0.00    -0.200 F 
ATOM    103  C   UNL A   1      46.509  35.536  29.923  1.00  0.00     0.200 A 
ATOM    104  F   UNL A   1      47.029  34.654  32.050  1.00  0.00    -0.200 F 
ATOM    105  F   UNL A   1      46.569  36.783  30.409  1.00  0.00    -0.200 F 
ENDBRANCH  72  95
ENDBRANCH  46  47
ENDBRANCH  39  41
ENDBRANCH  38  39
ENDBRANCH  37  38
ENDBRANCH  36  37
ENDBRANCH  35  36
ENDBRANCH  34  35
ENDBRANCH  33  34
ENDBRANCH  32  33
ENDBRANCH   1  32
TORSDOF 23
ENDMDL
MODEL 2
REMARK VINA RESULT:     -10.5      6.659     12.090
REMARK SMILES C[C@H](C(=O)OCCOCCOCCOCCOC(=O)c1ccc(-c2c3nc(c(-c4c(F)c(F)c(F)c(F)c4F)c4ccc([nH]4)c(-c4c(F)c(F)c(F)c(F)c4F)c4nc(c(-c5c(F)c(F)c(F)c(F)c5F)c5ccc2[nH]5)C=C4)C=C3)cc1)c1ccc2c3cc(Cl)ccc3n(C(=O)c3cocn3)c2c1
REMARK SMILES IDX 10 1 9 2 8 3 7 4 6 5 5 6 3 7 4 8 2 9 1 10 83 11 84 12 103 13
REMARK SMILES IDX 85 14 102 15 86 16 94 17 87 18 93 19 88 20 92 21 89 22 91 23
REMARK SMILES IDX 90 24 95 25 96 26 97 27 98 28 101 29 99 30 100 31 11 32
REMARK SMILES IDX 12 33 13 34 14 35 15 36 16 37 17 38 18 39 19 40 20 41 21 42
REMARK SMILES IDX 82 43 22 44 81 45 23 46 24 47 25 48 75 49 26 50 80 51 74 52
REMARK SMILES IDX 76 53 27 54 79 55 73 56 72 57 28 59 60 60 40 61 59 62 41 63
REMARK SMILES IDX 44 64 58 65 77 66 42 67 43 68 57 70 78 71 45 72 29 73 30 74
REMARK SMILES IDX 38 75 31 76 32 77 36 78 39 79 33 80 34 81 37 82 35 83 61 84
REMARK SMILES IDX 62 85 70 86 63 87 64 88 68 89 71 90 65 91 66 92 69 93 67 94
REMARK SMILES IDX 46 95 47 96 55 97 48 98 49 99 53 100 56 101 50 102 51 103
REMARK SMILES IDX 54 104 52 105
REMARK H PARENT 76 58 44 69
REMARK Flexibility Score: inf
ROOT
ATOM      1  C   UNL A   1      35.115  31.943  29.669  1.00  0.00     0.188 C 
ENDROOT
BRANCH   1   2
ATOM      2  C   UNL A   1      35.437  31.710  28.177  1.00  0.00     0.188 C 
BRANCH   2   3
ATOM      3  O   UNL A   1      34.424  31.287  27.266  1.00  0.00    -0.376 OA
BRANCH   3   4
ATOM      4  C   UNL A   1      34.063  29.919  27.196  1.00  0.00     0.202 C 
BRANCH   4   5
ATOM      5  C   UNL A   1      33.381  29.374  25.922  1.00  0.00     0.261 C 
BRANCH   5   6
ATOM      6  O   UNL A   1      33.951  28.186  25.327  1.00  0.00    -0.463 OA
BRANCH   6   7
ATOM      7  C   UNL A   1      33.072  27.254  24.889  1.00  0.00     0.313 C 
ATOM      8  O   UNL A   1      32.722  27.177  23.712  1.00  0.00    -0.252 OA
BRANCH   7   9
ATOM      9  C   UNL A   1      32.493  26.313  25.961  1.00  0.00     0.126 C 
ATOM     10  C   UNL A   1      31.013  26.701  26.129  1.00  0.00     0.025 C 
BRANCH   9  11
ATOM     11  C   UNL A   1      32.667  24.786  25.859  1.00  0.00    -0.032 A 
ATOM     12  C   UNL A   1      31.751  23.930  26.479  1.00  0.00     0.005 A 
ATOM     13  C   UNL A   1      33.716  24.191  25.121  1.00  0.00     0.032 A 
ATOM     14  C   UNL A   1      31.822  22.533  26.316  1.00  0.00     0.011 A 
ATOM     15  C   UNL A   1      33.873  22.779  25.082  1.00  0.00     0.058 A 
ATOM     16  C   UNL A   1      32.888  21.949  25.597  1.00  0.00     0.008 A 
ATOM     17  N   UNL A   1      34.940  21.974  24.626  1.00  0.00    -0.274 N 
ATOM     18  C   UNL A   1      33.236  20.613  25.245  1.00  0.00     0.009 A 
ATOM     19  C   UNL A   1      34.553  20.625  24.755  1.00  0.00     0.057 A 
ATOM     20  C   UNL A   1      32.547  19.385  25.375  1.00  0.00     0.031 A 
ATOM     21  C   UNL A   1      35.241  19.405  24.575  1.00  0.00     0.029 A 
ATOM     22  C   UNL A   1      33.205  18.191  25.093  1.00  0.00     0.041 A 
ATOM     23  C   UNL A   1      34.546  18.196  24.740  1.00  0.00     0.023 A 
ATOM     24  Cl  UNL A   1      32.358  16.699  25.229  1.00  0.00    -0.084 Cl
BRANCH  17  25
ATOM     25  C   UNL A   1      36.207  22.508  24.245  1.00  0.00     0.284 C 
ATOM     26  O   UNL A   1      36.278  22.910  23.083  1.00  0.00    -0.266 OA
BRANCH  25  27
ATOM     27  C   UNL A   1      37.398  22.658  25.077  1.00  0.00     0.167 A 
ATOM     28  C   UNL A   1      37.799  23.699  25.884  1.00  0.00     0.231 A 
ATOM     29  N   UNL A   1      38.257  21.584  25.291  1.00  0.00    -0.211 NA
ATOM     30  O   UNL A   1      38.884  23.290  26.608  1.00  0.00    -0.451 OA
ATOM     31  C   UNL A   1      39.080  22.002  26.219  1.00  0.00     0.308 A 
ENDBRANCH  25  27
ENDBRANCH  17  25
ENDBRANCH   9  11
ENDBRANCH   7   9
ENDBRANCH   6   7
ENDBRANCH   5   6
ENDBRANCH   4   5
ENDBRANCH   3   4
ENDBRANCH   2   3
ENDBRANCH   1   2
BRANCH   1  32
ATOM     32  O   UNL A   1      34.522  33.193  29.967  1.00  0.00    -0.377 OA
BRANCH  32  33
ATOM     33  C   UNL A   1      34.819  34.237  29.065  1.00  0.00     0.188 C 
BRANCH  33  34
ATOM     34  C   UNL A   1      33.614  34.972  28.459  1.00  0.00     0.188 C 
BRANCH  34  35
ATOM     35  O   UNL A   1      33.605  36.365  28.735  1.00  0.00    -0.376 OA
BRANCH  35  36
ATOM     36  C   UNL A   1      33.275  36.812  30.040  1.00  0.00     0.202 C 
BRANCH  36  37
ATOM     37  C   UNL A   1      32.126  36.100  30.772  1.00  0.00     0.261 C 
BRANCH  37  38
ATOM     38  O   UNL A   1      32.474  35.329  31.930  1.00  0.00    -0.460 OA
BRANCH  38  39
ATOM     39  C   UNL A   1      33.269  35.908  32.851  1.00  0.00     0.338 C 
ATOM     40  O   UNL A   1      32.984  36.834  33.592  1.00  0.00    -0.246 OA
BRANCH  39  41
ATOM     41  C   UNL A   1      34.500  35.094  32.961  1.00  0.00     0.060 A 
ATOM     42  C   UNL A   1      34.430  33.861  33.624  1.00  0.00     0.016 A 
ATOM     43  C   UNL A   1      35.702  35.518  32.387  1.00  0.00     0.016 A 
ATOM     44  C   UNL A   1      35.568  33.065  33.746  1.00  0.00     0.010 A 
ATOM     45  C   UNL A   1      36.851  34.735  32.538  1.00  0.00     0.010 A 
ATOM     46  C   UNL A   1      36.795  33.523  33.249  1.00  0.00    -0.014 A 
BRANCH  46  47
ATOM     47  C   UNL A   1      38.044  32.850  33.680  1.00  0.00     0.031 A 
ATOM     48  C   UNL A   1      38.629  31.805  32.771  1.00  0.00     0.074 A 
ATOM     49  C   UNL A   1      38.668  33.181  34.823  1.00  0.00     0.049 A 
ATOM     50  N   UNL A   1      39.692  31.059  32.928  1.00  0.00    -0.248 NA
ATOM     51  C   UNL A   1      37.913  31.572  31.505  1.00  0.00     0.031 C 
ATOM     52  C   UNL A   1      38.229  34.215  35.758  1.00  0.00     0.029 A 
ATOM     53  N   UNL A   1      39.811  32.674  35.391  1.00  0.00    -0.354 N 
ATOM     54  C   UNL A   1      39.764  30.265  31.790  1.00  0.00     0.074 A 
ATOM     55  C   UNL A   1      38.625  30.596  30.964  1.00  0.00     0.031 C 
ATOM     56  C   UNL A   1      39.089  34.259  36.791  1.00  0.00     0.029 A 
ATOM     57  C   UNL A   1      40.117  33.234  36.607  1.00  0.00     0.049 A 
ATOM     58  H   UNL A   1      40.359  31.975  34.967  1.00  0.00     0.167 HD
ATOM     59  C   UNL A   1      40.702  29.346  31.462  1.00  0.00     0.037 A 
ATOM     60  C   UNL A   1      41.102  32.933  37.476  1.00  0.00     0.037 A 
ATOM     61  C   UNL A   1      41.831  29.017  32.291  1.00  0.00     0.049 A 
ATOM     62  C   UNL A   1      42.085  31.843  37.126  1.00  0.00     0.074 A 
ATOM     63  C   UNL A   1      42.849  28.114  32.042  1.00  0.00     0.029 A 
ATOM     64  N   UNL A   1      42.082  29.573  33.536  1.00  0.00    -0.354 N 
ATOM     65  N   UNL A   1      42.166  31.114  36.038  1.00  0.00    -0.248 NA
ATOM     66  C   UNL A   1      43.116  31.534  38.127  1.00  0.00     0.031 C 
ATOM     67  C   UNL A   1      43.678  28.073  33.168  1.00  0.00     0.029 A 
ATOM     68  C   UNL A   1      43.220  29.005  34.087  1.00  0.00     0.049 A 
ATOM     69  H   UNL A   1      41.533  30.268  33.966  1.00  0.00     0.167 HD
ATOM     70  C   UNL A   1      43.274  30.291  36.208  1.00  0.00     0.074 A 
ATOM     71  C   UNL A   1      43.840  30.618  37.500  1.00  0.00     0.031 C 
ATOM     72  C   UNL A   1      43.778  29.351  35.370  1.00  0.00     0.037 A 
BRANCH  59  73
ATOM     73  C   UNL A   1      40.521  28.600  30.171  1.00  0.00     0.064 A 
ATOM     74  C   UNL A   1      39.746  27.433  30.089  1.00  0.00     0.173 A 
ATOM     75  C   UNL A   1      41.115  29.075  28.992  1.00  0.00     0.173 A 
ATOM     76  F   UNL A   1      39.171  26.924  31.189  1.00  0.00    -0.203 F 
ATOM     77  C   UNL A   1      39.596  26.756  28.881  1.00  0.00     0.198 A 
ATOM     78  C   UNL A   1      40.934  28.415  27.780  1.00  0.00     0.198 A 
ATOM     79  F   UNL A   1      41.866  30.187  29.013  1.00  0.00    -0.203 F 
ATOM     80  F   UNL A   1      38.897  25.612  28.837  1.00  0.00    -0.200 F 
ATOM     81  C   UNL A   1      40.183  27.251  27.727  1.00  0.00     0.200 A 
ATOM     82  F   UNL A   1      41.492  28.905  26.664  1.00  0.00    -0.200 F 
ATOM     83  F   UNL A   1      40.032  26.603  26.564  1.00  0.00    -0.200 F 
ENDBRANCH  59  73
BRANCH  60  84
ATOM     84  C   UNL A   1      41.209  33.662  38.769  1.00  0.00     0.064 A 
ATOM     85  C   UNL A   1      40.397  33.325  39.862  1.00  0.00     0.173 A 
ATOM     86  C   UNL A   1      42.100  34.735  38.929  1.00  0.00     0.173 A 
ATOM     87  F   UNL A   1      39.508  32.326  39.752  1.00  0.00    -0.203 F 
ATOM     88  C   UNL A   1      40.456  34.044  41.055  1.00  0.00     0.198 A 
ATOM     89  C   UNL A   1      42.181  35.433  40.132  1.00  0.00     0.198 A 
ATOM     90  F   UNL A   1      42.894  35.105  37.915  1.00  0.00    -0.203 F 
ATOM     91  F   UNL A   1      39.629  33.735  42.062  1.00  0.00    -0.200 F 
ATOM     92  C   UNL A   1      41.353  35.093  41.191  1.00  0.00     0.200 A 
ATOM     93  F   UNL A   1      43.057  36.438  40.263  1.00  0.00    -0.200 F 
ATOM     94  F   UNL A   1      41.409  35.784  42.338  1.00  0.00    -0.200 F 
ENDBRANCH  60  84
BRANCH  72  95
ATOM     95  C   UNL A   1      45.033  28.642  35.795  1.00  0.00     0.064 A 
ATOM     96  C   UNL A   1      46.308  29.144  35.494  1.00  0.00     0.173 A 
ATOM     97  C   UNL A   1      44.957  27.466  36.559  1.00  0.00     0.173 A 
ATOM     98  F   UNL A   1      46.439  30.258  34.759  1.00  0.00    -0.203 F 
ATOM     99  C   UNL A   1      47.457  28.479  35.914  1.00  0.00     0.198 A 
ATOM    100  C   UNL A   1      46.108  26.824  37.008  1.00  0.00     0.198 A 
ATOM    101  F   UNL A   1      43.764  26.947  36.885  1.00  0.00    -0.203 F 
ATOM    102  F   UNL A   1      48.665  28.947  35.566  1.00  0.00    -0.200 F 
ATOM    103  C   UNL A   1      47.357  27.325  36.677  1.00  0.00     0.200 A 
ATOM    104  F   UNL A   1      46.007  25.721  37.763  1.00  0.00    -0.200 F 
ATOM    105  F   UNL A   1      48.465  26.693  37.089  1.00  0.00    -0.200 F 
ENDBRANCH  72  95
ENDBRANCH  46  47
ENDBRANCH  39  41
ENDBRANCH  38  39
ENDBRANCH  37  38
ENDBRANCH  36  37
ENDBRANCH  35  36
ENDBRANCH  34  35
ENDBRANCH  33  34
ENDBRANCH  32  33
ENDBRANCH   1  32
TORSDOF 23
ENDMDL
MODEL 3
REMARK VINA RESULT:     -10.3      6.457     12.200
REMARK SMILES C[C@H](C(=O)OCCOCCOCCOCCOC(=O)c1ccc(-c2c3nc(c(-c4c(F)c(F)c(F)c(F)c4F)c4ccc([nH]4)c(-c4c(F)c(F)c(F)c(F)c4F)c4nc(c(-c5c(F)c(F)c(F)c(F)c5F)c5ccc2[nH]5)C=C4)C=C3)cc1)c1ccc2c3cc(Cl)ccc3n(C(=O)c3cocn3)c2c1
REMARK SMILES IDX 10 1 9 2 8 3 7 4 6 5 5 6 3 7 4 8 2 9 1 10 83 11 84 12 103 13
REMARK SMILES IDX 85 14 102 15 86 16 94 17 87 18 93 19 88 20 92 21 89 22 91 23
REMARK SMILES IDX 90 24 95 25 96 26 97 27 98 28 101 29 99 30 100 31 11 32
REMARK SMILES IDX 12 33 13 34 14 35 15 36 16 37 17 38 18 39 19 40 20 41 21 42
REMARK SMILES IDX 82 43 22 44 81 45 23 46 24 47 25 48 75 49 26 50 80 51 74 52
REMARK SMILES IDX 76 53 27 54 79 55 73 56 72 57 28 59 60 60 40 61 59 62 41 63
REMARK SMILES IDX 44 64 58 65 77 66 42 67 43 68 57 70 78 71 45 72 29 73 30 74
REMARK SMILES IDX 38 75 31 76 32 77 36 78 39 79 33 80 34 81 37 82 35 83 61 84
REMARK SMILES IDX 62 85 70 86 63 87 64 88 68 89 71 90 65 91 66 92 69 93 67 94
REMARK SMILES IDX 46 95 47 96 55 97 48 98 49 99 53 100 56 101 50 102 51 103
REMARK SMILES IDX 54 104 52 105
REMARK H PARENT 76 58 44 69
REMARK Flexibility Score: inf
ROOT
ATOM      1  C   UNL A   1      34.963  32.278  29.733  1.00  0.00     0.188 C 
ENDROOT
BRANCH   1   2
ATOM      2  C   UNL A   1      35.287  31.509  28.434  1.00  0.00     0.188 C 
BRANCH   2   3
ATOM      3  O   UNL A   1      34.244  31.027  27.588  1.00  0.00    -0.376 OA
BRANCH   3   4
ATOM      4  C   UNL A   1      34.286  29.697  27.103  1.00  0.00     0.202 C 
BRANCH   4   5
ATOM      5  C   UNL A   1      33.257  29.237  26.048  1.00  0.00     0.261 C 
BRANCH   5   6
ATOM      6  O   UNL A   1      33.755  28.444  24.945  1.00  0.00    -0.463 OA
BRANCH   6   7
ATOM      7  C   UNL A   1      32.848  28.093  24.003  1.00  0.00     0.313 C 
ATOM      8  O   UNL A   1      32.885  28.533  22.855  1.00  0.00    -0.252 OA
BRANCH   7   9
ATOM      9  C   UNL A   1      31.732  27.137  24.460  1.00  0.00     0.126 C 
ATOM     10  C   UNL A   1      30.424  27.667  23.842  1.00  0.00     0.025 C 
BRANCH   9  11
ATOM     11  C   UNL A   1      31.863  25.613  24.278  1.00  0.00    -0.032 A 
ATOM     12  C   UNL A   1      30.847  24.890  23.646  1.00  0.00     0.005 A 
ATOM     13  C   UNL A   1      33.006  24.896  24.701  1.00  0.00     0.032 A 
ATOM     14  C   UNL A   1      30.984  23.515  23.370  1.00  0.00     0.011 A 
ATOM     15  C   UNL A   1      33.078  23.484  24.557  1.00  0.00     0.058 A 
ATOM     16  C   UNL A   1      32.119  22.804  23.819  1.00  0.00     0.008 A 
ATOM     17  N   UNL A   1      33.978  22.538  25.094  1.00  0.00    -0.274 N 
ATOM     18  C   UNL A   1      32.559  21.455  23.698  1.00  0.00     0.009 A 
ATOM     19  C   UNL A   1      33.636  21.272  24.582  1.00  0.00     0.057 A 
ATOM     20  C   UNL A   1      32.070  20.359  22.951  1.00  0.00     0.031 A 
ATOM     21  C   UNL A   1      34.098  19.965  24.856  1.00  0.00     0.029 A 
ATOM     22  C   UNL A   1      32.606  19.090  23.155  1.00  0.00     0.041 A 
ATOM     23  C   UNL A   1      33.576  18.887  24.124  1.00  0.00     0.023 A 
ATOM     24  Cl  UNL A   1      32.027  17.761  22.227  1.00  0.00    -0.084 Cl
BRANCH  17  25
ATOM     25  C   UNL A   1      34.952  22.870  26.085  1.00  0.00     0.284 C 
ATOM     26  O   UNL A   1      34.499  23.110  27.203  1.00  0.00    -0.266 OA
BRANCH  25  27
ATOM     27  C   UNL A   1      36.402  22.921  25.925  1.00  0.00     0.167 A 
ATOM     28  C   UNL A   1      37.278  23.977  26.046  1.00  0.00     0.231 A 
ATOM     29  N   UNL A   1      37.145  21.753  25.781  1.00  0.00    -0.211 NA
ATOM     30  O   UNL A   1      38.553  23.488  25.994  1.00  0.00    -0.451 OA
ATOM     31  C   UNL A   1      38.392  22.145  25.865  1.00  0.00     0.308 A 
ENDBRANCH  25  27
ENDBRANCH  17  25
ENDBRANCH   9  11
ENDBRANCH   7   9
ENDBRANCH   6   7
ENDBRANCH   5   6
ENDBRANCH   4   5
ENDBRANCH   3   4
ENDBRANCH   2   3
ENDBRANCH   1   2
BRANCH   1  32
ATOM     32  O   UNL A   1      33.961  33.270  29.609  1.00  0.00    -0.377 OA
BRANCH  32  33
ATOM     33  C   UNL A   1      34.320  34.406  28.853  1.00  0.00     0.188 C 
BRANCH  33  34
ATOM     34  C   UNL A   1      33.202  35.425  28.588  1.00  0.00     0.188 C 
BRANCH  34  35
ATOM     35  O   UNL A   1      33.488  36.721  29.094  1.00  0.00    -0.376 OA
BRANCH  35  36
ATOM     36  C   UNL A   1      33.183  37.021  30.447  1.00  0.00     0.202 C 
BRANCH  36  37
ATOM     37  C   UNL A   1      32.084  36.194  31.133  1.00  0.00     0.261 C 
BRANCH  37  38
ATOM     38  O   UNL A   1      32.468  35.431  32.285  1.00  0.00    -0.460 OA
BRANCH  38  39
ATOM     39  C   UNL A   1      33.421  35.946  33.087  1.00  0.00     0.338 C 
ATOM     40  O   UNL A   1      33.307  36.888  33.853  1.00  0.00    -0.246 OA
BRANCH  39  41
ATOM     41  C   UNL A   1      34.592  35.043  33.035  1.00  0.00     0.060 A 
ATOM     42  C   UNL A   1      34.476  33.766  33.601  1.00  0.00     0.016 A 
ATOM     43  C   UNL A   1      35.778  35.430  32.406  1.00  0.00     0.016 A 
ATOM     44  C   UNL A   1      35.557  32.885  33.571  1.00  0.00     0.010 A 
ATOM     45  C   UNL A   1      36.872  34.559  32.404  1.00  0.00     0.010 A 
ATOM     46  C   UNL A   1      36.776  33.297  33.019  1.00  0.00    -0.014 A 
BRANCH  46  47
ATOM     47  C   UNL A   1      37.998  32.506  33.296  1.00  0.00     0.031 A 
ATOM     48  C   UNL A   1      38.751  32.797  34.566  1.00  0.00     0.074 A 
ATOM     49  C   UNL A   1      38.411  31.528  32.472  1.00  0.00     0.049 A 
ATOM     50  N   UNL A   1      39.856  32.267  35.024  1.00  0.00    -0.248 NA
ATOM     51  C   UNL A   1      38.173  33.831  35.439  1.00  0.00     0.031 C 
ATOM     52  C   UNL A   1      37.736  31.116  31.244  1.00  0.00     0.029 A 
ATOM     53  N   UNL A   1      39.506  30.704  32.549  1.00  0.00    -0.354 N 
ATOM     54  C   UNL A   1      40.107  32.909  36.230  1.00  0.00     0.074 A 
ATOM     55  C   UNL A   1      39.060  33.888  36.420  1.00  0.00     0.031 C 
ATOM     56  C   UNL A   1      38.439  30.120  30.675  1.00  0.00     0.029 A 
ATOM     57  C   UNL A   1      39.630  29.851  31.480  1.00  0.00     0.049 A 
ATOM     58  H   UNL A   1      40.143  30.722  33.300  1.00  0.00     0.167 HD
ATOM     59  C   UNL A   1      41.119  32.696  37.103  1.00  0.00     0.037 A 
ATOM     60  C   UNL A   1      40.607  28.971  31.182  1.00  0.00     0.037 A 
ATOM     61  C   UNL A   1      42.161  31.724  36.906  1.00  0.00     0.049 A 
ATOM     62  C   UNL A   1      41.771  28.814  32.130  1.00  0.00     0.074 A 
ATOM     63  C   UNL A   1      43.222  31.416  37.738  1.00  0.00     0.029 A 
ATOM     64  N   UNL A   1      42.278  30.910  35.789  1.00  0.00    -0.354 N 
ATOM     65  N   UNL A   1      41.991  29.403  33.281  1.00  0.00    -0.248 NA
ATOM     66  C   UNL A   1      42.824  27.867  31.735  1.00  0.00     0.031 C 
ATOM     67  C   UNL A   1      44.019  30.466  37.093  1.00  0.00     0.029 A 
ATOM     68  C   UNL A   1      43.415  30.125  35.892  1.00  0.00     0.049 A 
ATOM     69  H   UNL A   1      41.646  30.893  35.034  1.00  0.00     0.167 HD
ATOM     70  C   UNL A   1      43.182  28.872  33.763  1.00  0.00     0.074 A 
ATOM     71  C   UNL A   1      43.632  27.906  32.784  1.00  0.00     0.031 C 
ATOM     72  C   UNL A   1      43.843  29.158  34.913  1.00  0.00     0.037 A 
BRANCH  59  73
ATOM     73  C   UNL A   1      41.171  33.562  38.329  1.00  0.00     0.064 A 
ATOM     74  C   UNL A   1      42.028  34.668  38.423  1.00  0.00     0.173 A 
ATOM     75  C   UNL A   1      40.331  33.290  39.420  1.00  0.00     0.173 A 
ATOM     76  F   UNL A   1      42.865  34.962  37.417  1.00  0.00    -0.203 F 
ATOM     77  C   UNL A   1      42.061  35.454  39.573  1.00  0.00     0.198 A 
ATOM     78  C   UNL A   1      40.343  34.098  40.554  1.00  0.00     0.198 A 
ATOM     79  F   UNL A   1      39.492  32.244  39.385  1.00  0.00    -0.203 F 
ATOM     80  F   UNL A   1      42.928  36.474  39.662  1.00  0.00    -0.200 F 
ATOM     81  C   UNL A   1      41.214  35.173  40.633  1.00  0.00     0.200 A 
ATOM     82  F   UNL A   1      39.512  33.832  41.572  1.00  0.00    -0.200 F 
ATOM     83  F   UNL A   1      41.241  35.934  41.736  1.00  0.00    -0.200 F 
ENDBRANCH  59  73
BRANCH  60  84
ATOM     84  C   UNL A   1      40.541  28.175  29.926  1.00  0.00     0.064 A 
ATOM     85  C   UNL A   1      41.281  28.543  28.794  1.00  0.00     0.173 A 
ATOM     86  C   UNL A   1      39.707  27.051  29.820  1.00  0.00     0.173 A 
ATOM     87  F   UNL A   1      42.071  29.626  28.833  1.00  0.00    -0.203 F 
ATOM     88  C   UNL A   1      41.175  27.831  27.599  1.00  0.00     0.198 A 
ATOM     89  C   UNL A   1      39.627  26.321  28.636  1.00  0.00     0.198 A 
ATOM     90  F   UNL A   1      38.971  26.659  30.869  1.00  0.00    -0.203 F 
ATOM     91  F   UNL A   1      41.852  28.238  26.517  1.00  0.00    -0.200 F 
ATOM     92  C   UNL A   1      40.354  26.717  27.524  1.00  0.00     0.200 A 
ATOM     93  F   UNL A   1      38.840  25.239  28.571  1.00  0.00    -0.200 F 
ATOM     94  F   UNL A   1      40.252  26.033  26.376  1.00  0.00    -0.200 F 
ENDBRANCH  60  84
BRANCH  72  95
ATOM     95  C   UNL A   1      45.096  28.382  35.206  1.00  0.00     0.064 A 
ATOM     96  C   UNL A   1      45.067  27.148  35.874  1.00  0.00     0.173 A 
ATOM     97  C   UNL A   1      46.342  28.859  34.768  1.00  0.00     0.173 A 
ATOM     98  F   UNL A   1      43.905  26.651  36.323  1.00  0.00    -0.203 F 
ATOM     99  C   UNL A   1      46.240  26.438  36.118  1.00  0.00     0.198 A 
ATOM    100  C   UNL A   1      47.507  28.128  34.981  1.00  0.00     0.198 A 
ATOM    101  F   UNL A   1      46.428  30.027  34.115  1.00  0.00    -0.203 F 
ATOM    102  F   UNL A   1      46.193  25.289  36.807  1.00  0.00    -0.200 F 
ATOM    103  C   UNL A   1      47.457  26.924  35.665  1.00  0.00     0.200 A 
ATOM    104  F   UNL A   1      48.680  28.591  34.524  1.00  0.00    -0.200 F 
ATOM    105  F   UNL A   1      48.583  26.233  35.893  1.00  0.00    -0.200 F 
ENDBRANCH  72  95
ENDBRANCH  46  47
ENDBRANCH  39  41
ENDBRANCH  38  39
ENDBRANCH  37  38
ENDBRANCH  36  37
ENDBRANCH  35  36
ENDBRANCH  34  35
ENDBRANCH  33  34
ENDBRANCH  32  33
ENDBRANCH   1  32
TORSDOF 23
ENDMDL
