MODEL 1
REMARK VINA RESULT:     -11.5      0.000      0.000
REMARK SMILES C[N@H+]1CCN(C(=O)c2cnn3c2CCCC3)C[C@@H]1C(=O)OCCOCCOCCOCCOC(=O)c1ccc(-c2c3nc(c(-c4c(F)c(F)c(F)c(F)c4F)c4ccc([nH]4)c(-c4c(F)c(F)c(F)c(F)c4F)c4nc(c(-c5c(F)c(F)c(F)c(F)c5F)c5ccc2[nH]5)C=C4)C=C3)cc1
REMARK SMILES IDX 27 1 26 2 25 3 24 4 23 5 22 6 21 7 19 8 20 9 18 10 1 11 2 12
REMARK SMILES IDX 3 13 4 15 17 16 5 17 6 18 7 19 8 20 9 21 12 22 10 23 11 24
REMARK SMILES IDX 13 25 16 26 14 27 15 28 28 29 29 30 30 31 31 32 32 33 33 34
REMARK SMILES IDX 34 35 35 36 36 37 37 38 98 39 38 40 97 41 39 42 40 43 41 44
REMARK SMILES IDX 91 45 42 46 96 47 90 48 92 49 43 50 95 51 89 52 88 53 44 55
REMARK SMILES IDX 76 56 56 57 75 58 57 59 60 60 74 61 93 62 58 63 59 64 73 66
REMARK SMILES IDX 94 67 61 68 45 69 46 70 54 71 47 72 48 73 52 74 55 75 49 76
REMARK SMILES IDX 50 77 53 78 51 79 77 80 78 81 86 82 79 83 80 84 84 85 87 86
REMARK SMILES IDX 81 87 82 88 85 89 83 90 62 91 63 92 71 93 64 94 65 95 69 96
REMARK SMILES IDX 72 97 66 98 67 99 70 100 68 101
REMARK H PARENT 2 14 92 54 60 65
REMARK Flexibility Score: inf
ROOT
ATOM      1  O   UNL A   1      42.431  19.743  25.336  1.00  0.00    -0.377 OA
ENDROOT
BRANCH   1   2
ATOM      2  C   UNL A   1      41.320  19.473  26.175  1.00  0.00     0.188 C 
BRANCH   2   3
ATOM      3  C   UNL A   1      40.640  20.726  26.789  1.00  0.00     0.188 C 
BRANCH   3   4
ATOM      4  O   UNL A   1      39.692  21.483  26.044  1.00  0.00    -0.376 OA
BRANCH   4   5
ATOM      5  C   UNL A   1      38.581  20.811  25.480  1.00  0.00     0.202 C 
BRANCH   5   6
ATOM      6  C   UNL A   1      37.271  21.598  25.301  1.00  0.00     0.261 C 
BRANCH   6   7
ATOM      7  O   UNL A   1      37.240  22.511  24.183  1.00  0.00    -0.459 OA
BRANCH   7   8
ATOM      8  C   UNL A   1      36.023  22.821  23.671  1.00  0.00     0.366 C 
ATOM      9  O   UNL A   1      35.865  23.139  22.496  1.00  0.00    -0.245 OA
BRANCH   8  10
ATOM     10  C   UNL A   1      34.852  22.826  24.687  1.00  0.00     0.314 C 
ATOM     11  C   UNL A   1      33.748  20.579  24.864  1.00  0.00     0.333 C 
ATOM     12  N   UNL A   1      33.717  21.936  24.363  1.00  0.00    -0.323 N 
ATOM     13  C   UNL A   1      32.410  22.459  23.972  1.00  0.00     0.284 C 
ATOM     14  H   UNL A   1      34.054  21.865  23.403  1.00  0.00     0.348 HD
ATOM     15  C   UNL A   1      32.198  23.982  23.957  1.00  0.00     0.181 C 
ATOM     16  C   UNL A   1      34.431  24.303  24.893  1.00  0.00     0.197 C 
ATOM     17  N   UNL A   1      33.440  24.732  23.902  1.00  0.00    -0.326 N 
BRANCH  17  18
ATOM     18  C   UNL A   1      33.542  25.815  23.033  1.00  0.00     0.257 C 
ATOM     19  O   UNL A   1      33.876  25.682  21.858  1.00  0.00    -0.269 OA
BRANCH  18  20
ATOM     20  C   UNL A   1      33.127  27.109  23.532  1.00  0.00     0.081 A 
ATOM     21  C   UNL A   1      33.872  28.125  24.169  1.00  0.00     0.149 A 
ATOM     22  C   UNL A   1      31.861  27.652  23.399  1.00  0.00     0.051 A 
ATOM     23  N   UNL A   1      33.121  29.184  24.502  1.00  0.00    -0.180 NA
ATOM     24  N   UNL A   1      31.910  28.864  24.027  1.00  0.00    -0.269 N 
ATOM     25  C   UNL A   1      30.637  27.170  22.707  1.00  0.00     0.057 C 
ATOM     26  C   UNL A   1      30.769  29.733  24.244  1.00  0.00     0.144 C 
ATOM     27  C   UNL A   1      29.386  27.927  23.161  1.00  0.00     0.008 C 
ATOM     28  C   UNL A   1      29.645  29.434  23.251  1.00  0.00     0.024 C 
ENDBRANCH  18  20
ENDBRANCH  17  18
ENDBRANCH   8  10
ENDBRANCH   7   8
ENDBRANCH   6   7
ENDBRANCH   5   6
ENDBRANCH   4   5
ENDBRANCH   3   4
ENDBRANCH   2   3
ENDBRANCH   1   2
BRANCH   1  29
ATOM     29  C   UNL A   1      43.528  18.856  25.459  1.00  0.00     0.188 C 
BRANCH  29  30
ATOM     30  C   UNL A   1      44.783  19.204  24.637  1.00  0.00     0.188 C 
BRANCH  30  31
ATOM     31  O   UNL A   1      45.709  20.039  25.326  1.00  0.00    -0.376 OA
BRANCH  31  32
ATOM     32  C   UNL A   1      46.046  21.316  24.817  1.00  0.00     0.202 C 
BRANCH  32  33
ATOM     33  C   UNL A   1      45.661  22.514  25.684  1.00  0.00     0.261 C 
BRANCH  33  34
ATOM     34  O   UNL A   1      44.436  22.377  26.384  1.00  0.00    -0.460 OA
BRANCH  34  35
ATOM     35  C   UNL A   1      43.382  22.946  25.797  1.00  0.00     0.338 C 
ATOM     36  O   UNL A   1      43.084  22.906  24.594  1.00  0.00    -0.246 OA
BRANCH  35  37
ATOM     37  C   UNL A   1      42.672  23.760  26.775  1.00  0.00     0.060 A 
ATOM     38  C   UNL A   1      41.565  24.463  26.309  1.00  0.00     0.016 A 
ATOM     39  C   UNL A   1      43.296  24.059  28.001  1.00  0.00     0.016 A 
ATOM     40  C   UNL A   1      41.258  25.643  26.934  1.00  0.00     0.010 A 
ATOM     41  C   UNL A   1      42.986  25.242  28.624  1.00  0.00     0.010 A 
ATOM     42  C   UNL A   1      42.047  26.063  28.016  1.00  0.00    -0.014 A 
BRANCH  42  43
ATOM     43  C   UNL A   1      41.816  27.406  28.492  1.00  0.00     0.031 A 
ATOM     44  C   UNL A   1      42.915  28.320  28.149  1.00  0.00     0.074 A 
ATOM     45  C   UNL A   1      40.732  27.752  29.207  1.00  0.00     0.049 A 
ATOM     46  N   UNL A   1      43.810  28.788  28.950  1.00  0.00    -0.248 NA
ATOM     47  C   UNL A   1      43.159  28.591  26.727  1.00  0.00     0.031 C 
ATOM     48  C   UNL A   1      39.483  27.007  29.383  1.00  0.00     0.029 A 
ATOM     49  N   UNL A   1      40.502  28.914  29.875  1.00  0.00    -0.354 N 
ATOM     50  C   UNL A   1      44.634  29.574  28.158  1.00  0.00     0.074 A 
ATOM     51  C   UNL A   1      44.295  29.287  26.788  1.00  0.00     0.031 C 
ATOM     52  C   UNL A   1      38.550  27.830  29.914  1.00  0.00     0.029 A 
ATOM     53  C   UNL A   1      39.181  29.098  30.247  1.00  0.00     0.049 A 
ATOM     54  H   UNL A   1      41.211  29.567  30.075  1.00  0.00     0.167 HD
ATOM     55  C   UNL A   1      45.336  30.597  28.707  1.00  0.00     0.037 A 
ATOM     56  C   UNL A   1      38.650  30.248  30.724  1.00  0.00     0.037 A 
ATOM     57  C   UNL A   1      45.404  30.479  30.140  1.00  0.00     0.049 A 
ATOM     58  C   UNL A   1      39.762  31.052  31.288  1.00  0.00     0.074 A 
ATOM     59  C   UNL A   1      46.054  29.662  31.039  1.00  0.00     0.029 A 
ATOM     60  N   UNL A   1      44.382  31.091  30.817  1.00  0.00    -0.354 N 
ATOM     61  N   UNL A   1      40.431  30.717  32.356  1.00  0.00    -0.248 NA
ATOM     62  C   UNL A   1      40.387  32.079  30.462  1.00  0.00     0.031 C 
ATOM     63  C   UNL A   1      45.218  29.610  32.194  1.00  0.00     0.029 A 
ATOM     64  C   UNL A   1      44.099  30.414  31.970  1.00  0.00     0.049 A 
ATOM     65  H   UNL A   1      43.918  31.905  30.515  1.00  0.00     0.167 HD
ATOM     66  C   UNL A   1      41.721  31.156  32.111  1.00  0.00     0.074 A 
ATOM     67  C   UNL A   1      41.592  32.129  31.035  1.00  0.00     0.031 C 
ATOM     68  C   UNL A   1      42.792  30.462  32.594  1.00  0.00     0.037 A 
BRANCH  55  69
ATOM     69  C   UNL A   1      45.529  31.922  28.019  1.00  0.00     0.064 A 
ATOM     70  C   UNL A   1      44.399  32.697  27.696  1.00  0.00     0.173 A 
ATOM     71  C   UNL A   1      46.733  32.299  27.385  1.00  0.00     0.173 A 
ATOM     72  F   UNL A   1      43.198  32.396  28.211  1.00  0.00    -0.203 F 
ATOM     73  C   UNL A   1      44.466  33.737  26.766  1.00  0.00     0.198 A 
ATOM     74  C   UNL A   1      46.807  33.372  26.502  1.00  0.00     0.198 A 
ATOM     75  F   UNL A   1      47.854  31.574  27.494  1.00  0.00    -0.203 F 
ATOM     76  F   UNL A   1      43.345  34.372  26.397  1.00  0.00    -0.200 F 
ATOM     77  C   UNL A   1      45.668  34.073  26.170  1.00  0.00     0.200 A 
ATOM     78  F   UNL A   1      47.976  33.659  25.911  1.00  0.00    -0.200 F 
ATOM     79  F   UNL A   1      45.723  35.033  25.237  1.00  0.00    -0.200 F 
ENDBRANCH  55  69
BRANCH  56  80
ATOM     80  C   UNL A   1      37.320  30.825  30.422  1.00  0.00     0.064 A 
ATOM     81  C   UNL A   1      36.439  31.183  31.456  1.00  0.00     0.173 A 
ATOM     82  C   UNL A   1      37.006  31.305  29.136  1.00  0.00     0.173 A 
ATOM     83  F   UNL A   1      36.690  30.801  32.717  1.00  0.00    -0.203 F 
ATOM     84  C   UNL A   1      35.334  32.006  31.223  1.00  0.00     0.198 A 
ATOM     85  C   UNL A   1      35.898  32.120  28.904  1.00  0.00     0.198 A 
ATOM     86  F   UNL A   1      37.823  31.081  28.097  1.00  0.00    -0.203 F 
ATOM     87  F   UNL A   1      34.557  32.387  32.247  1.00  0.00    -0.200 F 
ATOM     88  C   UNL A   1      35.071  32.484  29.950  1.00  0.00     0.200 A 
ATOM     89  F   UNL A   1      35.677  32.604  27.674  1.00  0.00    -0.200 F 
ATOM     90  F   UNL A   1      34.052  33.328  29.738  1.00  0.00    -0.200 F 
ENDBRANCH  56  80
BRANCH  68  91
ATOM     91  C   UNL A   1      42.542  29.544  33.754  1.00  0.00     0.064 A 
ATOM     92  C   UNL A   1      42.076  28.225  33.640  1.00  0.00     0.173 A 
ATOM     93  C   UNL A   1      42.868  30.008  35.037  1.00  0.00     0.173 A 
ATOM     94  F   UNL A   1      41.828  27.681  32.441  1.00  0.00    -0.203 F 
ATOM     95  C   UNL A   1      41.897  27.426  34.769  1.00  0.00     0.198 A 
ATOM     96  C   UNL A   1      42.726  29.195  36.157  1.00  0.00     0.198 A 
ATOM     97  F   UNL A   1      43.361  31.245  35.200  1.00  0.00    -0.203 F 
ATOM     98  F   UNL A   1      41.423  26.177  34.641  1.00  0.00    -0.200 F 
ATOM     99  C   UNL A   1      42.228  27.910  36.024  1.00  0.00     0.200 A 
ATOM    100  F   UNL A   1      43.092  29.654  37.362  1.00  0.00    -0.200 F 
ATOM    101  F   UNL A   1      42.087  27.131  37.106  1.00  0.00    -0.200 F 
ENDBRANCH  68  91
ENDBRANCH  42  43
ENDBRANCH  35  37
ENDBRANCH  34  35
ENDBRANCH  33  34
ENDBRANCH  32  33
ENDBRANCH  31  32
ENDBRANCH  30  31
ENDBRANCH  29  30
ENDBRANCH   1  29
TORSDOF 22
ENDMDL
MODEL 2
REMARK VINA RESULT:     -11.5      1.977      2.903
REMARK SMILES C[N@H+]1CCN(C(=O)c2cnn3c2CCCC3)C[C@@H]1C(=O)OCCOCCOCCOCCOC(=O)c1ccc(-c2c3nc(c(-c4c(F)c(F)c(F)c(F)c4F)c4ccc([nH]4)c(-c4c(F)c(F)c(F)c(F)c4F)c4nc(c(-c5c(F)c(F)c(F)c(F)c5F)c5ccc2[nH]5)C=C4)C=C3)cc1
REMARK SMILES IDX 27 1 26 2 25 3 24 4 23 5 22 6 21 7 19 8 20 9 18 10 1 11 2 12
REMARK SMILES IDX 3 13 4 15 17 16 5 17 6 18 7 19 8 20 9 21 12 22 10 23 11 24
REMARK SMILES IDX 13 25 16 26 14 27 15 28 28 29 29 30 30 31 31 32 32 33 33 34
REMARK SMILES IDX 34 35 35 36 36 37 37 38 98 39 38 40 97 41 39 42 40 43 41 44
REMARK SMILES IDX 91 45 42 46 96 47 90 48 92 49 43 50 95 51 89 52 88 53 44 55
REMARK SMILES IDX 76 56 56 57 75 58 57 59 60 60 74 61 93 62 58 63 59 64 73 66
REMARK SMILES IDX 94 67 61 68 45 69 46 70 54 71 47 72 48 73 52 74 55 75 49 76
REMARK SMILES IDX 50 77 53 78 51 79 77 80 78 81 86 82 79 83 80 84 84 85 87 86
REMARK SMILES IDX 81 87 82 88 85 89 83 90 62 91 63 92 71 93 64 94 65 95 69 96
REMARK SMILES IDX 72 97 66 98 67 99 70 100 68 101
REMARK H PARENT 2 14 92 54 60 65
REMARK Flexibility Score: inf
ROOT
ATOM      1  O   UNL A   1      41.908  20.284  25.734  1.00  0.00    -0.377 OA
ENDROOT
BRANCH   1   2
ATOM      2  C   UNL A   1      41.717  21.630  26.139  1.00  0.00     0.188 C 
BRANCH   2   3
ATOM      3  C   UNL A   1      40.402  21.903  26.917  1.00  0.00     0.188 C 
BRANCH   3   4
ATOM      4  O   UNL A   1      39.193  21.238  26.566  1.00  0.00    -0.376 OA
BRANCH   4   5
ATOM      5  C   UNL A   1      38.375  21.804  25.560  1.00  0.00     0.202 C 
BRANCH   5   6
ATOM      6  C   UNL A   1      37.531  23.039  25.920  1.00  0.00     0.261 C 
BRANCH   6   7
ATOM      7  O   UNL A   1      37.078  23.832  24.803  1.00  0.00    -0.459 OA
BRANCH   7   8
ATOM      8  C   UNL A   1      36.115  23.296  24.013  1.00  0.00     0.366 C 
ATOM      9  O   UNL A   1      36.297  23.055  22.823  1.00  0.00    -0.245 OA
BRANCH   8  10
ATOM     10  C   UNL A   1      34.738  23.080  24.693  1.00  0.00     0.314 C 
ATOM     11  C   UNL A   1      33.969  20.697  24.529  1.00  0.00     0.333 C 
ATOM     12  N   UNL A   1      33.865  22.064  24.067  1.00  0.00    -0.323 N 
ATOM     13  C   UNL A   1      32.637  22.426  23.364  1.00  0.00     0.284 C 
ATOM     14  H   UNL A   1      34.440  22.097  23.225  1.00  0.00     0.348 HD
ATOM     15  C   UNL A   1      32.213  23.904  23.328  1.00  0.00     0.181 C 
ATOM     16  C   UNL A   1      34.066  24.471  24.815  1.00  0.00     0.197 C 
ATOM     17  N   UNL A   1      33.304  24.819  23.612  1.00  0.00    -0.326 N 
BRANCH  17  18
ATOM     18  C   UNL A   1      33.462  25.955  22.822  1.00  0.00     0.257 C 
ATOM     19  O   UNL A   1      33.831  25.892  21.652  1.00  0.00    -0.269 OA
BRANCH  18  20
ATOM     20  C   UNL A   1      33.062  27.223  23.395  1.00  0.00     0.081 A 
ATOM     21  C   UNL A   1      33.820  28.194  24.085  1.00  0.00     0.149 A 
ATOM     22  C   UNL A   1      31.801  27.785  23.299  1.00  0.00     0.051 A 
ATOM     23  N   UNL A   1      33.082  29.239  24.480  1.00  0.00    -0.180 NA
ATOM     24  N   UNL A   1      31.865  28.960  23.994  1.00  0.00    -0.269 N 
ATOM     25  C   UNL A   1      30.569  27.355  22.587  1.00  0.00     0.057 C 
ATOM     26  C   UNL A   1      30.734  29.826  24.265  1.00  0.00     0.144 C 
ATOM     27  C   UNL A   1      29.328  28.098  23.089  1.00  0.00     0.008 C 
ATOM     28  C   UNL A   1      29.603  29.595  23.263  1.00  0.00     0.024 C 
ENDBRANCH  18  20
ENDBRANCH  17  18
ENDBRANCH   8  10
ENDBRANCH   7   8
ENDBRANCH   6   7
ENDBRANCH   5   6
ENDBRANCH   4   5
ENDBRANCH   3   4
ENDBRANCH   2   3
ENDBRANCH   1   2
BRANCH   1  29
ATOM     29  C   UNL A   1      42.640  19.467  26.629  1.00  0.00     0.188 C 
BRANCH  29  30
ATOM     30  C   UNL A   1      43.091  18.097  26.090  1.00  0.00     0.188 C 
BRANCH  30  31
ATOM     31  O   UNL A   1      44.231  18.161  25.238  1.00  0.00    -0.376 OA
BRANCH  31  32
ATOM     32  C   UNL A   1      45.523  18.371  25.776  1.00  0.00     0.202 C 
BRANCH  32  33
ATOM     33  C   UNL A   1      46.363  19.462  25.114  1.00  0.00     0.261 C 
BRANCH  33  34
ATOM     34  O   UNL A   1      46.085  20.781  25.552  1.00  0.00    -0.460 OA
BRANCH  34  35
ATOM     35  C   UNL A   1      45.258  21.476  24.770  1.00  0.00     0.338 C 
ATOM     36  O   UNL A   1      44.554  21.035  23.849  1.00  0.00    -0.246 OA
BRANCH  35  37
ATOM     37  C   UNL A   1      45.395  22.895  25.070  1.00  0.00     0.060 A 
ATOM     38  C   UNL A   1      46.087  23.217  26.234  1.00  0.00     0.016 A 
ATOM     39  C   UNL A   1      44.577  23.821  24.396  1.00  0.00     0.016 A 
ATOM     40  C   UNL A   1      45.737  24.376  26.875  1.00  0.00     0.010 A 
ATOM     41  C   UNL A   1      44.229  24.981  25.042  1.00  0.00     0.010 A 
ATOM     42  C   UNL A   1      44.733  25.183  26.319  1.00  0.00    -0.014 A 
BRANCH  42  43
ATOM     43  C   UNL A   1      44.256  26.269  27.141  1.00  0.00     0.031 A 
ATOM     44  C   UNL A   1      45.198  27.397  27.184  1.00  0.00     0.074 A 
ATOM     45  C   UNL A   1      43.097  26.218  27.819  1.00  0.00     0.049 A 
ATOM     46  N   UNL A   1      45.962  27.729  28.168  1.00  0.00    -0.248 NA
ATOM     47  C   UNL A   1      45.457  28.119  25.932  1.00  0.00     0.031 C 
ATOM     48  C   UNL A   1      41.987  25.277  27.651  1.00  0.00     0.029 A 
ATOM     49  N   UNL A   1      42.642  27.075  28.771  1.00  0.00    -0.354 N 
ATOM     50  C   UNL A   1      46.676  28.831  27.721  1.00  0.00     0.074 A 
ATOM     51  C   UNL A   1      46.454  28.924  26.301  1.00  0.00     0.031 C 
ATOM     52  C   UNL A   1      40.903  25.753  28.308  1.00  0.00     0.029 A 
ATOM     53  C   UNL A   1      41.293  26.940  29.054  1.00  0.00     0.049 A 
ATOM     54  H   UNL A   1      43.220  27.735  29.218  1.00  0.00     0.167 HD
ATOM     55  C   UNL A   1      47.168  29.732  28.607  1.00  0.00     0.037 A 
ATOM     56  C   UNL A   1      40.553  27.800  29.792  1.00  0.00     0.037 A 
ATOM     57  C   UNL A   1      47.188  29.198  29.944  1.00  0.00     0.049 A 
ATOM     58  C   UNL A   1      41.484  28.551  30.668  1.00  0.00     0.074 A 
ATOM     59  C   UNL A   1      47.926  28.253  30.624  1.00  0.00     0.029 A 
ATOM     60  N   UNL A   1      46.047  29.418  30.669  1.00  0.00    -0.354 N 
ATOM     61  N   UNL A   1      42.151  28.013  31.651  1.00  0.00    -0.248 NA
ATOM     62  C   UNL A   1      41.963  29.861  30.239  1.00  0.00     0.031 C 
ATOM     63  C   UNL A   1      47.058  27.730  31.629  1.00  0.00     0.029 A 
ATOM     64  C   UNL A   1      45.830  28.389  31.544  1.00  0.00     0.049 A 
ATOM     65  H   UNL A   1      45.465  30.206  30.574  1.00  0.00     0.167 HD
ATOM     66  C   UNL A   1      43.357  28.691  31.667  1.00  0.00     0.074 A 
ATOM     67  C   UNL A   1      43.114  29.914  30.914  1.00  0.00     0.031 C 
ATOM     68  C   UNL A   1      44.507  28.051  32.027  1.00  0.00     0.037 A 
BRANCH  55  69
ATOM     69  C   UNL A   1      47.164  31.217  28.356  1.00  0.00     0.064 A 
ATOM     70  C   UNL A   1      48.338  31.955  28.593  1.00  0.00     0.173 A 
ATOM     71  C   UNL A   1      45.981  31.975  28.209  1.00  0.00     0.173 A 
ATOM     72  F   UNL A   1      49.508  31.329  28.790  1.00  0.00    -0.203 F 
ATOM     73  C   UNL A   1      48.315  33.345  28.724  1.00  0.00     0.198 A 
ATOM     74  C   UNL A   1      45.972  33.364  28.284  1.00  0.00     0.198 A 
ATOM     75  F   UNL A   1      44.775  31.402  28.112  1.00  0.00    -0.203 F 
ATOM     76  F   UNL A   1      49.433  33.999  29.068  1.00  0.00    -0.200 F 
ATOM     77  C   UNL A   1      47.134  34.048  28.570  1.00  0.00     0.200 A 
ATOM     78  F   UNL A   1      44.810  34.022  28.164  1.00  0.00    -0.200 F 
ATOM     79  F   UNL A   1      47.100  35.375  28.751  1.00  0.00    -0.200 F 
ENDBRANCH  55  69
BRANCH  56  80
ATOM     80  C   UNL A   1      39.159  28.236  29.546  1.00  0.00     0.064 A 
ATOM     81  C   UNL A   1      38.266  28.427  30.613  1.00  0.00     0.173 A 
ATOM     82  C   UNL A   1      38.765  28.755  28.297  1.00  0.00     0.173 A 
ATOM     83  F   UNL A   1      38.586  28.000  31.843  1.00  0.00    -0.203 F 
ATOM     84  C   UNL A   1      37.068  29.129  30.448  1.00  0.00     0.198 A 
ATOM     85  C   UNL A   1      37.566  29.448  28.133  1.00  0.00     0.198 A 
ATOM     86  F   UNL A   1      39.580  28.690  27.234  1.00  0.00    -0.203 F 
ATOM     87  F   UNL A   1      36.275  29.355  31.505  1.00  0.00    -0.200 F 
ATOM     88  C   UNL A   1      36.726  29.650  29.211  1.00  0.00     0.200 A 
ATOM     89  F   UNL A   1      37.265  29.978  26.939  1.00  0.00    -0.200 F 
ATOM     90  F   UNL A   1      35.613  30.382  29.067  1.00  0.00    -0.200 F 
ENDBRANCH  56  80
BRANCH  68  91
ATOM     91  C   UNL A   1      44.364  26.800  32.841  1.00  0.00     0.064 A 
ATOM     92  C   UNL A   1      44.317  25.502  32.305  1.00  0.00     0.173 A 
ATOM     93  C   UNL A   1      44.352  26.925  34.238  1.00  0.00     0.173 A 
ATOM     94  F   UNL A   1      44.414  25.296  30.986  1.00  0.00    -0.203 F 
ATOM     95  C   UNL A   1      44.211  24.386  33.135  1.00  0.00     0.198 A 
ATOM     96  C   UNL A   1      44.287  25.807  35.064  1.00  0.00     0.198 A 
ATOM     97  F   UNL A   1      44.441  28.138  34.805  1.00  0.00    -0.203 F 
ATOM     98  F   UNL A   1      44.139  23.157  32.602  1.00  0.00    -0.200 F 
ATOM     99  C   UNL A   1      44.203  24.540  34.512  1.00  0.00     0.200 A 
ATOM    100  F   UNL A   1      44.326  25.960  36.394  1.00  0.00    -0.200 F 
ATOM    101  F   UNL A   1      44.134  23.465  35.310  1.00  0.00    -0.200 F 
ENDBRANCH  68  91
ENDBRANCH  42  43
ENDBRANCH  35  37
ENDBRANCH  34  35
ENDBRANCH  33  34
ENDBRANCH  32  33
ENDBRANCH  31  32
ENDBRANCH  30  31
ENDBRANCH  29  30
ENDBRANCH   1  29
TORSDOF 22
ENDMDL
MODEL 3
REMARK VINA RESULT:     -11.3      3.798      9.480
REMARK SMILES C[N@H+]1CCN(C(=O)c2cnn3c2CCCC3)C[C@@H]1C(=O)OCCOCCOCCOCCOC(=O)c1ccc(-c2c3nc(c(-c4c(F)c(F)c(F)c(F)c4F)c4ccc([nH]4)c(-c4c(F)c(F)c(F)c(F)c4F)c4nc(c(-c5c(F)c(F)c(F)c(F)c5F)c5ccc2[nH]5)C=C4)C=C3)cc1
REMARK SMILES IDX 27 1 26 2 25 3 24 4 23 5 22 6 21 7 19 8 20 9 18 10 1 11 2 12
REMARK SMILES IDX 3 13 4 15 17 16 5 17 6 18 7 19 8 20 9 21 12 22 10 23 11 24
REMARK SMILES IDX 13 25 16 26 14 27 15 28 28 29 29 30 30 31 31 32 32 33 33 34
REMARK SMILES IDX 34 35 35 36 36 37 37 38 98 39 38 40 97 41 39 42 40 43 41 44
REMARK SMILES IDX 91 45 42 46 96 47 90 48 92 49 43 50 95 51 89 52 88 53 44 55
REMARK SMILES IDX 76 56 56 57 75 58 57 59 60 60 74 61 93 62 58 63 59 64 73 66
REMARK SMILES IDX 94 67 61 68 45 69 46 70 54 71 47 72 48 73 52 74 55 75 49 76
REMARK SMILES IDX 50 77 53 78 51 79 77 80 78 81 86 82 79 83 80 84 84 85 87 86
REMARK SMILES IDX 81 87 82 88 85 89 83 90 62 91 63 92 71 93 64 94 65 95 69 96
REMARK SMILES IDX 72 97 66 98 67 99 70 100 68 101
REMARK H PARENT 2 14 92 54 60 65
REMARK Flexibility Score: inf
ROOT
ATOM      1  O   UNL A   1      32.928  31.203  27.082  1.00  0.00    -0.377 OA
ENDROOT
BRANCH   1   2
ATOM      2  C   UNL A   1      32.763  30.103  26.202  1.00  0.00     0.188 C 
BRANCH   2   3
ATOM      3  C   UNL A   1      31.762  29.020  26.684  1.00  0.00     0.188 C 
BRANCH   3   4
ATOM      4  O   UNL A   1      31.875  27.671  26.243  1.00  0.00    -0.376 OA
BRANCH   4   5
ATOM      5  C   UNL A   1      33.111  27.003  26.415  1.00  0.00     0.202 C 
BRANCH   5   6
ATOM      6  C   UNL A   1      33.767  26.360  25.181  1.00  0.00     0.261 C 
BRANCH   6   7
ATOM      7  O   UNL A   1      32.899  26.164  24.044  1.00  0.00    -0.459 OA
BRANCH   7   8
ATOM      8  C   UNL A   1      32.658  24.886  23.661  1.00  0.00     0.366 C 
ATOM      9  O   UNL A   1      33.495  24.204  23.077  1.00  0.00    -0.245 OA
BRANCH   8  10
ATOM     10  C   UNL A   1      31.224  24.365  23.940  1.00  0.00     0.314 C 
ATOM     11  C   UNL A   1      29.536  26.221  23.972  1.00  0.00     0.333 C 
ATOM     12  N   UNL A   1      30.348  25.275  24.707  1.00  0.00    -0.323 N 
ATOM     13  C   UNL A   1      29.930  24.977  26.074  1.00  0.00     0.284 C 
ATOM     14  H   UNL A   1      31.167  25.808  24.999  1.00  0.00     0.348 HD
ATOM     15  C   UNL A   1      30.369  23.646  26.708  1.00  0.00     0.181 C 
ATOM     16  C   UNL A   1      31.365  22.963  24.585  1.00  0.00     0.197 C 
ATOM     17  N   UNL A   1      31.510  23.044  26.042  1.00  0.00    -0.326 N 
BRANCH  17  18
ATOM     18  C   UNL A   1      32.546  22.519  26.809  1.00  0.00     0.257 C 
ATOM     19  O   UNL A   1      32.583  22.643  28.031  1.00  0.00    -0.269 OA
BRANCH  18  20
ATOM     20  C   UNL A   1      33.535  21.711  26.127  1.00  0.00     0.081 A 
ATOM     21  C   UNL A   1      33.431  20.419  25.567  1.00  0.00     0.149 A 
ATOM     22  C   UNL A   1      34.821  22.113  25.813  1.00  0.00     0.051 A 
ATOM     23  N   UNL A   1      34.583  19.996  25.029  1.00  0.00    -0.180 NA
ATOM     24  N   UNL A   1      35.405  21.041  25.199  1.00  0.00    -0.269 N 
ATOM     25  C   UNL A   1      35.534  23.406  25.989  1.00  0.00     0.057 C 
ATOM     26  C   UNL A   1      36.799  20.966  24.807  1.00  0.00     0.144 C 
ATOM     27  C   UNL A   1      37.049  23.250  25.841  1.00  0.00     0.008 C 
ATOM     28  C   UNL A   1      37.407  22.360  24.646  1.00  0.00     0.024 C 
ENDBRANCH  18  20
ENDBRANCH  17  18
ENDBRANCH   8  10
ENDBRANCH   7   8
ENDBRANCH   6   7
ENDBRANCH   5   6
ENDBRANCH   4   5
ENDBRANCH   3   4
ENDBRANCH   2   3
ENDBRANCH   1   2
BRANCH   1  29
ATOM     29  C   UNL A   1      34.170  31.274  27.759  1.00  0.00     0.188 C 
BRANCH  29  30
ATOM     30  C   UNL A   1      34.344  32.442  28.747  1.00  0.00     0.188 C 
BRANCH  30  31
ATOM     31  O   UNL A   1      35.021  33.566  28.194  1.00  0.00    -0.376 OA
BRANCH  31  32
ATOM     32  C   UNL A   1      34.430  34.852  28.227  1.00  0.00     0.202 C 
BRANCH  32  33
ATOM     33  C   UNL A   1      33.508  35.144  29.410  1.00  0.00     0.261 C 
BRANCH  33  34
ATOM     34  O   UNL A   1      34.169  35.528  30.603  1.00  0.00    -0.460 OA
BRANCH  34  35
ATOM     35  C   UNL A   1      33.704  34.959  31.717  1.00  0.00     0.338 C 
ATOM     36  O   UNL A   1      32.600  35.149  32.249  1.00  0.00    -0.246 OA
BRANCH  35  37
ATOM     37  C   UNL A   1      34.758  34.152  32.317  1.00  0.00     0.060 A 
ATOM     38  C   UNL A   1      36.011  34.749  32.422  1.00  0.00     0.016 A 
ATOM     39  C   UNL A   1      34.569  32.763  32.445  1.00  0.00     0.016 A 
ATOM     40  C   UNL A   1      37.106  33.928  32.375  1.00  0.00     0.010 A 
ATOM     41  C   UNL A   1      35.670  31.944  32.397  1.00  0.00     0.010 A 
ATOM     42  C   UNL A   1      36.913  32.544  32.254  1.00  0.00    -0.014 A 
BRANCH  42  43
ATOM     43  C   UNL A   1      38.091  31.754  31.991  1.00  0.00     0.031 A 
ATOM     44  C   UNL A   1      38.905  31.540  33.197  1.00  0.00     0.074 A 
ATOM     45  C   UNL A   1      38.414  31.308  30.765  1.00  0.00     0.049 A 
ATOM     46  N   UNL A   1      40.029  32.104  33.479  1.00  0.00    -0.248 NA
ATOM     47  C   UNL A   1      38.314  30.761  34.291  1.00  0.00     0.031 C 
ATOM     48  C   UNL A   1      37.569  31.242  29.570  1.00  0.00     0.029 A 
ATOM     49  N   UNL A   1      39.579  30.738  30.357  1.00  0.00    -0.354 N 
ATOM     50  C   UNL A   1      40.386  31.604  34.723  1.00  0.00     0.074 A 
ATOM     51  C   UNL A   1      39.230  30.922  35.246  1.00  0.00     0.031 C 
ATOM     52  C   UNL A   1      38.174  30.460  28.645  1.00  0.00     0.029 A 
ATOM     53  C   UNL A   1      39.498  30.104  29.129  1.00  0.00     0.049 A 
ATOM     54  H   UNL A   1      40.408  30.772  30.889  1.00  0.00     0.167 HD
ATOM     55  C   UNL A   1      41.690  31.562  35.094  1.00  0.00     0.037 A 
ATOM     56  C   UNL A   1      40.438  29.285  28.602  1.00  0.00     0.037 A 
ATOM     57  C   UNL A   1      42.503  32.407  34.259  1.00  0.00     0.049 A 
ATOM     58  C   UNL A   1      41.731  29.615  29.250  1.00  0.00     0.074 A 
ATOM     59  C   UNL A   1      42.681  33.763  34.095  1.00  0.00     0.029 A 
ATOM     60  N   UNL A   1      43.014  31.795  33.145  1.00  0.00    -0.354 N 
ATOM     61  N   UNL A   1      42.366  30.740  29.073  1.00  0.00    -0.248 NA
ATOM     62  C   UNL A   1      42.173  28.828  30.396  1.00  0.00     0.031 C 
ATOM     63  C   UNL A   1      43.069  33.944  32.734  1.00  0.00     0.029 A 
ATOM     64  C   UNL A   1      43.137  32.692  32.120  1.00  0.00     0.049 A 
ATOM     65  H   UNL A   1      43.260  30.843  33.091  1.00  0.00     0.167 HD
ATOM     66  C   UNL A   1      42.962  31.001  30.294  1.00  0.00     0.074 A 
ATOM     67  C   UNL A   1      42.962  29.725  30.996  1.00  0.00     0.031 C 
ATOM     68  C   UNL A   1      43.116  32.285  30.730  1.00  0.00     0.037 A 
BRANCH  55  69
ATOM     69  C   UNL A   1      42.287  30.414  35.865  1.00  0.00     0.064 A 
ATOM     70  C   UNL A   1      43.178  30.686  36.919  1.00  0.00     0.173 A 
ATOM     71  C   UNL A   1      42.271  29.079  35.404  1.00  0.00     0.173 A 
ATOM     72  F   UNL A   1      43.301  31.932  37.402  1.00  0.00    -0.203 F 
ATOM     73  C   UNL A   1      44.026  29.703  37.435  1.00  0.00     0.198 A 
ATOM     74  C   UNL A   1      43.077  28.089  35.958  1.00  0.00     0.198 A 
ATOM     75  F   UNL A   1      41.574  28.706  34.324  1.00  0.00    -0.203 F 
ATOM     76  F   UNL A   1      44.943  30.032  38.355  1.00  0.00    -0.200 F 
ATOM     77  C   UNL A   1      43.976  28.407  36.954  1.00  0.00     0.200 A 
ATOM     78  F   UNL A   1      43.035  26.848  35.455  1.00  0.00    -0.200 F 
ATOM     79  F   UNL A   1      44.826  27.477  37.408  1.00  0.00    -0.200 F 
ENDBRANCH  55  69
BRANCH  56  80
ATOM     80  C   UNL A   1      40.224  28.035  27.836  1.00  0.00     0.064 A 
ATOM     81  C   UNL A   1      40.942  27.783  26.656  1.00  0.00     0.173 A 
ATOM     82  C   UNL A   1      39.535  26.943  28.398  1.00  0.00     0.173 A 
ATOM     83  F   UNL A   1      41.659  28.760  26.082  1.00  0.00    -0.203 F 
ATOM     84  C   UNL A   1      40.999  26.504  26.094  1.00  0.00     0.198 A 
ATOM     85  C   UNL A   1      39.586  25.670  27.831  1.00  0.00     0.198 A 
ATOM     86  F   UNL A   1      38.882  27.063  29.562  1.00  0.00    -0.203 F 
ATOM     87  F   UNL A   1      41.754  26.285  25.008  1.00  0.00    -0.200 F 
ATOM     88  C   UNL A   1      40.332  25.446  26.689  1.00  0.00     0.200 A 
ATOM     89  F   UNL A   1      38.965  24.648  28.437  1.00  0.00    -0.200 F 
ATOM     90  F   UNL A   1      40.442  24.208  26.190  1.00  0.00    -0.200 F 
ENDBRANCH  56  80
BRANCH  68  91
ATOM     91  C   UNL A   1      43.081  33.366  29.691  1.00  0.00     0.064 A 
ATOM     92  C   UNL A   1      44.149  33.683  28.835  1.00  0.00     0.173 A 
ATOM     93  C   UNL A   1      41.876  34.058  29.507  1.00  0.00     0.173 A 
ATOM     94  F   UNL A   1      45.303  33.005  28.889  1.00  0.00    -0.203 F 
ATOM     95  C   UNL A   1      44.026  34.686  27.874  1.00  0.00     0.198 A 
ATOM     96  C   UNL A   1      41.743  35.030  28.520  1.00  0.00     0.198 A 
ATOM     97  F   UNL A   1      40.809  33.764  30.266  1.00  0.00    -0.203 F 
ATOM     98  F   UNL A   1      45.066  34.993  27.085  1.00  0.00    -0.200 F 
ATOM     99  C   UNL A   1      42.822  35.353  27.714  1.00  0.00     0.200 A 
ATOM    100  F   UNL A   1      40.563  35.639  28.341  1.00  0.00    -0.200 F 
ATOM    101  F   UNL A   1      42.693  36.295  26.768  1.00  0.00    -0.200 F 
ENDBRANCH  68  91
ENDBRANCH  42  43
ENDBRANCH  35  37
ENDBRANCH  34  35
ENDBRANCH  33  34
ENDBRANCH  32  33
ENDBRANCH  31  32
ENDBRANCH  30  31
ENDBRANCH  29  30
ENDBRANCH   1  29
TORSDOF 22
ENDMDL
