MODEL 1
REMARK VINA RESULT:     -10.6      0.000      0.000
REMARK SMILES O=C(OCCOCCOCCOCCOC(=O)[C@@H]1C[NH2+]C[C@H](c2ccc(F)cc2)C1)c1ccc(-c2c3nc(c(-c4c(F)c(F)c(F)c(F)c4F)c4ccc([nH]4)c(-c4c(F)c(F)c(F)c(F)c4F)c4nc(c(-c5c(F)c(F)c(F)c(F)c5F)c5ccc2[nH]5)C=C4)C=C3)cc1
REMARK SMILES IDX 8 1 7 2 6 3 5 4 4 5 3 6 2 7 1 8 31 9 32 10 93 11 33 12 92 13
REMARK SMILES IDX 34 14 35 15 36 16 86 17 37 18 91 19 85 20 87 21 38 22 90 23
REMARK SMILES IDX 84 24 83 25 39 27 71 28 51 29 70 30 52 31 55 32 69 33 88 34
REMARK SMILES IDX 53 35 54 36 68 38 89 39 56 40 40 41 41 42 49 43 42 44 43 45
REMARK SMILES IDX 47 46 50 47 44 48 45 49 48 50 46 51 72 52 73 53 81 54 74 55
REMARK SMILES IDX 75 56 79 57 82 58 76 59 77 60 80 61 78 62 57 63 58 64 66 65
REMARK SMILES IDX 59 66 60 67 64 68 67 69 61 70 62 71 65 72 63 73 9 74 10 75
REMARK SMILES IDX 11 76 12 77 13 78 14 79 15 80 16 81 17 82 18 83 19 84 30 85
REMARK SMILES IDX 20 86 22 87 21 88 23 91 24 92 29 93 25 94 28 95 26 96 27 97
REMARK H PARENT 87 26 55 37 20 89 20 90
REMARK Flexibility Score: inf
ROOT
ATOM      1  C   UNL A   1      33.326  28.903  26.956  1.00  0.00     0.188 C 
ENDROOT
BRANCH   1   2
ATOM      2  C   UNL A   1      31.913  29.445  27.142  1.00  0.00     0.188 C 
BRANCH   2   3
ATOM      3  O   UNL A   1      31.705  30.568  26.292  1.00  0.00    -0.376 OA
BRANCH   3   4
ATOM      4  C   UNL A   1      31.362  31.812  26.901  1.00  0.00     0.202 C 
BRANCH   4   5
ATOM      5  C   UNL A   1      32.430  32.901  26.844  1.00  0.00     0.261 C 
BRANCH   5   6
ATOM      6  O   UNL A   1      32.218  34.016  27.725  1.00  0.00    -0.460 OA
BRANCH   6   7
ATOM      7  C   UNL A   1      33.019  34.561  28.669  1.00  0.00     0.338 C 
ATOM      8  O   UNL A   1      32.773  35.703  29.055  1.00  0.00    -0.246 OA
BRANCH   7   9
ATOM      9  C   UNL A   1      34.203  33.880  29.266  1.00  0.00     0.060 A 
ATOM     10  C   UNL A   1      34.148  32.760  30.085  1.00  0.00     0.016 A 
ATOM     11  C   UNL A   1      35.475  34.334  28.882  1.00  0.00     0.016 A 
ATOM     12  C   UNL A   1      35.272  32.140  30.578  1.00  0.00     0.010 A 
ATOM     13  C   UNL A   1      36.633  33.700  29.347  1.00  0.00     0.010 A 
ATOM     14  C   UNL A   1      36.521  32.611  30.217  1.00  0.00    -0.014 A 
BRANCH  14  15
ATOM     15  C   UNL A   1      37.652  32.041  30.952  1.00  0.00     0.031 A 
ATOM     16  C   UNL A   1      38.502  31.053  30.221  1.00  0.00     0.074 A 
ATOM     17  C   UNL A   1      38.016  32.576  32.131  1.00  0.00     0.049 A 
ATOM     18  N   UNL A   1      39.509  30.352  30.655  1.00  0.00    -0.248 NA
ATOM     19  C   UNL A   1      38.191  30.842  28.792  1.00  0.00     0.031 C 
ATOM     20  C   UNL A   1      37.347  33.707  32.786  1.00  0.00     0.029 A 
ATOM     21  N   UNL A   1      39.058  32.280  32.963  1.00  0.00    -0.354 N 
ATOM     22  C   UNL A   1      39.915  29.585  29.574  1.00  0.00     0.074 A 
ATOM     23  C   UNL A   1      39.066  29.910  28.454  1.00  0.00     0.031 C 
ATOM     24  C   UNL A   1      38.007  34.013  33.914  1.00  0.00     0.029 A 
ATOM     25  C   UNL A   1      39.077  33.042  34.106  1.00  0.00     0.049 A 
ATOM     26  H   UNL A   1      39.729  31.588  32.763  1.00  0.00     0.167 HD
ATOM     27  C   UNL A   1      40.912  28.678  29.549  1.00  0.00     0.037 A 
ATOM     28  C   UNL A   1      39.843  32.911  35.203  1.00  0.00     0.037 A 
ATOM     29  C   UNL A   1      41.741  28.414  30.691  1.00  0.00     0.049 A 
ATOM     30  C   UNL A   1      40.856  31.796  35.199  1.00  0.00     0.074 A 
ATOM     31  C   UNL A   1      42.732  27.467  30.838  1.00  0.00     0.029 A 
ATOM     32  N   UNL A   1      41.667  29.122  31.884  1.00  0.00    -0.354 N 
ATOM     33  N   UNL A   1      41.170  30.975  34.223  1.00  0.00    -0.248 NA
ATOM     34  C   UNL A   1      41.600  31.567  36.441  1.00  0.00     0.031 C 
ATOM     35  C   UNL A   1      43.222  27.566  32.143  1.00  0.00     0.029 A 
ATOM     36  C   UNL A   1      42.580  28.617  32.787  1.00  0.00     0.049 A 
ATOM     37  H   UNL A   1      41.054  29.872  32.060  1.00  0.00     0.167 HD
ATOM     38  C   UNL A   1      42.155  30.140  34.726  1.00  0.00     0.074 A 
ATOM     39  C   UNL A   1      42.402  30.571  36.089  1.00  0.00     0.031 C 
ATOM     40  C   UNL A   1      42.792  29.104  34.128  1.00  0.00     0.037 A 
BRANCH  27  41
ATOM     41  C   UNL A   1      41.093  27.869  28.304  1.00  0.00     0.064 A 
ATOM     42  C   UNL A   1      40.367  26.680  28.136  1.00  0.00     0.173 A 
ATOM     43  C   UNL A   1      41.985  28.242  27.291  1.00  0.00     0.173 A 
ATOM     44  F   UNL A   1      39.482  26.291  29.068  1.00  0.00    -0.203 F 
ATOM     45  C   UNL A   1      40.548  25.880  27.012  1.00  0.00     0.198 A 
ATOM     46  C   UNL A   1      42.148  27.451  26.155  1.00  0.00     0.198 A 
ATOM     47  F   UNL A   1      42.672  29.391  27.384  1.00  0.00    -0.203 F 
ATOM     48  F   UNL A   1      39.862  24.735  26.888  1.00  0.00    -0.200 F 
ATOM     49  C   UNL A   1      41.439  26.266  26.023  1.00  0.00     0.200 A 
ATOM     50  F   UNL A   1      42.982  27.842  25.181  1.00  0.00    -0.200 F 
ATOM     51  F   UNL A   1      41.609  25.498  24.937  1.00  0.00    -0.200 F 
ENDBRANCH  27  41
BRANCH  28  52
ATOM     52  C   UNL A   1      39.619  33.778  36.392  1.00  0.00     0.064 A 
ATOM     53  C   UNL A   1      38.791  33.363  37.451  1.00  0.00     0.173 A 
ATOM     54  C   UNL A   1      40.232  35.032  36.512  1.00  0.00     0.173 A 
ATOM     55  F   UNL A   1      38.180  32.169  37.400  1.00  0.00    -0.203 F 
ATOM     56  C   UNL A   1      38.570  34.172  38.563  1.00  0.00     0.198 A 
ATOM     57  C   UNL A   1      40.039  35.827  37.642  1.00  0.00     0.198 A 
ATOM     58  F   UNL A   1      41.049  35.472  35.544  1.00  0.00    -0.203 F 
ATOM     59  F   UNL A   1      37.747  33.760  39.537  1.00  0.00    -0.200 F 
ATOM     60  C   UNL A   1      39.202  35.400  38.663  1.00  0.00     0.200 A 
ATOM     61  F   UNL A   1      40.676  37.001  37.749  1.00  0.00    -0.200 F 
ATOM     62  F   UNL A   1      39.015  36.166  39.746  1.00  0.00    -0.200 F 
ENDBRANCH  28  52
BRANCH  40  63
ATOM     63  C   UNL A   1      43.832  28.388  34.931  1.00  0.00     0.064 A 
ATOM     64  C   UNL A   1      45.179  28.770  34.837  1.00  0.00     0.173 A 
ATOM     65  C   UNL A   1      43.511  27.257  35.693  1.00  0.00     0.173 A 
ATOM     66  F   UNL A   1      45.529  29.839  34.105  1.00  0.00    -0.203 F 
ATOM     67  C   UNL A   1      46.173  28.022  35.455  1.00  0.00     0.198 A 
ATOM     68  C   UNL A   1      44.507  26.533  36.339  1.00  0.00     0.198 A 
ATOM     69  F   UNL A   1      42.234  26.866  35.818  1.00  0.00    -0.203 F 
ATOM     70  F   UNL A   1      47.459  28.370  35.305  1.00  0.00    -0.200 F 
ATOM     71  C   UNL A   1      45.837  26.907  36.207  1.00  0.00     0.200 A 
ATOM     72  F   UNL A   1      44.180  25.469  37.085  1.00  0.00    -0.200 F 
ATOM     73  F   UNL A   1      46.797  26.188  36.803  1.00  0.00    -0.200 F 
ENDBRANCH  40  63
ENDBRANCH  14  15
ENDBRANCH   7   9
ENDBRANCH   6   7
ENDBRANCH   5   6
ENDBRANCH   4   5
ENDBRANCH   3   4
ENDBRANCH   2   3
ENDBRANCH   1   2
BRANCH   1  74
ATOM     74  O   UNL A   1      33.452  27.765  26.113  1.00  0.00    -0.377 OA
BRANCH  74  75
ATOM     75  C   UNL A   1      33.656  28.016  24.734  1.00  0.00     0.188 C 
BRANCH  75  76
ATOM     76  C   UNL A   1      32.550  27.658  23.715  1.00  0.00     0.188 C 
BRANCH  76  77
ATOM     77  O   UNL A   1      31.207  28.006  23.993  1.00  0.00    -0.376 OA
BRANCH  77  78
ATOM     78  C   UNL A   1      30.237  27.020  24.332  1.00  0.00     0.202 C 
BRANCH  78  79
ATOM     79  C   UNL A   1      30.322  26.086  25.556  1.00  0.00     0.261 C 
BRANCH  79  80
ATOM     80  O   UNL A   1      30.883  24.807  25.274  1.00  0.00    -0.463 OA
BRANCH  80  81
ATOM     81  C   UNL A   1      31.345  24.024  26.299  1.00  0.00     0.314 C 
ATOM     82  O   UNL A   1      30.703  23.685  27.275  1.00  0.00    -0.252 OA
BRANCH  81  83
ATOM     83  C   UNL A   1      32.718  23.491  25.908  1.00  0.00     0.155 C 
ATOM     84  C   UNL A   1      33.531  24.307  24.924  1.00  0.00     0.275 C 
ATOM     85  C   UNL A   1      32.604  22.049  25.422  1.00  0.00     0.035 C 
ATOM     86  N   UNL A   1      34.867  23.696  24.794  1.00  0.00    -0.345 N 
ATOM     87  C   UNL A   1      33.969  21.371  25.246  1.00  0.00     0.075 C 
ATOM     88  C   UNL A   1      34.819  22.293  24.334  1.00  0.00     0.268 C 
ATOM     89  H   UNL A   1      35.327  23.724  25.704  1.00  0.00     0.346 HD
ATOM     90  H   UNL A   1      35.380  24.230  24.092  1.00  0.00     0.346 HD
BRANCH  87  91
ATOM     91  C   UNL A   1      33.821  19.915  24.775  1.00  0.00    -0.039 A 
ATOM     92  C   UNL A   1      32.588  19.419  24.324  1.00  0.00     0.007 A 
ATOM     93  C   UNL A   1      34.931  19.041  24.706  1.00  0.00     0.007 A 
ATOM     94  C   UNL A   1      32.457  18.087  23.906  1.00  0.00     0.039 A 
ATOM     95  C   UNL A   1      34.803  17.714  24.294  1.00  0.00     0.039 A 
ATOM     96  C   UNL A   1      33.560  17.245  23.910  1.00  0.00     0.123 A 
ATOM     97  F   UNL A   1      33.427  15.968  23.529  1.00  0.00    -0.207 F 
ENDBRANCH  87  91
ENDBRANCH  81  83
ENDBRANCH  80  81
ENDBRANCH  79  80
ENDBRANCH  78  79
ENDBRANCH  77  78
ENDBRANCH  76  77
ENDBRANCH  75  76
ENDBRANCH  74  75
ENDBRANCH   1  74
TORSDOF 21
ENDMDL
MODEL 2
REMARK VINA RESULT:     -10.4      0.702      7.367
REMARK SMILES O=C(OCCOCCOCCOCCOC(=O)[C@@H]1C[NH2+]C[C@H](c2ccc(F)cc2)C1)c1ccc(-c2c3nc(c(-c4c(F)c(F)c(F)c(F)c4F)c4ccc([nH]4)c(-c4c(F)c(F)c(F)c(F)c4F)c4nc(c(-c5c(F)c(F)c(F)c(F)c5F)c5ccc2[nH]5)C=C4)C=C3)cc1
REMARK SMILES IDX 8 1 7 2 6 3 5 4 4 5 3 6 2 7 1 8 31 9 32 10 93 11 33 12 92 13
REMARK SMILES IDX 34 14 35 15 36 16 86 17 37 18 91 19 85 20 87 21 38 22 90 23
REMARK SMILES IDX 84 24 83 25 39 27 71 28 51 29 70 30 52 31 55 32 69 33 88 34
REMARK SMILES IDX 53 35 54 36 68 38 89 39 56 40 40 41 41 42 49 43 42 44 43 45
REMARK SMILES IDX 47 46 50 47 44 48 45 49 48 50 46 51 72 52 73 53 81 54 74 55
REMARK SMILES IDX 75 56 79 57 82 58 76 59 77 60 80 61 78 62 57 63 58 64 66 65
REMARK SMILES IDX 59 66 60 67 64 68 67 69 61 70 62 71 65 72 63 73 9 74 10 75
REMARK SMILES IDX 11 76 12 77 13 78 14 79 15 80 16 81 17 82 18 83 19 84 30 85
REMARK SMILES IDX 20 86 22 87 21 88 23 91 24 92 29 93 25 94 28 95 26 96 27 97
REMARK H PARENT 87 26 55 37 20 89 20 90
REMARK Flexibility Score: inf
ROOT
ATOM      1  C   UNL A   1      33.163  29.408  27.044  1.00  0.00     0.188 C 
ENDROOT
BRANCH   1   2
ATOM      2  C   UNL A   1      31.708  29.847  26.918  1.00  0.00     0.188 C 
BRANCH   2   3
ATOM      3  O   UNL A   1      31.617  31.004  26.092  1.00  0.00    -0.376 OA
BRANCH   3   4
ATOM      4  C   UNL A   1      31.342  32.253  26.722  1.00  0.00     0.202 C 
BRANCH   4   5
ATOM      5  C   UNL A   1      32.559  33.096  27.095  1.00  0.00     0.261 C 
BRANCH   5   6
ATOM      6  O   UNL A   1      32.278  34.272  27.871  1.00  0.00    -0.460 OA
BRANCH   6   7
ATOM      7  C   UNL A   1      32.986  34.871  28.856  1.00  0.00     0.338 C 
ATOM      8  O   UNL A   1      32.631  35.985  29.237  1.00  0.00    -0.246 OA
BRANCH   7   9
ATOM      9  C   UNL A   1      34.192  34.280  29.505  1.00  0.00     0.060 A 
ATOM     10  C   UNL A   1      35.488  34.381  29.018  1.00  0.00     0.016 A 
ATOM     11  C   UNL A   1      34.021  33.673  30.760  1.00  0.00     0.016 A 
ATOM     12  C   UNL A   1      36.576  33.855  29.676  1.00  0.00     0.010 A 
ATOM     13  C   UNL A   1      35.117  33.158  31.462  1.00  0.00     0.010 A 
ATOM     14  C   UNL A   1      36.395  33.234  30.898  1.00  0.00    -0.014 A 
BRANCH  14  15
ATOM     15  C   UNL A   1      37.556  32.515  31.423  1.00  0.00     0.031 A 
ATOM     16  C   UNL A   1      37.991  32.856  32.811  1.00  0.00     0.074 A 
ATOM     17  C   UNL A   1      38.031  31.446  30.759  1.00  0.00     0.049 A 
ATOM     18  N   UNL A   1      39.020  32.427  33.482  1.00  0.00    -0.248 NA
ATOM     19  C   UNL A   1      37.133  33.797  33.560  1.00  0.00     0.031 C 
ATOM     20  C   UNL A   1      37.488  30.927  29.497  1.00  0.00     0.029 A 
ATOM     21  N   UNL A   1      39.040  30.577  31.068  1.00  0.00    -0.354 N 
ATOM     22  C   UNL A   1      38.961  33.079  34.704  1.00  0.00     0.074 A 
ATOM     23  C   UNL A   1      37.791  33.923  34.701  1.00  0.00     0.031 C 
ATOM     24  C   UNL A   1      38.166  29.822  29.150  1.00  0.00     0.029 A 
ATOM     25  C   UNL A   1      39.245  29.617  30.107  1.00  0.00     0.049 A 
ATOM     26  H   UNL A   1      39.566  30.635  31.897  1.00  0.00     0.167 HD
ATOM     27  C   UNL A   1      39.836  32.975  35.725  1.00  0.00     0.037 A 
ATOM     28  C   UNL A   1      40.242  28.720  30.001  1.00  0.00     0.037 A 
ATOM     29  C   UNL A   1      40.971  32.099  35.679  1.00  0.00     0.049 A 
ATOM     30  C   UNL A   1      41.282  28.724  31.091  1.00  0.00     0.074 A 
ATOM     31  C   UNL A   1      41.986  31.951  36.601  1.00  0.00     0.029 A 
ATOM     32  N   UNL A   1      41.226  31.213  34.640  1.00  0.00    -0.354 N 
ATOM     33  N   UNL A   1      41.308  29.426  32.199  1.00  0.00    -0.248 NA
ATOM     34  C   UNL A   1      42.438  27.840  30.910  1.00  0.00     0.031 C 
ATOM     35  C   UNL A   1      42.886  31.011  36.093  1.00  0.00     0.029 A 
ATOM     36  C   UNL A   1      42.399  30.528  34.885  1.00  0.00     0.049 A 
ATOM     37  H   UNL A   1      40.656  31.092  33.846  1.00  0.00     0.167 HD
ATOM     38  C   UNL A   1      42.473  29.064  32.857  1.00  0.00     0.074 A 
ATOM     39  C   UNL A   1      43.115  28.060  32.029  1.00  0.00     0.031 C 
ATOM     40  C   UNL A   1      42.979  29.522  34.028  1.00  0.00     0.037 A 
BRANCH  27  41
ATOM     41  C   UNL A   1      39.645  33.874  36.905  1.00  0.00     0.064 A 
ATOM     42  C   UNL A   1      38.902  33.426  38.008  1.00  0.00     0.173 A 
ATOM     43  C   UNL A   1      40.167  35.174  36.949  1.00  0.00     0.173 A 
ATOM     44  F   UNL A   1      38.401  32.181  38.023  1.00  0.00    -0.203 F 
ATOM     45  C   UNL A   1      38.665  34.255  39.099  1.00  0.00     0.198 A 
ATOM     46  C   UNL A   1      39.948  35.994  38.054  1.00  0.00     0.198 A 
ATOM     47  F   UNL A   1      40.919  35.635  35.939  1.00  0.00    -0.203 F 
ATOM     48  F   UNL A   1      37.929  33.812  40.128  1.00  0.00    -0.200 F 
ATOM     49  C   UNL A   1      39.188  35.539  39.121  1.00  0.00     0.200 A 
ATOM     50  F   UNL A   1      40.483  37.222  38.092  1.00  0.00    -0.200 F 
ATOM     51  F   UNL A   1      38.964  36.335  40.176  1.00  0.00    -0.200 F 
ENDBRANCH  27  41
BRANCH  28  52
ATOM     52  C   UNL A   1      40.345  27.839  28.806  1.00  0.00     0.064 A 
ATOM     53  C   UNL A   1      41.080  28.231  27.673  1.00  0.00     0.173 A 
ATOM     54  C   UNL A   1      39.726  26.582  28.766  1.00  0.00     0.173 A 
ATOM     55  F   UNL A   1      41.701  29.420  27.651  1.00  0.00    -0.203 F 
ATOM     56  C   UNL A   1      41.173  27.415  26.547  1.00  0.00     0.198 A 
ATOM     57  C   UNL A   1      39.850  25.750  27.653  1.00  0.00     0.198 A 
ATOM     58  F   UNL A   1      39.029  26.146  29.824  1.00  0.00    -0.203 F 
ATOM     59  F   UNL A   1      41.852  27.835  25.472  1.00  0.00    -0.200 F 
ATOM     60  C   UNL A   1      40.566  26.170  26.541  1.00  0.00     0.200 A 
ATOM     61  F   UNL A   1      39.286  24.535  27.662  1.00  0.00    -0.200 F 
ATOM     62  F   UNL A   1      40.680  25.372  25.472  1.00  0.00    -0.200 F 
ENDBRANCH  28  52
BRANCH  40  63
ATOM     63  C   UNL A   1      44.268  28.923  34.495  1.00  0.00     0.064 A 
ATOM     64  C   UNL A   1      44.257  27.789  35.321  1.00  0.00     0.173 A 
ATOM     65  C   UNL A   1      45.496  29.540  34.224  1.00  0.00     0.173 A 
ATOM     66  F   UNL A   1      43.099  27.178  35.616  1.00  0.00    -0.203 F 
ATOM     67  C   UNL A   1      45.433  27.313  35.886  1.00  0.00     0.198 A 
ATOM     68  C   UNL A   1      46.674  29.037  34.764  1.00  0.00     0.198 A 
ATOM     69  F   UNL A   1      45.551  30.619  33.429  1.00  0.00    -0.203 F 
ATOM     70  F   UNL A   1      45.394  26.263  36.719  1.00  0.00    -0.200 F 
ATOM     71  C   UNL A   1      46.640  27.934  35.606  1.00  0.00     0.200 A 
ATOM     72  F   UNL A   1      47.844  29.624  34.474  1.00  0.00    -0.200 F 
ATOM     73  F   UNL A   1      47.773  27.472  36.151  1.00  0.00    -0.200 F 
ENDBRANCH  40  63
ENDBRANCH  14  15
ENDBRANCH   7   9
ENDBRANCH   6   7
ENDBRANCH   5   6
ENDBRANCH   4   5
ENDBRANCH   3   4
ENDBRANCH   2   3
ENDBRANCH   1   2
BRANCH   1  74
ATOM     74  O   UNL A   1      33.564  28.328  26.212  1.00  0.00    -0.377 OA
BRANCH  74  75
ATOM     75  C   UNL A   1      33.687  28.604  24.827  1.00  0.00     0.188 C 
BRANCH  75  76
ATOM     76  C   UNL A   1      32.712  27.947  23.823  1.00  0.00     0.188 C 
BRANCH  76  77
ATOM     77  O   UNL A   1      31.324  28.195  23.935  1.00  0.00    -0.376 OA
BRANCH  77  78
ATOM     78  C   UNL A   1      30.433  27.218  24.464  1.00  0.00     0.202 C 
BRANCH  78  79
ATOM     79  C   UNL A   1      30.731  26.326  25.687  1.00  0.00     0.261 C 
BRANCH  79  80
ATOM     80  O   UNL A   1      31.303  25.063  25.360  1.00  0.00    -0.463 OA
BRANCH  80  81
ATOM     81  C   UNL A   1      31.748  24.238  26.359  1.00  0.00     0.314 C 
ATOM     82  O   UNL A   1      31.109  23.908  27.340  1.00  0.00    -0.252 OA
BRANCH  81  83
ATOM     83  C   UNL A   1      33.086  23.651  25.929  1.00  0.00     0.155 C 
ATOM     84  C   UNL A   1      33.902  24.434  24.921  1.00  0.00     0.275 C 
ATOM     85  C   UNL A   1      32.901  22.214  25.447  1.00  0.00     0.035 C 
ATOM     86  N   UNL A   1      35.209  23.770  24.753  1.00  0.00    -0.345 N 
ATOM     87  C   UNL A   1      34.232  21.482  25.233  1.00  0.00     0.075 C 
ATOM     88  C   UNL A   1      35.091  22.370  24.297  1.00  0.00     0.268 C 
ATOM     89  H   UNL A   1      35.696  23.779  25.650  1.00  0.00     0.346 HD
ATOM     90  H   UNL A   1      35.722  24.283  24.037  1.00  0.00     0.346 HD
BRANCH  87  91
ATOM     91  C   UNL A   1      34.013  20.033  24.768  1.00  0.00    -0.039 A 
ATOM     92  C   UNL A   1      35.072  19.113  24.734  1.00  0.00     0.007 A 
ATOM     93  C   UNL A   1      32.728  19.549  24.427  1.00  0.00     0.007 A 
ATOM     94  C   UNL A   1      34.869  17.796  24.298  1.00  0.00     0.039 A 
ATOM     95  C   UNL A   1      32.524  18.241  23.988  1.00  0.00     0.039 A 
ATOM     96  C   UNL A   1      33.602  17.378  23.914  1.00  0.00     0.123 A 
ATOM     97  F   UNL A   1      33.414  16.125  23.479  1.00  0.00    -0.207 F 
ENDBRANCH  87  91
ENDBRANCH  81  83
ENDBRANCH  80  81
ENDBRANCH  79  80
ENDBRANCH  78  79
ENDBRANCH  77  78
ENDBRANCH  76  77
ENDBRANCH  75  76
ENDBRANCH  74  75
ENDBRANCH   1  74
TORSDOF 21
ENDMDL
MODEL 3
REMARK VINA RESULT:     -10.3      0.722      2.100
REMARK SMILES O=C(OCCOCCOCCOCCOC(=O)[C@@H]1C[NH2+]C[C@H](c2ccc(F)cc2)C1)c1ccc(-c2c3nc(c(-c4c(F)c(F)c(F)c(F)c4F)c4ccc([nH]4)c(-c4c(F)c(F)c(F)c(F)c4F)c4nc(c(-c5c(F)c(F)c(F)c(F)c5F)c5ccc2[nH]5)C=C4)C=C3)cc1
REMARK SMILES IDX 8 1 7 2 6 3 5 4 4 5 3 6 2 7 1 8 31 9 32 10 93 11 33 12 92 13
REMARK SMILES IDX 34 14 35 15 36 16 86 17 37 18 91 19 85 20 87 21 38 22 90 23
REMARK SMILES IDX 84 24 83 25 39 27 71 28 51 29 70 30 52 31 55 32 69 33 88 34
REMARK SMILES IDX 53 35 54 36 68 38 89 39 56 40 40 41 41 42 49 43 42 44 43 45
REMARK SMILES IDX 47 46 50 47 44 48 45 49 48 50 46 51 72 52 73 53 81 54 74 55
REMARK SMILES IDX 75 56 79 57 82 58 76 59 77 60 80 61 78 62 57 63 58 64 66 65
REMARK SMILES IDX 59 66 60 67 64 68 67 69 61 70 62 71 65 72 63 73 9 74 10 75
REMARK SMILES IDX 11 76 12 77 13 78 14 79 15 80 16 81 17 82 18 83 19 84 30 85
REMARK SMILES IDX 20 86 22 87 21 88 23 91 24 92 29 93 25 94 28 95 26 96 27 97
REMARK H PARENT 87 26 55 37 20 89 20 90
REMARK Flexibility Score: inf
ROOT
ATOM      1  C   UNL A   1      33.108  28.641  26.132  1.00  0.00     0.188 C 
ENDROOT
BRANCH   1   2
ATOM      2  C   UNL A   1      31.759  29.313  26.365  1.00  0.00     0.188 C 
BRANCH   2   3
ATOM      3  O   UNL A   1      31.732  30.587  25.730  1.00  0.00    -0.376 OA
BRANCH   3   4
ATOM      4  C   UNL A   1      31.443  31.728  26.537  1.00  0.00     0.202 C 
BRANCH   4   5
ATOM      5  C   UNL A   1      32.633  32.355  27.258  1.00  0.00     0.261 C 
BRANCH   5   6
ATOM      6  O   UNL A   1      32.455  33.722  27.663  1.00  0.00    -0.460 OA
BRANCH   6   7
ATOM      7  C   UNL A   1      33.111  34.463  28.586  1.00  0.00     0.338 C 
ATOM      8  O   UNL A   1      32.744  35.622  28.773  1.00  0.00    -0.246 OA
BRANCH   7   9
ATOM      9  C   UNL A   1      34.271  33.977  29.387  1.00  0.00     0.060 A 
ATOM     10  C   UNL A   1      35.601  34.285  29.130  1.00  0.00     0.016 A 
ATOM     11  C   UNL A   1      33.995  33.245  30.553  1.00  0.00     0.016 A 
ATOM     12  C   UNL A   1      36.635  33.847  29.923  1.00  0.00     0.010 A 
ATOM     13  C   UNL A   1      35.028  32.815  31.391  1.00  0.00     0.010 A 
ATOM     14  C   UNL A   1      36.355  33.103  31.055  1.00  0.00    -0.014 A 
BRANCH  14  15
ATOM     15  C   UNL A   1      37.510  32.495  31.717  1.00  0.00     0.031 A 
ATOM     16  C   UNL A   1      38.270  31.470  30.942  1.00  0.00     0.074 A 
ATOM     17  C   UNL A   1      37.974  33.026  32.863  1.00  0.00     0.049 A 
ATOM     18  N   UNL A   1      39.276  30.733  31.314  1.00  0.00    -0.248 NA
ATOM     19  C   UNL A   1      37.855  31.259  29.539  1.00  0.00     0.031 C 
ATOM     20  C   UNL A   1      37.395  34.188  33.550  1.00  0.00     0.029 A 
ATOM     21  N   UNL A   1      39.058  32.696  33.626  1.00  0.00    -0.354 N 
ATOM     22  C   UNL A   1      39.579  29.942  30.217  1.00  0.00     0.074 A 
ATOM     23  C   UNL A   1      38.669  30.291  29.153  1.00  0.00     0.031 C 
ATOM     24  C   UNL A   1      38.141  34.477  34.627  1.00  0.00     0.029 A 
ATOM     25  C   UNL A   1      39.183  33.466  34.757  1.00  0.00     0.049 A 
ATOM     26  H   UNL A   1      39.686  31.977  33.389  1.00  0.00     0.167 HD
ATOM     27  C   UNL A   1      40.537  28.996  30.135  1.00  0.00     0.037 A 
ATOM     28  C   UNL A   1      40.017  33.315  35.802  1.00  0.00     0.037 A 
ATOM     29  C   UNL A   1      41.430  28.709  31.221  1.00  0.00     0.049 A 
ATOM     30  C   UNL A   1      40.983  32.161  35.741  1.00  0.00     0.074 A 
ATOM     31  C   UNL A   1      42.391  27.726  31.311  1.00  0.00     0.029 A 
ATOM     32  N   UNL A   1      41.464  29.430  32.408  1.00  0.00    -0.354 N 
ATOM     33  N   UNL A   1      41.199  31.320  34.755  1.00  0.00    -0.248 NA
ATOM     34  C   UNL A   1      41.800  31.913  36.933  1.00  0.00     0.031 C 
ATOM     35  C   UNL A   1      42.972  27.816  32.579  1.00  0.00     0.029 A 
ATOM     36  C   UNL A   1      42.417  28.896  33.253  1.00  0.00     0.049 A 
ATOM     37  H   UNL A   1      40.893  30.205  32.617  1.00  0.00     0.167 HD
ATOM     38  C   UNL A   1      42.183  30.451  35.200  1.00  0.00     0.074 A 
ATOM     39  C   UNL A   1      42.537  30.884  36.538  1.00  0.00     0.031 C 
ATOM     40  C   UNL A   1      42.738  29.386  34.571  1.00  0.00     0.037 A 
BRANCH  27  41
ATOM     41  C   UNL A   1      40.601  28.170  28.889  1.00  0.00     0.064 A 
ATOM     42  C   UNL A   1      41.390  28.599  27.811  1.00  0.00     0.173 A 
ATOM     43  C   UNL A   1      39.879  26.978  28.743  1.00  0.00     0.173 A 
ATOM     44  F   UNL A   1      42.118  29.721  27.911  1.00  0.00    -0.203 F 
ATOM     45  C   UNL A   1      41.432  27.879  26.621  1.00  0.00     0.198 A 
ATOM     46  C   UNL A   1      39.941  26.247  27.558  1.00  0.00     0.198 A 
ATOM     47  F   UNL A   1      39.142  26.504  29.759  1.00  0.00    -0.203 F 
ATOM     48  F   UNL A   1      42.173  28.324  25.596  1.00  0.00    -0.200 F 
ATOM     49  C   UNL A   1      40.707  26.704  26.496  1.00  0.00     0.200 A 
ATOM     50  F   UNL A   1      39.270  25.092  27.449  1.00  0.00    -0.200 F 
ATOM     51  F   UNL A   1      40.753  26.007  25.351  1.00  0.00    -0.200 F 
ENDBRANCH  27  41
BRANCH  28  52
ATOM     52  C   UNL A   1      39.907  34.199  36.994  1.00  0.00     0.064 A 
ATOM     53  C   UNL A   1      40.631  35.403  37.077  1.00  0.00     0.173 A 
ATOM     54  C   UNL A   1      39.074  33.876  38.073  1.00  0.00     0.173 A 
ATOM     55  F   UNL A   1      41.441  35.772  36.074  1.00  0.00    -0.203 F 
ATOM     56  C   UNL A   1      40.540  36.231  38.193  1.00  0.00     0.198 A 
ATOM     57  C   UNL A   1      38.956  34.723  39.175  1.00  0.00     0.198 A 
ATOM     58  F   UNL A   1      38.345  32.751  38.041  1.00  0.00    -0.203 F 
ATOM     59  F   UNL A   1      41.269  37.353  38.255  1.00  0.00    -0.200 F 
ATOM     60  C   UNL A   1      39.694  35.896  39.238  1.00  0.00     0.200 A 
ATOM     61  F   UNL A   1      38.115  34.410  40.169  1.00  0.00    -0.200 F 
ATOM     62  F   UNL A   1      39.583  36.706  40.299  1.00  0.00    -0.200 F 
ENDBRANCH  28  52
BRANCH  40  63
ATOM     63  C   UNL A   1      43.801  28.637  35.310  1.00  0.00     0.064 A 
ATOM     64  C   UNL A   1      43.447  27.653  36.245  1.00  0.00     0.173 A 
ATOM     65  C   UNL A   1      45.154  28.976  35.179  1.00  0.00     0.173 A 
ATOM     66  F   UNL A   1      42.160  27.309  36.410  1.00  0.00    -0.203 F 
ATOM     67  C   UNL A   1      44.412  27.056  37.046  1.00  0.00     0.198 A 
ATOM     68  C   UNL A   1      46.119  28.350  35.959  1.00  0.00     0.198 A 
ATOM     69  F   UNL A   1      45.536  29.904  34.288  1.00  0.00    -0.203 F 
ATOM     70  F   UNL A   1      44.046  26.160  37.974  1.00  0.00    -0.200 F 
ATOM     71  C   UNL A   1      45.746  27.403  36.902  1.00  0.00     0.200 A 
ATOM     72  F   UNL A   1      47.412  28.668  35.803  1.00  0.00    -0.200 F 
ATOM     73  F   UNL A   1      46.675  26.826  37.676  1.00  0.00    -0.200 F 
ENDBRANCH  40  63
ENDBRANCH  14  15
ENDBRANCH   7   9
ENDBRANCH   6   7
ENDBRANCH   5   6
ENDBRANCH   4   5
ENDBRANCH   3   4
ENDBRANCH   2   3
ENDBRANCH   1   2
BRANCH   1  74
ATOM     74  O   UNL A   1      33.190  27.777  25.006  1.00  0.00    -0.377 OA
BRANCH  74  75
ATOM     75  C   UNL A   1      32.557  28.220  23.819  1.00  0.00     0.188 C 
BRANCH  75  76
ATOM     76  C   UNL A   1      31.645  27.254  23.027  1.00  0.00     0.188 C 
BRANCH  76  77
ATOM     77  O   UNL A   1      30.240  27.368  23.146  1.00  0.00    -0.376 OA
BRANCH  77  78
ATOM     78  C   UNL A   1      29.514  26.635  24.127  1.00  0.00     0.202 C 
BRANCH  78  79
ATOM     79  C   UNL A   1      30.137  25.989  25.382  1.00  0.00     0.261 C 
BRANCH  79  80
ATOM     80  O   UNL A   1      30.735  24.718  25.146  1.00  0.00    -0.463 OA
BRANCH  80  81
ATOM     81  C   UNL A   1      31.270  24.011  26.191  1.00  0.00     0.314 C 
ATOM     82  O   UNL A   1      30.683  23.704  27.211  1.00  0.00    -0.252 OA
BRANCH  81  83
ATOM     83  C   UNL A   1      32.644  23.507  25.768  1.00  0.00     0.155 C 
ATOM     84  C   UNL A   1      33.413  24.334  24.758  1.00  0.00     0.275 C 
ATOM     85  C   UNL A   1      32.552  22.058  25.295  1.00  0.00     0.035 C 
ATOM     86  N   UNL A   1      34.759  23.753  24.599  1.00  0.00    -0.345 N 
ATOM     87  C   UNL A   1      33.927  21.411  25.090  1.00  0.00     0.075 C 
ATOM     88  C   UNL A   1      34.732  22.346  24.151  1.00  0.00     0.268 C 
ATOM     89  H   UNL A   1      35.242  23.799  25.497  1.00  0.00     0.346 HD
ATOM     90  H   UNL A   1      35.242  24.293  23.880  1.00  0.00     0.346 HD
BRANCH  87  91
ATOM     91  C   UNL A   1      33.802  19.948  24.633  1.00  0.00    -0.039 A 
ATOM     92  C   UNL A   1      32.615  19.465  24.061  1.00  0.00     0.007 A 
ATOM     93  C   UNL A   1      34.895  19.053  24.701  1.00  0.00     0.007 A 
ATOM     94  C   UNL A   1      32.502  18.128  23.657  1.00  0.00     0.039 A 
ATOM     95  C   UNL A   1      34.785  17.721  24.302  1.00  0.00     0.039 A 
ATOM     96  C   UNL A   1      33.582  17.266  23.796  1.00  0.00     0.123 A 
ATOM     97  F   UNL A   1      33.465  15.984  23.426  1.00  0.00    -0.207 F 
ENDBRANCH  87  91
ENDBRANCH  81  83
ENDBRANCH  80  81
ENDBRANCH  79  80
ENDBRANCH  78  79
ENDBRANCH  77  78
ENDBRANCH  76  77
ENDBRANCH  75  76
ENDBRANCH  74  75
ENDBRANCH   1  74
TORSDOF 21
ENDMDL
