MODEL 1
REMARK VINA RESULT:     -11.0      0.000      0.000
REMARK SMILES CC1(C)Oc2ccc(NC(=O)[C@H]3CC=CC[C@@H]3C(=O)OCCOCCOCCOCCOC(=O)c3ccc(-c4c5nc(c(-c6c(F)c(F)c(F)c(F)c6F)c6ccc([nH]6)c(-c6c(F)c(F)c(F)c(F)c6F)c6nc(c(-c7c(F)c(F)c(F)c(F)c7F)c7ccc4[nH]7)C=C6)C=C5)cc3)cc2NC1=O
REMARK SMILES IDX 26 1 25 2 24 3 23 4 22 5 21 6 20 7 18 8 19 9 17 10 12 11
REMARK SMILES IDX 13 12 14 13 16 14 15 15 10 16 9 17 11 19 8 20 1 21 2 22 3 23
REMARK SMILES IDX 4 24 101 25 5 26 100 27 102 28 6 29 99 30 7 32 98 33 27 34
REMARK SMILES IDX 28 35 29 36 30 37 31 38 32 39 33 40 34 41 35 42 36 43 97 44
REMARK SMILES IDX 37 45 96 46 38 47 39 48 40 49 90 50 41 51 95 52 89 53 91 54
REMARK SMILES IDX 42 55 94 56 88 57 87 58 43 60 75 61 55 62 74 63 56 64 59 65
REMARK SMILES IDX 73 66 92 67 57 68 58 69 72 71 93 72 60 73 44 74 45 75 53 76
REMARK SMILES IDX 46 77 47 78 51 79 54 80 48 81 49 82 52 83 50 84 76 85 77 86
REMARK SMILES IDX 85 87 78 88 79 89 83 90 86 91 80 92 81 93 84 94 82 95 61 96
REMARK SMILES IDX 62 97 70 98 63 99 64 100 68 101 71 102 65 103 66 104 69 105
REMARK SMILES IDX 67 106
REMARK H PARENT 9 18 100 31 91 59 59 70
REMARK Flexibility Score: inf
ROOT
ATOM      1  O   UNL A   1      39.561  20.754  25.773  1.00  0.00    -0.377 OA
ENDROOT
BRANCH   1   2
ATOM      2  C   UNL A   1      38.855  21.891  26.256  1.00  0.00     0.188 C 
BRANCH   2   3
ATOM      3  C   UNL A   1      37.769  22.373  25.281  1.00  0.00     0.188 C 
BRANCH   3   4
ATOM      4  O   UNL A   1      36.413  22.310  25.679  1.00  0.00    -0.376 OA
BRANCH   4   5
ATOM      5  C   UNL A   1      35.807  23.412  26.327  1.00  0.00     0.202 C 
BRANCH   5   6
ATOM      6  C   UNL A   1      35.327  24.662  25.565  1.00  0.00     0.261 C 
BRANCH   6   7
ATOM      7  O   UNL A   1      34.149  25.350  26.021  1.00  0.00    -0.463 OA
BRANCH   7   8
ATOM      8  C   UNL A   1      33.861  26.560  25.474  1.00  0.00     0.310 C 
ATOM      9  O   UNL A   1      34.221  27.621  25.965  1.00  0.00    -0.252 OA
BRANCH   8  10
ATOM     10  C   UNL A   1      32.920  26.405  24.262  1.00  0.00     0.116 C 
ATOM     11  C   UNL A   1      33.602  26.439  22.857  1.00  0.00     0.097 C 
ATOM     12  C   UNL A   1      33.885  27.902  22.380  1.00  0.00     0.041 C 
ATOM     13  C   UNL A   1      33.049  28.974  23.014  1.00  0.00    -0.030 C 
ATOM     14  C   UNL A   1      31.739  27.366  24.371  1.00  0.00     0.043 C 
ATOM     15  C   UNL A   1      32.069  28.736  23.892  1.00  0.00    -0.030 C 
BRANCH  11  16
ATOM     16  C   UNL A   1      32.890  25.666  21.714  1.00  0.00     0.228 C 
ATOM     17  N   UNL A   1      32.379  24.405  21.828  1.00  0.00    -0.326 N 
ATOM     18  H   UNL A   1      31.974  24.055  21.003  1.00  0.00     0.169 HD
ATOM     19  O   UNL A   1      32.762  26.163  20.587  1.00  0.00    -0.274 OA
BRANCH  17  20
ATOM     20  C   UNL A   1      32.332  23.528  22.911  1.00  0.00     0.043 A 
ATOM     21  C   UNL A   1      32.661  17.935  25.771  1.00  0.00     0.067 C 
ATOM     22  C   UNL A   1      32.843  19.012  24.702  1.00  0.00     0.182 C 
ATOM     23  C   UNL A   1      32.570  18.382  23.319  1.00  0.00     0.067 C 
ATOM     24  O   UNL A   1      31.861  20.017  25.000  1.00  0.00    -0.476 OA
ATOM     25  C   UNL A   1      34.302  19.525  24.682  1.00  0.00     0.268 C 
ATOM     26  C   UNL A   1      32.109  21.237  24.436  1.00  0.00     0.144 A 
ATOM     27  N   UNL A   1      34.448  20.756  24.090  1.00  0.00    -0.319 N 
ATOM     28  O   UNL A   1      35.279  18.868  25.031  1.00  0.00    -0.270 OA
ATOM     29  C   UNL A   1      31.057  22.146  24.412  1.00  0.00     0.051 A 
ATOM     30  C   UNL A   1      33.344  21.587  23.888  1.00  0.00     0.086 A 
ATOM     31  H   UNL A   1      35.342  21.056  23.805  1.00  0.00     0.170 HD
ATOM     32  C   UNL A   1      31.177  23.314  23.661  1.00  0.00     0.030 A 
ATOM     33  C   UNL A   1      33.471  22.749  23.137  1.00  0.00     0.056 A 
ENDBRANCH  17  20
ENDBRANCH  11  16
ENDBRANCH   8  10
ENDBRANCH   7   8
ENDBRANCH   6   7
ENDBRANCH   5   6
ENDBRANCH   4   5
ENDBRANCH   3   4
ENDBRANCH   2   3
ENDBRANCH   1   2
BRANCH   1  34
ATOM     34  C   UNL A   1      40.839  20.586  26.369  1.00  0.00     0.188 C 
BRANCH  34  35
ATOM     35  C   UNL A   1      41.457  21.871  26.940  1.00  0.00     0.188 C 
BRANCH  35  36
ATOM     36  O   UNL A   1      42.875  21.880  26.772  1.00  0.00    -0.376 OA
BRANCH  36  37
ATOM     37  C   UNL A   1      43.398  21.517  25.504  1.00  0.00     0.202 C 
BRANCH  37  38
ATOM     38  C   UNL A   1      43.786  22.711  24.622  1.00  0.00     0.261 C 
BRANCH  38  39
ATOM     39  O   UNL A   1      43.172  23.958  24.976  1.00  0.00    -0.460 OA
BRANCH  39  40
ATOM     40  C   UNL A   1      43.989  25.004  25.252  1.00  0.00     0.338 C 
ATOM     41  O   UNL A   1      44.967  25.353  24.633  1.00  0.00    -0.246 OA
BRANCH  40  42
ATOM     42  C   UNL A   1      43.327  25.796  26.317  1.00  0.00     0.060 A 
ATOM     43  C   UNL A   1      42.165  25.333  26.944  1.00  0.00     0.016 A 
ATOM     44  C   UNL A   1      43.843  27.061  26.628  1.00  0.00     0.016 A 
ATOM     45  C   UNL A   1      41.543  26.120  27.915  1.00  0.00     0.010 A 
ATOM     46  C   UNL A   1      43.208  27.857  27.583  1.00  0.00     0.010 A 
ATOM     47  C   UNL A   1      42.079  27.373  28.261  1.00  0.00    -0.014 A 
BRANCH  47  48
ATOM     48  C   UNL A   1      41.648  28.028  29.517  1.00  0.00     0.031 A 
ATOM     49  C   UNL A   1      42.364  27.858  30.818  1.00  0.00     0.074 A 
ATOM     50  C   UNL A   1      40.533  28.779  29.444  1.00  0.00     0.049 A 
ATOM     51  N   UNL A   1      42.125  28.448  31.962  1.00  0.00    -0.248 NA
ATOM     52  C   UNL A   1      43.478  26.902  30.851  1.00  0.00     0.031 C 
ATOM     53  C   UNL A   1      39.737  28.967  28.227  1.00  0.00     0.029 A 
ATOM     54  N   UNL A   1      39.876  29.519  30.391  1.00  0.00    -0.354 N 
ATOM     55  C   UNL A   1      43.070  27.957  32.850  1.00  0.00     0.074 A 
ATOM     56  C   UNL A   1      43.860  26.983  32.122  1.00  0.00     0.031 C 
ATOM     57  C   UNL A   1      38.710  29.782  28.497  1.00  0.00     0.029 A 
ATOM     58  C   UNL A   1      38.768  30.164  29.904  1.00  0.00     0.049 A 
ATOM     59  H   UNL A   1      40.169  29.580  31.328  1.00  0.00     0.167 HD
ATOM     60  C   UNL A   1      43.259  28.308  34.146  1.00  0.00     0.037 A 
ATOM     61  C   UNL A   1      37.897  30.987  30.515  1.00  0.00     0.037 A 
ATOM     62  C   UNL A   1      42.445  29.264  34.857  1.00  0.00     0.049 A 
ATOM     63  C   UNL A   1      38.120  31.338  31.955  1.00  0.00     0.074 A 
ATOM     64  C   UNL A   1      42.593  29.727  36.155  1.00  0.00     0.029 A 
ATOM     65  N   UNL A   1      41.318  29.889  34.340  1.00  0.00    -0.354 N 
ATOM     66  N   UNL A   1      39.079  30.949  32.757  1.00  0.00    -0.248 NA
ATOM     67  C   UNL A   1      37.149  32.251  32.572  1.00  0.00     0.031 C 
ATOM     68  C   UNL A   1      41.528  30.587  36.439  1.00  0.00     0.029 A 
ATOM     69  C   UNL A   1      40.745  30.706  35.303  1.00  0.00     0.049 A 
ATOM     70  H   UNL A   1      40.976  29.769  33.425  1.00  0.00     0.167 HD
ATOM     71  C   UNL A   1      38.846  31.586  33.966  1.00  0.00     0.074 A 
ATOM     72  C   UNL A   1      37.657  32.395  33.789  1.00  0.00     0.031 C 
ATOM     73  C   UNL A   1      39.559  31.506  35.116  1.00  0.00     0.037 A 
BRANCH  60  74
ATOM     74  C   UNL A   1      44.401  27.676  34.892  1.00  0.00     0.064 A 
ATOM     75  C   UNL A   1      44.244  26.453  35.561  1.00  0.00     0.173 A 
ATOM     76  C   UNL A   1      45.687  28.236  34.845  1.00  0.00     0.173 A 
ATOM     77  F   UNL A   1      43.037  25.873  35.633  1.00  0.00    -0.203 F 
ATOM     78  C   UNL A   1      45.329  25.821  36.166  1.00  0.00     0.198 A 
ATOM     79  C   UNL A   1      46.774  27.589  35.430  1.00  0.00     0.198 A 
ATOM     80  F   UNL A   1      45.897  29.397  34.206  1.00  0.00    -0.203 F 
ATOM     81  F   UNL A   1      45.149  24.664  36.818  1.00  0.00    -0.200 F 
ATOM     82  C   UNL A   1      46.593  26.385  36.092  1.00  0.00     0.200 A 
ATOM     83  F   UNL A   1      47.999  28.126  35.341  1.00  0.00    -0.200 F 
ATOM     84  F   UNL A   1      47.639  25.765  36.658  1.00  0.00    -0.200 F 
ENDBRANCH  60  74
BRANCH  61  85
ATOM     85  C   UNL A   1      36.791  31.576  29.725  1.00  0.00     0.064 A 
ATOM     86  C   UNL A   1      36.820  32.927  29.356  1.00  0.00     0.173 A 
ATOM     87  C   UNL A   1      35.733  30.788  29.250  1.00  0.00     0.173 A 
ATOM     88  F   UNL A   1      37.812  33.718  29.792  1.00  0.00    -0.203 F 
ATOM     89  C   UNL A   1      35.830  33.470  28.542  1.00  0.00     0.198 A 
ATOM     90  C   UNL A   1      34.756  31.326  28.415  1.00  0.00     0.198 A 
ATOM     91  F   UNL A   1      35.674  29.485  29.560  1.00  0.00    -0.203 F 
ATOM     92  F   UNL A   1      35.872  34.769  28.215  1.00  0.00    -0.200 F 
ATOM     93  C   UNL A   1      34.804  32.667  28.064  1.00  0.00     0.200 A 
ATOM     94  F   UNL A   1      33.780  30.542  27.937  1.00  0.00    -0.200 F 
ATOM     95  F   UNL A   1      33.864  33.185  27.261  1.00  0.00    -0.200 F 
ENDBRANCH  61  85
BRANCH  73  96
ATOM     96  C   UNL A   1      39.085  32.324  36.281  1.00  0.00     0.064 A 
ATOM     97  C   UNL A   1      38.219  31.790  37.245  1.00  0.00     0.173 A 
ATOM     98  C   UNL A   1      39.568  33.627  36.477  1.00  0.00     0.173 A 
ATOM     99  F   UNL A   1      37.717  30.557  37.092  1.00  0.00    -0.203 F 
ATOM    100  C   UNL A   1      37.848  32.535  38.361  1.00  0.00     0.198 A 
ATOM    101  C   UNL A   1      39.216  34.358  37.607  1.00  0.00     0.198 A 
ATOM    102  F   UNL A   1      40.403  34.180  35.584  1.00  0.00    -0.203 F 
ATOM    103  F   UNL A   1      36.997  32.016  39.257  1.00  0.00    -0.200 F 
ATOM    104  C   UNL A   1      38.356  33.812  38.548  1.00  0.00     0.200 A 
ATOM    105  F   UNL A   1      39.719  35.586  37.793  1.00  0.00    -0.200 F 
ATOM    106  F   UNL A   1      38.015  34.518  39.635  1.00  0.00    -0.200 F 
ENDBRANCH  73  96
ENDBRANCH  47  48
ENDBRANCH  40  42
ENDBRANCH  39  40
ENDBRANCH  38  39
ENDBRANCH  37  38
ENDBRANCH  36  37
ENDBRANCH  35  36
ENDBRANCH  34  35
ENDBRANCH   1  34
TORSDOF 22
ENDMDL
MODEL 2
REMARK VINA RESULT:     -10.6      5.099      9.369
REMARK SMILES CC1(C)Oc2ccc(NC(=O)[C@H]3CC=CC[C@@H]3C(=O)OCCOCCOCCOCCOC(=O)c3ccc(-c4c5nc(c(-c6c(F)c(F)c(F)c(F)c6F)c6ccc([nH]6)c(-c6c(F)c(F)c(F)c(F)c6F)c6nc(c(-c7c(F)c(F)c(F)c(F)c7F)c7ccc4[nH]7)C=C6)C=C5)cc3)cc2NC1=O
REMARK SMILES IDX 26 1 25 2 24 3 23 4 22 5 21 6 20 7 18 8 19 9 17 10 12 11
REMARK SMILES IDX 13 12 14 13 16 14 15 15 10 16 9 17 11 19 8 20 1 21 2 22 3 23
REMARK SMILES IDX 4 24 101 25 5 26 100 27 102 28 6 29 99 30 7 32 98 33 27 34
REMARK SMILES IDX 28 35 29 36 30 37 31 38 32 39 33 40 34 41 35 42 36 43 97 44
REMARK SMILES IDX 37 45 96 46 38 47 39 48 40 49 90 50 41 51 95 52 89 53 91 54
REMARK SMILES IDX 42 55 94 56 88 57 87 58 43 60 75 61 55 62 74 63 56 64 59 65
REMARK SMILES IDX 73 66 92 67 57 68 58 69 72 71 93 72 60 73 44 74 45 75 53 76
REMARK SMILES IDX 46 77 47 78 51 79 54 80 48 81 49 82 52 83 50 84 76 85 77 86
REMARK SMILES IDX 85 87 78 88 79 89 83 90 86 91 80 92 81 93 84 94 82 95 61 96
REMARK SMILES IDX 62 97 70 98 63 99 64 100 68 101 71 102 65 103 66 104 69 105
REMARK SMILES IDX 67 106
REMARK H PARENT 9 18 100 31 91 59 59 70
REMARK Flexibility Score: inf
ROOT
ATOM      1  O   UNL A   1      39.303  21.480  26.058  1.00  0.00    -0.377 OA
ENDROOT
BRANCH   1   2
ATOM      2  C   UNL A   1      38.116  22.181  25.705  1.00  0.00     0.188 C 
BRANCH   2   3
ATOM      3  C   UNL A   1      37.485  21.660  24.403  1.00  0.00     0.188 C 
BRANCH   3   4
ATOM      4  O   UNL A   1      36.116  21.915  24.155  1.00  0.00    -0.376 OA
BRANCH   4   5
ATOM      5  C   UNL A   1      35.696  23.191  23.713  1.00  0.00     0.202 C 
BRANCH   5   6
ATOM      6  C   UNL A   1      34.364  23.416  22.971  1.00  0.00     0.261 C 
BRANCH   6   7
ATOM      7  O   UNL A   1      34.004  24.750  22.567  1.00  0.00    -0.463 OA
BRANCH   7   8
ATOM      8  C   UNL A   1      32.723  25.155  22.764  1.00  0.00     0.310 C 
ATOM      9  O   UNL A   1      32.002  25.562  21.865  1.00  0.00    -0.252 OA
BRANCH   8  10
ATOM     10  C   UNL A   1      32.374  25.160  24.267  1.00  0.00     0.116 C 
ATOM     11  C   UNL A   1      30.881  24.879  24.625  1.00  0.00     0.097 C 
ATOM     12  C   UNL A   1      29.992  26.156  24.471  1.00  0.00     0.041 C 
ATOM     13  C   UNL A   1      30.711  27.470  24.534  1.00  0.00    -0.030 C 
ATOM     14  C   UNL A   1      32.918  26.418  24.941  1.00  0.00     0.043 C 
ATOM     15  C   UNL A   1      32.023  27.594  24.767  1.00  0.00    -0.030 C 
BRANCH  11  16
ATOM     16  C   UNL A   1      30.602  24.235  26.011  1.00  0.00     0.228 C 
ATOM     17  N   UNL A   1      31.182  23.088  26.466  1.00  0.00    -0.326 N 
ATOM     18  H   UNL A   1      30.882  22.808  27.360  1.00  0.00     0.169 HD
ATOM     19  O   UNL A   1      29.788  24.738  26.797  1.00  0.00    -0.274 OA
BRANCH  17  20
ATOM     20  C   UNL A   1      32.126  22.242  25.885  1.00  0.00     0.043 A 
ATOM     21  C   UNL A   1      34.350  16.774  23.711  1.00  0.00     0.067 C 
ATOM     22  C   UNL A   1      33.351  17.829  24.185  1.00  0.00     0.182 C 
ATOM     23  C   UNL A   1      32.298  17.141  25.080  1.00  0.00     0.067 C 
ATOM     24  O   UNL A   1      34.122  18.771  24.949  1.00  0.00    -0.476 OA
ATOM     25  C   UNL A   1      32.591  18.443  22.987  1.00  0.00     0.268 C 
ATOM     26  C   UNL A   1      33.524  19.987  25.119  1.00  0.00     0.144 A 
ATOM     27  N   UNL A   1      32.021  19.663  23.259  1.00  0.00    -0.319 N 
ATOM     28  O   UNL A   1      32.381  17.868  21.923  1.00  0.00    -0.270 OA
ATOM     29  C   UNL A   1      34.053  20.819  26.099  1.00  0.00     0.051 A 
ATOM     30  C   UNL A   1      32.423  20.408  24.370  1.00  0.00     0.086 A 
ATOM     31  H   UNL A   1      31.321  20.017  22.664  1.00  0.00     0.170 HD
ATOM     32  C   UNL A   1      33.360  21.970  26.471  1.00  0.00     0.030 A 
ATOM     33  C   UNL A   1      31.726  21.553  24.736  1.00  0.00     0.056 A 
ENDBRANCH  17  20
ENDBRANCH  11  16
ENDBRANCH   8  10
ENDBRANCH   7   8
ENDBRANCH   6   7
ENDBRANCH   5   6
ENDBRANCH   4   5
ENDBRANCH   3   4
ENDBRANCH   2   3
ENDBRANCH   1   2
BRANCH   1  34
ATOM     34  C   UNL A   1      39.880  21.923  27.277  1.00  0.00     0.188 C 
BRANCH  34  35
ATOM     35  C   UNL A   1      41.117  22.819  27.116  1.00  0.00     0.188 C 
BRANCH  35  36
ATOM     36  O   UNL A   1      42.317  22.046  27.125  1.00  0.00    -0.376 OA
BRANCH  36  37
ATOM     37  C   UNL A   1      42.203  20.636  27.018  1.00  0.00     0.202 C 
BRANCH  37  38
ATOM     38  C   UNL A   1      42.507  20.088  25.618  1.00  0.00     0.261 C 
BRANCH  38  39
ATOM     39  O   UNL A   1      43.757  19.396  25.489  1.00  0.00    -0.460 OA
BRANCH  39  40
ATOM     40  C   UNL A   1      44.604  19.805  24.514  1.00  0.00     0.338 C 
ATOM     41  O   UNL A   1      44.850  19.242  23.473  1.00  0.00    -0.246 OA
BRANCH  40  42
ATOM     42  C   UNL A   1      44.995  21.199  24.843  1.00  0.00     0.060 A 
ATOM     43  C   UNL A   1      44.874  22.224  23.899  1.00  0.00     0.016 A 
ATOM     44  C   UNL A   1      45.567  21.454  26.096  1.00  0.00     0.016 A 
ATOM     45  C   UNL A   1      45.288  23.517  24.227  1.00  0.00     0.010 A 
ATOM     46  C   UNL A   1      46.001  22.742  26.416  1.00  0.00     0.010 A 
ATOM     47  C   UNL A   1      45.826  23.788  25.497  1.00  0.00    -0.014 A 
BRANCH  47  48
ATOM     48  C   UNL A   1      45.917  25.190  25.965  1.00  0.00     0.031 A 
ATOM     49  C   UNL A   1      44.751  25.951  26.508  1.00  0.00     0.074 A 
ATOM     50  C   UNL A   1      47.122  25.778  25.847  1.00  0.00     0.049 A 
ATOM     51  N   UNL A   1      44.733  27.155  27.023  1.00  0.00    -0.248 NA
ATOM     52  C   UNL A   1      43.439  25.294  26.460  1.00  0.00     0.031 C 
ATOM     53  C   UNL A   1      48.311  25.130  25.285  1.00  0.00     0.029 A 
ATOM     54  N   UNL A   1      47.554  27.033  26.186  1.00  0.00    -0.354 N 
ATOM     55  C   UNL A   1      43.417  27.396  27.384  1.00  0.00     0.074 A 
ATOM     56  C   UNL A   1      42.654  26.228  26.986  1.00  0.00     0.031 C 
ATOM     57  C   UNL A   1      49.340  25.986  25.332  1.00  0.00     0.029 A 
ATOM     58  C   UNL A   1      48.883  27.242  25.916  1.00  0.00     0.049 A 
ATOM     59  H   UNL A   1      46.968  27.717  26.582  1.00  0.00     0.167 HD
ATOM     60  C   UNL A   1      42.908  28.489  28.005  1.00  0.00     0.037 A 
ATOM     61  C   UNL A   1      49.657  28.320  26.127  1.00  0.00     0.037 A 
ATOM     62  C   UNL A   1      43.682  29.650  28.372  1.00  0.00     0.049 A 
ATOM     63  C   UNL A   1      49.061  29.523  26.795  1.00  0.00     0.074 A 
ATOM     64  C   UNL A   1      43.269  30.783  29.054  1.00  0.00     0.029 A 
ATOM     65  N   UNL A   1      45.025  29.839  28.068  1.00  0.00    -0.354 N 
ATOM     66  N   UNL A   1      47.838  29.700  27.228  1.00  0.00    -0.248 NA
ATOM     67  C   UNL A   1      49.953  30.668  27.015  1.00  0.00     0.031 C 
ATOM     68  C   UNL A   1      44.343  31.676  29.115  1.00  0.00     0.029 A 
ATOM     69  C   UNL A   1      45.444  31.080  28.522  1.00  0.00     0.049 A 
ATOM     70  H   UNL A   1      45.594  29.186  27.602  1.00  0.00     0.167 HD
ATOM     71  C   UNL A   1      47.815  30.965  27.795  1.00  0.00     0.074 A 
ATOM     72  C   UNL A   1      49.151  31.508  27.658  1.00  0.00     0.031 C 
ATOM     73  C   UNL A   1      46.777  31.612  28.378  1.00  0.00     0.037 A 
BRANCH  60  74
ATOM     74  C   UNL A   1      41.445  28.490  28.352  1.00  0.00     0.064 A 
ATOM     75  C   UNL A   1      41.002  28.116  29.629  1.00  0.00     0.173 A 
ATOM     76  C   UNL A   1      40.492  28.973  27.443  1.00  0.00     0.173 A 
ATOM     77  F   UNL A   1      41.872  27.650  30.537  1.00  0.00    -0.203 F 
ATOM     78  C   UNL A   1      39.656  28.214  29.979  1.00  0.00     0.198 A 
ATOM     79  C   UNL A   1      39.151  29.093  27.804  1.00  0.00     0.198 A 
ATOM     80  F   UNL A   1      40.864  29.359  26.213  1.00  0.00    -0.203 F 
ATOM     81  F   UNL A   1      39.253  27.830  31.198  1.00  0.00    -0.200 F 
ATOM     82  C   UNL A   1      38.735  28.711  29.070  1.00  0.00     0.200 A 
ATOM     83  F   UNL A   1      38.264  29.591  26.931  1.00  0.00    -0.200 F 
ATOM     84  F   UNL A   1      37.444  28.823  29.416  1.00  0.00    -0.200 F 
ENDBRANCH  60  74
BRANCH  61  85
ATOM     85  C   UNL A   1      51.092  28.256  25.761  1.00  0.00     0.064 A 
ATOM     86  C   UNL A   1      52.055  27.899  26.713  1.00  0.00     0.173 A 
ATOM     87  C   UNL A   1      51.517  28.463  24.441  1.00  0.00     0.173 A 
ATOM     88  F   UNL A   1      51.692  27.696  27.988  1.00  0.00    -0.203 F 
ATOM     89  C   UNL A   1      53.393  27.752  26.358  1.00  0.00     0.198 A 
ATOM     90  C   UNL A   1      52.853  28.292  24.083  1.00  0.00     0.198 A 
ATOM     91  F   UNL A   1      50.628  28.787  23.491  1.00  0.00    -0.203 F 
ATOM     92  F   UNL A   1      54.298  27.423  27.291  1.00  0.00    -0.200 F 
ATOM     93  C   UNL A   1      53.789  27.939  25.042  1.00  0.00     0.200 A 
ATOM     94  F   UNL A   1      53.228  28.451  22.806  1.00  0.00    -0.200 F 
ATOM     95  F   UNL A   1      55.075  27.775  24.698  1.00  0.00    -0.200 F 
ENDBRANCH  61  85
BRANCH  73  96
ATOM     96  C   UNL A   1      47.038  32.983  28.929  1.00  0.00     0.064 A 
ATOM     97  C   UNL A   1      47.524  33.167  30.231  1.00  0.00     0.173 A 
ATOM     98  C   UNL A   1      46.879  34.116  28.118  1.00  0.00     0.173 A 
ATOM     99  F   UNL A   1      47.676  32.116  31.049  1.00  0.00    -0.203 F 
ATOM    100  C   UNL A   1      47.835  34.439  30.703  1.00  0.00     0.198 A 
ATOM    101  C   UNL A   1      47.216  35.383  28.585  1.00  0.00     0.198 A 
ATOM    102  F   UNL A   1      46.421  33.991  26.863  1.00  0.00    -0.203 F 
ATOM    103  F   UNL A   1      48.272  34.596  31.960  1.00  0.00    -0.200 F 
ATOM    104  C   UNL A   1      47.693  35.544  29.877  1.00  0.00     0.200 A 
ATOM    105  F   UNL A   1      47.091  36.448  27.780  1.00  0.00    -0.200 F 
ATOM    106  F   UNL A   1      48.014  36.765  30.327  1.00  0.00    -0.200 F 
ENDBRANCH  73  96
ENDBRANCH  47  48
ENDBRANCH  40  42
ENDBRANCH  39  40
ENDBRANCH  38  39
ENDBRANCH  37  38
ENDBRANCH  36  37
ENDBRANCH  35  36
ENDBRANCH  34  35
ENDBRANCH   1  34
TORSDOF 22
ENDMDL
MODEL 3
REMARK VINA RESULT:     -10.2      3.662      6.885
REMARK SMILES CC1(C)Oc2ccc(NC(=O)[C@H]3CC=CC[C@@H]3C(=O)OCCOCCOCCOCCOC(=O)c3ccc(-c4c5nc(c(-c6c(F)c(F)c(F)c(F)c6F)c6ccc([nH]6)c(-c6c(F)c(F)c(F)c(F)c6F)c6nc(c(-c7c(F)c(F)c(F)c(F)c7F)c7ccc4[nH]7)C=C6)C=C5)cc3)cc2NC1=O
REMARK SMILES IDX 26 1 25 2 24 3 23 4 22 5 21 6 20 7 18 8 19 9 17 10 12 11
REMARK SMILES IDX 13 12 14 13 16 14 15 15 10 16 9 17 11 19 8 20 1 21 2 22 3 23
REMARK SMILES IDX 4 24 101 25 5 26 100 27 102 28 6 29 99 30 7 32 98 33 27 34
REMARK SMILES IDX 28 35 29 36 30 37 31 38 32 39 33 40 34 41 35 42 36 43 97 44
REMARK SMILES IDX 37 45 96 46 38 47 39 48 40 49 90 50 41 51 95 52 89 53 91 54
REMARK SMILES IDX 42 55 94 56 88 57 87 58 43 60 75 61 55 62 74 63 56 64 59 65
REMARK SMILES IDX 73 66 92 67 57 68 58 69 72 71 93 72 60 73 44 74 45 75 53 76
REMARK SMILES IDX 46 77 47 78 51 79 54 80 48 81 49 82 52 83 50 84 76 85 77 86
REMARK SMILES IDX 85 87 78 88 79 89 83 90 86 91 80 92 81 93 84 94 82 95 61 96
REMARK SMILES IDX 62 97 70 98 63 99 64 100 68 101 71 102 65 103 66 104 69 105
REMARK SMILES IDX 67 106
REMARK H PARENT 9 18 100 31 91 59 59 70
REMARK Flexibility Score: inf
ROOT
ATOM      1  O   UNL A   1      39.962  21.796  26.673  1.00  0.00    -0.377 OA
ENDROOT
BRANCH   1   2
ATOM      2  C   UNL A   1      38.879  22.574  26.176  1.00  0.00     0.188 C 
BRANCH   2   3
ATOM      3  C   UNL A   1      37.935  21.765  25.272  1.00  0.00     0.188 C 
BRANCH   3   4
ATOM      4  O   UNL A   1      36.575  22.143  25.187  1.00  0.00    -0.376 OA
BRANCH   4   5
ATOM      5  C   UNL A   1      36.222  23.487  24.922  1.00  0.00     0.202 C 
BRANCH   5   6
ATOM      6  C   UNL A   1      35.134  23.874  23.902  1.00  0.00     0.261 C 
BRANCH   6   7
ATOM      7  O   UNL A   1      34.766  25.258  23.763  1.00  0.00    -0.463 OA
BRANCH   7   8
ATOM      8  C   UNL A   1      33.444  25.567  23.705  1.00  0.00     0.310 C 
ATOM      9  O   UNL A   1      32.914  26.069  22.724  1.00  0.00    -0.252 OA
BRANCH   8  10
ATOM     10  C   UNL A   1      32.766  25.332  25.071  1.00  0.00     0.116 C 
ATOM     11  C   UNL A   1      31.225  25.079  25.036  1.00  0.00     0.097 C 
ATOM     12  C   UNL A   1      30.417  26.414  24.927  1.00  0.00     0.041 C 
ATOM     13  C   UNL A   1      31.127  27.653  25.384  1.00  0.00    -0.030 C 
ATOM     14  C   UNL A   1      33.166  26.419  26.065  1.00  0.00     0.043 C 
ATOM     15  C   UNL A   1      32.354  27.657  25.917  1.00  0.00    -0.030 C 
BRANCH  11  16
ATOM     16  C   UNL A   1      30.630  24.222  26.186  1.00  0.00     0.228 C 
ATOM     17  N   UNL A   1      31.022  22.952  26.493  1.00  0.00    -0.326 N 
ATOM     18  H   UNL A   1      30.531  22.545  27.242  1.00  0.00     0.169 HD
ATOM     19  O   UNL A   1      29.715  24.655  26.899  1.00  0.00    -0.274 OA
BRANCH  17  20
ATOM     20  C   UNL A   1      31.999  22.131  25.930  1.00  0.00     0.043 A 
ATOM     21  C   UNL A   1      34.382  16.736  23.742  1.00  0.00     0.067 C 
ATOM     22  C   UNL A   1      33.350  17.767  24.200  1.00  0.00     0.182 C 
ATOM     23  C   UNL A   1      32.278  17.048  25.047  1.00  0.00     0.067 C 
ATOM     24  O   UNL A   1      34.080  18.707  25.005  1.00  0.00    -0.476 OA
ATOM     25  C   UNL A   1      32.622  18.390  22.987  1.00  0.00     0.268 C 
ATOM     26  C   UNL A   1      33.457  19.911  25.175  1.00  0.00     0.144 A 
ATOM     27  N   UNL A   1      32.024  19.597  23.260  1.00  0.00    -0.319 N 
ATOM     28  O   UNL A   1      32.458  17.831  21.907  1.00  0.00    -0.270 OA
ATOM     29  C   UNL A   1      33.940  20.734  26.187  1.00  0.00     0.051 A 
ATOM     30  C   UNL A   1      32.376  20.328  24.396  1.00  0.00     0.086 A 
ATOM     31  H   UNL A   1      31.339  19.951  22.647  1.00  0.00     0.170 HD
ATOM     32  C   UNL A   1      33.216  21.867  26.555  1.00  0.00     0.030 A 
ATOM     33  C   UNL A   1      31.649  21.456  24.757  1.00  0.00     0.056 A 
ENDBRANCH  17  20
ENDBRANCH  11  16
ENDBRANCH   8  10
ENDBRANCH   7   8
ENDBRANCH   6   7
ENDBRANCH   5   6
ENDBRANCH   4   5
ENDBRANCH   3   4
ENDBRANCH   2   3
ENDBRANCH   1   2
BRANCH   1  34
ATOM     34  C   UNL A   1      40.854  22.532  27.498  1.00  0.00     0.188 C 
BRANCH  34  35
ATOM     35  C   UNL A   1      42.200  21.843  27.766  1.00  0.00     0.188 C 
BRANCH  35  36
ATOM     36  O   UNL A   1      42.868  21.525  26.546  1.00  0.00    -0.376 OA
BRANCH  36  37
ATOM     37  C   UNL A   1      43.843  22.435  26.062  1.00  0.00     0.202 C 
BRANCH  37  38
ATOM     38  C   UNL A   1      43.400  23.228  24.826  1.00  0.00     0.261 C 
BRANCH  38  39
ATOM     39  O   UNL A   1      43.445  24.656  24.965  1.00  0.00    -0.460 OA
BRANCH  39  40
ATOM     40  C   UNL A   1      44.660  25.232  25.131  1.00  0.00     0.338 C 
ATOM     41  O   UNL A   1      45.676  24.988  24.523  1.00  0.00    -0.246 OA
BRANCH  40  42
ATOM     42  C   UNL A   1      44.463  26.396  26.031  1.00  0.00     0.060 A 
ATOM     43  C   UNL A   1      43.191  26.937  26.243  1.00  0.00     0.016 A 
ATOM     44  C   UNL A   1      45.592  26.996  26.604  1.00  0.00     0.016 A 
ATOM     45  C   UNL A   1      43.044  28.056  27.064  1.00  0.00     0.010 A 
ATOM     46  C   UNL A   1      45.448  28.129  27.407  1.00  0.00     0.010 A 
ATOM     47  C   UNL A   1      44.169  28.640  27.674  1.00  0.00    -0.014 A 
BRANCH  47  48
ATOM     48  C   UNL A   1      43.980  29.572  28.809  1.00  0.00     0.031 A 
ATOM     49  C   UNL A   1      43.982  31.059  28.659  1.00  0.00     0.074 A 
ATOM     50  C   UNL A   1      43.835  29.007  30.023  1.00  0.00     0.049 A 
ATOM     51  N   UNL A   1      43.744  31.969  29.570  1.00  0.00    -0.248 NA
ATOM     52  C   UNL A   1      44.301  31.599  27.332  1.00  0.00     0.031 C 
ATOM     53  C   UNL A   1      43.867  27.564  30.277  1.00  0.00     0.029 A 
ATOM     54  N   UNL A   1      43.633  29.561  31.260  1.00  0.00    -0.354 N 
ATOM     55  C   UNL A   1      43.859  33.191  28.926  1.00  0.00     0.074 A 
ATOM     56  C   UNL A   1      44.235  32.908  27.554  1.00  0.00     0.031 C 
ATOM     57  C   UNL A   1      43.674  27.345  31.584  1.00  0.00     0.029 A 
ATOM     58  C   UNL A   1      43.517  28.628  32.260  1.00  0.00     0.049 A 
ATOM     59  H   UNL A   1      43.578  30.530  31.416  1.00  0.00     0.167 HD
ATOM     60  C   UNL A   1      43.652  34.429  29.441  1.00  0.00     0.037 A 
ATOM     61  C   UNL A   1      43.295  28.783  33.576  1.00  0.00     0.037 A 
ATOM     62  C   UNL A   1      43.300  34.689  30.816  1.00  0.00     0.049 A 
ATOM     63  C   UNL A   1      43.092  30.165  34.120  1.00  0.00     0.074 A 
ATOM     64  C   UNL A   1      43.015  35.904  31.419  1.00  0.00     0.029 A 
ATOM     65  N   UNL A   1      43.208  33.723  31.809  1.00  0.00    -0.354 N 
ATOM     66  N   UNL A   1      43.099  31.308  33.482  1.00  0.00    -0.248 NA
ATOM     67  C   UNL A   1      42.838  30.279  35.562  1.00  0.00     0.031 C 
ATOM     68  C   UNL A   1      42.804  35.679  32.782  1.00  0.00     0.029 A 
ATOM     69  C   UNL A   1      42.901  34.319  33.023  1.00  0.00     0.049 A 
ATOM     70  H   UNL A   1      43.339  32.758  31.671  1.00  0.00     0.167 HD
ATOM     71  C   UNL A   1      42.827  32.278  34.435  1.00  0.00     0.074 A 
ATOM     72  C   UNL A   1      42.651  31.585  35.696  1.00  0.00     0.031 C 
ATOM     73  C   UNL A   1      42.729  33.620  34.273  1.00  0.00     0.037 A 
BRANCH  60  74
ATOM     74  C   UNL A   1      43.778  35.610  28.519  1.00  0.00     0.064 A 
ATOM     75  C   UNL A   1      42.647  36.203  27.940  1.00  0.00     0.173 A 
ATOM     76  C   UNL A   1      45.022  36.222  28.302  1.00  0.00     0.173 A 
ATOM     77  F   UNL A   1      41.433  35.661  28.118  1.00  0.00    -0.203 F 
ATOM     78  C   UNL A   1      42.758  37.358  27.167  1.00  0.00     0.198 A 
ATOM     79  C   UNL A   1      45.127  37.390  27.549  1.00  0.00     0.198 A 
ATOM     80  F   UNL A   1      46.135  35.704  28.844  1.00  0.00    -0.203 F 
ATOM     81  F   UNL A   1      41.665  37.894  26.606  1.00  0.00    -0.200 F 
ATOM     82  C   UNL A   1      43.995  37.954  26.980  1.00  0.00     0.200 A 
ATOM     83  F   UNL A   1      46.320  37.976  27.385  1.00  0.00    -0.200 F 
ATOM     84  F   UNL A   1      44.097  39.076  26.253  1.00  0.00    -0.200 F 
ENDBRANCH  60  74
BRANCH  61  85
ATOM     85  C   UNL A   1      43.183  27.578  34.432  1.00  0.00     0.064 A 
ATOM     86  C   UNL A   1      44.288  27.112  35.155  1.00  0.00     0.173 A 
ATOM     87  C   UNL A   1      41.955  26.925  34.614  1.00  0.00     0.173 A 
ATOM     88  F   UNL A   1      45.482  27.705  35.007  1.00  0.00    -0.203 F 
ATOM     89  C   UNL A   1      44.171  26.033  36.027  1.00  0.00     0.198 A 
ATOM     90  C   UNL A   1      41.835  25.861  35.506  1.00  0.00     0.198 A 
ATOM     91  F   UNL A   1      40.864  27.348  33.959  1.00  0.00    -0.203 F 
ATOM     92  F   UNL A   1      45.248  25.597  36.696  1.00  0.00    -0.200 F 
ATOM     93  C   UNL A   1      42.943  25.415  36.209  1.00  0.00     0.200 A 
ATOM     94  F   UNL A   1      40.641  25.282  35.697  1.00  0.00    -0.200 F 
ATOM     95  F   UNL A   1      42.827  24.392  37.067  1.00  0.00    -0.200 F 
ENDBRANCH  61  85
BRANCH  73  96
ATOM     96  C   UNL A   1      42.405  34.440  35.487  1.00  0.00     0.064 A 
ATOM     97  C   UNL A   1      41.079  34.712  35.852  1.00  0.00     0.173 A 
ATOM     98  C   UNL A   1      43.428  34.888  36.335  1.00  0.00     0.173 A 
ATOM     99  F   UNL A   1      40.068  34.320  35.064  1.00  0.00    -0.203 F 
ATOM    100  C   UNL A   1      40.790  35.410  37.022  1.00  0.00     0.198 A 
ATOM    101  C   UNL A   1      43.135  35.562  37.517  1.00  0.00     0.198 A 
ATOM    102  F   UNL A   1      44.713  34.649  36.030  1.00  0.00    -0.203 F 
ATOM    103  F   UNL A   1      39.517  35.683  37.339  1.00  0.00    -0.200 F 
ATOM    104  C   UNL A   1      41.816  35.823  37.859  1.00  0.00     0.200 A 
ATOM    105  F   UNL A   1      44.127  35.948  38.331  1.00  0.00    -0.200 F 
ATOM    106  F   UNL A   1      41.535  36.475  38.995  1.00  0.00    -0.200 F 
ENDBRANCH  73  96
ENDBRANCH  47  48
ENDBRANCH  40  42
ENDBRANCH  39  40
ENDBRANCH  38  39
ENDBRANCH  37  38
ENDBRANCH  36  37
ENDBRANCH  35  36
ENDBRANCH  34  35
ENDBRANCH   1  34
TORSDOF 22
ENDMDL
