MODEL 1
REMARK VINA RESULT:     -11.0      0.000      0.000
REMARK SMILES CC(C)Cc1cc2c(cc1Cl)C=C(C(=O)OCCOCCOCCOCCOC(=O)c1ccc(-c3c4nc(c(-c5c(F)c(F)c(F)c(F)c5F)c5ccc([nH]5)c(-c5c(F)c(F)c(F)c(F)c5F)c5nc(c(-c6c(F)c(F)c(F)c(F)c6F)c6ccc3[nH]6)C=C5)C=C4)cc1)[C@H](C(F)(F)F)O2
REMARK SMILES IDX 22 1 21 2 20 3 19 4 18 5 17 6 16 7 14 8 15 9 13 10 5 11 6 12
REMARK SMILES IDX 10 13 7 14 9 15 11 16 8 17 99 18 12 19 94 20 4 21 2 22 1 23
REMARK SMILES IDX 3 24 95 25 96 26 97 27 98 28 23 29 24 30 25 31 26 32 27 33
REMARK SMILES IDX 28 34 29 35 30 36 31 37 32 38 93 39 33 40 92 41 34 42 35 43
REMARK SMILES IDX 36 44 86 45 37 46 91 47 85 48 87 49 38 50 90 51 84 52 83 53
REMARK SMILES IDX 39 55 71 56 51 57 70 58 52 59 55 60 69 61 88 62 53 63 54 64
REMARK SMILES IDX 68 66 89 67 56 68 40 69 41 70 49 71 42 72 43 73 47 74 50 75
REMARK SMILES IDX 44 76 45 77 48 78 46 79 72 80 73 81 81 82 74 83 75 84 79 85
REMARK SMILES IDX 82 86 76 87 77 88 80 89 78 90 57 91 58 92 66 93 59 94 60 95
REMARK SMILES IDX 64 96 67 97 61 98 62 99 65 100 63 101
REMARK H PARENT 87 54 55 65
REMARK Flexibility Score: inf
ROOT
ATOM      1  O   UNL A   1      41.381  20.957  26.895  1.00  0.00    -0.377 OA
ENDROOT
BRANCH   1   2
ATOM      2  C   UNL A   1      40.184  21.697  27.097  1.00  0.00     0.188 C 
BRANCH   2   3
ATOM      3  C   UNL A   1      39.016  21.730  26.089  1.00  0.00     0.188 C 
BRANCH   3   4
ATOM      4  O   UNL A   1      38.620  23.031  25.675  1.00  0.00    -0.376 OA
BRANCH   4   5
ATOM      5  C   UNL A   1      37.238  23.340  25.683  1.00  0.00     0.202 C 
BRANCH   5   6
ATOM      6  C   UNL A   1      36.346  22.195  26.175  1.00  0.00     0.261 C 
BRANCH   6   7
ATOM      7  O   UNL A   1      34.959  22.352  25.846  1.00  0.00    -0.460 OA
BRANCH   7   8
ATOM      8  C   UNL A   1      34.162  22.814  26.825  1.00  0.00     0.338 C 
ATOM      9  O   UNL A   1      34.231  22.521  28.008  1.00  0.00    -0.246 OA
BRANCH   8  10
ATOM     10  C   UNL A   1      33.271  23.854  26.278  1.00  0.00     0.087 C 
ATOM     11  C   UNL A   1      31.693  28.289  24.569  1.00  0.00    -0.025 A 
ATOM     12  C   UNL A   1      31.115  27.266  25.344  1.00  0.00     0.052 A 
ATOM     13  C   UNL A   1      32.925  28.040  23.942  1.00  0.00     0.045 A 
ATOM     14  C   UNL A   1      31.815  26.095  25.613  1.00  0.00     0.128 A 
ATOM     15  C   UNL A   1      33.602  26.838  24.170  1.00  0.00     0.032 A 
ATOM     16  Cl  UNL A   1      33.709  29.210  22.943  1.00  0.00    -0.084 Cl
ATOM     17  C   UNL A   1      33.070  25.888  25.046  1.00  0.00     0.019 A 
ATOM     18  O   UNL A   1      31.261  25.268  26.552  1.00  0.00    -0.475 OA
ATOM     19  C   UNL A   1      33.866  24.758  25.488  1.00  0.00     0.027 C 
ATOM     20  C   UNL A   1      31.816  23.926  26.678  1.00  0.00     0.316 C 
BRANCH  11  21
ATOM     21  C   UNL A   1      31.024  29.648  24.588  1.00  0.00     0.040 C 
BRANCH  21  22
ATOM     22  C   UNL A   1      29.802  29.702  23.638  1.00  0.00    -0.013 C 
ATOM     23  C   UNL A   1      29.065  31.046  23.704  1.00  0.00     0.008 C 
ATOM     24  C   UNL A   1      30.228  29.413  22.201  1.00  0.00     0.008 C 
ENDBRANCH  21  22
ENDBRANCH  11  21
BRANCH  20  25
ATOM     25  C   UNL A   1      30.840  22.954  25.980  1.00  0.00     0.430 C 
ATOM     26  F   UNL A   1      31.494  21.826  25.597  1.00  0.00    -0.167 F 
ATOM     27  F   UNL A   1      29.833  22.567  26.795  1.00  0.00    -0.167 F 
ATOM     28  F   UNL A   1      30.299  23.468  24.855  1.00  0.00    -0.167 F 
ENDBRANCH  20  25
ENDBRANCH   8  10
ENDBRANCH   7   8
ENDBRANCH   6   7
ENDBRANCH   5   6
ENDBRANCH   4   5
ENDBRANCH   3   4
ENDBRANCH   2   3
ENDBRANCH   1   2
BRANCH   1  29
ATOM     29  C   UNL A   1      41.450  20.054  25.807  1.00  0.00     0.188 C 
BRANCH  29  30
ATOM     30  C   UNL A   1      42.818  19.364  25.669  1.00  0.00     0.188 C 
BRANCH  30  31
ATOM     31  O   UNL A   1      43.771  20.163  24.972  1.00  0.00    -0.376 OA
BRANCH  31  32
ATOM     32  C   UNL A   1      44.905  20.584  25.726  1.00  0.00     0.202 C 
BRANCH  32  33
ATOM     33  C   UNL A   1      45.241  22.085  25.704  1.00  0.00     0.261 C 
BRANCH  33  34
ATOM     34  O   UNL A   1      44.223  22.973  26.203  1.00  0.00    -0.460 OA
BRANCH  34  35
ATOM     35  C   UNL A   1      43.895  24.060  25.475  1.00  0.00     0.338 C 
ATOM     36  O   UNL A   1      43.963  24.194  24.266  1.00  0.00    -0.246 OA
BRANCH  35  37
ATOM     37  C   UNL A   1      43.223  25.012  26.387  1.00  0.00     0.060 A 
ATOM     38  C   UNL A   1      42.205  24.580  27.241  1.00  0.00     0.016 A 
ATOM     39  C   UNL A   1      43.588  26.364  26.353  1.00  0.00     0.016 A 
ATOM     40  C   UNL A   1      41.586  25.494  28.096  1.00  0.00     0.010 A 
ATOM     41  C   UNL A   1      42.960  27.281  27.199  1.00  0.00     0.010 A 
ATOM     42  C   UNL A   1      41.978  26.845  28.102  1.00  0.00    -0.014 A 
BRANCH  42  43
ATOM     43  C   UNL A   1      41.537  27.730  29.207  1.00  0.00     0.031 A 
ATOM     44  C   UNL A   1      40.350  28.633  29.100  1.00  0.00     0.074 A 
ATOM     45  C   UNL A   1      42.268  27.706  30.338  1.00  0.00     0.049 A 
ATOM     46  N   UNL A   1      39.808  29.385  30.027  1.00  0.00    -0.248 NA
ATOM     47  C   UNL A   1      39.688  28.717  27.793  1.00  0.00     0.031 C 
ATOM     48  C   UNL A   1      43.471  26.895  30.535  1.00  0.00     0.029 A 
ATOM     49  N   UNL A   1      42.109  28.364  31.530  1.00  0.00    -0.354 N 
ATOM     50  C   UNL A   1      38.725  30.012  29.426  1.00  0.00     0.074 A 
ATOM     51  C   UNL A   1      38.718  29.591  28.038  1.00  0.00     0.031 C 
ATOM     52  C   UNL A   1      43.923  27.080  31.783  1.00  0.00     0.029 A 
ATOM     53  C   UNL A   1      43.057  28.034  32.466  1.00  0.00     0.049 A 
ATOM     54  H   UNL A   1      41.385  29.011  31.698  1.00  0.00     0.167 HD
ATOM     55  C   UNL A   1      37.818  30.844  29.994  1.00  0.00     0.037 A 
ATOM     56  C   UNL A   1      43.209  28.443  33.739  1.00  0.00     0.037 A 
ATOM     57  C   UNL A   1      37.849  31.269  31.373  1.00  0.00     0.049 A 
ATOM     58  C   UNL A   1      42.207  29.392  34.331  1.00  0.00     0.074 A 
ATOM     59  C   UNL A   1      36.945  32.074  32.046  1.00  0.00     0.029 A 
ATOM     60  N   UNL A   1      38.841  30.938  32.285  1.00  0.00    -0.354 N 
ATOM     61  N   UNL A   1      41.135  29.906  33.780  1.00  0.00    -0.248 NA
ATOM     62  C   UNL A   1      42.430  29.811  35.721  1.00  0.00     0.031 C 
ATOM     63  C   UNL A   1      37.417  32.275  33.346  1.00  0.00     0.029 A 
ATOM     64  C   UNL A   1      38.585  31.548  33.505  1.00  0.00     0.049 A 
ATOM     65  H   UNL A   1      39.611  30.356  32.095  1.00  0.00     0.167 HD
ATOM     66  C   UNL A   1      40.540  30.686  34.761  1.00  0.00     0.074 A 
ATOM     67  C   UNL A   1      41.367  30.571  35.946  1.00  0.00     0.031 C 
ATOM     68  C   UNL A   1      39.408  31.426  34.682  1.00  0.00     0.037 A 
BRANCH  55  69
ATOM     69  C   UNL A   1      36.688  31.346  29.140  1.00  0.00     0.064 A 
ATOM     70  C   UNL A   1      35.588  30.530  28.839  1.00  0.00     0.173 A 
ATOM     71  C   UNL A   1      36.647  32.684  28.717  1.00  0.00     0.173 A 
ATOM     72  F   UNL A   1      35.575  29.245  29.222  1.00  0.00    -0.203 F 
ATOM     73  C   UNL A   1      34.494  31.031  28.135  1.00  0.00     0.198 A 
ATOM     74  C   UNL A   1      35.540  33.188  28.037  1.00  0.00     0.198 A 
ATOM     75  F   UNL A   1      37.665  33.513  28.992  1.00  0.00    -0.203 F 
ATOM     76  F   UNL A   1      33.465  30.225  27.839  1.00  0.00    -0.200 F 
ATOM     77  C   UNL A   1      34.466  32.361  27.744  1.00  0.00     0.200 A 
ATOM     78  F   UNL A   1      35.507  34.479  27.677  1.00  0.00    -0.200 F 
ATOM     79  F   UNL A   1      33.405  32.846  27.086  1.00  0.00    -0.200 F 
ENDBRANCH  55  69
BRANCH  56  80
ATOM     80  C   UNL A   1      44.325  27.893  34.547  1.00  0.00     0.064 A 
ATOM     81  C   UNL A   1      45.552  28.565  34.622  1.00  0.00     0.173 A 
ATOM     82  C   UNL A   1      44.172  26.722  35.303  1.00  0.00     0.173 A 
ATOM     83  F   UNL A   1      45.747  29.682  33.906  1.00  0.00    -0.203 F 
ATOM     84  C   UNL A   1      46.586  28.085  35.420  1.00  0.00     0.198 A 
ATOM     85  C   UNL A   1      45.197  26.256  36.121  1.00  0.00     0.198 A 
ATOM     86  F   UNL A   1      43.011  26.050  35.272  1.00  0.00    -0.203 F 
ATOM     87  F   UNL A   1      47.758  28.733  35.455  1.00  0.00    -0.200 F 
ATOM     88  C   UNL A   1      46.405  26.936  36.176  1.00  0.00     0.200 A 
ATOM     89  F   UNL A   1      45.012  25.157  36.865  1.00  0.00    -0.200 F 
ATOM     90  F   UNL A   1      47.395  26.484  36.958  1.00  0.00    -0.200 F 
ENDBRANCH  56  80
BRANCH  68  91
ATOM     91  C   UNL A   1      38.968  32.163  35.914  1.00  0.00     0.064 A 
ATOM     92  C   UNL A   1      38.177  31.547  36.893  1.00  0.00     0.173 A 
ATOM     93  C   UNL A   1      39.418  33.470  36.157  1.00  0.00     0.173 A 
ATOM     94  F   UNL A   1      37.709  30.304  36.701  1.00  0.00    -0.203 F 
ATOM     95  C   UNL A   1      37.848  32.215  38.071  1.00  0.00     0.198 A 
ATOM     96  C   UNL A   1      39.111  34.124  37.347  1.00  0.00     0.198 A 
ATOM     97  F   UNL A   1      40.182  34.101  35.253  1.00  0.00    -0.203 F 
ATOM     98  F   UNL A   1      37.071  31.616  38.984  1.00  0.00    -0.200 F 
ATOM     99  C   UNL A   1      38.326  33.496  38.302  1.00  0.00     0.200 A 
ATOM    100  F   UNL A   1      39.586  35.356  37.575  1.00  0.00    -0.200 F 
ATOM    101  F   UNL A   1      38.029  34.127  39.447  1.00  0.00    -0.200 F 
ENDBRANCH  68  91
ENDBRANCH  42  43
ENDBRANCH  35  37
ENDBRANCH  34  35
ENDBRANCH  33  34
ENDBRANCH  32  33
ENDBRANCH  31  32
ENDBRANCH  30  31
ENDBRANCH  29  30
ENDBRANCH   1  29
TORSDOF 23
ENDMDL
MODEL 2
REMARK VINA RESULT:     -10.7      1.632      2.569
REMARK SMILES CC(C)Cc1cc2c(cc1Cl)C=C(C(=O)OCCOCCOCCOCCOC(=O)c1ccc(-c3c4nc(c(-c5c(F)c(F)c(F)c(F)c5F)c5ccc([nH]5)c(-c5c(F)c(F)c(F)c(F)c5F)c5nc(c(-c6c(F)c(F)c(F)c(F)c6F)c6ccc3[nH]6)C=C5)C=C4)cc1)[C@H](C(F)(F)F)O2
REMARK SMILES IDX 22 1 21 2 20 3 19 4 18 5 17 6 16 7 14 8 15 9 13 10 5 11 6 12
REMARK SMILES IDX 10 13 7 14 9 15 11 16 8 17 99 18 12 19 94 20 4 21 2 22 1 23
REMARK SMILES IDX 3 24 95 25 96 26 97 27 98 28 23 29 24 30 25 31 26 32 27 33
REMARK SMILES IDX 28 34 29 35 30 36 31 37 32 38 93 39 33 40 92 41 34 42 35 43
REMARK SMILES IDX 36 44 86 45 37 46 91 47 85 48 87 49 38 50 90 51 84 52 83 53
REMARK SMILES IDX 39 55 71 56 51 57 70 58 52 59 55 60 69 61 88 62 53 63 54 64
REMARK SMILES IDX 68 66 89 67 56 68 40 69 41 70 49 71 42 72 43 73 47 74 50 75
REMARK SMILES IDX 44 76 45 77 48 78 46 79 72 80 73 81 81 82 74 83 75 84 79 85
REMARK SMILES IDX 82 86 76 87 77 88 80 89 78 90 57 91 58 92 66 93 59 94 60 95
REMARK SMILES IDX 64 96 67 97 61 98 62 99 65 100 63 101
REMARK H PARENT 87 54 55 65
REMARK Flexibility Score: inf
ROOT
ATOM      1  O   UNL A   1      38.764  21.780  26.028  1.00  0.00    -0.377 OA
ENDROOT
BRANCH   1   2
ATOM      2  C   UNL A   1      37.923  21.422  24.941  1.00  0.00     0.188 C 
BRANCH   2   3
ATOM      3  C   UNL A   1      36.407  21.168  25.078  1.00  0.00     0.188 C 
BRANCH   3   4
ATOM      4  O   UNL A   1      35.648  22.294  25.499  1.00  0.00    -0.376 OA
BRANCH   4   5
ATOM      5  C   UNL A   1      34.857  22.166  26.666  1.00  0.00     0.202 C 
BRANCH   5   6
ATOM      6  C   UNL A   1      33.348  22.184  26.401  1.00  0.00     0.261 C 
BRANCH   6   7
ATOM      7  O   UNL A   1      32.844  23.456  25.974  1.00  0.00    -0.460 OA
BRANCH   7   8
ATOM      8  C   UNL A   1      32.297  23.501  24.746  1.00  0.00     0.338 C 
ATOM      9  O   UNL A   1      32.093  22.546  24.015  1.00  0.00    -0.246 OA
BRANCH   8  10
ATOM     10  C   UNL A   1      31.837  24.874  24.469  1.00  0.00     0.087 C 
ATOM     11  C   UNL A   1      28.960  28.652  22.876  1.00  0.00    -0.025 A 
ATOM     12  C   UNL A   1      30.348  28.417  22.921  1.00  0.00     0.052 A 
ATOM     13  C   UNL A   1      28.108  27.766  23.556  1.00  0.00     0.045 A 
ATOM     14  C   UNL A   1      30.854  27.254  23.490  1.00  0.00     0.128 A 
ATOM     15  C   UNL A   1      28.627  26.625  24.176  1.00  0.00     0.032 A 
ATOM     16  Cl  UNL A   1      26.394  27.976  23.595  1.00  0.00    -0.084 Cl
ATOM     17  C   UNL A   1      29.993  26.344  24.099  1.00  0.00     0.019 A 
ATOM     18  O   UNL A   1      32.186  27.016  23.285  1.00  0.00    -0.475 OA
ATOM     19  C   UNL A   1      30.509  25.052  24.512  1.00  0.00     0.027 C 
ATOM     20  C   UNL A   1      32.810  25.958  24.069  1.00  0.00     0.316 C 
BRANCH  11  21
ATOM     21  C   UNL A   1      28.464  29.757  21.966  1.00  0.00     0.040 C 
BRANCH  21  22
ATOM     22  C   UNL A   1      28.621  31.153  22.618  1.00  0.00    -0.013 C 
ATOM     23  C   UNL A   1      28.552  32.292  21.593  1.00  0.00     0.008 C 
ATOM     24  C   UNL A   1      27.563  31.362  23.699  1.00  0.00     0.008 C 
ENDBRANCH  21  22
ENDBRANCH  11  21
BRANCH  20  25
ATOM     25  C   UNL A   1      33.622  26.633  25.196  1.00  0.00     0.430 C 
ATOM     26  F   UNL A   1      32.858  26.761  26.313  1.00  0.00    -0.167 F 
ATOM     27  F   UNL A   1      34.711  25.913  25.544  1.00  0.00    -0.167 F 
ATOM     28  F   UNL A   1      34.025  27.882  24.878  1.00  0.00    -0.167 F 
ENDBRANCH  20  25
ENDBRANCH   8  10
ENDBRANCH   7   8
ENDBRANCH   6   7
ENDBRANCH   5   6
ENDBRANCH   4   5
ENDBRANCH   3   4
ENDBRANCH   2   3
ENDBRANCH   1   2
BRANCH   1  29
ATOM     29  C   UNL A   1      39.897  20.977  26.310  1.00  0.00     0.188 C 
BRANCH  29  30
ATOM     30  C   UNL A   1      40.706  21.464  27.525  1.00  0.00     0.188 C 
BRANCH  30  31
ATOM     31  O   UNL A   1      42.093  21.148  27.426  1.00  0.00    -0.376 OA
BRANCH  31  32
ATOM     32  C   UNL A   1      42.563  20.793  26.129  1.00  0.00     0.202 C 
BRANCH  32  33
ATOM     33  C   UNL A   1      43.443  21.822  25.399  1.00  0.00     0.261 C 
BRANCH  33  34
ATOM     34  O   UNL A   1      42.953  23.175  25.374  1.00  0.00    -0.460 OA
BRANCH  34  35
ATOM     35  C   UNL A   1      43.843  24.189  25.363  1.00  0.00     0.338 C 
ATOM     36  O   UNL A   1      44.622  24.485  24.474  1.00  0.00    -0.246 OA
BRANCH  35  37
ATOM     37  C   UNL A   1      43.565  25.032  26.547  1.00  0.00     0.060 A 
ATOM     38  C   UNL A   1      44.067  26.334  26.626  1.00  0.00     0.016 A 
ATOM     39  C   UNL A   1      42.829  24.493  27.611  1.00  0.00     0.016 A 
ATOM     40  C   UNL A   1      43.790  27.113  27.751  1.00  0.00     0.010 A 
ATOM     41  C   UNL A   1      42.563  25.269  28.742  1.00  0.00     0.010 A 
ATOM     42  C   UNL A   1      43.012  26.597  28.804  1.00  0.00    -0.014 A 
BRANCH  42  43
ATOM     43  C   UNL A   1      42.477  27.517  29.837  1.00  0.00     0.031 A 
ATOM     44  C   UNL A   1      41.246  28.341  29.631  1.00  0.00     0.074 A 
ATOM     45  C   UNL A   1      43.160  27.600  30.994  1.00  0.00     0.049 A 
ATOM     46  N   UNL A   1      40.625  29.112  30.491  1.00  0.00    -0.248 NA
ATOM     47  C   UNL A   1      40.636  28.311  28.297  1.00  0.00     0.031 C 
ATOM     48  C   UNL A   1      44.398  26.873  31.284  1.00  0.00     0.029 A 
ATOM     49  N   UNL A   1      42.916  28.314  32.138  1.00  0.00    -0.354 N 
ATOM     50  C   UNL A   1      39.535  29.639  29.813  1.00  0.00     0.074 A 
ATOM     51  C   UNL A   1      39.609  29.141  28.453  1.00  0.00     0.031 C 
ATOM     52  C   UNL A   1      44.788  27.154  32.535  1.00  0.00     0.029 A 
ATOM     53  C   UNL A   1      43.841  28.094  33.127  1.00  0.00     0.049 A 
ATOM     54  H   UNL A   1      42.151  28.926  32.240  1.00  0.00     0.167 HD
ATOM     55  C   UNL A   1      38.560  30.448  30.295  1.00  0.00     0.037 A 
ATOM     56  C   UNL A   1      43.917  28.583  34.379  1.00  0.00     0.037 A 
ATOM     57  C   UNL A   1      38.510  30.952  31.647  1.00  0.00     0.049 A 
ATOM     58  C   UNL A   1      42.841  29.504  34.875  1.00  0.00     0.074 A 
ATOM     59  C   UNL A   1      37.536  31.740  32.236  1.00  0.00     0.029 A 
ATOM     60  N   UNL A   1      39.481  30.732  32.615  1.00  0.00    -0.354 N 
ATOM     61  N   UNL A   1      41.765  29.923  34.254  1.00  0.00    -0.248 NA
ATOM     62  C   UNL A   1      42.982  30.014  36.245  1.00  0.00     0.031 C 
ATOM     63  C   UNL A   1      37.942  32.042  33.539  1.00  0.00     0.029 A 
ATOM     64  C   UNL A   1      39.141  31.395  33.785  1.00  0.00     0.049 A 
ATOM     65  H   UNL A   1      40.290  30.186  32.489  1.00  0.00     0.167 HD
ATOM     66  C   UNL A   1      41.087  30.721  35.164  1.00  0.00     0.074 A 
ATOM     67  C   UNL A   1      41.870  30.723  36.384  1.00  0.00     0.031 C 
ATOM     68  C   UNL A   1      39.920  31.388  34.998  1.00  0.00     0.037 A 
BRANCH  55  69
ATOM     69  C   UNL A   1      37.441  30.834  29.371  1.00  0.00     0.064 A 
ATOM     70  C   UNL A   1      36.411  29.933  29.062  1.00  0.00     0.173 A 
ATOM     71  C   UNL A   1      37.331  32.146  28.884  1.00  0.00     0.173 A 
ATOM     72  F   UNL A   1      36.466  28.668  29.504  1.00  0.00    -0.203 F 
ATOM     73  C   UNL A   1      35.321  30.326  28.289  1.00  0.00     0.198 A 
ATOM     74  C   UNL A   1      36.225  32.543  28.134  1.00  0.00     0.198 A 
ATOM     75  F   UNL A   1      38.278  33.053  29.163  1.00  0.00    -0.203 F 
ATOM     76  F   UNL A   1      34.362  29.440  27.987  1.00  0.00    -0.200 F 
ATOM     77  C   UNL A   1      35.223  31.633  27.835  1.00  0.00     0.200 A 
ATOM     78  F   UNL A   1      36.124  33.811  27.713  1.00  0.00    -0.200 F 
ATOM     79  F   UNL A   1      34.163  32.015  27.110  1.00  0.00    -0.200 F 
ENDBRANCH  55  69
BRANCH  56  80
ATOM     80  C   UNL A   1      45.028  28.145  35.259  1.00  0.00     0.064 A 
ATOM     81  C   UNL A   1      46.240  28.850  35.285  1.00  0.00     0.173 A 
ATOM     82  C   UNL A   1      44.885  27.057  36.132  1.00  0.00     0.173 A 
ATOM     83  F   UNL A   1      46.426  29.890  34.460  1.00  0.00    -0.203 F 
ATOM     84  C   UNL A   1      47.267  28.479  36.147  1.00  0.00     0.198 A 
ATOM     85  C   UNL A   1      45.903  26.703  37.012  1.00  0.00     0.198 A 
ATOM     86  F   UNL A   1      43.739  26.359  36.151  1.00  0.00    -0.203 F 
ATOM     87  F   UNL A   1      48.425  29.153  36.135  1.00  0.00    -0.200 F 
ATOM     88  C   UNL A   1      47.095  27.412  37.017  1.00  0.00     0.200 A 
ATOM     89  F   UNL A   1      45.726  25.684  37.864  1.00  0.00    -0.200 F 
ATOM     90  F   UNL A   1      48.078  27.067  37.859  1.00  0.00    -0.200 F 
ENDBRANCH  56  80
BRANCH  68  91
ATOM     91  C   UNL A   1      39.389  32.167  36.166  1.00  0.00     0.064 A 
ATOM     92  C   UNL A   1      39.808  33.480  36.423  1.00  0.00     0.173 A 
ATOM     93  C   UNL A   1      38.385  31.625  36.983  1.00  0.00     0.173 A 
ATOM     94  F   UNL A   1      40.775  34.038  35.680  1.00  0.00    -0.203 F 
ATOM     95  C   UNL A   1      39.242  34.221  37.459  1.00  0.00     0.198 A 
ATOM     96  C   UNL A   1      37.802  32.378  38.000  1.00  0.00     0.198 A 
ATOM     97  F   UNL A   1      37.946  30.374  36.776  1.00  0.00    -0.203 F 
ATOM     98  F   UNL A   1      39.674  35.466  37.702  1.00  0.00    -0.200 F 
ATOM     99  C   UNL A   1      38.233  33.675  38.237  1.00  0.00     0.200 A 
ATOM    100  F   UNL A   1      36.817  31.852  38.741  1.00  0.00    -0.200 F 
ATOM    101  F   UNL A   1      37.674  34.398  39.217  1.00  0.00    -0.200 F 
ENDBRANCH  68  91
ENDBRANCH  42  43
ENDBRANCH  35  37
ENDBRANCH  34  35
ENDBRANCH  33  34
ENDBRANCH  32  33
ENDBRANCH  31  32
ENDBRANCH  30  31
ENDBRANCH  29  30
ENDBRANCH   1  29
TORSDOF 23
ENDMDL
MODEL 3
REMARK VINA RESULT:     -10.6      4.324      8.508
REMARK SMILES CC(C)Cc1cc2c(cc1Cl)C=C(C(=O)OCCOCCOCCOCCOC(=O)c1ccc(-c3c4nc(c(-c5c(F)c(F)c(F)c(F)c5F)c5ccc([nH]5)c(-c5c(F)c(F)c(F)c(F)c5F)c5nc(c(-c6c(F)c(F)c(F)c(F)c6F)c6ccc3[nH]6)C=C5)C=C4)cc1)[C@H](C(F)(F)F)O2
REMARK SMILES IDX 22 1 21 2 20 3 19 4 18 5 17 6 16 7 14 8 15 9 13 10 5 11 6 12
REMARK SMILES IDX 10 13 7 14 9 15 11 16 8 17 99 18 12 19 94 20 4 21 2 22 1 23
REMARK SMILES IDX 3 24 95 25 96 26 97 27 98 28 23 29 24 30 25 31 26 32 27 33
REMARK SMILES IDX 28 34 29 35 30 36 31 37 32 38 93 39 33 40 92 41 34 42 35 43
REMARK SMILES IDX 36 44 86 45 37 46 91 47 85 48 87 49 38 50 90 51 84 52 83 53
REMARK SMILES IDX 39 55 71 56 51 57 70 58 52 59 55 60 69 61 88 62 53 63 54 64
REMARK SMILES IDX 68 66 89 67 56 68 40 69 41 70 49 71 42 72 43 73 47 74 50 75
REMARK SMILES IDX 44 76 45 77 48 78 46 79 72 80 73 81 81 82 74 83 75 84 79 85
REMARK SMILES IDX 82 86 76 87 77 88 80 89 78 90 57 91 58 92 66 93 59 94 60 95
REMARK SMILES IDX 64 96 67 97 61 98 62 99 65 100 63 101
REMARK H PARENT 87 54 55 65
REMARK Flexibility Score: inf
ROOT
ATOM      1  O   UNL A   1      32.161  20.314  24.146  1.00  0.00    -0.377 OA
ENDROOT
BRANCH   1   2
ATOM      2  C   UNL A   1      32.484  21.224  23.103  1.00  0.00     0.188 C 
BRANCH   2   3
ATOM      3  C   UNL A   1      32.851  22.705  23.341  1.00  0.00     0.188 C 
BRANCH   3   4
ATOM      4  O   UNL A   1      33.891  23.203  22.509  1.00  0.00    -0.376 OA
BRANCH   4   5
ATOM      5  C   UNL A   1      34.882  24.024  23.101  1.00  0.00     0.202 C 
BRANCH   5   6
ATOM      6  C   UNL A   1      35.005  23.855  24.619  1.00  0.00     0.261 C 
BRANCH   6   7
ATOM      7  O   UNL A   1      34.581  25.000  25.371  1.00  0.00    -0.460 OA
BRANCH   7   8
ATOM      8  C   UNL A   1      33.309  24.992  25.804  1.00  0.00     0.338 C 
ATOM      9  O   UNL A   1      32.807  24.165  26.547  1.00  0.00    -0.246 OA
BRANCH   8  10
ATOM     10  C   UNL A   1      32.637  26.229  25.363  1.00  0.00     0.087 C 
ATOM     11  C   UNL A   1      29.456  29.273  22.976  1.00  0.00    -0.025 A 
ATOM     12  C   UNL A   1      30.812  29.355  23.348  1.00  0.00     0.052 A 
ATOM     13  C   UNL A   1      28.684  28.217  23.486  1.00  0.00     0.045 A 
ATOM     14  C   UNL A   1      31.414  28.332  24.073  1.00  0.00     0.128 A 
ATOM     15  C   UNL A   1      29.280  27.217  24.262  1.00  0.00     0.032 A 
ATOM     16  Cl  UNL A   1      27.005  28.037  23.123  1.00  0.00    -0.084 Cl
ATOM     17  C   UNL A   1      30.655  27.250  24.512  1.00  0.00     0.019 A 
ATOM     18  O   UNL A   1      32.776  28.400  24.188  1.00  0.00    -0.475 OA
ATOM     19  C   UNL A   1      31.330  26.104  25.093  1.00  0.00     0.027 C 
ATOM     20  C   UNL A   1      33.415  27.504  25.144  1.00  0.00     0.316 C 
BRANCH  11  21
ATOM     21  C   UNL A   1      28.957  30.243  21.925  1.00  0.00     0.040 C 
BRANCH  21  22
ATOM     22  C   UNL A   1      28.696  31.651  22.518  1.00  0.00    -0.013 C 
ATOM     23  C   UNL A   1      28.213  32.653  21.462  1.00  0.00     0.008 C 
ATOM     24  C   UNL A   1      27.687  31.572  23.661  1.00  0.00     0.008 C 
ENDBRANCH  21  22
ENDBRANCH  11  21
BRANCH  20  25
ATOM     25  C   UNL A   1      33.775  28.339  26.393  1.00  0.00     0.430 C 
ATOM     26  F   UNL A   1      32.956  28.013  27.427  1.00  0.00    -0.167 F 
ATOM     27  F   UNL A   1      35.041  28.120  26.808  1.00  0.00    -0.167 F 
ATOM     28  F   UNL A   1      33.617  29.666  26.201  1.00  0.00    -0.167 F 
ENDBRANCH  20  25
ENDBRANCH   8  10
ENDBRANCH   7   8
ENDBRANCH   6   7
ENDBRANCH   5   6
ENDBRANCH   4   5
ENDBRANCH   3   4
ENDBRANCH   2   3
ENDBRANCH   1   2
BRANCH   1  29
ATOM     29  C   UNL A   1      33.076  19.278  24.456  1.00  0.00     0.188 C 
BRANCH  29  30
ATOM     30  C   UNL A   1      34.513  19.778  24.687  1.00  0.00     0.188 C 
BRANCH  30  31
ATOM     31  O   UNL A   1      35.477  18.729  24.628  1.00  0.00    -0.376 OA
BRANCH  31  32
ATOM     32  C   UNL A   1      36.815  19.090  24.958  1.00  0.00     0.202 C 
BRANCH  32  33
ATOM     33  C   UNL A   1      37.246  20.534  24.650  1.00  0.00     0.261 C 
BRANCH  33  34
ATOM     34  O   UNL A   1      37.800  21.281  25.749  1.00  0.00    -0.460 OA
BRANCH  34  35
ATOM     35  C   UNL A   1      39.085  21.067  26.100  1.00  0.00     0.338 C 
ATOM     36  O   UNL A   1      39.760  20.077  25.883  1.00  0.00    -0.246 OA
BRANCH  35  37
ATOM     37  C   UNL A   1      39.618  22.347  26.618  1.00  0.00     0.060 A 
ATOM     38  C   UNL A   1      40.666  22.357  27.542  1.00  0.00     0.016 A 
ATOM     39  C   UNL A   1      39.029  23.549  26.205  1.00  0.00     0.016 A 
ATOM     40  C   UNL A   1      41.157  23.576  28.016  1.00  0.00     0.010 A 
ATOM     41  C   UNL A   1      39.511  24.768  26.689  1.00  0.00     0.010 A 
ATOM     42  C   UNL A   1      40.603  24.790  27.571  1.00  0.00    -0.014 A 
BRANCH  42  43
ATOM     43  C   UNL A   1      41.317  26.062  27.840  1.00  0.00     0.031 A 
ATOM     44  C   UNL A   1      42.717  26.319  27.383  1.00  0.00     0.074 A 
ATOM     45  C   UNL A   1      40.651  27.000  28.541  1.00  0.00     0.049 A 
ATOM     46  N   UNL A   1      43.417  27.424  27.474  1.00  0.00    -0.248 NA
ATOM     47  C   UNL A   1      43.432  25.203  26.753  1.00  0.00     0.031 C 
ATOM     48  C   UNL A   1      39.297  26.837  29.073  1.00  0.00     0.029 A 
ATOM     49  N   UNL A   1      41.009  28.268  28.917  1.00  0.00    -0.354 N 
ATOM     50  C   UNL A   1      44.645  27.147  26.891  1.00  0.00     0.074 A 
ATOM     51  C   UNL A   1      44.614  25.752  26.495  1.00  0.00     0.031 C 
ATOM     52  C   UNL A   1      38.926  27.972  29.680  1.00  0.00     0.029 A 
ATOM     53  C   UNL A   1      40.020  28.934  29.598  1.00  0.00     0.049 A 
ATOM     54  H   UNL A   1      41.889  28.663  28.720  1.00  0.00     0.167 HD
ATOM     55  C   UNL A   1      45.688  27.991  26.693  1.00  0.00     0.037 A 
ATOM     56  C   UNL A   1      39.989  30.186  30.093  1.00  0.00     0.037 A 
ATOM     57  C   UNL A   1      45.712  29.372  27.110  1.00  0.00     0.049 A 
ATOM     58  C   UNL A   1      41.172  31.086  29.888  1.00  0.00     0.074 A 
ATOM     59  C   UNL A   1      46.708  30.314  26.911  1.00  0.00     0.029 A 
ATOM     60  N   UNL A   1      44.704  30.006  27.823  1.00  0.00    -0.354 N 
ATOM     61  N   UNL A   1      42.293  30.843  29.254  1.00  0.00    -0.248 NA
ATOM     62  C   UNL A   1      41.085  32.437  30.459  1.00  0.00     0.031 C 
ATOM     63  C   UNL A   1      46.328  31.498  27.549  1.00  0.00     0.029 A 
ATOM     64  C   UNL A   1      45.069  31.316  28.097  1.00  0.00     0.049 A 
ATOM     65  H   UNL A   1      43.856  29.588  28.094  1.00  0.00     0.167 HD
ATOM     66  C   UNL A   1      43.032  32.015  29.324  1.00  0.00     0.074 A 
ATOM     67  C   UNL A   1      42.229  32.974  30.057  1.00  0.00     0.031 C 
ATOM     68  C   UNL A   1      44.264  32.268  28.821  1.00  0.00     0.037 A 
BRANCH  55  69
ATOM     69  C   UNL A   1      46.897  27.464  25.973  1.00  0.00     0.064 A 
ATOM     70  C   UNL A   1      47.035  27.610  24.585  1.00  0.00     0.173 A 
ATOM     71  C   UNL A   1      47.975  26.916  26.685  1.00  0.00     0.173 A 
ATOM     72  F   UNL A   1      46.035  28.131  23.857  1.00  0.00    -0.203 F 
ATOM     73  C   UNL A   1      48.202  27.214  23.934  1.00  0.00     0.198 A 
ATOM     74  C   UNL A   1      49.151  26.547  26.034  1.00  0.00     0.198 A 
ATOM     75  F   UNL A   1      47.903  26.769  28.015  1.00  0.00    -0.203 F 
ATOM     76  F   UNL A   1      48.301  27.342  22.603  1.00  0.00    -0.200 F 
ATOM     77  C   UNL A   1      49.262  26.693  24.660  1.00  0.00     0.200 A 
ATOM     78  F   UNL A   1      50.182  26.061  26.739  1.00  0.00    -0.200 F 
ATOM     79  F   UNL A   1      50.391  26.333  24.035  1.00  0.00    -0.200 F 
ENDBRANCH  55  69
BRANCH  56  80
ATOM     80  C   UNL A   1      38.759  30.664  30.770  1.00  0.00     0.064 A 
ATOM     81  C   UNL A   1      38.631  30.580  32.163  1.00  0.00     0.173 A 
ATOM     82  C   UNL A   1      37.716  31.266  30.051  1.00  0.00     0.173 A 
ATOM     83  F   UNL A   1      39.598  30.002  32.890  1.00  0.00    -0.203 F 
ATOM     84  C   UNL A   1      37.504  31.077  32.811  1.00  0.00     0.198 A 
ATOM     85  C   UNL A   1      36.601  31.786  30.702  1.00  0.00     0.198 A 
ATOM     86  F   UNL A   1      37.799  31.380  28.716  1.00  0.00    -0.203 F 
ATOM     87  F   UNL A   1      37.394  30.962  34.141  1.00  0.00    -0.200 F 
ATOM     88  C   UNL A   1      36.494  31.687  32.081  1.00  0.00     0.200 A 
ATOM     89  F   UNL A   1      35.637  32.392  29.997  1.00  0.00    -0.200 F 
ATOM     90  F   UNL A   1      35.417  32.181  32.708  1.00  0.00    -0.200 F 
ENDBRANCH  56  80
BRANCH  68  91
ATOM     91  C   UNL A   1      44.830  33.644  29.019  1.00  0.00     0.064 A 
ATOM     92  C   UNL A   1      44.539  34.691  28.133  1.00  0.00     0.173 A 
ATOM     93  C   UNL A   1      45.598  33.939  30.157  1.00  0.00     0.173 A 
ATOM     94  F   UNL A   1      43.822  34.458  27.024  1.00  0.00    -0.203 F 
ATOM     95  C   UNL A   1      45.000  35.983  28.378  1.00  0.00     0.198 A 
ATOM     96  C   UNL A   1      46.033  35.236  30.412  1.00  0.00     0.198 A 
ATOM     97  F   UNL A   1      45.899  32.973  31.038  1.00  0.00    -0.203 F 
ATOM     98  F   UNL A   1      44.731  36.964  27.506  1.00  0.00    -0.200 F 
ATOM     99  C   UNL A   1      45.735  36.257  29.521  1.00  0.00     0.200 A 
ATOM    100  F   UNL A   1      46.730  35.501  31.526  1.00  0.00    -0.200 F 
ATOM    101  F   UNL A   1      46.156  37.505  29.766  1.00  0.00    -0.200 F 
ENDBRANCH  68  91
ENDBRANCH  42  43
ENDBRANCH  35  37
ENDBRANCH  34  35
ENDBRANCH  33  34
ENDBRANCH  32  33
ENDBRANCH  31  32
ENDBRANCH  30  31
ENDBRANCH  29  30
ENDBRANCH   1  29
TORSDOF 23
ENDMDL
