MODEL 1
REMARK VINA RESULT:     -10.5      0.000      0.000
REMARK SMILES O=C(OCCOCCOCCOCCOC(=O)c1ccc(Cn2ccc3ccc(Br)cc32)nc1)c1ccc(-c2c3nc(c(-c4c(F)c(F)c(F)c(F)c4F)c4ccc([nH]4)c(-c4c(F)c(F)c(F)c(F)c4F)c4nc(c(-c5c(F)c(F)c(F)c(F)c5F)c5ccc2[nH]5)C=C4)C=C3)cc1
REMARK SMILES IDX 9 1 8 2 7 3 6 4 5 5 4 6 3 7 2 8 1 9 35 10 36 11 97 12 37 13
REMARK SMILES IDX 96 14 38 15 39 16 40 17 90 18 41 19 95 20 89 21 91 22 42 23
REMARK SMILES IDX 94 24 88 25 87 26 43 28 75 29 55 30 74 31 56 32 59 33 73 34
REMARK SMILES IDX 92 35 57 36 58 37 72 39 93 40 60 41 44 42 45 43 53 44 46 45
REMARK SMILES IDX 47 46 51 47 54 48 48 49 49 50 52 51 50 52 76 53 77 54 85 55
REMARK SMILES IDX 78 56 79 57 83 58 86 59 80 60 81 61 84 62 82 63 61 64 62 65
REMARK SMILES IDX 70 66 63 67 64 68 68 69 71 70 65 71 66 72 69 73 67 74 10 75
REMARK SMILES IDX 11 76 12 77 13 78 14 79 15 80 16 81 17 82 18 83 19 84 34 85
REMARK SMILES IDX 20 86 33 87 21 88 22 89 23 90 24 91 32 92 25 93 26 94 31 95
REMARK SMILES IDX 27 96 29 97 28 98 30 99
REMARK H PARENT 91 27 59 38
REMARK Flexibility Score: inf
ROOT
ATOM      1  O   UNL A   1      34.118  21.052  26.453  1.00  0.00    -0.377 OA
ENDROOT
BRANCH   1   2
ATOM      2  C   UNL A   1      34.505  22.404  26.264  1.00  0.00     0.188 C 
BRANCH   2   3
ATOM      3  C   UNL A   1      35.938  22.637  25.773  1.00  0.00     0.188 C 
BRANCH   3   4
ATOM      4  O   UNL A   1      36.124  22.346  24.396  1.00  0.00    -0.376 OA
BRANCH   4   5
ATOM      5  C   UNL A   1      37.232  21.528  24.081  1.00  0.00     0.202 C 
BRANCH   5   6
ATOM      6  C   UNL A   1      38.195  21.299  25.243  1.00  0.00     0.261 C 
BRANCH   6   7
ATOM      7  O   UNL A   1      38.560  22.428  26.071  1.00  0.00    -0.460 OA
BRANCH   7   8
ATOM      8  C   UNL A   1      39.780  22.936  26.374  1.00  0.00     0.338 C 
ATOM      9  O   UNL A   1      40.796  22.322  26.059  1.00  0.00    -0.246 OA
BRANCH   8  10
ATOM     10  C   UNL A   1      39.908  24.185  27.168  1.00  0.00     0.060 A 
ATOM     11  C   UNL A   1      41.067  24.342  27.942  1.00  0.00     0.016 A 
ATOM     12  C   UNL A   1      38.899  25.148  27.239  1.00  0.00     0.016 A 
ATOM     13  C   UNL A   1      41.155  25.383  28.868  1.00  0.00     0.010 A 
ATOM     14  C   UNL A   1      38.965  26.161  28.204  1.00  0.00     0.010 A 
ATOM     15  C   UNL A   1      40.080  26.270  29.049  1.00  0.00    -0.014 A 
BRANCH  15  16
ATOM     16  C   UNL A   1      40.326  27.528  29.789  1.00  0.00     0.031 A 
ATOM     17  C   UNL A   1      41.452  28.228  29.163  1.00  0.00     0.074 A 
ATOM     18  C   UNL A   1      39.693  28.127  30.823  1.00  0.00     0.049 A 
ATOM     19  N   UNL A   1      42.661  28.234  29.616  1.00  0.00    -0.248 NA
ATOM     20  C   UNL A   1      41.292  28.755  27.803  1.00  0.00     0.031 C 
ATOM     21  C   UNL A   1      38.550  27.628  31.533  1.00  0.00     0.029 A 
ATOM     22  N   UNL A   1      39.903  29.327  31.471  1.00  0.00    -0.354 N 
ATOM     23  C   UNL A   1      43.351  29.015  28.713  1.00  0.00     0.074 A 
ATOM     24  C   UNL A   1      42.556  29.067  27.511  1.00  0.00     0.031 C 
ATOM     25  C   UNL A   1      37.961  28.571  32.286  1.00  0.00     0.029 A 
ATOM     26  C   UNL A   1      38.823  29.721  32.274  1.00  0.00     0.049 A 
ATOM     27  H   UNL A   1      40.729  29.853  31.380  1.00  0.00     0.167 HD
ATOM     28  C   UNL A   1      44.271  29.895  29.178  1.00  0.00     0.037 A 
ATOM     29  C   UNL A   1      38.648  30.779  33.105  1.00  0.00     0.037 A 
ATOM     30  C   UNL A   1      44.694  29.568  30.518  1.00  0.00     0.049 A 
ATOM     31  C   UNL A   1      39.995  31.256  33.450  1.00  0.00     0.074 A 
ATOM     32  C   UNL A   1      45.335  28.504  31.119  1.00  0.00     0.029 A 
ATOM     33  N   UNL A   1      44.056  30.264  31.510  1.00  0.00    -0.354 N 
ATOM     34  N   UNL A   1      40.818  30.605  34.226  1.00  0.00    -0.248 NA
ATOM     35  C   UNL A   1      40.596  32.247  32.575  1.00  0.00     0.031 C 
ATOM     36  C   UNL A   1      44.857  28.460  32.461  1.00  0.00     0.029 A 
ATOM     37  C   UNL A   1      43.977  29.523  32.659  1.00  0.00     0.049 A 
ATOM     38  H   UNL A   1      43.702  31.176  31.411  1.00  0.00     0.167 HD
ATOM     39  C   UNL A   1      42.050  30.774  33.623  1.00  0.00     0.074 A 
ATOM     40  C   UNL A   1      41.876  31.895  32.705  1.00  0.00     0.031 C 
ATOM     41  C   UNL A   1      42.994  29.792  33.690  1.00  0.00     0.037 A 
BRANCH  28  42
ATOM     42  C   UNL A   1      44.366  31.288  28.618  1.00  0.00     0.064 A 
ATOM     43  C   UNL A   1      45.574  31.723  28.058  1.00  0.00     0.173 A 
ATOM     44  C   UNL A   1      43.394  32.293  28.841  1.00  0.00     0.173 A 
ATOM     45  F   UNL A   1      46.595  30.868  27.901  1.00  0.00    -0.203 F 
ATOM     46  C   UNL A   1      45.782  33.065  27.725  1.00  0.00     0.198 A 
ATOM     47  C   UNL A   1      43.573  33.611  28.439  1.00  0.00     0.198 A 
ATOM     48  F   UNL A   1      42.290  32.072  29.566  1.00  0.00    -0.203 F 
ATOM     49  F   UNL A   1      46.983  33.460  27.286  1.00  0.00    -0.200 F 
ATOM     50  C   UNL A   1      44.774  34.001  27.895  1.00  0.00     0.200 A 
ATOM     51  F   UNL A   1      42.598  34.504  28.656  1.00  0.00    -0.200 F 
ATOM     52  F   UNL A   1      44.982  35.289  27.596  1.00  0.00    -0.200 F 
ENDBRANCH  28  42
BRANCH  29  53
ATOM     53  C   UNL A   1      37.385  31.504  33.418  1.00  0.00     0.064 A 
ATOM     54  C   UNL A   1      37.288  32.349  34.537  1.00  0.00     0.173 A 
ATOM     55  C   UNL A   1      36.336  31.605  32.477  1.00  0.00     0.173 A 
ATOM     56  F   UNL A   1      38.245  32.338  35.477  1.00  0.00    -0.203 F 
ATOM     57  C   UNL A   1      36.253  33.283  34.670  1.00  0.00     0.198 A 
ATOM     58  C   UNL A   1      35.302  32.535  32.614  1.00  0.00     0.198 A 
ATOM     59  F   UNL A   1      36.343  30.877  31.352  1.00  0.00    -0.203 F 
ATOM     60  F   UNL A   1      36.247  34.132  35.708  1.00  0.00    -0.200 F 
ATOM     61  C   UNL A   1      35.272  33.387  33.699  1.00  0.00     0.200 A 
ATOM     62  F   UNL A   1      34.385  32.660  31.646  1.00  0.00    -0.200 F 
ATOM     63  F   UNL A   1      34.330  34.339  33.782  1.00  0.00    -0.200 F 
ENDBRANCH  29  53
BRANCH  41  64
ATOM     64  C   UNL A   1      42.929  28.825  34.838  1.00  0.00     0.064 A 
ATOM     65  C   UNL A   1      42.110  27.685  34.890  1.00  0.00     0.173 A 
ATOM     66  C   UNL A   1      43.860  29.003  35.875  1.00  0.00     0.173 A 
ATOM     67  F   UNL A   1      41.263  27.402  33.891  1.00  0.00    -0.203 F 
ATOM     68  C   UNL A   1      42.216  26.780  35.951  1.00  0.00     0.198 A 
ATOM     69  C   UNL A   1      43.988  28.080  36.906  1.00  0.00     0.198 A 
ATOM     70  F   UNL A   1      44.695  30.054  35.851  1.00  0.00    -0.203 F 
ATOM     71  F   UNL A   1      41.444  25.688  35.995  1.00  0.00    -0.200 F 
ATOM     72  C   UNL A   1      43.161  26.972  36.947  1.00  0.00     0.200 A 
ATOM     73  F   UNL A   1      44.938  28.245  37.836  1.00  0.00    -0.200 F 
ATOM     74  F   UNL A   1      43.301  26.068  37.928  1.00  0.00    -0.200 F 
ENDBRANCH  41  64
ENDBRANCH  15  16
ENDBRANCH   8  10
ENDBRANCH   7   8
ENDBRANCH   6   7
ENDBRANCH   5   6
ENDBRANCH   4   5
ENDBRANCH   3   4
ENDBRANCH   2   3
ENDBRANCH   1   2
BRANCH   1  75
ATOM     75  C   UNL A   1      33.492  20.383  25.370  1.00  0.00     0.188 C 
BRANCH  75  76
ATOM     76  C   UNL A   1      32.892  21.142  24.178  1.00  0.00     0.188 C 
BRANCH  76  77
ATOM     77  O   UNL A   1      31.668  21.825  24.363  1.00  0.00    -0.376 OA
BRANCH  77  78
ATOM     78  C   UNL A   1      31.733  23.242  24.261  1.00  0.00     0.202 C 
BRANCH  78  79
ATOM     79  C   UNL A   1      32.603  23.767  23.100  1.00  0.00     0.261 C 
BRANCH  79  80
ATOM     80  O   UNL A   1      33.690  24.646  23.485  1.00  0.00    -0.460 OA
BRANCH  80  81
ATOM     81  C   UNL A   1      33.784  25.853  22.892  1.00  0.00     0.339 C 
ATOM     82  O   UNL A   1      33.781  26.090  21.685  1.00  0.00    -0.246 OA
BRANCH  81  83
ATOM     83  C   UNL A   1      33.671  26.917  23.900  1.00  0.00     0.078 A 
ATOM     84  C   UNL A   1      33.563  28.270  23.619  1.00  0.00     0.019 A 
ATOM     85  C   UNL A   1      33.671  26.557  25.234  1.00  0.00     0.127 A 
ATOM     86  C   UNL A   1      33.440  29.179  24.686  1.00  0.00     0.026 A 
ATOM     87  N   UNL A   1      33.595  27.403  26.277  1.00  0.00    -0.258 NA
ATOM     88  C   UNL A   1      33.441  28.713  26.006  1.00  0.00     0.060 A 
BRANCH  88  89
ATOM     89  C   UNL A   1      33.357  29.628  27.203  1.00  0.00     0.178 C 
BRANCH  89  90
ATOM     90  N   UNL A   1      34.659  30.201  27.557  1.00  0.00    -0.341 N 
ATOM     91  C   UNL A   1      35.833  29.486  27.549  1.00  0.00     0.087 A 
ATOM     92  C   UNL A   1      34.903  31.493  28.000  1.00  0.00     0.049 A 
ATOM     93  C   UNL A   1      36.845  30.316  27.975  1.00  0.00     0.028 A 
ATOM     94  C   UNL A   1      36.276  31.585  28.258  1.00  0.00    -0.000 A 
ATOM     95  C   UNL A   1      34.049  32.599  28.174  1.00  0.00     0.042 A 
ATOM     96  C   UNL A   1      36.813  32.808  28.709  1.00  0.00     0.011 A 
ATOM     97  C   UNL A   1      34.614  33.806  28.602  1.00  0.00     0.020 A 
ATOM     98  C   UNL A   1      35.974  33.916  28.871  1.00  0.00     0.016 A 
ATOM     99  Br  UNL A   1      33.504  35.328  28.802  1.00  0.00    -0.051 Br
ENDBRANCH  89  90
ENDBRANCH  88  89
ENDBRANCH  81  83
ENDBRANCH  80  81
ENDBRANCH  79  80
ENDBRANCH  78  79
ENDBRANCH  77  78
ENDBRANCH  76  77
ENDBRANCH  75  76
ENDBRANCH   1  75
TORSDOF 22
ENDMDL
MODEL 2
REMARK VINA RESULT:     -10.3      4.082      9.426
REMARK SMILES O=C(OCCOCCOCCOCCOC(=O)c1ccc(Cn2ccc3ccc(Br)cc32)nc1)c1ccc(-c2c3nc(c(-c4c(F)c(F)c(F)c(F)c4F)c4ccc([nH]4)c(-c4c(F)c(F)c(F)c(F)c4F)c4nc(c(-c5c(F)c(F)c(F)c(F)c5F)c5ccc2[nH]5)C=C4)C=C3)cc1
REMARK SMILES IDX 9 1 8 2 7 3 6 4 5 5 4 6 3 7 2 8 1 9 35 10 36 11 97 12 37 13
REMARK SMILES IDX 96 14 38 15 39 16 40 17 90 18 41 19 95 20 89 21 91 22 42 23
REMARK SMILES IDX 94 24 88 25 87 26 43 28 75 29 55 30 74 31 56 32 59 33 73 34
REMARK SMILES IDX 92 35 57 36 58 37 72 39 93 40 60 41 44 42 45 43 53 44 46 45
REMARK SMILES IDX 47 46 51 47 54 48 48 49 49 50 52 51 50 52 76 53 77 54 85 55
REMARK SMILES IDX 78 56 79 57 83 58 86 59 80 60 81 61 84 62 82 63 61 64 62 65
REMARK SMILES IDX 70 66 63 67 64 68 68 69 71 70 65 71 66 72 69 73 67 74 10 75
REMARK SMILES IDX 11 76 12 77 13 78 14 79 15 80 16 81 17 82 18 83 19 84 34 85
REMARK SMILES IDX 20 86 33 87 21 88 22 89 23 90 24 91 32 92 25 93 26 94 31 95
REMARK SMILES IDX 27 96 29 97 28 98 30 99
REMARK H PARENT 91 27 59 38
REMARK Flexibility Score: inf
ROOT
ATOM      1  O   UNL A   1      33.223  28.909  27.536  1.00  0.00    -0.377 OA
ENDROOT
BRANCH   1   2
ATOM      2  C   UNL A   1      33.326  30.303  27.293  1.00  0.00     0.188 C 
BRANCH   2   3
ATOM      3  C   UNL A   1      34.642  30.968  27.711  1.00  0.00     0.188 C 
BRANCH   3   4
ATOM      4  O   UNL A   1      34.588  32.387  27.716  1.00  0.00    -0.376 OA
BRANCH   4   5
ATOM      5  C   UNL A   1      35.804  33.052  27.989  1.00  0.00     0.202 C 
BRANCH   5   6
ATOM      6  C   UNL A   1      35.746  34.007  29.179  1.00  0.00     0.261 C 
BRANCH   6   7
ATOM      7  O   UNL A   1      36.085  33.497  30.490  1.00  0.00    -0.460 OA
BRANCH   7   8
ATOM      8  C   UNL A   1      36.091  32.226  30.962  1.00  0.00     0.338 C 
ATOM      9  O   UNL A   1      35.096  31.775  31.524  1.00  0.00    -0.246 OA
BRANCH   8  10
ATOM     10  C   UNL A   1      37.320  31.394  30.892  1.00  0.00     0.060 A 
ATOM     11  C   UNL A   1      37.157  30.001  30.881  1.00  0.00     0.016 A 
ATOM     12  C   UNL A   1      38.607  31.936  30.925  1.00  0.00     0.016 A 
ATOM     13  C   UNL A   1      38.267  29.167  31.029  1.00  0.00     0.010 A 
ATOM     14  C   UNL A   1      39.713  31.100  31.126  1.00  0.00     0.010 A 
ATOM     15  C   UNL A   1      39.550  29.709  31.211  1.00  0.00    -0.014 A 
BRANCH  15  16
ATOM     16  C   UNL A   1      40.718  28.816  31.043  1.00  0.00     0.031 A 
ATOM     17  C   UNL A   1      41.396  28.684  32.337  1.00  0.00     0.074 A 
ATOM     18  C   UNL A   1      41.190  28.104  29.995  1.00  0.00     0.049 A 
ATOM     19  N   UNL A   1      42.472  29.312  32.673  1.00  0.00    -0.248 NA
ATOM     20  C   UNL A   1      40.704  28.000  33.434  1.00  0.00     0.031 C 
ATOM     21  C   UNL A   1      40.640  28.063  28.670  1.00  0.00     0.029 A 
ATOM     22  N   UNL A   1      42.254  27.235  29.867  1.00  0.00    -0.354 N 
ATOM     23  C   UNL A   1      42.731  28.868  33.952  1.00  0.00     0.074 A 
ATOM     24  C   UNL A   1      41.503  28.307  34.457  1.00  0.00     0.031 C 
ATOM     25  C   UNL A   1      41.125  27.042  27.944  1.00  0.00     0.029 A 
ATOM     26  C   UNL A   1      42.199  26.458  28.700  1.00  0.00     0.049 A 
ATOM     27  H   UNL A   1      42.980  27.167  30.528  1.00  0.00     0.167 HD
ATOM     28  C   UNL A   1      44.012  28.600  34.306  1.00  0.00     0.037 A 
ATOM     29  C   UNL A   1      43.056  25.547  28.176  1.00  0.00     0.037 A 
ATOM     30  C   UNL A   1      44.956  29.236  33.419  1.00  0.00     0.049 A 
ATOM     31  C   UNL A   1      44.367  25.821  28.779  1.00  0.00     0.074 A 
ATOM     32  C   UNL A   1      45.269  30.536  33.079  1.00  0.00     0.029 A 
ATOM     33  N   UNL A   1      45.442  28.432  32.422  1.00  0.00    -0.354 N 
ATOM     34  N   UNL A   1      45.091  26.869  28.496  1.00  0.00    -0.248 NA
ATOM     35  C   UNL A   1      44.677  25.155  30.032  1.00  0.00     0.031 C 
ATOM     36  C   UNL A   1      45.744  30.490  31.735  1.00  0.00     0.029 A 
ATOM     37  C   UNL A   1      45.754  29.164  31.308  1.00  0.00     0.049 A 
ATOM     38  H   UNL A   1      45.553  27.458  32.498  1.00  0.00     0.167 HD
ATOM     39  C   UNL A   1      45.617  27.252  29.716  1.00  0.00     0.074 A 
ATOM     40  C   UNL A   1      45.446  26.093  30.586  1.00  0.00     0.031 C 
ATOM     41  C   UNL A   1      45.845  28.568  29.989  1.00  0.00     0.037 A 
BRANCH  28  42
ATOM     42  C   UNL A   1      44.356  27.375  35.108  1.00  0.00     0.064 A 
ATOM     43  C   UNL A   1      44.080  26.107  34.580  1.00  0.00     0.173 A 
ATOM     44  C   UNL A   1      44.713  27.407  36.478  1.00  0.00     0.173 A 
ATOM     45  F   UNL A   1      43.637  25.979  33.322  1.00  0.00    -0.203 F 
ATOM     46  C   UNL A   1      44.178  24.954  35.365  1.00  0.00     0.198 A 
ATOM     47  C   UNL A   1      44.884  26.254  37.234  1.00  0.00     0.198 A 
ATOM     48  F   UNL A   1      44.786  28.550  37.171  1.00  0.00    -0.203 F 
ATOM     49  F   UNL A   1      43.809  23.773  34.854  1.00  0.00    -0.200 F 
ATOM     50  C   UNL A   1      44.600  25.027  36.683  1.00  0.00     0.200 A 
ATOM     51  F   UNL A   1      45.251  26.358  38.519  1.00  0.00    -0.200 F 
ATOM     52  F   UNL A   1      44.673  23.925  37.438  1.00  0.00    -0.200 F 
ENDBRANCH  28  42
BRANCH  29  53
ATOM     53  C   UNL A   1      42.731  24.341  27.363  1.00  0.00     0.064 A 
ATOM     54  C   UNL A   1      43.079  24.265  26.003  1.00  0.00     0.173 A 
ATOM     55  C   UNL A   1      42.327  23.129  27.964  1.00  0.00     0.173 A 
ATOM     56  F   UNL A   1      43.491  25.360  25.348  1.00  0.00    -0.203 F 
ATOM     57  C   UNL A   1      43.090  23.047  25.310  1.00  0.00     0.198 A 
ATOM     58  C   UNL A   1      42.336  21.916  27.270  1.00  0.00     0.198 A 
ATOM     59  F   UNL A   1      42.011  23.073  29.266  1.00  0.00    -0.203 F 
ATOM     60  F   UNL A   1      43.514  23.004  24.039  1.00  0.00    -0.200 F 
ATOM     61  C   UNL A   1      42.738  21.872  25.951  1.00  0.00     0.200 A 
ATOM     62  F   UNL A   1      42.038  20.778  27.912  1.00  0.00    -0.200 F 
ATOM     63  F   UNL A   1      42.833  20.694  25.315  1.00  0.00    -0.200 F 
ENDBRANCH  29  53
BRANCH  41  64
ATOM     64  C   UNL A   1      46.065  29.503  28.833  1.00  0.00     0.064 A 
ATOM     65  C   UNL A   1      45.049  30.148  28.109  1.00  0.00     0.173 A 
ATOM     66  C   UNL A   1      47.393  29.863  28.549  1.00  0.00     0.173 A 
ATOM     67  F   UNL A   1      43.757  29.922  28.389  1.00  0.00    -0.203 F 
ATOM     68  C   UNL A   1      45.364  31.097  27.132  1.00  0.00     0.198 A 
ATOM     69  C   UNL A   1      47.698  30.836  27.603  1.00  0.00     0.198 A 
ATOM     70  F   UNL A   1      48.400  29.308  29.241  1.00  0.00    -0.203 F 
ATOM     71  F   UNL A   1      44.395  31.719  26.449  1.00  0.00    -0.200 F 
ATOM     72  C   UNL A   1      46.683  31.447  26.890  1.00  0.00     0.200 A 
ATOM     73  F   UNL A   1      48.971  31.207  27.414  1.00  0.00    -0.200 F 
ATOM     74  F   UNL A   1      46.975  32.403  25.996  1.00  0.00    -0.200 F 
ENDBRANCH  41  64
ENDBRANCH  15  16
ENDBRANCH   8  10
ENDBRANCH   7   8
ENDBRANCH   6   7
ENDBRANCH   5   6
ENDBRANCH   4   5
ENDBRANCH   3   4
ENDBRANCH   2   3
ENDBRANCH   1   2
BRANCH   1  75
ATOM     75  C   UNL A   1      33.446  28.027  26.447  1.00  0.00     0.188 C 
BRANCH  75  76
ATOM     76  C   UNL A   1      33.518  28.523  24.997  1.00  0.00     0.188 C 
BRANCH  76  77
ATOM     77  O   UNL A   1      32.309  28.829  24.330  1.00  0.00    -0.376 OA
BRANCH  77  78
ATOM     78  C   UNL A   1      32.392  28.904  22.912  1.00  0.00     0.202 C 
BRANCH  78  79
ATOM     79  C   UNL A   1      31.048  28.720  22.176  1.00  0.00     0.261 C 
BRANCH  79  80
ATOM     80  O   UNL A   1      30.460  27.399  22.275  1.00  0.00    -0.460 OA
BRANCH  80  81
ATOM     81  C   UNL A   1      29.551  27.169  23.244  1.00  0.00     0.339 C 
ATOM     82  O   UNL A   1      28.423  27.653  23.334  1.00  0.00    -0.246 OA
BRANCH  81  83
ATOM     83  C   UNL A   1      30.002  26.065  24.104  1.00  0.00     0.078 A 
ATOM     84  C   UNL A   1      29.973  26.075  25.489  1.00  0.00     0.019 A 
ATOM     85  C   UNL A   1      30.493  24.925  23.499  1.00  0.00     0.127 A 
ATOM     86  C   UNL A   1      30.419  24.937  26.187  1.00  0.00     0.026 A 
ATOM     87  N   UNL A   1      30.962  23.836  24.137  1.00  0.00    -0.258 NA
ATOM     88  C   UNL A   1      30.891  23.824  25.481  1.00  0.00     0.060 A 
BRANCH  88  89
ATOM     89  C   UNL A   1      31.424  22.585  26.158  1.00  0.00     0.178 C 
BRANCH  89  90
ATOM     90  N   UNL A   1      32.889  22.527  26.138  1.00  0.00    -0.341 N 
ATOM     91  C   UNL A   1      33.697  23.548  26.582  1.00  0.00     0.087 A 
ATOM     92  C   UNL A   1      33.671  21.498  25.634  1.00  0.00     0.049 A 
ATOM     93  C   UNL A   1      35.006  23.178  26.377  1.00  0.00     0.028 A 
ATOM     94  C   UNL A   1      35.007  21.888  25.786  1.00  0.00    -0.000 A 
ATOM     95  C   UNL A   1      33.330  20.250  25.081  1.00  0.00     0.042 A 
ATOM     96  C   UNL A   1      36.032  21.014  25.369  1.00  0.00     0.011 A 
ATOM     97  C   UNL A   1      34.369  19.394  24.696  1.00  0.00     0.020 A 
ATOM     98  C   UNL A   1      35.702  19.765  24.830  1.00  0.00     0.016 A 
ATOM     99  Br  UNL A   1      33.950  17.686  23.991  1.00  0.00    -0.051 Br
ENDBRANCH  89  90
ENDBRANCH  88  89
ENDBRANCH  81  83
ENDBRANCH  80  81
ENDBRANCH  79  80
ENDBRANCH  78  79
ENDBRANCH  77  78
ENDBRANCH  76  77
ENDBRANCH  75  76
ENDBRANCH   1  75
TORSDOF 22
ENDMDL
MODEL 3
REMARK VINA RESULT:      -9.9      4.936     10.014
REMARK SMILES O=C(OCCOCCOCCOCCOC(=O)c1ccc(Cn2ccc3ccc(Br)cc32)nc1)c1ccc(-c2c3nc(c(-c4c(F)c(F)c(F)c(F)c4F)c4ccc([nH]4)c(-c4c(F)c(F)c(F)c(F)c4F)c4nc(c(-c5c(F)c(F)c(F)c(F)c5F)c5ccc2[nH]5)C=C4)C=C3)cc1
REMARK SMILES IDX 9 1 8 2 7 3 6 4 5 5 4 6 3 7 2 8 1 9 35 10 36 11 97 12 37 13
REMARK SMILES IDX 96 14 38 15 39 16 40 17 90 18 41 19 95 20 89 21 91 22 42 23
REMARK SMILES IDX 94 24 88 25 87 26 43 28 75 29 55 30 74 31 56 32 59 33 73 34
REMARK SMILES IDX 92 35 57 36 58 37 72 39 93 40 60 41 44 42 45 43 53 44 46 45
REMARK SMILES IDX 47 46 51 47 54 48 48 49 49 50 52 51 50 52 76 53 77 54 85 55
REMARK SMILES IDX 78 56 79 57 83 58 86 59 80 60 81 61 84 62 82 63 61 64 62 65
REMARK SMILES IDX 70 66 63 67 64 68 68 69 71 70 65 71 66 72 69 73 67 74 10 75
REMARK SMILES IDX 11 76 12 77 13 78 14 79 15 80 16 81 17 82 18 83 19 84 34 85
REMARK SMILES IDX 20 86 33 87 21 88 22 89 23 90 24 91 32 92 25 93 26 94 31 95
REMARK SMILES IDX 27 96 29 97 28 98 30 99
REMARK H PARENT 91 27 59 38
REMARK Flexibility Score: inf
ROOT
ATOM      1  O   UNL A   1      38.562  30.022  34.744  1.00  0.00    -0.377 OA
ENDROOT
BRANCH   1   2
ATOM      2  C   UNL A   1      39.533  30.881  35.318  1.00  0.00     0.188 C 
BRANCH   2   3
ATOM      3  C   UNL A   1      39.320  32.384  35.106  1.00  0.00     0.188 C 
BRANCH   3   4
ATOM      4  O   UNL A   1      40.487  33.071  34.677  1.00  0.00    -0.376 OA
BRANCH   4   5
ATOM      5  C   UNL A   1      40.274  34.184  33.834  1.00  0.00     0.202 C 
BRANCH   5   6
ATOM      6  C   UNL A   1      41.515  34.640  33.068  1.00  0.00     0.261 C 
BRANCH   6   7
ATOM      7  O   UNL A   1      41.429  34.769  31.629  1.00  0.00    -0.460 OA
BRANCH   7   8
ATOM      8  C   UNL A   1      40.810  33.984  30.714  1.00  0.00     0.338 C 
ATOM      9  O   UNL A   1      39.916  34.448  30.011  1.00  0.00    -0.246 OA
BRANCH   8  10
ATOM     10  C   UNL A   1      41.133  32.537  30.610  1.00  0.00     0.060 A 
ATOM     11  C   UNL A   1      42.450  32.193  30.271  1.00  0.00     0.016 A 
ATOM     12  C   UNL A   1      40.174  31.532  30.748  1.00  0.00     0.016 A 
ATOM     13  C   UNL A   1      42.768  30.872  29.952  1.00  0.00     0.010 A 
ATOM     14  C   UNL A   1      40.481  30.216  30.378  1.00  0.00     0.010 A 
ATOM     15  C   UNL A   1      41.773  29.879  29.946  1.00  0.00    -0.014 A 
BRANCH  15  16
ATOM     16  C   UNL A   1      42.197  28.462  29.920  1.00  0.00     0.031 A 
ATOM     17  C   UNL A   1      42.930  28.169  31.156  1.00  0.00     0.074 A 
ATOM     18  C   UNL A   1      41.981  27.451  29.048  1.00  0.00     0.049 A 
ATOM     19  N   UNL A   1      44.215  28.100  31.252  1.00  0.00    -0.248 NA
ATOM     20  C   UNL A   1      42.209  28.200  32.433  1.00  0.00     0.031 C 
ATOM     21  C   UNL A   1      41.250  27.526  27.814  1.00  0.00     0.029 A 
ATOM     22  N   UNL A   1      42.340  26.120  29.061  1.00  0.00    -0.354 N 
ATOM     23  C   UNL A   1      44.434  27.799  32.580  1.00  0.00     0.074 A 
ATOM     24  C   UNL A   1      43.229  28.145  33.292  1.00  0.00     0.031 C 
ATOM     25  C   UNL A   1      40.938  26.314  27.328  1.00  0.00     0.029 A 
ATOM     26  C   UNL A   1      41.638  25.345  28.126  1.00  0.00     0.049 A 
ATOM     27  H   UNL A   1      43.022  25.750  29.666  1.00  0.00     0.167 HD
ATOM     28  C   UNL A   1      45.395  26.898  32.897  1.00  0.00     0.037 A 
ATOM     29  C   UNL A   1      41.727  24.036  27.782  1.00  0.00     0.037 A 
ATOM     30  C   UNL A   1      46.336  26.716  31.818  1.00  0.00     0.049 A 
ATOM     31  C   UNL A   1      43.061  23.590  28.207  1.00  0.00     0.074 A 
ATOM     32  C   UNL A   1      47.237  27.518  31.150  1.00  0.00     0.029 A 
ATOM     33  N   UNL A   1      46.091  25.633  31.016  1.00  0.00    -0.354 N 
ATOM     34  N   UNL A   1      44.169  23.962  27.626  1.00  0.00    -0.248 NA
ATOM     35  C   UNL A   1      43.194  23.079  29.559  1.00  0.00     0.031 C 
ATOM     36  C   UNL A   1      47.332  26.991  29.828  1.00  0.00     0.029 A 
ATOM     37  C   UNL A   1      46.526  25.858  29.738  1.00  0.00     0.049 A 
ATOM     38  H   UNL A   1      45.660  24.803  31.320  1.00  0.00     0.167 HD
ATOM     39  C   UNL A   1      45.048  24.157  28.675  1.00  0.00     0.074 A 
ATOM     40  C   UNL A   1      44.444  23.470  29.812  1.00  0.00     0.031 C 
ATOM     41  C   UNL A   1      46.012  25.119  28.602  1.00  0.00     0.037 A 
BRANCH  28  42
ATOM     42  C   UNL A   1      45.159  25.848  33.948  1.00  0.00     0.064 A 
ATOM     43  C   UNL A   1      45.965  25.827  35.093  1.00  0.00     0.173 A 
ATOM     44  C   UNL A   1      44.340  24.710  33.752  1.00  0.00     0.173 A 
ATOM     45  F   UNL A   1      46.850  26.809  35.317  1.00  0.00    -0.203 F 
ATOM     46  C   UNL A   1      45.933  24.753  35.988  1.00  0.00     0.198 A 
ATOM     47  C   UNL A   1      44.253  23.681  34.681  1.00  0.00     0.198 A 
ATOM     48  F   UNL A   1      43.689  24.487  32.603  1.00  0.00    -0.203 F 
ATOM     49  F   UNL A   1      46.790  24.723  37.016  1.00  0.00    -0.200 F 
ATOM     50  C   UNL A   1      45.062  23.694  35.792  1.00  0.00     0.200 A 
ATOM     51  F   UNL A   1      43.433  22.646  34.443  1.00  0.00    -0.200 F 
ATOM     52  F   UNL A   1      45.048  22.657  36.638  1.00  0.00    -0.200 F 
ENDBRANCH  28  42
BRANCH  29  53
ATOM     53  C   UNL A   1      40.639  23.132  27.313  1.00  0.00     0.064 A 
ATOM     54  C   UNL A   1      39.374  23.636  26.966  1.00  0.00     0.173 A 
ATOM     55  C   UNL A   1      40.899  21.799  26.927  1.00  0.00     0.173 A 
ATOM     56  F   UNL A   1      39.040  24.898  27.274  1.00  0.00    -0.203 F 
ATOM     57  C   UNL A   1      38.458  22.882  26.220  1.00  0.00     0.198 A 
ATOM     58  C   UNL A   1      39.982  21.048  26.187  1.00  0.00     0.198 A 
ATOM     59  F   UNL A   1      42.087  21.227  27.169  1.00  0.00    -0.203 F 
ATOM     60  F   UNL A   1      37.297  23.431  25.834  1.00  0.00    -0.200 F 
ATOM     61  C   UNL A   1      38.771  21.596  25.816  1.00  0.00     0.200 A 
ATOM     62  F   UNL A   1      40.315  19.822  25.760  1.00  0.00    -0.200 F 
ATOM     63  F   UNL A   1      37.932  20.906  25.029  1.00  0.00    -0.200 F 
ENDBRANCH  29  53
BRANCH  41  64
ATOM     64  C   UNL A   1      46.476  25.554  27.240  1.00  0.00     0.064 A 
ATOM     65  C   UNL A   1      45.768  26.406  26.377  1.00  0.00     0.173 A 
ATOM     66  C   UNL A   1      47.779  25.187  26.865  1.00  0.00     0.173 A 
ATOM     67  F   UNL A   1      44.555  26.869  26.713  1.00  0.00    -0.203 F 
ATOM     68  C   UNL A   1      46.344  26.850  25.184  1.00  0.00     0.198 A 
ATOM     69  C   UNL A   1      48.362  25.663  25.695  1.00  0.00     0.198 A 
ATOM     70  F   UNL A   1      48.515  24.408  27.673  1.00  0.00    -0.203 F 
ATOM     71  F   UNL A   1      45.674  27.671  24.366  1.00  0.00    -0.200 F 
ATOM     72  C   UNL A   1      47.642  26.489  24.852  1.00  0.00     0.200 A 
ATOM     73  F   UNL A   1      49.633  25.353  25.409  1.00  0.00    -0.200 F 
ATOM     74  F   UNL A   1      48.211  26.968  23.737  1.00  0.00    -0.200 F 
ENDBRANCH  41  64
ENDBRANCH  15  16
ENDBRANCH   8  10
ENDBRANCH   7   8
ENDBRANCH   6   7
ENDBRANCH   5   6
ENDBRANCH   4   5
ENDBRANCH   3   4
ENDBRANCH   2   3
ENDBRANCH   1   2
BRANCH   1  75
ATOM     75  C   UNL A   1      37.746  30.542  33.706  1.00  0.00     0.188 C 
BRANCH  75  76
ATOM     76  C   UNL A   1      37.437  29.742  32.433  1.00  0.00     0.188 C 
BRANCH  76  77
ATOM     77  O   UNL A   1      36.276  30.071  31.697  1.00  0.00    -0.376 OA
BRANCH  77  78
ATOM     78  C   UNL A   1      35.853  31.426  31.789  1.00  0.00     0.202 C 
BRANCH  78  79
ATOM     79  C   UNL A   1      36.492  32.374  30.752  1.00  0.00     0.261 C 
BRANCH  79  80
ATOM     80  O   UNL A   1      35.912  32.326  29.425  1.00  0.00    -0.460 OA
BRANCH  80  81
ATOM     81  C   UNL A   1      36.357  31.393  28.559  1.00  0.00     0.339 C 
ATOM     82  O   UNL A   1      37.513  30.995  28.426  1.00  0.00    -0.246 OA
BRANCH  81  83
ATOM     83  C   UNL A   1      35.218  30.724  27.913  1.00  0.00     0.078 A 
ATOM     84  C   UNL A   1      33.981  31.306  27.685  1.00  0.00     0.019 A 
ATOM     85  C   UNL A   1      35.377  29.417  27.497  1.00  0.00     0.127 A 
ATOM     86  C   UNL A   1      32.985  30.554  27.035  1.00  0.00     0.026 A 
ATOM     87  N   UNL A   1      34.434  28.658  26.909  1.00  0.00    -0.258 NA
ATOM     88  C   UNL A   1      33.248  29.236  26.642  1.00  0.00     0.060 A 
BRANCH  88  89
ATOM     89  C   UNL A   1      32.219  28.354  25.980  1.00  0.00     0.178 C 
BRANCH  89  90
ATOM     90  N   UNL A   1      32.779  27.586  24.864  1.00  0.00    -0.341 N 
ATOM     91  C   UNL A   1      32.867  28.066  23.578  1.00  0.00     0.087 A 
ATOM     92  C   UNL A   1      33.240  26.278  24.906  1.00  0.00     0.049 A 
ATOM     93  C   UNL A   1      33.397  27.074  22.785  1.00  0.00     0.028 A 
ATOM     94  C   UNL A   1      33.642  25.944  23.608  1.00  0.00    -0.000 A 
ATOM     95  C   UNL A   1      33.365  25.365  25.971  1.00  0.00     0.042 A 
ATOM     96  C   UNL A   1      34.176  24.662  23.360  1.00  0.00     0.011 A 
ATOM     97  C   UNL A   1      33.919  24.108  25.698  1.00  0.00     0.020 A 
ATOM     98  C   UNL A   1      34.316  23.753  24.414  1.00  0.00     0.016 A 
ATOM     99  Br  UNL A   1      34.146  22.870  27.114  1.00  0.00    -0.051 Br
ENDBRANCH  89  90
ENDBRANCH  88  89
ENDBRANCH  81  83
ENDBRANCH  80  81
ENDBRANCH  79  80
ENDBRANCH  78  79
ENDBRANCH  77  78
ENDBRANCH  76  77
ENDBRANCH  75  76
ENDBRANCH   1  75
TORSDOF 22
ENDMDL
