MODEL 1
REMARK VINA RESULT:     -10.4      0.000      0.000
REMARK SMILES NS(=O)(=O)c1ccc(-c2cc(Cl)cc3c2O[C@@H](C(F)(F)F)C(C(=O)OCCOCCOCCOCCOC(=O)c2ccc(-c4c5nc(c(-c6c(F)c(F)c(F)c(F)c6F)c6ccc([nH]6)c(-c6c(F)c(F)c(F)c(F)c6F)c6nc(c(-c7c(F)c(F)c(F)c(F)c7F)c7ccc4[nH]7)C=C6)C=C5)cc2)=C3)cc1
REMARK SMILES IDX 30 1 29 2 28 3 27 4 26 5 25 6 23 7 24 8 22 9 9 10 10 11
REMARK SMILES IDX 15 12 11 13 14 14 16 15 12 16 13 17 103 18 17 19 8 20 5 21
REMARK SMILES IDX 6 22 105 23 7 24 104 25 2 26 3 27 4 28 1 29 18 32 19 33
REMARK SMILES IDX 20 34 21 35 31 36 32 37 33 38 34 39 35 40 36 41 37 42 38 43
REMARK SMILES IDX 39 44 40 45 41 46 102 47 42 48 101 49 43 50 44 51 45 52
REMARK SMILES IDX 95 53 46 54 100 55 94 56 96 57 47 58 99 59 93 60 92 61 48 63
REMARK SMILES IDX 80 64 60 65 79 66 61 67 64 68 78 69 97 70 62 71 63 72 77 74
REMARK SMILES IDX 98 75 65 76 49 77 50 78 58 79 51 80 52 81 56 82 59 83 53 84
REMARK SMILES IDX 54 85 57 86 55 87 81 88 82 89 90 90 83 91 84 92 88 93 91 94
REMARK SMILES IDX 85 95 86 96 89 97 87 98 66 99 67 100 75 101 68 102 69 103
REMARK SMILES IDX 73 104 76 105 70 106 71 107 74 108 72 109
REMARK H PARENT 1 30 1 31 96 62 64 73
REMARK Flexibility Score: inf
ROOT
ATOM      1  C   UNL A   1      44.165  18.835  24.677  1.00  0.00     0.188 C 
ENDROOT
BRANCH   1   2
ATOM      2  C   UNL A   1      43.074  19.686  25.341  1.00  0.00     0.188 C 
BRANCH   2   3
ATOM      3  O   UNL A   1      42.219  18.957  26.215  1.00  0.00    -0.376 OA
BRANCH   3   4
ATOM      4  C   UNL A   1      40.815  19.179  26.126  1.00  0.00     0.202 C 
BRANCH   4   5
ATOM      5  C   UNL A   1      40.278  20.584  26.434  1.00  0.00     0.261 C 
BRANCH   5   6
ATOM      6  O   UNL A   1      39.565  21.134  25.305  1.00  0.00    -0.460 OA
BRANCH   6   7
ATOM      7  C   UNL A   1      38.252  21.356  25.477  1.00  0.00     0.338 C 
ATOM      8  O   UNL A   1      37.524  20.678  26.192  1.00  0.00    -0.246 OA
BRANCH   7   9
ATOM      9  C   UNL A   1      37.792  22.614  24.831  1.00  0.00     0.087 C 
ATOM     10  C   UNL A   1      33.805  23.575  25.545  1.00  0.00     0.026 A 
ATOM     11  C   UNL A   1      33.177  22.339  25.831  1.00  0.00     0.033 A 
ATOM     12  C   UNL A   1      35.158  23.483  25.141  1.00  0.00     0.135 A 
ATOM     13  C   UNL A   1      33.731  21.132  25.405  1.00  0.00     0.042 A 
ATOM     14  C   UNL A   1      35.595  22.316  24.490  1.00  0.00     0.019 A 
ATOM     15  O   UNL A   1      36.133  24.293  25.751  1.00  0.00    -0.475 OA
ATOM     16  Cl  UNL A   1      32.931  19.655  25.763  1.00  0.00    -0.084 Cl
ATOM     17  C   UNL A   1      34.887  21.128  24.638  1.00  0.00     0.032 A 
ATOM     18  C   UNL A   1      36.926  22.323  23.844  1.00  0.00     0.027 C 
ATOM     19  C   UNL A   1      37.570  23.982  25.455  1.00  0.00     0.316 C 
BRANCH  10  20
ATOM     20  C   UNL A   1      32.840  24.638  25.067  1.00  0.00    -0.015 A 
ATOM     21  C   UNL A   1      31.742  27.181  24.360  1.00  0.00     0.082 A 
ATOM     22  C   UNL A   1      32.354  26.392  23.388  1.00  0.00     0.022 A 
ATOM     23  C   UNL A   1      31.613  26.692  25.661  1.00  0.00     0.022 A 
ATOM     24  C   UNL A   1      32.878  25.130  23.738  1.00  0.00     0.010 A 
ATOM     25  C   UNL A   1      32.146  25.433  26.004  1.00  0.00     0.010 A 
BRANCH  21  26
ATOM     26  S   UNL A   1      31.191  28.832  24.006  1.00  0.00     0.238 S 
ATOM     27  O   UNL A   1      31.632  29.703  25.075  1.00  0.00    -0.207 OA
ATOM     28  O   UNL A   1      29.823  28.774  23.564  1.00  0.00    -0.207 OA
BRANCH  26  29
ATOM     29  N   UNL A   1      32.089  29.323  22.667  1.00  0.00    -0.225 NA
ATOM     30  H   UNL A   1      32.903  29.853  22.979  1.00  0.00     0.137 HD
ATOM     31  H   UNL A   1      31.510  29.911  22.067  1.00  0.00     0.137 HD
ENDBRANCH  26  29
ENDBRANCH  21  26
ENDBRANCH  10  20
BRANCH  19  32
ATOM     32  C   UNL A   1      38.613  24.464  26.499  1.00  0.00     0.430 C 
ATOM     33  F   UNL A   1      38.108  25.534  27.174  1.00  0.00    -0.167 F 
ATOM     34  F   UNL A   1      38.863  23.510  27.426  1.00  0.00    -0.167 F 
ATOM     35  F   UNL A   1      39.798  24.863  26.015  1.00  0.00    -0.167 F 
ENDBRANCH  19  32
ENDBRANCH   7   9
ENDBRANCH   6   7
ENDBRANCH   5   6
ENDBRANCH   4   5
ENDBRANCH   3   4
ENDBRANCH   2   3
ENDBRANCH   1   2
BRANCH   1  36
ATOM     36  O   UNL A   1      45.416  18.915  25.331  1.00  0.00    -0.377 OA
BRANCH  36  37
ATOM     37  C   UNL A   1      46.186  20.102  25.148  1.00  0.00     0.188 C 
BRANCH  37  38
ATOM     38  C   UNL A   1      45.664  21.503  25.551  1.00  0.00     0.188 C 
BRANCH  38  39
ATOM     39  O   UNL A   1      46.674  22.464  25.828  1.00  0.00    -0.376 OA
BRANCH  39  40
ATOM     40  C   UNL A   1      46.401  23.824  25.535  1.00  0.00     0.202 C 
BRANCH  40  41
ATOM     41  C   UNL A   1      45.548  24.050  24.280  1.00  0.00     0.261 C 
BRANCH  41  42
ATOM     42  O   UNL A   1      44.370  24.843  24.483  1.00  0.00    -0.460 OA
BRANCH  42  43
ATOM     43  C   UNL A   1      43.359  24.266  25.168  1.00  0.00     0.338 C 
ATOM     44  O   UNL A   1      42.823  23.198  24.935  1.00  0.00    -0.246 OA
BRANCH  43  45
ATOM     45  C   UNL A   1      43.129  25.068  26.386  1.00  0.00     0.060 A 
ATOM     46  C   UNL A   1      42.382  24.508  27.431  1.00  0.00     0.016 A 
ATOM     47  C   UNL A   1      43.667  26.352  26.504  1.00  0.00     0.016 A 
ATOM     48  C   UNL A   1      42.135  25.251  28.584  1.00  0.00     0.010 A 
ATOM     49  C   UNL A   1      43.403  27.102  27.651  1.00  0.00     0.010 A 
ATOM     50  C   UNL A   1      42.603  26.568  28.676  1.00  0.00    -0.014 A 
BRANCH  50  51
ATOM     51  C   UNL A   1      42.066  27.459  29.732  1.00  0.00     0.031 A 
ATOM     52  C   UNL A   1      42.743  27.449  31.073  1.00  0.00     0.074 A 
ATOM     53  C   UNL A   1      41.017  28.266  29.506  1.00  0.00     0.049 A 
ATOM     54  N   UNL A   1      42.450  28.111  32.162  1.00  0.00    -0.248 NA
ATOM     55  C   UNL A   1      43.913  26.563  31.204  1.00  0.00     0.031 C 
ATOM     56  C   UNL A   1      40.294  28.382  28.242  1.00  0.00     0.029 A 
ATOM     57  N   UNL A   1      40.371  29.137  30.349  1.00  0.00    -0.354 N 
ATOM     58  C   UNL A   1      43.391  27.719  33.104  1.00  0.00     0.074 A 
ATOM     59  C   UNL A   1      44.243  26.735  32.474  1.00  0.00     0.031 C 
ATOM     60  C   UNL A   1      39.290  29.262  28.397  1.00  0.00     0.029 A 
ATOM     61  C   UNL A   1      39.283  29.749  29.776  1.00  0.00     0.049 A 
ATOM     62  H   UNL A   1      40.659  29.306  31.274  1.00  0.00     0.167 HD
ATOM     63  C   UNL A   1      43.538  28.147  34.380  1.00  0.00     0.037 A 
ATOM     64  C   UNL A   1      38.376  30.586  30.317  1.00  0.00     0.037 A 
ATOM     65  C   UNL A   1      42.685  29.120  35.006  1.00  0.00     0.049 A 
ATOM     66  C   UNL A   1      38.522  31.003  31.760  1.00  0.00     0.074 A 
ATOM     67  C   UNL A   1      42.766  29.645  36.283  1.00  0.00     0.029 A 
ATOM     68  N   UNL A   1      41.580  29.705  34.402  1.00  0.00    -0.354 N 
ATOM     69  N   UNL A   1      39.442  30.666  32.632  1.00  0.00    -0.248 NA
ATOM     70  C   UNL A   1      37.506  31.924  32.291  1.00  0.00     0.031 C 
ATOM     71  C   UNL A   1      41.675  30.500  36.472  1.00  0.00     0.029 A 
ATOM     72  C   UNL A   1      40.952  30.560  35.292  1.00  0.00     0.049 A 
ATOM     73  H   UNL A   1      41.288  29.536  33.477  1.00  0.00     0.167 HD
ATOM     74  C   UNL A   1      39.133  31.352  33.801  1.00  0.00     0.074 A 
ATOM     75  C   UNL A   1      37.948  32.136  33.522  1.00  0.00     0.031 C 
ATOM     76  C   UNL A   1      39.774  31.337  34.997  1.00  0.00     0.037 A 
BRANCH  63  77
ATOM     77  C   UNL A   1      44.641  27.532  35.191  1.00  0.00     0.064 A 
ATOM     78  C   UNL A   1      45.930  28.086  35.229  1.00  0.00     0.173 A 
ATOM     79  C   UNL A   1      44.403  26.376  35.949  1.00  0.00     0.173 A 
ATOM     80  F   UNL A   1      46.217  29.181  34.509  1.00  0.00    -0.203 F 
ATOM     81  C   UNL A   1      46.946  27.486  35.969  1.00  0.00     0.198 A 
ATOM     82  C   UNL A   1      45.411  25.798  36.715  1.00  0.00     0.198 A 
ATOM     83  F   UNL A   1      43.188  25.806  35.950  1.00  0.00    -0.203 F 
ATOM     84  F   UNL A   1      48.185  27.999  35.943  1.00  0.00    -0.200 F 
ATOM     85  C   UNL A   1      46.685  26.347  36.715  1.00  0.00     0.200 A 
ATOM     86  F   UNL A   1      45.153  24.705  37.445  1.00  0.00    -0.200 F 
ATOM     87  F   UNL A   1      47.663  25.773  37.430  1.00  0.00    -0.200 F 
ENDBRANCH  63  77
BRANCH  64  88
ATOM     88  C   UNL A   1      37.237  31.075  29.495  1.00  0.00     0.064 A 
ATOM     89  C   UNL A   1      37.176  32.404  29.054  1.00  0.00     0.173 A 
ATOM     90  C   UNL A   1      36.177  30.224  29.148  1.00  0.00     0.173 A 
ATOM     91  F   UNL A   1      38.150  33.265  29.384  1.00  0.00    -0.203 F 
ATOM     92  C   UNL A   1      36.090  32.866  28.312  1.00  0.00     0.198 A 
ATOM     93  C   UNL A   1      35.108  30.680  28.381  1.00  0.00     0.198 A 
ATOM     94  F   UNL A   1      36.184  28.944  29.549  1.00  0.00    -0.203 F 
ATOM     95  F   UNL A   1      36.033  34.154  27.944  1.00  0.00    -0.200 F 
ATOM     96  C   UNL A   1      35.061  32.003  27.970  1.00  0.00     0.200 A 
ATOM     97  F   UNL A   1      34.120  29.839  28.045  1.00  0.00    -0.200 F 
ATOM     98  F   UNL A   1      34.019  32.449  27.254  1.00  0.00    -0.200 F 
ENDBRANCH  64  88
BRANCH  76  99
ATOM     99  C   UNL A   1      39.231  32.218  36.086  1.00  0.00     0.064 A 
ATOM    100  C   UNL A   1      38.278  31.757  37.007  1.00  0.00     0.173 A 
ATOM    101  C   UNL A   1      39.713  33.527  36.244  1.00  0.00     0.173 A 
ATOM    102  F   UNL A   1      37.776  30.518  36.894  1.00  0.00    -0.203 F 
ATOM    103  C   UNL A   1      37.807  32.582  38.025  1.00  0.00     0.198 A 
ATOM    104  C   UNL A   1      39.265  34.338  37.283  1.00  0.00     0.198 A 
ATOM    105  F   UNL A   1      40.633  34.016  35.398  1.00  0.00    -0.203 F 
ATOM    106  F   UNL A   1      36.860  32.137  38.862  1.00  0.00    -0.200 F 
ATOM    107  C   UNL A   1      38.307  33.868  38.167  1.00  0.00     0.200 A 
ATOM    108  F   UNL A   1      39.764  35.574  37.429  1.00  0.00    -0.200 F 
ATOM    109  F   UNL A   1      37.860  34.657  39.154  1.00  0.00    -0.200 F 
ENDBRANCH  76  99
ENDBRANCH  50  51
ENDBRANCH  43  45
ENDBRANCH  42  43
ENDBRANCH  41  42
ENDBRANCH  40  41
ENDBRANCH  39  40
ENDBRANCH  38  39
ENDBRANCH  37  38
ENDBRANCH  36  37
ENDBRANCH   1  36
TORSDOF 24
ENDMDL
MODEL 2
REMARK VINA RESULT:      -9.9      4.662      8.822
REMARK SMILES NS(=O)(=O)c1ccc(-c2cc(Cl)cc3c2O[C@@H](C(F)(F)F)C(C(=O)OCCOCCOCCOCCOC(=O)c2ccc(-c4c5nc(c(-c6c(F)c(F)c(F)c(F)c6F)c6ccc([nH]6)c(-c6c(F)c(F)c(F)c(F)c6F)c6nc(c(-c7c(F)c(F)c(F)c(F)c7F)c7ccc4[nH]7)C=C6)C=C5)cc2)=C3)cc1
REMARK SMILES IDX 30 1 29 2 28 3 27 4 26 5 25 6 23 7 24 8 22 9 9 10 10 11
REMARK SMILES IDX 15 12 11 13 14 14 16 15 12 16 13 17 103 18 17 19 8 20 5 21
REMARK SMILES IDX 6 22 105 23 7 24 104 25 2 26 3 27 4 28 1 29 18 32 19 33
REMARK SMILES IDX 20 34 21 35 31 36 32 37 33 38 34 39 35 40 36 41 37 42 38 43
REMARK SMILES IDX 39 44 40 45 41 46 102 47 42 48 101 49 43 50 44 51 45 52
REMARK SMILES IDX 95 53 46 54 100 55 94 56 96 57 47 58 99 59 93 60 92 61 48 63
REMARK SMILES IDX 80 64 60 65 79 66 61 67 64 68 78 69 97 70 62 71 63 72 77 74
REMARK SMILES IDX 98 75 65 76 49 77 50 78 58 79 51 80 52 81 56 82 59 83 53 84
REMARK SMILES IDX 54 85 57 86 55 87 81 88 82 89 90 90 83 91 84 92 88 93 91 94
REMARK SMILES IDX 85 95 86 96 89 97 87 98 66 99 67 100 75 101 68 102 69 103
REMARK SMILES IDX 73 104 76 105 70 106 71 107 74 108 72 109
REMARK H PARENT 1 30 1 31 96 62 64 73
REMARK Flexibility Score: inf
ROOT
ATOM      1  C   UNL A   1      47.574  26.867  23.736  1.00  0.00     0.188 C 
ENDROOT
BRANCH   1   2
ATOM      2  C   UNL A   1      46.372  27.343  24.563  1.00  0.00     0.188 C 
BRANCH   2   3
ATOM      3  O   UNL A   1      45.491  26.299  24.961  1.00  0.00    -0.376 OA
BRANCH   3   4
ATOM      4  C   UNL A   1      45.936  24.952  24.831  1.00  0.00     0.202 C 
BRANCH   4   5
ATOM      5  C   UNL A   1      45.456  23.922  25.863  1.00  0.00     0.261 C 
BRANCH   5   6
ATOM      6  O   UNL A   1      44.549  24.517  26.817  1.00  0.00    -0.460 OA
BRANCH   6   7
ATOM      7  C   UNL A   1      44.777  24.239  28.111  1.00  0.00     0.338 C 
ATOM      8  O   UNL A   1      45.888  24.070  28.597  1.00  0.00    -0.246 OA
BRANCH   7   9
ATOM      9  C   UNL A   1      43.544  24.310  28.939  1.00  0.00     0.087 C 
ATOM     10  C   UNL A   1      40.917  27.363  27.885  1.00  0.00     0.026 A 
ATOM     11  C   UNL A   1      41.725  28.338  27.253  1.00  0.00     0.033 A 
ATOM     12  C   UNL A   1      41.620  26.272  28.449  1.00  0.00     0.135 A 
ATOM     13  C   UNL A   1      43.099  28.397  27.485  1.00  0.00     0.042 A 
ATOM     14  C   UNL A   1      42.941  26.470  28.890  1.00  0.00     0.019 A 
ATOM     15  O   UNL A   1      41.216  24.954  28.174  1.00  0.00    -0.475 OA
ATOM     16  Cl  UNL A   1      44.042  29.603  26.706  1.00  0.00    -0.084 Cl
ATOM     17  C   UNL A   1      43.691  27.529  28.390  1.00  0.00     0.032 A 
ATOM     18  C   UNL A   1      43.580  25.415  29.706  1.00  0.00     0.027 C 
ATOM     19  C   UNL A   1      42.137  23.848  28.599  1.00  0.00     0.316 C 
BRANCH  10  20
ATOM     20  C   UNL A   1      39.625  27.925  28.437  1.00  0.00    -0.015 A 
ATOM     21  C   UNL A   1      37.782  29.525  29.925  1.00  0.00     0.082 A 
ATOM     22  C   UNL A   1      38.133  29.892  28.627  1.00  0.00     0.022 A 
ATOM     23  C   UNL A   1      38.286  28.340  30.465  1.00  0.00     0.022 A 
ATOM     24  C   UNL A   1      39.029  29.088  27.891  1.00  0.00     0.010 A 
ATOM     25  C   UNL A   1      39.186  27.548  29.724  1.00  0.00     0.010 A 
BRANCH  21  26
ATOM     26  S   UNL A   1      36.772  30.571  30.945  1.00  0.00     0.238 S 
ATOM     27  O   UNL A   1      37.500  31.792  31.216  1.00  0.00    -0.207 OA
ATOM     28  O   UNL A   1      36.186  29.767  31.986  1.00  0.00    -0.207 OA
BRANCH  26  29
ATOM     29  N   UNL A   1      35.494  31.053  29.960  1.00  0.00    -0.225 NA
ATOM     30  H   UNL A   1      35.057  30.232  29.542  1.00  0.00     0.137 HD
ATOM     31  H   UNL A   1      35.846  31.664  29.222  1.00  0.00     0.137 HD
ENDBRANCH  26  29
ENDBRANCH  21  26
ENDBRANCH  10  20
BRANCH  19  32
ATOM     32  C   UNL A   1      41.996  22.499  27.844  1.00  0.00     0.430 C 
ATOM     33  F   UNL A   1      40.690  22.109  27.867  1.00  0.00    -0.167 F 
ATOM     34  F   UNL A   1      42.334  22.624  26.539  1.00  0.00    -0.167 F 
ATOM     35  F   UNL A   1      42.696  21.467  28.335  1.00  0.00    -0.167 F 
ENDBRANCH  19  32
ENDBRANCH   7   9
ENDBRANCH   6   7
ENDBRANCH   5   6
ENDBRANCH   4   5
ENDBRANCH   3   4
ENDBRANCH   2   3
ENDBRANCH   1   2
BRANCH   1  36
ATOM     36  O   UNL A   1      48.315  27.925  23.159  1.00  0.00    -0.377 OA
BRANCH  36  37
ATOM     37  C   UNL A   1      49.737  27.853  23.225  1.00  0.00     0.188 C 
BRANCH  37  38
ATOM     38  C   UNL A   1      50.595  27.263  22.079  1.00  0.00     0.188 C 
BRANCH  38  39
ATOM     39  O   UNL A   1      51.911  26.873  22.452  1.00  0.00    -0.376 OA
BRANCH  39  40
ATOM     40  C   UNL A   1      52.522  27.544  23.540  1.00  0.00     0.202 C 
BRANCH  40  41
ATOM     41  C   UNL A   1      52.943  26.635  24.701  1.00  0.00     0.261 C 
BRANCH  41  42
ATOM     42  O   UNL A   1      52.431  27.017  25.986  1.00  0.00    -0.460 OA
BRANCH  42  43
ATOM     43  C   UNL A   1      51.749  26.074  26.673  1.00  0.00     0.338 C 
ATOM     44  O   UNL A   1      52.077  24.919  26.868  1.00  0.00    -0.246 OA
BRANCH  43  45
ATOM     45  C   UNL A   1      50.606  26.739  27.328  1.00  0.00     0.060 A 
ATOM     46  C   UNL A   1      50.855  27.633  28.378  1.00  0.00     0.016 A 
ATOM     47  C   UNL A   1      49.299  26.502  26.891  1.00  0.00     0.016 A 
ATOM     48  C   UNL A   1      49.792  28.259  29.025  1.00  0.00     0.010 A 
ATOM     49  C   UNL A   1      48.234  27.114  27.553  1.00  0.00     0.010 A 
ATOM     50  C   UNL A   1      48.476  27.964  28.646  1.00  0.00    -0.014 A 
BRANCH  50  51
ATOM     51  C   UNL A   1      47.357  28.358  29.535  1.00  0.00     0.031 A 
ATOM     52  C   UNL A   1      46.721  29.701  29.313  1.00  0.00     0.074 A 
ATOM     53  C   UNL A   1      46.905  27.544  30.503  1.00  0.00     0.049 A 
ATOM     54  N   UNL A   1      45.752  30.286  29.968  1.00  0.00    -0.248 NA
ATOM     55  C   UNL A   1      47.259  30.498  28.197  1.00  0.00     0.031 C 
ATOM     56  C   UNL A   1      47.423  26.210  30.798  1.00  0.00     0.029 A 
ATOM     57  N   UNL A   1      45.907  27.733  31.426  1.00  0.00    -0.354 N 
ATOM     58  C   UNL A   1      45.570  31.515  29.350  1.00  0.00     0.074 A 
ATOM     59  C   UNL A   1      46.550  31.611  28.292  1.00  0.00     0.031 C 
ATOM     60  C   UNL A   1      46.749  25.706  31.846  1.00  0.00     0.029 A 
ATOM     61  C   UNL A   1      45.774  26.692  32.311  1.00  0.00     0.049 A 
ATOM     62  H   UNL A   1      45.342  28.538  31.452  1.00  0.00     0.167 HD
ATOM     63  C   UNL A   1      44.660  32.476  29.634  1.00  0.00     0.037 A 
ATOM     64  C   UNL A   1      44.971  26.566  33.386  1.00  0.00     0.037 A 
ATOM     65  C   UNL A   1      43.691  32.380  30.692  1.00  0.00     0.049 A 
ATOM     66  C   UNL A   1      44.005  27.676  33.723  1.00  0.00     0.074 A 
ATOM     67  C   UNL A   1      42.705  33.284  31.043  1.00  0.00     0.029 A 
ATOM     68  N   UNL A   1      43.597  31.319  31.581  1.00  0.00    -0.354 N 
ATOM     69  N   UNL A   1      43.804  28.816  33.105  1.00  0.00    -0.248 NA
ATOM     70  C   UNL A   1      43.150  27.477  34.902  1.00  0.00     0.031 C 
ATOM     71  C   UNL A   1      42.055  32.798  32.184  1.00  0.00     0.029 A 
ATOM     72  C   UNL A   1      42.591  31.560  32.503  1.00  0.00     0.049 A 
ATOM     73  H   UNL A   1      44.162  30.513  31.560  1.00  0.00     0.167 HD
ATOM     74  C   UNL A   1      42.785  29.456  33.802  1.00  0.00     0.074 A 
ATOM     75  C   UNL A   1      42.399  28.569  34.881  1.00  0.00     0.031 C 
ATOM     76  C   UNL A   1      42.217  30.666  33.569  1.00  0.00     0.037 A 
BRANCH  63  77
ATOM     77  C   UNL A   1      44.701  33.729  28.809  1.00  0.00     0.064 A 
ATOM     78  C   UNL A   1      44.088  33.807  27.549  1.00  0.00     0.173 A 
ATOM     79  C   UNL A   1      45.354  34.874  29.291  1.00  0.00     0.173 A 
ATOM     80  F   UNL A   1      43.465  32.736  27.032  1.00  0.00    -0.203 F 
ATOM     81  C   UNL A   1      44.158  34.972  26.789  1.00  0.00     0.198 A 
ATOM     82  C   UNL A   1      45.392  36.047  28.544  1.00  0.00     0.198 A 
ATOM     83  F   UNL A   1      45.954  34.854  30.491  1.00  0.00    -0.203 F 
ATOM     84  F   UNL A   1      43.617  35.004  25.562  1.00  0.00    -0.200 F 
ATOM     85  C   UNL A   1      44.804  36.092  27.289  1.00  0.00     0.200 A 
ATOM     86  F   UNL A   1      46.006  37.132  29.035  1.00  0.00    -0.200 F 
ATOM     87  F   UNL A   1      44.868  37.214  26.558  1.00  0.00    -0.200 F 
ENDBRANCH  63  77
BRANCH  64  88
ATOM     88  C   UNL A   1      45.055  25.347  34.234  1.00  0.00     0.064 A 
ATOM     89  C   UNL A   1      45.810  25.333  35.416  1.00  0.00     0.173 A 
ATOM     90  C   UNL A   1      44.393  24.165  33.871  1.00  0.00     0.173 A 
ATOM     91  F   UNL A   1      46.485  26.429  35.792  1.00  0.00    -0.203 F 
ATOM     92  C   UNL A   1      45.913  24.179  36.190  1.00  0.00     0.198 A 
ATOM     93  C   UNL A   1      44.473  23.021  34.661  1.00  0.00     0.198 A 
ATOM     94  F   UNL A   1      43.661  24.123  32.748  1.00  0.00    -0.203 F 
ATOM     95  F   UNL A   1      46.681  24.178  37.288  1.00  0.00    -0.200 F 
ATOM     96  C   UNL A   1      45.239  23.026  35.816  1.00  0.00     0.200 A 
ATOM     97  F   UNL A   1      43.811  21.913  34.301  1.00  0.00    -0.200 F 
ATOM     98  F   UNL A   1      45.336  21.918  36.564  1.00  0.00    -0.200 F 
ENDBRANCH  64  88
BRANCH  76  99
ATOM     99  C   UNL A   1      41.095  31.092  34.472  1.00  0.00     0.064 A 
ATOM    100  C   UNL A   1      41.329  31.783  35.670  1.00  0.00     0.173 A 
ATOM    101  C   UNL A   1      39.761  30.850  34.107  1.00  0.00     0.173 A 
ATOM    102  F   UNL A   1      42.586  32.030  36.071  1.00  0.00    -0.203 F 
ATOM    103  C   UNL A   1      40.273  32.192  36.480  1.00  0.00     0.198 A 
ATOM    104  C   UNL A   1      38.707  31.289  34.903  1.00  0.00     0.198 A 
ATOM    105  F   UNL A   1      39.479  30.202  32.966  1.00  0.00    -0.203 F 
ATOM    106  F   UNL A   1      40.523  32.807  37.644  1.00  0.00    -0.200 F 
ATOM    107  C   UNL A   1      38.963  31.952  36.093  1.00  0.00     0.200 A 
ATOM    108  F   UNL A   1      37.442  31.072  34.516  1.00  0.00    -0.200 F 
ATOM    109  F   UNL A   1      37.949  32.355  36.868  1.00  0.00    -0.200 F 
ENDBRANCH  76  99
ENDBRANCH  50  51
ENDBRANCH  43  45
ENDBRANCH  42  43
ENDBRANCH  41  42
ENDBRANCH  40  41
ENDBRANCH  39  40
ENDBRANCH  38  39
ENDBRANCH  37  38
ENDBRANCH  36  37
ENDBRANCH   1  36
TORSDOF 24
ENDMDL
MODEL 3
REMARK VINA RESULT:      -8.9      9.996     14.152
REMARK SMILES NS(=O)(=O)c1ccc(-c2cc(Cl)cc3c2O[C@@H](C(F)(F)F)C(C(=O)OCCOCCOCCOCCOC(=O)c2ccc(-c4c5nc(c(-c6c(F)c(F)c(F)c(F)c6F)c6ccc([nH]6)c(-c6c(F)c(F)c(F)c(F)c6F)c6nc(c(-c7c(F)c(F)c(F)c(F)c7F)c7ccc4[nH]7)C=C6)C=C5)cc2)=C3)cc1
REMARK SMILES IDX 30 1 29 2 28 3 27 4 26 5 25 6 23 7 24 8 22 9 9 10 10 11
REMARK SMILES IDX 15 12 11 13 14 14 16 15 12 16 13 17 103 18 17 19 8 20 5 21
REMARK SMILES IDX 6 22 105 23 7 24 104 25 2 26 3 27 4 28 1 29 18 32 19 33
REMARK SMILES IDX 20 34 21 35 31 36 32 37 33 38 34 39 35 40 36 41 37 42 38 43
REMARK SMILES IDX 39 44 40 45 41 46 102 47 42 48 101 49 43 50 44 51 45 52
REMARK SMILES IDX 95 53 46 54 100 55 94 56 96 57 47 58 99 59 93 60 92 61 48 63
REMARK SMILES IDX 80 64 60 65 79 66 61 67 64 68 78 69 97 70 62 71 63 72 77 74
REMARK SMILES IDX 98 75 65 76 49 77 50 78 58 79 51 80 52 81 56 82 59 83 53 84
REMARK SMILES IDX 54 85 57 86 55 87 81 88 82 89 90 90 83 91 84 92 88 93 91 94
REMARK SMILES IDX 85 95 86 96 89 97 87 98 66 99 67 100 75 101 68 102 69 103
REMARK SMILES IDX 73 104 76 105 70 106 71 107 74 108 72 109
REMARK H PARENT 1 30 1 31 96 62 64 73
REMARK Flexibility Score: inf
ROOT
ATOM      1  C   UNL A   1      48.710  38.921  27.110  1.00  0.00     0.188 C 
ENDROOT
BRANCH   1   2
ATOM      2  C   UNL A   1      49.359  39.988  28.001  1.00  0.00     0.188 C 
BRANCH   2   3
ATOM      3  O   UNL A   1      49.270  39.714  29.395  1.00  0.00    -0.376 OA
BRANCH   3   4
ATOM      4  C   UNL A   1      48.498  40.593  30.208  1.00  0.00     0.202 C 
BRANCH   4   5
ATOM      5  C   UNL A   1      47.693  41.705  29.520  1.00  0.00     0.261 C 
BRANCH   5   6
ATOM      6  O   UNL A   1      46.378  41.245  29.139  1.00  0.00    -0.460 OA
BRANCH   6   7
ATOM      7  C   UNL A   1      45.610  42.118  28.470  1.00  0.00     0.338 C 
ATOM      8  O   UNL A   1      44.664  42.724  28.957  1.00  0.00    -0.246 OA
BRANCH   7   9
ATOM      9  C   UNL A   1      46.122  42.402  27.102  1.00  0.00     0.087 C 
ATOM     10  C   UNL A   1      43.187  42.579  24.154  1.00  0.00     0.026 A 
ATOM     11  C   UNL A   1      42.121  41.796  24.653  1.00  0.00     0.033 A 
ATOM     12  C   UNL A   1      44.365  42.564  24.939  1.00  0.00     0.135 A 
ATOM     13  C   UNL A   1      42.335  40.820  25.626  1.00  0.00     0.042 A 
ATOM     14  C   UNL A   1      44.644  41.430  25.722  1.00  0.00     0.019 A 
ATOM     15  O   UNL A   1      44.992  43.772  25.295  1.00  0.00    -0.475 OA
ATOM     16  Cl  UNL A   1      41.014  39.883  26.197  1.00  0.00    -0.084 Cl
ATOM     17  C   UNL A   1      43.619  40.562  26.083  1.00  0.00     0.032 A 
ATOM     18  C   UNL A   1      45.985  41.306  26.334  1.00  0.00     0.027 C 
ATOM     19  C   UNL A   1      46.085  43.704  26.320  1.00  0.00     0.316 C 
BRANCH  10  20
ATOM     20  C   UNL A   1      43.167  42.727  22.647  1.00  0.00    -0.015 A 
ATOM     21  C   UNL A   1      42.780  43.824  20.036  1.00  0.00     0.082 A 
ATOM     22  C   UNL A   1      44.012  43.960  20.673  1.00  0.00     0.022 A 
ATOM     23  C   UNL A   1      41.763  43.095  20.655  1.00  0.00     0.022 A 
ATOM     24  C   UNL A   1      44.203  43.401  21.954  1.00  0.00     0.010 A 
ATOM     25  C   UNL A   1      41.961  42.546  21.938  1.00  0.00     0.010 A 
BRANCH  21  26
ATOM     26  S   UNL A   1      42.441  44.626  18.489  1.00  0.00     0.238 S 
ATOM     27  O   UNL A   1      43.403  45.692  18.302  1.00  0.00    -0.207 OA
ATOM     28  O   UNL A   1      41.021  44.834  18.382  1.00  0.00    -0.207 OA
BRANCH  26  29
ATOM     29  N   UNL A   1      42.833  43.494  17.305  1.00  0.00    -0.225 NA
ATOM     30  H   UNL A   1      43.378  42.740  17.723  1.00  0.00     0.137 HD
ATOM     31  H   UNL A   1      43.381  43.945  16.572  1.00  0.00     0.137 HD
ENDBRANCH  26  29
ENDBRANCH  21  26
ENDBRANCH  10  20
BRANCH  19  32
ATOM     32  C   UNL A   1      46.383  45.011  27.102  1.00  0.00     0.430 C 
ATOM     33  F   UNL A   1      47.232  44.732  28.131  1.00  0.00    -0.167 F 
ATOM     34  F   UNL A   1      47.013  45.921  26.324  1.00  0.00    -0.167 F 
ATOM     35  F   UNL A   1      45.328  45.628  27.654  1.00  0.00    -0.167 F 
ENDBRANCH  19  32
ENDBRANCH   7   9
ENDBRANCH   6   7
ENDBRANCH   5   6
ENDBRANCH   4   5
ENDBRANCH   3   4
ENDBRANCH   2   3
ENDBRANCH   1   2
BRANCH   1  36
ATOM     36  O   UNL A   1      49.533  37.792  26.893  1.00  0.00    -0.377 OA
BRANCH  36  37
ATOM     37  C   UNL A   1      48.917  36.507  26.918  1.00  0.00     0.188 C 
BRANCH  37  38
ATOM     38  C   UNL A   1      49.675  35.228  27.356  1.00  0.00     0.188 C 
BRANCH  38  39
ATOM     39  O   UNL A   1      50.799  34.892  26.552  1.00  0.00    -0.376 OA
BRANCH  39  40
ATOM     40  C   UNL A   1      52.092  35.092  27.097  1.00  0.00     0.202 C 
BRANCH  40  41
ATOM     41  C   UNL A   1      52.779  33.817  27.603  1.00  0.00     0.261 C 
BRANCH  41  42
ATOM     42  O   UNL A   1      52.393  32.612  26.926  1.00  0.00    -0.460 OA
BRANCH  42  43
ATOM     43  C   UNL A   1      52.275  31.500  27.685  1.00  0.00     0.338 C 
ATOM     44  O   UNL A   1      53.172  30.842  28.177  1.00  0.00    -0.246 OA
BRANCH  43  45
ATOM     45  C   UNL A   1      50.841  31.316  27.986  1.00  0.00     0.060 A 
ATOM     46  C   UNL A   1      49.904  31.537  26.967  1.00  0.00     0.016 A 
ATOM     47  C   UNL A   1      50.428  30.905  29.256  1.00  0.00     0.016 A 
ATOM     48  C   UNL A   1      48.544  31.388  27.231  1.00  0.00     0.010 A 
ATOM     49  C   UNL A   1      49.065  30.776  29.524  1.00  0.00     0.010 A 
ATOM     50  C   UNL A   1      48.118  31.055  28.523  1.00  0.00    -0.014 A 
BRANCH  50  51
ATOM     51  C   UNL A   1      46.691  31.224  28.885  1.00  0.00     0.031 A 
ATOM     52  C   UNL A   1      45.786  30.031  28.761  1.00  0.00     0.074 A 
ATOM     53  C   UNL A   1      46.210  32.398  29.327  1.00  0.00     0.049 A 
ATOM     54  N   UNL A   1      44.502  29.928  28.987  1.00  0.00    -0.248 NA
ATOM     55  C   UNL A   1      46.420  28.780  28.311  1.00  0.00     0.031 C 
ATOM     56  C   UNL A   1      46.993  33.617  29.514  1.00  0.00     0.029 A 
ATOM     57  N   UNL A   1      44.934  32.754  29.689  1.00  0.00    -0.354 N 
ATOM     58  C   UNL A   1      44.176  28.608  28.704  1.00  0.00     0.074 A 
ATOM     59  C   UNL A   1      45.385  27.957  28.254  1.00  0.00     0.031 C 
ATOM     60  C   UNL A   1      46.175  34.595  29.940  1.00  0.00     0.029 A 
ATOM     61  C   UNL A   1      44.810  34.078  30.029  1.00  0.00     0.049 A 
ATOM     62  H   UNL A   1      44.181  32.121  29.703  1.00  0.00     0.167 HD
ATOM     63  C   UNL A   1      42.976  27.992  28.817  1.00  0.00     0.037 A 
ATOM     64  C   UNL A   1      43.712  34.791  30.350  1.00  0.00     0.037 A 
ATOM     65  C   UNL A   1      41.774  28.646  29.259  1.00  0.00     0.049 A 
ATOM     66  C   UNL A   1      42.372  34.098  30.411  1.00  0.00     0.074 A 
ATOM     67  C   UNL A   1      40.514  28.106  29.438  1.00  0.00     0.029 A 
ATOM     68  N   UNL A   1      41.681  29.994  29.576  1.00  0.00    -0.354 N 
ATOM     69  N   UNL A   1      42.078  32.839  30.189  1.00  0.00    -0.248 NA
ATOM     70  C   UNL A   1      41.213  34.926  30.775  1.00  0.00     0.031 C 
ATOM     71  C   UNL A   1      39.645  29.139  29.804  1.00  0.00     0.029 A 
ATOM     72  C   UNL A   1      40.376  30.311  29.918  1.00  0.00     0.049 A 
ATOM     73  H   UNL A   1      42.432  30.631  29.561  1.00  0.00     0.167 HD
ATOM     74  C   UNL A   1      40.711  32.719  30.412  1.00  0.00     0.074 A 
ATOM     75  C   UNL A   1      40.237  34.030  30.801  1.00  0.00     0.031 C 
ATOM     76  C   UNL A   1      39.920  31.622  30.307  1.00  0.00     0.037 A 
BRANCH  63  77
ATOM     77  C   UNL A   1      42.903  26.547  28.419  1.00  0.00     0.064 A 
ATOM     78  C   UNL A   1      43.218  25.515  29.316  1.00  0.00     0.173 A 
ATOM     79  C   UNL A   1      42.503  26.189  27.123  1.00  0.00     0.173 A 
ATOM     80  F   UNL A   1      43.623  25.802  30.563  1.00  0.00    -0.203 F 
ATOM     81  C   UNL A   1      43.166  24.181  28.919  1.00  0.00     0.198 A 
ATOM     82  C   UNL A   1      42.420  24.854  26.740  1.00  0.00     0.198 A 
ATOM     83  F   UNL A   1      42.189  27.137  26.227  1.00  0.00    -0.203 F 
ATOM     84  F   UNL A   1      43.528  23.214  29.775  1.00  0.00    -0.200 F 
ATOM     85  C   UNL A   1      42.762  23.851  27.635  1.00  0.00     0.200 A 
ATOM     86  F   UNL A   1      42.017  24.538  25.502  1.00  0.00    -0.200 F 
ATOM     87  F   UNL A   1      42.710  22.567  27.255  1.00  0.00    -0.200 F 
ENDBRANCH  63  77
BRANCH  64  88
ATOM     88  C   UNL A   1      43.829  36.248  30.625  1.00  0.00     0.064 A 
ATOM     89  C   UNL A   1      44.045  36.728  31.924  1.00  0.00     0.173 A 
ATOM     90  C   UNL A   1      43.709  37.191  29.593  1.00  0.00     0.173 A 
ATOM     91  F   UNL A   1      44.138  35.869  32.949  1.00  0.00    -0.203 F 
ATOM     92  C   UNL A   1      44.121  38.096  32.182  1.00  0.00     0.198 A 
ATOM     93  C   UNL A   1      43.814  38.556  29.848  1.00  0.00     0.198 A 
ATOM     94  F   UNL A   1      43.496  36.784  28.333  1.00  0.00    -0.203 F 
ATOM     95  F   UNL A   1      44.279  38.530  33.440  1.00  0.00    -0.200 F 
ATOM     96  C   UNL A   1      44.013  39.008  31.143  1.00  0.00     0.200 A 
ATOM     97  F   UNL A   1      43.720  39.433  28.840  1.00  0.00    -0.200 F 
ATOM     98  F   UNL A   1      44.089  40.323  31.393  1.00  0.00    -0.200 F 
ENDBRANCH  64  88
BRANCH  76  99
ATOM     99  C   UNL A   1      38.466  31.778  30.650  1.00  0.00     0.064 A 
ATOM    100  C   UNL A   1      37.496  32.027  29.668  1.00  0.00     0.173 A 
ATOM    101  C   UNL A   1      38.031  31.624  31.976  1.00  0.00     0.173 A 
ATOM    102  F   UNL A   1      37.860  32.194  28.387  1.00  0.00    -0.203 F 
ATOM    103  C   UNL A   1      36.149  32.144  30.004  1.00  0.00     0.198 A 
ATOM    104  C   UNL A   1      36.680  31.709  32.303  1.00  0.00     0.198 A 
ATOM    105  F   UNL A   1      38.915  31.375  32.954  1.00  0.00    -0.203 F 
ATOM    106  F   UNL A   1      35.247  32.431  29.057  1.00  0.00    -0.200 F 
ATOM    107  C   UNL A   1      35.742  31.976  31.319  1.00  0.00     0.200 A 
ATOM    108  F   UNL A   1      36.288  31.527  33.572  1.00  0.00    -0.200 F 
ATOM    109  F   UNL A   1      34.445  32.078  31.639  1.00  0.00    -0.200 F 
ENDBRANCH  76  99
ENDBRANCH  50  51
ENDBRANCH  43  45
ENDBRANCH  42  43
ENDBRANCH  41  42
ENDBRANCH  40  41
ENDBRANCH  39  40
ENDBRANCH  38  39
ENDBRANCH  37  38
ENDBRANCH  36  37
ENDBRANCH   1  36
TORSDOF 24
ENDMDL
