MODEL 1
REMARK VINA RESULT:     -10.3      0.000      0.000
REMARK SMILES C[C@@H](C(=O)OCCOCCOCCOCCOC(=O)c1ccc(-c2c3nc(c(-c4c(F)c(F)c(F)c(F)c4F)c4ccc([nH]4)c(-c4c(F)c(F)c(F)c(F)c4F)c4nc(c(-c5c(F)c(F)c(F)c(F)c5F)c5ccc2[nH]5)C=C4)C=C3)cc1)c1ccc(Cc2ccco2)cc1F
REMARK SMILES IDX 10 1 9 2 8 3 7 4 6 5 5 6 3 7 4 8 2 9 1 10 83 11 84 12 94 13
REMARK SMILES IDX 85 14 93 15 95 16 86 17 87 18 88 19 89 20 92 21 90 22 91 23
REMARK SMILES IDX 11 24 12 25 13 26 14 27 15 28 16 29 17 30 18 31 19 32 20 33
REMARK SMILES IDX 21 34 82 35 22 36 81 37 23 38 24 39 25 40 75 41 26 42 80 43
REMARK SMILES IDX 74 44 76 45 27 46 79 47 73 48 72 49 28 51 60 52 40 53 59 54
REMARK SMILES IDX 41 55 44 56 58 57 77 58 42 59 43 60 57 62 78 63 45 64 29 65
REMARK SMILES IDX 30 66 38 67 31 68 32 69 36 70 39 71 33 72 34 73 37 74 35 75
REMARK SMILES IDX 61 76 62 77 70 78 63 79 64 80 68 81 71 82 65 83 66 84 69 85
REMARK SMILES IDX 67 86 46 87 47 88 55 89 48 90 49 91 53 92 56 93 50 94 51 95
REMARK SMILES IDX 54 96 52 97
REMARK H PARENT 76 50 44 61
REMARK Flexibility Score: inf
ROOT
ATOM      1  C   UNL A   1      40.737  21.926  27.430  1.00  0.00     0.188 C 
ENDROOT
BRANCH   1   2
ATOM      2  C   UNL A   1      39.610  22.367  26.484  1.00  0.00     0.188 C 
BRANCH   2   3
ATOM      3  O   UNL A   1      38.936  21.368  25.748  1.00  0.00    -0.376 OA
BRANCH   3   4
ATOM      4  C   UNL A   1      37.706  21.643  25.091  1.00  0.00     0.202 C 
BRANCH   4   5
ATOM      5  C   UNL A   1      36.316  21.733  25.760  1.00  0.00     0.261 C 
BRANCH   5   6
ATOM      6  O   UNL A   1      35.182  21.803  24.891  1.00  0.00    -0.463 OA
BRANCH   6   7
ATOM      7  C   UNL A   1      33.953  21.896  25.454  1.00  0.00     0.313 C 
ATOM      8  O   UNL A   1      33.009  21.170  25.161  1.00  0.00    -0.252 OA
BRANCH   7   9
ATOM      9  C   UNL A   1      33.894  22.929  26.588  1.00  0.00     0.129 C 
ATOM     10  C   UNL A   1      33.388  22.326  27.912  1.00  0.00     0.025 C 
BRANCH   9  11
ATOM     11  C   UNL A   1      33.278  24.271  26.177  1.00  0.00     0.002 A 
ATOM     12  C   UNL A   1      34.074  25.322  25.688  1.00  0.00     0.008 A 
ATOM     13  C   UNL A   1      31.921  24.559  26.376  1.00  0.00     0.127 A 
ATOM     14  C   UNL A   1      33.543  26.585  25.418  1.00  0.00     0.005 A 
ATOM     15  C   UNL A   1      31.391  25.838  26.157  1.00  0.00     0.043 A 
ATOM     16  F   UNL A   1      31.088  23.612  26.828  1.00  0.00    -0.207 F 
ATOM     17  C   UNL A   1      32.211  26.882  25.715  1.00  0.00    -0.038 A 
BRANCH  17  18
ATOM     18  C   UNL A   1      31.705  28.306  25.613  1.00  0.00     0.111 C 
BRANCH  18  19
ATOM     19  C   UNL A   1      31.055  28.609  24.298  1.00  0.00     0.108 A 
ATOM     20  C   UNL A   1      31.033  27.974  23.069  1.00  0.00     0.046 A 
ATOM     21  O   UNL A   1      30.290  29.739  24.238  1.00  0.00    -0.469 OA
ATOM     22  C   UNL A   1      30.241  28.771  22.211  1.00  0.00     0.042 A 
ATOM     23  C   UNL A   1      29.805  29.829  22.972  1.00  0.00     0.195 A 
ENDBRANCH  18  19
ENDBRANCH  17  18
ENDBRANCH   9  11
ENDBRANCH   7   9
ENDBRANCH   6   7
ENDBRANCH   5   6
ENDBRANCH   4   5
ENDBRANCH   3   4
ENDBRANCH   2   3
ENDBRANCH   1   2
BRANCH   1  24
ATOM     24  O   UNL A   1      40.778  20.537  27.703  1.00  0.00    -0.377 OA
BRANCH  24  25
ATOM     25  C   UNL A   1      41.900  19.791  27.252  1.00  0.00     0.188 C 
BRANCH  25  26
ATOM     26  C   UNL A   1      42.119  19.496  25.752  1.00  0.00     0.188 C 
BRANCH  26  27
ATOM     27  O   UNL A   1      43.353  19.955  25.221  1.00  0.00    -0.376 OA
BRANCH  27  28
ATOM     28  C   UNL A   1      43.783  21.271  25.530  1.00  0.00     0.202 C 
BRANCH  28  29
ATOM     29  C   UNL A   1      43.616  22.346  24.444  1.00  0.00     0.261 C 
BRANCH  29  30
ATOM     30  O   UNL A   1      43.337  23.678  24.904  1.00  0.00    -0.460 OA
BRANCH  30  31
ATOM     31  C   UNL A   1      44.383  24.478  25.195  1.00  0.00     0.338 C 
ATOM     32  O   UNL A   1      45.364  24.696  24.503  1.00  0.00    -0.246 OA
BRANCH  31  33
ATOM     33  C   UNL A   1      44.055  25.218  26.431  1.00  0.00     0.060 A 
ATOM     34  C   UNL A   1      43.139  24.661  27.333  1.00  0.00     0.016 A 
ATOM     35  C   UNL A   1      44.650  26.452  26.699  1.00  0.00     0.016 A 
ATOM     36  C   UNL A   1      42.782  25.357  28.488  1.00  0.00     0.010 A 
ATOM     37  C   UNL A   1      44.274  27.161  27.844  1.00  0.00     0.010 A 
ATOM     38  C   UNL A   1      43.310  26.634  28.723  1.00  0.00    -0.014 A 
BRANCH  38  39
ATOM     39  C   UNL A   1      42.703  27.498  29.765  1.00  0.00     0.031 A 
ATOM     40  C   UNL A   1      43.366  27.556  31.114  1.00  0.00     0.074 A 
ATOM     41  C   UNL A   1      41.606  28.235  29.520  1.00  0.00     0.049 A 
ATOM     42  N   UNL A   1      42.995  28.184  32.201  1.00  0.00    -0.248 NA
ATOM     43  C   UNL A   1      44.619  26.797  31.256  1.00  0.00     0.031 C 
ATOM     44  C   UNL A   1      40.901  28.301  28.242  1.00  0.00     0.029 A 
ATOM     45  N   UNL A   1      40.886  29.061  30.348  1.00  0.00    -0.354 N 
ATOM     46  C   UNL A   1      43.963  27.891  33.152  1.00  0.00     0.074 A 
ATOM     47  C   UNL A   1      44.918  27.002  32.530  1.00  0.00     0.031 C 
ATOM     48  C   UNL A   1      39.836  29.113  28.376  1.00  0.00     0.029 A 
ATOM     49  C   UNL A   1      39.766  29.591  29.756  1.00  0.00     0.049 A 
ATOM     50  H   UNL A   1      41.150  29.255  31.276  1.00  0.00     0.167 HD
ATOM     51  C   UNL A   1      44.054  28.333  34.429  1.00  0.00     0.037 A 
ATOM     52  C   UNL A   1      38.783  30.350  30.281  1.00  0.00     0.037 A 
ATOM     53  C   UNL A   1      43.099  29.213  35.048  1.00  0.00     0.049 A 
ATOM     54  C   UNL A   1      38.860  30.759  31.732  1.00  0.00     0.074 A 
ATOM     55  C   UNL A   1      43.104  29.724  36.334  1.00  0.00     0.029 A 
ATOM     56  N   UNL A   1      41.959  29.703  34.427  1.00  0.00    -0.354 N 
ATOM     57  N   UNL A   1      39.788  30.496  32.622  1.00  0.00    -0.248 NA
ATOM     58  C   UNL A   1      37.753  31.575  32.251  1.00  0.00     0.031 C 
ATOM     59  C   UNL A   1      41.936  30.472  36.510  1.00  0.00     0.029 A 
ATOM     60  C   UNL A   1      41.239  30.489  35.313  1.00  0.00     0.049 A 
ATOM     61  H   UNL A   1      41.701  29.521  33.495  1.00  0.00     0.167 HD
ATOM     62  C   UNL A   1      39.394  31.140  33.790  1.00  0.00     0.074 A 
ATOM     63  C   UNL A   1      38.151  31.818  33.491  1.00  0.00     0.031 C 
ATOM     64  C   UNL A   1      40.008  31.168  34.999  1.00  0.00     0.037 A 
BRANCH  51  65
ATOM     65  C   UNL A   1      45.213  27.845  35.251  1.00  0.00     0.064 A 
ATOM     66  C   UNL A   1      46.484  28.432  35.160  1.00  0.00     0.173 A 
ATOM     67  C   UNL A   1      45.041  26.794  36.164  1.00  0.00     0.173 A 
ATOM     68  F   UNL A   1      46.708  29.430  34.292  1.00  0.00    -0.203 F 
ATOM     69  C   UNL A   1      47.546  27.964  35.932  1.00  0.00     0.198 A 
ATOM     70  C   UNL A   1      46.095  26.353  36.959  1.00  0.00     0.198 A 
ATOM     71  F   UNL A   1      43.845  26.198  36.294  1.00  0.00    -0.203 F 
ATOM     72  F   UNL A   1      48.764  28.505  35.789  1.00  0.00    -0.200 F 
ATOM     73  C   UNL A   1      47.348  26.932  36.836  1.00  0.00     0.200 A 
ATOM     74  F   UNL A   1      45.898  25.365  37.843  1.00  0.00    -0.200 F 
ATOM     75  F   UNL A   1      48.369  26.490  37.584  1.00  0.00    -0.200 F 
ENDBRANCH  51  65
BRANCH  52  76
ATOM     76  C   UNL A   1      37.625  30.756  29.440  1.00  0.00     0.064 A 
ATOM     77  C   UNL A   1      37.491  32.072  28.974  1.00  0.00     0.173 A 
ATOM     78  C   UNL A   1      36.609  29.845  29.114  1.00  0.00     0.173 A 
ATOM     79  F   UNL A   1      38.419  32.990  29.281  1.00  0.00    -0.203 F 
ATOM     80  C   UNL A   1      36.375  32.465  28.236  1.00  0.00     0.198 A 
ATOM     81  C   UNL A   1      35.512  30.231  28.347  1.00  0.00     0.198 A 
ATOM     82  F   UNL A   1      36.684  28.575  29.538  1.00  0.00    -0.203 F 
ATOM     83  F   UNL A   1      36.246  33.743  27.851  1.00  0.00    -0.200 F 
ATOM     84  C   UNL A   1      35.391  31.543  27.916  1.00  0.00     0.200 A 
ATOM     85  F   UNL A   1      34.569  29.333  28.030  1.00  0.00    -0.200 F 
ATOM     86  F   UNL A   1      34.321  31.921  27.204  1.00  0.00    -0.200 F 
ENDBRANCH  52  76
BRANCH  64  87
ATOM     87  C   UNL A   1      39.373  31.997  36.081  1.00  0.00     0.064 A 
ATOM     88  C   UNL A   1      38.338  31.502  36.888  1.00  0.00     0.173 A 
ATOM     89  C   UNL A   1      39.844  33.294  36.346  1.00  0.00     0.173 A 
ATOM     90  F   UNL A   1      37.843  30.274  36.671  1.00  0.00    -0.203 F 
ATOM     91  C   UNL A   1      37.776  32.284  37.894  1.00  0.00     0.198 A 
ATOM     92  C   UNL A   1      39.306  34.058  37.378  1.00  0.00     0.198 A 
ATOM     93  F   UNL A   1      40.840  33.815  35.613  1.00  0.00    -0.203 F 
ATOM     94  F   UNL A   1      36.752  31.809  38.616  1.00  0.00    -0.200 F 
ATOM     95  C   UNL A   1      38.267  33.557  38.145  1.00  0.00     0.200 A 
ATOM     96  F   UNL A   1      39.795  35.281  37.629  1.00  0.00    -0.200 F 
ATOM     97  F   UNL A   1      37.732  34.303  39.121  1.00  0.00    -0.200 F 
ENDBRANCH  64  87
ENDBRANCH  38  39
ENDBRANCH  31  33
ENDBRANCH  30  31
ENDBRANCH  29  30
ENDBRANCH  28  29
ENDBRANCH  27  28
ENDBRANCH  26  27
ENDBRANCH  25  26
ENDBRANCH  24  25
ENDBRANCH   1  24
TORSDOF 23
ENDMDL
MODEL 2
REMARK VINA RESULT:     -10.3      2.018      7.992
REMARK SMILES C[C@@H](C(=O)OCCOCCOCCOCCOC(=O)c1ccc(-c2c3nc(c(-c4c(F)c(F)c(F)c(F)c4F)c4ccc([nH]4)c(-c4c(F)c(F)c(F)c(F)c4F)c4nc(c(-c5c(F)c(F)c(F)c(F)c5F)c5ccc2[nH]5)C=C4)C=C3)cc1)c1ccc(Cc2ccco2)cc1F
REMARK SMILES IDX 10 1 9 2 8 3 7 4 6 5 5 6 3 7 4 8 2 9 1 10 83 11 84 12 94 13
REMARK SMILES IDX 85 14 93 15 95 16 86 17 87 18 88 19 89 20 92 21 90 22 91 23
REMARK SMILES IDX 11 24 12 25 13 26 14 27 15 28 16 29 17 30 18 31 19 32 20 33
REMARK SMILES IDX 21 34 82 35 22 36 81 37 23 38 24 39 25 40 75 41 26 42 80 43
REMARK SMILES IDX 74 44 76 45 27 46 79 47 73 48 72 49 28 51 60 52 40 53 59 54
REMARK SMILES IDX 41 55 44 56 58 57 77 58 42 59 43 60 57 62 78 63 45 64 29 65
REMARK SMILES IDX 30 66 38 67 31 68 32 69 36 70 39 71 33 72 34 73 37 74 35 75
REMARK SMILES IDX 61 76 62 77 70 78 63 79 64 80 68 81 71 82 65 83 66 84 69 85
REMARK SMILES IDX 67 86 46 87 47 88 55 89 48 90 49 91 53 92 56 93 50 94 51 95
REMARK SMILES IDX 54 96 52 97
REMARK H PARENT 76 50 44 61
REMARK Flexibility Score: inf
ROOT
ATOM      1  C   UNL A   1      41.147  20.725  26.690  1.00  0.00     0.188 C 
ENDROOT
BRANCH   1   2
ATOM      2  C   UNL A   1      39.959  21.665  26.435  1.00  0.00     0.188 C 
BRANCH   2   3
ATOM      3  O   UNL A   1      38.816  21.129  25.802  1.00  0.00    -0.376 OA
BRANCH   3   4
ATOM      4  C   UNL A   1      37.660  21.924  25.577  1.00  0.00     0.202 C 
BRANCH   4   5
ATOM      5  C   UNL A   1      37.640  23.436  25.262  1.00  0.00     0.261 C 
BRANCH   5   6
ATOM      6  O   UNL A   1      36.360  24.073  25.216  1.00  0.00    -0.463 OA
BRANCH   6   7
ATOM      7  C   UNL A   1      35.507  23.720  24.225  1.00  0.00     0.313 C 
ATOM      8  O   UNL A   1      35.864  23.410  23.093  1.00  0.00    -0.252 OA
BRANCH   7   9
ATOM      9  C   UNL A   1      34.049  23.627  24.698  1.00  0.00     0.129 C 
ATOM     10  C   UNL A   1      33.840  24.237  26.097  1.00  0.00     0.025 C 
BRANCH   9  11
ATOM     11  C   UNL A   1      33.401  22.259  24.452  1.00  0.00     0.002 A 
ATOM     12  C   UNL A   1      33.495  21.225  25.400  1.00  0.00     0.008 A 
ATOM     13  C   UNL A   1      32.790  21.933  23.234  1.00  0.00     0.127 A 
ATOM     14  C   UNL A   1      33.008  19.942  25.142  1.00  0.00     0.005 A 
ATOM     15  C   UNL A   1      32.347  20.635  22.946  1.00  0.00     0.043 A 
ATOM     16  F   UNL A   1      32.649  22.862  22.279  1.00  0.00    -0.207 F 
ATOM     17  C   UNL A   1      32.492  19.609  23.887  1.00  0.00    -0.038 A 
BRANCH  17  18
ATOM     18  C   UNL A   1      32.163  18.168  23.554  1.00  0.00     0.111 C 
BRANCH  18  19
ATOM     19  C   UNL A   1      33.081  17.186  24.215  1.00  0.00     0.108 A 
ATOM     20  C   UNL A   1      34.437  16.929  24.126  1.00  0.00     0.046 A 
ATOM     21  O   UNL A   1      32.518  16.339  25.127  1.00  0.00    -0.469 OA
ATOM     22  C   UNL A   1      34.709  15.855  25.004  1.00  0.00     0.042 A 
ATOM     23  C   UNL A   1      33.511  15.537  25.596  1.00  0.00     0.195 A 
ENDBRANCH  18  19
ENDBRANCH  17  18
ENDBRANCH   9  11
ENDBRANCH   7   9
ENDBRANCH   6   7
ENDBRANCH   5   6
ENDBRANCH   4   5
ENDBRANCH   3   4
ENDBRANCH   2   3
ENDBRANCH   1   2
BRANCH   1  24
ATOM     24  O   UNL A   1      41.233  19.620  25.809  1.00  0.00    -0.377 OA
BRANCH  24  25
ATOM     25  C   UNL A   1      42.322  18.719  25.958  1.00  0.00     0.188 C 
BRANCH  25  26
ATOM     26  C   UNL A   1      43.773  19.153  25.653  1.00  0.00     0.188 C 
BRANCH  26  27
ATOM     27  O   UNL A   1      43.940  19.893  24.454  1.00  0.00    -0.376 OA
BRANCH  27  28
ATOM     28  C   UNL A   1      44.541  21.177  24.521  1.00  0.00     0.202 C 
BRANCH  28  29
ATOM     29  C   UNL A   1      43.657  22.351  24.972  1.00  0.00     0.261 C 
BRANCH  29  30
ATOM     30  O   UNL A   1      44.219  23.226  25.963  1.00  0.00    -0.460 OA
BRANCH  30  31
ATOM     31  C   UNL A   1      44.409  24.518  25.631  1.00  0.00     0.338 C 
ATOM     32  O   UNL A   1      44.948  24.953  24.626  1.00  0.00    -0.246 OA
BRANCH  31  33
ATOM     33  C   UNL A   1      43.671  25.349  26.605  1.00  0.00     0.060 A 
ATOM     34  C   UNL A   1      44.039  26.692  26.768  1.00  0.00     0.016 A 
ATOM     35  C   UNL A   1      42.622  24.808  27.350  1.00  0.00     0.016 A 
ATOM     36  C   UNL A   1      43.385  27.487  27.709  1.00  0.00     0.010 A 
ATOM     37  C   UNL A   1      41.983  25.599  28.310  1.00  0.00     0.010 A 
ATOM     38  C   UNL A   1      42.387  26.930  28.520  1.00  0.00    -0.014 A 
BRANCH  38  39
ATOM     39  C   UNL A   1      41.918  27.668  29.718  1.00  0.00     0.031 A 
ATOM     40  C   UNL A   1      40.670  28.499  29.596  1.00  0.00     0.074 A 
ATOM     41  C   UNL A   1      42.564  27.589  30.894  1.00  0.00     0.049 A 
ATOM     42  N   UNL A   1      40.097  29.280  30.476  1.00  0.00    -0.248 NA
ATOM     43  C   UNL A   1      39.974  28.441  28.300  1.00  0.00     0.031 C 
ATOM     44  C   UNL A   1      43.754  26.782  31.151  1.00  0.00     0.029 A 
ATOM     45  N   UNL A   1      42.310  28.211  32.092  1.00  0.00    -0.354 N 
ATOM     46  C   UNL A   1      38.982  29.808  29.839  1.00  0.00     0.074 A 
ATOM     47  C   UNL A   1      38.976  29.291  28.489  1.00  0.00     0.031 C 
ATOM     48  C   UNL A   1      44.140  26.972  32.426  1.00  0.00     0.029 A 
ATOM     49  C   UNL A   1      43.246  27.941  33.060  1.00  0.00     0.049 A 
ATOM     50  H   UNL A   1      41.531  28.794  32.241  1.00  0.00     0.167 HD
ATOM     51  C   UNL A   1      38.040  30.644  30.339  1.00  0.00     0.037 A 
ATOM     52  C   UNL A   1      43.377  28.443  34.304  1.00  0.00     0.037 A 
ATOM     53  C   UNL A   1      38.052  31.163  31.681  1.00  0.00     0.049 A 
ATOM     54  C   UNL A   1      42.364  29.441  34.810  1.00  0.00     0.074 A 
ATOM     55  C   UNL A   1      37.141  32.010  32.286  1.00  0.00     0.029 A 
ATOM     56  N   UNL A   1      39.034  30.892  32.623  1.00  0.00    -0.354 N 
ATOM     57  N   UNL A   1      41.301  29.922  34.211  1.00  0.00    -0.248 NA
ATOM     58  C   UNL A   1      42.568  29.962  36.169  1.00  0.00     0.031 C 
ATOM     59  C   UNL A   1      37.604  32.302  33.573  1.00  0.00     0.029 A 
ATOM     60  C   UNL A   1      38.764  31.578  33.797  1.00  0.00     0.049 A 
ATOM     61  H   UNL A   1      39.806  30.299  32.480  1.00  0.00     0.167 HD
ATOM     62  C   UNL A   1      40.694  30.772  35.129  1.00  0.00     0.074 A 
ATOM     63  C   UNL A   1      41.500  30.729  36.330  1.00  0.00     0.031 C 
ATOM     64  C   UNL A   1      39.570  31.518  34.990  1.00  0.00     0.037 A 
BRANCH  51  65
ATOM     65  C   UNL A   1      36.934  31.073  29.417  1.00  0.00     0.064 A 
ATOM     66  C   UNL A   1      36.893  32.360  28.861  1.00  0.00     0.173 A 
ATOM     67  C   UNL A   1      35.917  30.173  29.063  1.00  0.00     0.173 A 
ATOM     68  F   UNL A   1      37.831  33.265  29.179  1.00  0.00    -0.203 F 
ATOM     69  C   UNL A   1      35.858  32.739  28.008  1.00  0.00     0.198 A 
ATOM     70  C   UNL A   1      34.905  30.544  28.183  1.00  0.00     0.198 A 
ATOM     71  F   UNL A   1      35.910  28.928  29.564  1.00  0.00    -0.203 F 
ATOM     72  F   UNL A   1      35.810  33.991  27.532  1.00  0.00    -0.200 F 
ATOM     73  C   UNL A   1      34.871  31.828  27.663  1.00  0.00     0.200 A 
ATOM     74  F   UNL A   1      33.960  29.658  27.839  1.00  0.00    -0.200 F 
ATOM     75  F   UNL A   1      33.882  32.192  26.835  1.00  0.00    -0.200 F 
ENDBRANCH  51  65
BRANCH  52  76
ATOM     76  C   UNL A   1      44.527  28.033  35.156  1.00  0.00     0.064 A 
ATOM     77  C   UNL A   1      44.454  26.900  35.979  1.00  0.00     0.173 A 
ATOM     78  C   UNL A   1      45.710  28.785  35.190  1.00  0.00     0.173 A 
ATOM     79  F   UNL A   1      43.335  26.161  36.005  1.00  0.00    -0.203 F 
ATOM     80  C   UNL A   1      45.510  26.550  36.820  1.00  0.00     0.198 A 
ATOM     81  C   UNL A   1      46.777  28.415  36.006  1.00  0.00     0.198 A 
ATOM     82  F   UNL A   1      45.832  29.882  34.428  1.00  0.00    -0.203 F 
ATOM     83  F   UNL A   1      45.391  25.494  37.637  1.00  0.00    -0.200 F 
ATOM     84  C   UNL A   1      46.673  27.304  36.827  1.00  0.00     0.200 A 
ATOM     85  F   UNL A   1      47.905  29.140  36.000  1.00  0.00    -0.200 F 
ATOM     86  F   UNL A   1      47.688  26.965  37.633  1.00  0.00    -0.200 F 
ENDBRANCH  52  76
BRANCH  64  87
ATOM     87  C   UNL A   1      39.113  32.316  36.180  1.00  0.00     0.064 A 
ATOM     88  C   UNL A   1      38.251  31.779  37.148  1.00  0.00     0.173 A 
ATOM     89  C   UNL A   1      39.585  33.624  36.379  1.00  0.00     0.173 A 
ATOM     90  F   UNL A   1      37.761  30.538  37.002  1.00  0.00    -0.203 F 
ATOM     91  C   UNL A   1      37.853  32.532  38.250  1.00  0.00     0.198 A 
ATOM     92  C   UNL A   1      39.216  34.359  37.502  1.00  0.00     0.198 A 
ATOM     93  F   UNL A   1      40.421  34.184  35.491  1.00  0.00    -0.203 F 
ATOM     94  F   UNL A   1      36.986  32.018  39.133  1.00  0.00    -0.200 F 
ATOM     95  C   UNL A   1      38.343  33.817  38.431  1.00  0.00     0.200 A 
ATOM     96  F   UNL A   1      39.705  35.594  37.683  1.00  0.00    -0.200 F 
ATOM     97  F   UNL A   1      37.967  34.535  39.498  1.00  0.00    -0.200 F 
ENDBRANCH  64  87
ENDBRANCH  38  39
ENDBRANCH  31  33
ENDBRANCH  30  31
ENDBRANCH  29  30
ENDBRANCH  28  29
ENDBRANCH  27  28
ENDBRANCH  26  27
ENDBRANCH  25  26
ENDBRANCH  24  25
ENDBRANCH   1  24
TORSDOF 23
ENDMDL
MODEL 3
REMARK VINA RESULT:      -9.9      3.589      9.466
REMARK SMILES C[C@@H](C(=O)OCCOCCOCCOCCOC(=O)c1ccc(-c2c3nc(c(-c4c(F)c(F)c(F)c(F)c4F)c4ccc([nH]4)c(-c4c(F)c(F)c(F)c(F)c4F)c4nc(c(-c5c(F)c(F)c(F)c(F)c5F)c5ccc2[nH]5)C=C4)C=C3)cc1)c1ccc(Cc2ccco2)cc1F
REMARK SMILES IDX 10 1 9 2 8 3 7 4 6 5 5 6 3 7 4 8 2 9 1 10 83 11 84 12 94 13
REMARK SMILES IDX 85 14 93 15 95 16 86 17 87 18 88 19 89 20 92 21 90 22 91 23
REMARK SMILES IDX 11 24 12 25 13 26 14 27 15 28 16 29 17 30 18 31 19 32 20 33
REMARK SMILES IDX 21 34 82 35 22 36 81 37 23 38 24 39 25 40 75 41 26 42 80 43
REMARK SMILES IDX 74 44 76 45 27 46 79 47 73 48 72 49 28 51 60 52 40 53 59 54
REMARK SMILES IDX 41 55 44 56 58 57 77 58 42 59 43 60 57 62 78 63 45 64 29 65
REMARK SMILES IDX 30 66 38 67 31 68 32 69 36 70 39 71 33 72 34 73 37 74 35 75
REMARK SMILES IDX 61 76 62 77 70 78 63 79 64 80 68 81 71 82 65 83 66 84 69 85
REMARK SMILES IDX 67 86 46 87 47 88 55 89 48 90 49 91 53 92 56 93 50 94 51 95
REMARK SMILES IDX 54 96 52 97
REMARK H PARENT 76 50 44 61
REMARK Flexibility Score: inf
ROOT
ATOM      1  C   UNL A   1      34.374  30.297  27.578  1.00  0.00     0.188 C 
ENDROOT
BRANCH   1   2
ATOM      2  C   UNL A   1      33.016  30.583  26.920  1.00  0.00     0.188 C 
BRANCH   2   3
ATOM      3  O   UNL A   1      31.955  29.687  27.176  1.00  0.00    -0.376 OA
BRANCH   3   4
ATOM      4  C   UNL A   1      32.205  28.346  27.575  1.00  0.00     0.202 C 
BRANCH   4   5
ATOM      5  C   UNL A   1      31.778  27.073  26.812  1.00  0.00     0.261 C 
BRANCH   5   6
ATOM      6  O   UNL A   1      31.197  27.257  25.517  1.00  0.00    -0.463 OA
BRANCH   6   7
ATOM      7  C   UNL A   1      31.935  26.916  24.433  1.00  0.00     0.313 C 
ATOM      8  O   UNL A   1      33.036  27.393  24.178  1.00  0.00    -0.252 OA
BRANCH   7   9
ATOM      9  C   UNL A   1      31.307  25.776  23.619  1.00  0.00     0.129 C 
ATOM     10  C   UNL A   1      29.771  25.874  23.550  1.00  0.00     0.025 C 
BRANCH   9  11
ATOM     11  C   UNL A   1      31.883  24.392  23.938  1.00  0.00     0.002 A 
ATOM     12  C   UNL A   1      31.201  23.493  24.776  1.00  0.00     0.008 A 
ATOM     13  C   UNL A   1      33.160  24.000  23.512  1.00  0.00     0.127 A 
ATOM     14  C   UNL A   1      31.766  22.276  25.166  1.00  0.00     0.005 A 
ATOM     15  C   UNL A   1      33.755  22.806  23.942  1.00  0.00     0.043 A 
ATOM     16  F   UNL A   1      33.874  24.793  22.702  1.00  0.00    -0.207 F 
ATOM     17  C   UNL A   1      33.077  21.947  24.813  1.00  0.00    -0.038 A 
BRANCH  17  18
ATOM     18  C   UNL A   1      33.746  20.728  25.413  1.00  0.00     0.111 C 
BRANCH  18  19
ATOM     19  C   UNL A   1      33.539  19.483  24.605  1.00  0.00     0.108 A 
ATOM     20  C   UNL A   1      32.485  18.988  23.859  1.00  0.00     0.046 A 
ATOM     21  O   UNL A   1      34.589  18.612  24.542  1.00  0.00    -0.469 OA
ATOM     22  C   UNL A   1      32.903  17.742  23.338  1.00  0.00     0.042 A 
ATOM     23  C   UNL A   1      34.193  17.562  23.775  1.00  0.00     0.195 A 
ENDBRANCH  18  19
ENDBRANCH  17  18
ENDBRANCH   9  11
ENDBRANCH   7   9
ENDBRANCH   6   7
ENDBRANCH   5   6
ENDBRANCH   4   5
ENDBRANCH   3   4
ENDBRANCH   2   3
ENDBRANCH   1   2
BRANCH   1  24
ATOM     24  O   UNL A   1      35.130  31.446  27.910  1.00  0.00    -0.377 OA
BRANCH  24  25
ATOM     25  C   UNL A   1      34.493  32.489  28.637  1.00  0.00     0.188 C 
BRANCH  25  26
ATOM     26  C   UNL A   1      35.196  33.842  28.884  1.00  0.00     0.188 C 
BRANCH  26  27
ATOM     27  O   UNL A   1      34.387  34.988  28.673  1.00  0.00    -0.376 OA
BRANCH  27  28
ATOM     28  C   UNL A   1      33.063  34.994  29.183  1.00  0.00     0.202 C 
BRANCH  28  29
ATOM     29  C   UNL A   1      32.688  36.111  30.170  1.00  0.00     0.261 C 
BRANCH  29  30
ATOM     30  O   UNL A   1      32.185  35.689  31.448  1.00  0.00    -0.460 OA
BRANCH  30  31
ATOM     31  C   UNL A   1      32.912  35.987  32.543  1.00  0.00     0.338 C 
ATOM     32  O   UNL A   1      32.595  36.722  33.465  1.00  0.00    -0.246 OA
BRANCH  31  33
ATOM     33  C   UNL A   1      34.102  35.111  32.548  1.00  0.00     0.060 A 
ATOM     34  C   UNL A   1      33.944  33.753  32.855  1.00  0.00     0.016 A 
ATOM     35  C   UNL A   1      35.365  35.626  32.248  1.00  0.00     0.016 A 
ATOM     36  C   UNL A   1      35.056  32.913  32.905  1.00  0.00     0.010 A 
ATOM     37  C   UNL A   1      36.482  34.788  32.322  1.00  0.00     0.010 A 
ATOM     38  C   UNL A   1      36.337  33.438  32.688  1.00  0.00    -0.014 A 
BRANCH  38  39
ATOM     39  C   UNL A   1      37.530  32.634  33.048  1.00  0.00     0.031 A 
ATOM     40  C   UNL A   1      38.219  32.930  34.351  1.00  0.00     0.074 A 
ATOM     41  C   UNL A   1      37.982  31.647  32.254  1.00  0.00     0.049 A 
ATOM     42  N   UNL A   1      39.310  32.412  34.857  1.00  0.00    -0.248 NA
ATOM     43  C   UNL A   1      37.591  33.957  35.200  1.00  0.00     0.031 C 
ATOM     44  C   UNL A   1      37.374  31.232  30.993  1.00  0.00     0.029 A 
ATOM     45  N   UNL A   1      39.071  30.822  32.394  1.00  0.00    -0.354 N 
ATOM     46  C   UNL A   1      39.499  33.052  36.075  1.00  0.00     0.074 A 
ATOM     47  C   UNL A   1      38.436  34.022  36.218  1.00  0.00     0.031 C 
ATOM     48  C   UNL A   1      38.111  30.239  30.463  1.00  0.00     0.029 A 
ATOM     49  C   UNL A   1      39.260  29.976  31.329  1.00  0.00     0.049 A 
ATOM     50  H   UNL A   1      39.659  30.835  33.184  1.00  0.00     0.167 HD
ATOM     51  C   UNL A   1      40.469  32.844  36.997  1.00  0.00     0.037 A 
ATOM     52  C   UNL A   1      40.262  29.111  31.074  1.00  0.00     0.037 A 
ATOM     53  C   UNL A   1      41.530  31.883  36.849  1.00  0.00     0.049 A 
ATOM     54  C   UNL A   1      41.380  28.958  32.077  1.00  0.00     0.074 A 
ATOM     55  C   UNL A   1      42.557  31.590  37.728  1.00  0.00     0.029 A 
ATOM     56  N   UNL A   1      41.706  31.067  35.741  1.00  0.00    -0.354 N 
ATOM     57  N   UNL A   1      41.544  29.551  33.235  1.00  0.00    -0.248 NA
ATOM     58  C   UNL A   1      42.451  28.011  31.736  1.00  0.00     0.031 C 
ATOM     59  C   UNL A   1      43.390  30.642  37.126  1.00  0.00     0.029 A 
ATOM     60  C   UNL A   1      42.843  30.289  35.903  1.00  0.00     0.049 A 
ATOM     61  H   UNL A   1      41.112  31.042  34.957  1.00  0.00     0.167 HD
ATOM     62  C   UNL A   1      42.713  29.025  33.774  1.00  0.00     0.074 A 
ATOM     63  C   UNL A   1      43.209  28.054  32.822  1.00  0.00     0.031 C 
ATOM     64  C   UNL A   1      43.319  29.318  34.951  1.00  0.00     0.037 A 
BRANCH  51  65
ATOM     65  C   UNL A   1      40.443  33.694  38.235  1.00  0.00     0.064 A 
ATOM     66  C   UNL A   1      39.661  33.353  39.350  1.00  0.00     0.173 A 
ATOM     67  C   UNL A   1      41.234  34.849  38.319  1.00  0.00     0.173 A 
ATOM     68  F   UNL A   1      38.874  32.267  39.318  1.00  0.00    -0.203 F 
ATOM     69  C   UNL A   1      39.651  34.155  40.489  1.00  0.00     0.198 A 
ATOM     70  C   UNL A   1      41.248  35.628  39.472  1.00  0.00     0.198 A 
ATOM     71  F   UNL A   1      42.003  35.220  37.283  1.00  0.00    -0.203 F 
ATOM     72  F   UNL A   1      38.855  33.839  41.521  1.00  0.00    -0.200 F 
ATOM     73  C   UNL A   1      40.450  35.285  40.552  1.00  0.00     0.200 A 
ATOM     74  F   UNL A   1      42.033  36.713  39.537  1.00  0.00    -0.200 F 
ATOM     75  F   UNL A   1      40.446  36.050  41.654  1.00  0.00    -0.200 F 
ENDBRANCH  51  65
BRANCH  52  76
ATOM     76  C   UNL A   1      40.274  28.337  29.803  1.00  0.00     0.064 A 
ATOM     77  C   UNL A   1      40.942  28.816  28.667  1.00  0.00     0.173 A 
ATOM     78  C   UNL A   1      39.588  27.119  29.688  1.00  0.00     0.173 A 
ATOM     79  F   UNL A   1      41.589  29.989  28.715  1.00  0.00    -0.203 F 
ATOM     80  C   UNL A   1      40.903  28.118  27.460  1.00  0.00     0.198 A 
ATOM     81  C   UNL A   1      39.579  26.406  28.491  1.00  0.00     0.198 A 
ATOM     82  F   UNL A   1      38.928  26.617  30.742  1.00  0.00    -0.203 F 
ATOM     83  F   UNL A   1      41.503  28.627  26.375  1.00  0.00    -0.200 F 
ATOM     84  C   UNL A   1      40.228  26.911  27.375  1.00  0.00     0.200 A 
ATOM     85  F   UNL A   1      38.936  25.232  28.417  1.00  0.00    -0.200 F 
ATOM     86  F   UNL A   1      40.194  26.239  26.216  1.00  0.00    -0.200 F 
ENDBRANCH  52  76
BRANCH  64  87
ATOM     87  C   UNL A   1      44.562  28.548  35.305  1.00  0.00     0.064 A 
ATOM     88  C   UNL A   1      45.843  29.009  34.970  1.00  0.00     0.173 A 
ATOM     89  C   UNL A   1      44.469  27.350  36.033  1.00  0.00     0.173 A 
ATOM     90  F   UNL A   1      45.990  30.142  34.265  1.00  0.00    -0.203 F 
ATOM     91  C   UNL A   1      46.981  28.286  35.321  1.00  0.00     0.198 A 
ATOM     92  C   UNL A   1      45.609  26.650  36.415  1.00  0.00     0.198 A 
ATOM     93  F   UNL A   1      43.268  26.867  36.389  1.00  0.00    -0.203 F 
ATOM     94  F   UNL A   1      48.191  28.719  34.943  1.00  0.00    -0.200 F 
ATOM     95  C   UNL A   1      46.863  27.113  36.051  1.00  0.00     0.200 A 
ATOM     96  F   UNL A   1      45.493  25.526  37.136  1.00  0.00    -0.200 F 
ATOM     97  F   UNL A   1      47.960  26.425  36.397  1.00  0.00    -0.200 F 
ENDBRANCH  64  87
ENDBRANCH  38  39
ENDBRANCH  31  33
ENDBRANCH  30  31
ENDBRANCH  29  30
ENDBRANCH  28  29
ENDBRANCH  27  28
ENDBRANCH  26  27
ENDBRANCH  25  26
ENDBRANCH  24  25
ENDBRANCH   1  24
TORSDOF 23
ENDMDL
