MODEL 1
REMARK VINA RESULT:      -8.9      0.000      0.000
REMARK SMILES COc1cccc(Cn2c(=O)c(=O)n(CC(=O)OCCOCCOCCOCCOC(=O)c3ccc(-c4c5nc(c(-c6c(F)c(F)c(F)c(F)c6F)c6ccc([nH]6)c(-c6c(F)c(F)c(F)c(F)c6F)c6nc(c(-c7c(F)c(F)c(F)c(F)c7F)c7ccc4[nH]7)C=C6)C=C5)cc3)c3ccccc32)c1
REMARK SMILES IDX 23 1 22 2 21 3 20 4 19 5 18 6 16 7 17 8 15 9 14 10 9 11
REMARK SMILES IDX 10 12 101 13 11 14 12 15 96 16 100 17 13 18 97 19 99 20
REMARK SMILES IDX 98 21 8 22 7 23 3 24 4 25 102 26 5 27 6 28 2 29 1 30 24 31
REMARK SMILES IDX 25 32 26 33 27 34 28 35 29 36 30 37 31 38 32 39 33 40 34 41
REMARK SMILES IDX 95 42 35 43 94 44 36 45 37 46 38 47 88 48 39 49 93 50 87 51
REMARK SMILES IDX 89 52 40 53 92 54 86 55 85 56 41 58 73 59 53 60 72 61 54 62
REMARK SMILES IDX 57 63 71 64 90 65 55 66 56 67 70 69 91 70 58 71 42 72 43 73
REMARK SMILES IDX 51 74 44 75 45 76 49 77 52 78 46 79 47 80 50 81 48 82 74 83
REMARK SMILES IDX 75 84 83 85 76 86 77 87 81 88 84 89 78 90 79 91 82 92 80 93
REMARK SMILES IDX 59 94 60 95 68 96 61 97 62 98 66 99 69 100 63 101 64 102
REMARK SMILES IDX 67 103 65 104
REMARK H PARENT 89 57 57 68
REMARK Flexibility Score: inf
ROOT
ATOM      1  C   UNL A   1      31.141  29.303  24.309  1.00  0.00     0.188 C 
ENDROOT
BRANCH   1   2
ATOM      2  C   UNL A   1      30.229  30.528  24.111  1.00  0.00     0.188 C 
BRANCH   2   3
ATOM      3  O   UNL A   1      30.138  31.502  25.147  1.00  0.00    -0.376 OA
BRANCH   3   4
ATOM      4  C   UNL A   1      31.159  31.646  26.126  1.00  0.00     0.202 C 
BRANCH   4   5
ATOM      5  C   UNL A   1      31.744  33.020  26.471  1.00  0.00     0.261 C 
BRANCH   5   6
ATOM      6  O   UNL A   1      32.289  33.068  27.781  1.00  0.00    -0.462 OA
BRANCH   6   7
ATOM      7  C   UNL A   1      33.508  33.607  28.014  1.00  0.00     0.326 C 
ATOM      8  O   UNL A   1      34.038  34.467  27.327  1.00  0.00    -0.250 OA
BRANCH   7   9
ATOM      9  C   UNL A   1      34.094  33.056  29.336  1.00  0.00     0.248 C 
BRANCH   9  10
ATOM     10  N   UNL A   1      34.931  34.020  30.047  1.00  0.00    -0.291 N 
ATOM     11  N   UNL A   1      36.052  34.281  32.635  1.00  0.00    -0.298 N 
ATOM     12  C   UNL A   1      34.779  33.839  32.347  1.00  0.00     0.317 A 
ATOM     13  C   UNL A   1      36.940  34.255  31.497  1.00  0.00     0.068 A 
ATOM     14  O   UNL A   1      34.151  32.899  32.801  1.00  0.00    -0.263 OA
ATOM     15  C   UNL A   1      34.307  34.588  31.138  1.00  0.00     0.317 A 
ATOM     16  C   UNL A   1      36.363  33.887  30.215  1.00  0.00     0.069 A 
ATOM     17  C   UNL A   1      38.313  34.464  31.583  1.00  0.00     0.028 A 
ATOM     18  O   UNL A   1      33.707  35.644  31.212  1.00  0.00    -0.263 OA
ATOM     19  C   UNL A   1      37.183  33.608  29.122  1.00  0.00     0.028 A 
ATOM     20  C   UNL A   1      39.113  34.255  30.449  1.00  0.00     0.002 A 
ATOM     21  C   UNL A   1      38.560  33.802  29.243  1.00  0.00     0.002 A 
BRANCH  11  22
ATOM     22  C   UNL A   1      36.309  34.670  34.016  1.00  0.00     0.162 C 
BRANCH  22  23
ATOM     23  C   UNL A   1      36.670  33.408  34.841  1.00  0.00    -0.024 A 
ATOM     24  C   UNL A   1      37.604  32.661  36.976  1.00  0.00     0.119 A 
ATOM     25  C   UNL A   1      38.232  31.611  36.311  1.00  0.00     0.046 A 
ATOM     26  C   UNL A   1      36.733  33.487  36.260  1.00  0.00     0.052 A 
ATOM     27  C   UNL A   1      38.023  31.402  34.948  1.00  0.00     0.004 A 
ATOM     28  C   UNL A   1      37.272  32.314  34.205  1.00  0.00     0.006 A 
BRANCH  24  29
ATOM     29  O   UNL A   1      38.031  32.826  38.264  1.00  0.00    -0.497 OA
ATOM     30  C   UNL A   1      37.297  32.246  39.332  1.00  0.00     0.278 C 
ENDBRANCH  24  29
ENDBRANCH  22  23
ENDBRANCH  11  22
ENDBRANCH   9  10
ENDBRANCH   7   9
ENDBRANCH   6   7
ENDBRANCH   5   6
ENDBRANCH   4   5
ENDBRANCH   3   4
ENDBRANCH   2   3
ENDBRANCH   1   2
BRANCH   1  31
ATOM     31  O   UNL A   1      30.969  28.252  23.374  1.00  0.00    -0.377 OA
BRANCH  31  32
ATOM     32  C   UNL A   1      30.514  27.056  23.949  1.00  0.00     0.188 C 
BRANCH  32  33
ATOM     33  C   UNL A   1      31.109  26.727  25.326  1.00  0.00     0.188 C 
BRANCH  33  34
ATOM     34  O   UNL A   1      32.454  26.305  25.517  1.00  0.00    -0.376 OA
BRANCH  34  35
ATOM     35  C   UNL A   1      33.443  27.115  26.135  1.00  0.00     0.202 C 
BRANCH  35  36
ATOM     36  C   UNL A   1      32.997  28.257  27.045  1.00  0.00     0.261 C 
BRANCH  36  37
ATOM     37  O   UNL A   1      34.006  28.672  27.970  1.00  0.00    -0.460 OA
BRANCH  37  38
ATOM     38  C   UNL A   1      34.733  29.740  27.568  1.00  0.00     0.338 C 
ATOM     39  O   UNL A   1      34.379  30.661  26.862  1.00  0.00    -0.246 OA
BRANCH  38  40
ATOM     40  C   UNL A   1      36.027  29.727  28.274  1.00  0.00     0.060 A 
ATOM     41  C   UNL A   1      37.163  30.074  27.531  1.00  0.00     0.016 A 
ATOM     42  C   UNL A   1      36.129  29.378  29.623  1.00  0.00     0.016 A 
ATOM     43  C   UNL A   1      38.415  30.048  28.126  1.00  0.00     0.010 A 
ATOM     44  C   UNL A   1      37.394  29.302  30.210  1.00  0.00     0.010 A 
ATOM     45  C   UNL A   1      38.536  29.595  29.445  1.00  0.00    -0.014 A 
BRANCH  45  46
ATOM     46  C   UNL A   1      39.871  29.143  29.886  1.00  0.00     0.031 A 
ATOM     47  C   UNL A   1      40.509  29.898  31.018  1.00  0.00     0.074 A 
ATOM     48  C   UNL A   1      40.449  28.053  29.362  1.00  0.00     0.049 A 
ATOM     49  N   UNL A   1      41.638  29.676  31.636  1.00  0.00    -0.248 NA
ATOM     50  C   UNL A   1      39.761  31.060  31.527  1.00  0.00     0.031 C 
ATOM     51  C   UNL A   1      39.883  27.223  28.300  1.00  0.00     0.029 A 
ATOM     52  N   UNL A   1      41.643  27.453  29.665  1.00  0.00    -0.354 N 
ATOM     53  C   UNL A   1      41.729  30.665  32.608  1.00  0.00     0.074 A 
ATOM     54  C   UNL A   1      40.564  31.509  32.477  1.00  0.00     0.031 C 
ATOM     55  C   UNL A   1      40.740  26.223  28.031  1.00  0.00     0.029 A 
ATOM     56  C   UNL A   1      41.917  26.357  28.888  1.00  0.00     0.049 A 
ATOM     57  H   UNL A   1      42.245  27.779  30.372  1.00  0.00     0.167 HD
ATOM     58  C   UNL A   1      42.700  30.847  33.532  1.00  0.00     0.037 A 
ATOM     59  C   UNL A   1      43.008  25.567  28.873  1.00  0.00     0.037 A 
ATOM     60  C   UNL A   1      43.865  30.013  33.636  1.00  0.00     0.049 A 
ATOM     61  C   UNL A   1      44.113  25.834  29.863  1.00  0.00     0.074 A 
ATOM     62  C   UNL A   1      44.920  30.106  34.523  1.00  0.00     0.029 A 
ATOM     63  N   UNL A   1      44.133  28.935  32.803  1.00  0.00    -0.354 N 
ATOM     64  N   UNL A   1      44.189  26.755  30.794  1.00  0.00    -0.248 NA
ATOM     65  C   UNL A   1      45.280  24.943  29.806  1.00  0.00     0.031 C 
ATOM     66  C   UNL A   1      45.854  29.119  34.191  1.00  0.00     0.029 A 
ATOM     67  C   UNL A   1      45.350  28.369  33.138  1.00  0.00     0.049 A 
ATOM     68  H   UNL A   1      43.544  28.620  32.079  1.00  0.00     0.167 HD
ATOM     69  C   UNL A   1      45.391  26.538  31.455  1.00  0.00     0.074 A 
ATOM     70  C   UNL A   1      46.007  25.389  30.821  1.00  0.00     0.031 C 
ATOM     71  C   UNL A   1      45.936  27.221  32.493  1.00  0.00     0.037 A 
BRANCH  58  72
ATOM     72  C   UNL A   1      42.552  32.020  34.457  1.00  0.00     0.064 A 
ATOM     73  C   UNL A   1      43.074  33.285  34.141  1.00  0.00     0.173 A 
ATOM     74  C   UNL A   1      41.900  31.870  35.689  1.00  0.00     0.173 A 
ATOM     75  F   UNL A   1      43.730  33.476  32.987  1.00  0.00    -0.203 F 
ATOM     76  C   UNL A   1      42.979  34.344  35.041  1.00  0.00     0.198 A 
ATOM     77  C   UNL A   1      41.778  32.939  36.572  1.00  0.00     0.198 A 
ATOM     78  F   UNL A   1      41.388  30.681  36.043  1.00  0.00    -0.203 F 
ATOM     79  F   UNL A   1      43.541  35.524  34.747  1.00  0.00    -0.200 F 
ATOM     80  C   UNL A   1      42.326  34.172  36.252  1.00  0.00     0.200 A 
ATOM     81  F   UNL A   1      41.140  32.773  37.738  1.00  0.00    -0.200 F 
ATOM     82  F   UNL A   1      42.237  35.191  37.118  1.00  0.00    -0.200 F 
ENDBRANCH  58  72
BRANCH  59  83
ATOM     83  C   UNL A   1      43.102  24.457  27.889  1.00  0.00     0.064 A 
ATOM     84  C   UNL A   1      42.675  23.161  28.209  1.00  0.00     0.173 A 
ATOM     85  C   UNL A   1      43.624  24.672  26.605  1.00  0.00     0.173 A 
ATOM     86  F   UNL A   1      42.190  22.898  29.431  1.00  0.00    -0.203 F 
ATOM     87  C   UNL A   1      42.779  22.121  27.287  1.00  0.00     0.198 A 
ATOM     88  C   UNL A   1      43.702  23.638  25.675  1.00  0.00     0.198 A 
ATOM     89  F   UNL A   1      44.049  25.894  26.249  1.00  0.00    -0.203 F 
ATOM     90  F   UNL A   1      42.402  20.882  27.632  1.00  0.00    -0.200 F 
ATOM     91  C   UNL A   1      43.285  22.361  26.019  1.00  0.00     0.200 A 
ATOM     92  F   UNL A   1      44.181  23.879  24.446  1.00  0.00    -0.200 F 
ATOM     93  F   UNL A   1      43.379  21.362  25.130  1.00  0.00    -0.200 F 
ENDBRANCH  59  83
BRANCH  71  94
ATOM     94  C   UNL A   1      47.241  26.716  33.039  1.00  0.00     0.064 A 
ATOM     95  C   UNL A   1      47.297  25.797  34.096  1.00  0.00     0.173 A 
ATOM     96  C   UNL A   1      48.452  27.123  32.457  1.00  0.00     0.173 A 
ATOM     97  F   UNL A   1      46.168  25.383  34.691  1.00  0.00    -0.203 F 
ATOM     98  C   UNL A   1      48.519  25.328  34.573  1.00  0.00     0.198 A 
ATOM     99  C   UNL A   1      49.670  26.627  32.914  1.00  0.00     0.198 A 
ATOM    100  F   UNL A   1      48.454  27.993  31.436  1.00  0.00    -0.203 F 
ATOM    101  F   UNL A   1      48.550  24.490  35.618  1.00  0.00    -0.200 F 
ATOM    102  C   UNL A   1      49.702  25.738  33.977  1.00  0.00     0.200 A 
ATOM    103  F   UNL A   1      50.810  27.010  32.325  1.00  0.00    -0.200 F 
ATOM    104  F   UNL A   1      50.877  25.279  34.431  1.00  0.00    -0.200 F 
ENDBRANCH  71  94
ENDBRANCH  45  46
ENDBRANCH  38  40
ENDBRANCH  37  38
ENDBRANCH  36  37
ENDBRANCH  35  36
ENDBRANCH  34  35
ENDBRANCH  33  34
ENDBRANCH  32  33
ENDBRANCH  31  32
ENDBRANCH   1  31
TORSDOF 24
ENDMDL
MODEL 2
REMARK VINA RESULT:      -8.1      1.461      2.108
REMARK SMILES COc1cccc(Cn2c(=O)c(=O)n(CC(=O)OCCOCCOCCOCCOC(=O)c3ccc(-c4c5nc(c(-c6c(F)c(F)c(F)c(F)c6F)c6ccc([nH]6)c(-c6c(F)c(F)c(F)c(F)c6F)c6nc(c(-c7c(F)c(F)c(F)c(F)c7F)c7ccc4[nH]7)C=C6)C=C5)cc3)c3ccccc32)c1
REMARK SMILES IDX 23 1 22 2 21 3 20 4 19 5 18 6 16 7 17 8 15 9 14 10 9 11
REMARK SMILES IDX 10 12 101 13 11 14 12 15 96 16 100 17 13 18 97 19 99 20
REMARK SMILES IDX 98 21 8 22 7 23 3 24 4 25 102 26 5 27 6 28 2 29 1 30 24 31
REMARK SMILES IDX 25 32 26 33 27 34 28 35 29 36 30 37 31 38 32 39 33 40 34 41
REMARK SMILES IDX 95 42 35 43 94 44 36 45 37 46 38 47 88 48 39 49 93 50 87 51
REMARK SMILES IDX 89 52 40 53 92 54 86 55 85 56 41 58 73 59 53 60 72 61 54 62
REMARK SMILES IDX 57 63 71 64 90 65 55 66 56 67 70 69 91 70 58 71 42 72 43 73
REMARK SMILES IDX 51 74 44 75 45 76 49 77 52 78 46 79 47 80 50 81 48 82 74 83
REMARK SMILES IDX 75 84 83 85 76 86 77 87 81 88 84 89 78 90 79 91 82 92 80 93
REMARK SMILES IDX 59 94 60 95 68 96 61 97 62 98 66 99 69 100 63 101 64 102
REMARK SMILES IDX 67 103 65 104
REMARK H PARENT 89 57 57 68
REMARK Flexibility Score: inf
ROOT
ATOM      1  C   UNL A   1      31.437  29.601  24.460  1.00  0.00     0.188 C 
ENDROOT
BRANCH   1   2
ATOM      2  C   UNL A   1      30.468  30.793  24.569  1.00  0.00     0.188 C 
BRANCH   2   3
ATOM      3  O   UNL A   1      30.360  31.491  25.807  1.00  0.00    -0.376 OA
BRANCH   3   4
ATOM      4  C   UNL A   1      31.506  31.818  26.580  1.00  0.00     0.202 C 
BRANCH   4   5
ATOM      5  C   UNL A   1      31.944  33.273  26.782  1.00  0.00     0.261 C 
BRANCH   5   6
ATOM      6  O   UNL A   1      32.383  33.533  28.106  1.00  0.00    -0.462 OA
BRANCH   6   7
ATOM      7  C   UNL A   1      33.551  34.172  28.345  1.00  0.00     0.326 C 
ATOM      8  O   UNL A   1      33.795  35.328  28.033  1.00  0.00    -0.250 OA
BRANCH   7   9
ATOM      9  C   UNL A   1      34.501  33.265  29.164  1.00  0.00     0.248 C 
BRANCH   9  10
ATOM     10  N   UNL A   1      35.278  33.993  30.165  1.00  0.00    -0.291 N 
ATOM     11  N   UNL A   1      36.518  33.416  32.646  1.00  0.00    -0.298 N 
ATOM     12  C   UNL A   1      35.281  32.968  32.238  1.00  0.00     0.317 A 
ATOM     13  C   UNL A   1      37.336  33.910  31.563  1.00  0.00     0.068 A 
ATOM     14  O   UNL A   1      34.778  31.861  32.323  1.00  0.00    -0.263 OA
ATOM     15  C   UNL A   1      34.666  34.046  31.400  1.00  0.00     0.317 A 
ATOM     16  C   UNL A   1      36.723  33.972  30.246  1.00  0.00     0.069 A 
ATOM     17  C   UNL A   1      38.684  34.229  31.695  1.00  0.00     0.028 A 
ATOM     18  O   UNL A   1      33.969  34.927  31.871  1.00  0.00    -0.263 OA
ATOM     19  C   UNL A   1      37.502  34.208  29.113  1.00  0.00     0.028 A 
ATOM     20  C   UNL A   1      39.432  34.542  30.549  1.00  0.00     0.002 A 
ATOM     21  C   UNL A   1      38.857  34.501  29.272  1.00  0.00     0.002 A 
BRANCH  11  22
ATOM     22  C   UNL A   1      36.816  33.300  34.068  1.00  0.00     0.162 C 
BRANCH  22  23
ATOM     23  C   UNL A   1      38.175  32.575  34.246  1.00  0.00    -0.024 A 
ATOM     24  C   UNL A   1      39.243  30.374  34.208  1.00  0.00     0.119 A 
ATOM     25  C   UNL A   1      40.055  30.772  35.268  1.00  0.00     0.046 A 
ATOM     26  C   UNL A   1      38.387  31.313  33.626  1.00  0.00     0.052 A 
ATOM     27  C   UNL A   1      39.997  32.075  35.762  1.00  0.00     0.004 A 
ATOM     28  C   UNL A   1      39.039  32.967  35.278  1.00  0.00     0.006 A 
BRANCH  24  29
ATOM     29  O   UNL A   1      39.304  29.033  33.946  1.00  0.00    -0.497 OA
ATOM     30  C   UNL A   1      38.526  28.482  32.896  1.00  0.00     0.278 C 
ENDBRANCH  24  29
ENDBRANCH  22  23
ENDBRANCH  11  22
ENDBRANCH   9  10
ENDBRANCH   7   9
ENDBRANCH   6   7
ENDBRANCH   5   6
ENDBRANCH   4   5
ENDBRANCH   3   4
ENDBRANCH   2   3
ENDBRANCH   1   2
BRANCH   1  31
ATOM     31  O   UNL A   1      31.121  28.640  23.469  1.00  0.00    -0.377 OA
BRANCH  31  32
ATOM     32  C   UNL A   1      30.583  27.452  23.988  1.00  0.00     0.188 C 
BRANCH  32  33
ATOM     33  C   UNL A   1      31.121  27.042  25.367  1.00  0.00     0.188 C 
BRANCH  33  34
ATOM     34  O   UNL A   1      32.407  26.467  25.566  1.00  0.00    -0.376 OA
BRANCH  34  35
ATOM     35  C   UNL A   1      33.461  27.137  26.242  1.00  0.00     0.202 C 
BRANCH  35  36
ATOM     36  C   UNL A   1      33.115  28.255  27.223  1.00  0.00     0.261 C 
BRANCH  36  37
ATOM     37  O   UNL A   1      34.217  28.648  28.046  1.00  0.00    -0.460 OA
BRANCH  37  38
ATOM     38  C   UNL A   1      34.887  29.738  27.607  1.00  0.00     0.338 C 
ATOM     39  O   UNL A   1      34.446  30.689  26.995  1.00  0.00    -0.246 OA
BRANCH  38  40
ATOM     40  C   UNL A   1      36.259  29.700  28.142  1.00  0.00     0.060 A 
ATOM     41  C   UNL A   1      37.294  30.072  27.272  1.00  0.00     0.016 A 
ATOM     42  C   UNL A   1      36.530  29.306  29.455  1.00  0.00     0.016 A 
ATOM     43  C   UNL A   1      38.611  30.025  27.702  1.00  0.00     0.010 A 
ATOM     44  C   UNL A   1      37.859  29.209  29.873  1.00  0.00     0.010 A 
ATOM     45  C   UNL A   1      38.896  29.527  28.979  1.00  0.00    -0.014 A 
BRANCH  45  46
ATOM     46  C   UNL A   1      40.274  29.060  29.232  1.00  0.00     0.031 A 
ATOM     47  C   UNL A   1      41.149  29.938  30.082  1.00  0.00     0.074 A 
ATOM     48  C   UNL A   1      40.697  27.863  28.800  1.00  0.00     0.049 A 
ATOM     49  N   UNL A   1      42.368  29.739  30.506  1.00  0.00    -0.248 NA
ATOM     50  C   UNL A   1      40.559  31.215  30.519  1.00  0.00     0.031 C 
ATOM     51  C   UNL A   1      39.904  26.918  28.017  1.00  0.00     0.029 A 
ATOM     52  N   UNL A   1      41.904  27.238  28.970  1.00  0.00    -0.354 N 
ATOM     53  C   UNL A   1      42.685  30.861  31.262  1.00  0.00     0.074 A 
ATOM     54  C   UNL A   1      41.550  31.751  31.212  1.00  0.00     0.031 C 
ATOM     55  C   UNL A   1      40.654  25.830  27.765  1.00  0.00     0.029 A 
ATOM     56  C   UNL A   1      41.980  26.017  28.351  1.00  0.00     0.049 A 
ATOM     57  H   UNL A   1      42.645  27.629  29.487  1.00  0.00     0.167 HD
ATOM     58  C   UNL A   1      43.824  31.119  31.944  1.00  0.00     0.037 A 
ATOM     59  C   UNL A   1      43.016  25.161  28.265  1.00  0.00     0.037 A 
ATOM     60  C   UNL A   1      44.956  30.234  31.967  1.00  0.00     0.049 A 
ATOM     61  C   UNL A   1      44.304  25.504  28.971  1.00  0.00     0.074 A 
ATOM     62  C   UNL A   1      46.167  30.392  32.612  1.00  0.00     0.029 A 
ATOM     63  N   UNL A   1      45.015  29.022  31.291  1.00  0.00    -0.354 N 
ATOM     64  N   UNL A   1      44.595  26.553  29.703  1.00  0.00    -0.248 NA
ATOM     65  C   UNL A   1      45.403  24.538  28.847  1.00  0.00     0.031 C 
ATOM     66  C   UNL A   1      46.980  29.304  32.282  1.00  0.00     0.029 A 
ATOM     67  C   UNL A   1      46.252  28.433  31.483  1.00  0.00     0.049 A 
ATOM     68  H   UNL A   1      44.284  28.637  30.754  1.00  0.00     0.167 HD
ATOM     69  C   UNL A   1      45.894  26.361  30.154  1.00  0.00     0.074 A 
ATOM     70  C   UNL A   1      46.331  25.087  29.618  1.00  0.00     0.031 C 
ATOM     71  C   UNL A   1      46.657  27.160  30.942  1.00  0.00     0.037 A 
BRANCH  58  72
ATOM     72  C   UNL A   1      43.905  32.430  32.670  1.00  0.00     0.064 A 
ATOM     73  C   UNL A   1      43.488  32.568  34.003  1.00  0.00     0.173 A 
ATOM     74  C   UNL A   1      44.384  33.572  32.012  1.00  0.00     0.173 A 
ATOM     75  F   UNL A   1      42.997  31.513  34.670  1.00  0.00    -0.203 F 
ATOM     76  C   UNL A   1      43.515  33.808  34.637  1.00  0.00     0.198 A 
ATOM     77  C   UNL A   1      44.441  34.803  32.660  1.00  0.00     0.198 A 
ATOM     78  F   UNL A   1      44.790  33.497  30.735  1.00  0.00    -0.203 F 
ATOM     79  F   UNL A   1      43.052  33.929  35.889  1.00  0.00    -0.200 F 
ATOM     80  C   UNL A   1      43.997  34.923  33.968  1.00  0.00     0.200 A 
ATOM     81  F   UNL A   1      44.914  35.877  32.013  1.00  0.00    -0.200 F 
ATOM     82  F   UNL A   1      44.020  36.115  34.579  1.00  0.00    -0.200 F 
ENDBRANCH  58  72
BRANCH  59  83
ATOM     83  C   UNL A   1      42.875  23.906  27.481  1.00  0.00     0.064 A 
ATOM     84  C   UNL A   1      42.371  22.735  28.065  1.00  0.00     0.173 A 
ATOM     85  C   UNL A   1      43.243  23.853  26.129  1.00  0.00     0.173 A 
ATOM     86  F   UNL A   1      42.027  22.728  29.361  1.00  0.00    -0.203 F 
ATOM     87  C   UNL A   1      42.253  21.558  27.329  1.00  0.00     0.198 A 
ATOM     88  C   UNL A   1      43.099  22.683  25.387  1.00  0.00     0.198 A 
ATOM     89  F   UNL A   1      43.734  24.945  25.523  1.00  0.00    -0.203 F 
ATOM     90  F   UNL A   1      41.807  20.442  27.922  1.00  0.00    -0.200 F 
ATOM     91  C   UNL A   1      42.611  21.534  25.989  1.00  0.00     0.200 A 
ATOM     92  F   UNL A   1      43.435  22.669  24.089  1.00  0.00    -0.200 F 
ATOM     93  F   UNL A   1      42.492  20.403  25.280  1.00  0.00    -0.200 F 
ENDBRANCH  59  83
BRANCH  71  94
ATOM     94  C   UNL A   1      48.025  26.659  31.310  1.00  0.00     0.064 A 
ATOM     95  C   UNL A   1      48.222  25.744  32.353  1.00  0.00     0.173 A 
ATOM     96  C   UNL A   1      49.147  27.065  30.571  1.00  0.00     0.173 A 
ATOM     97  F   UNL A   1      47.184  25.331  33.096  1.00  0.00    -0.203 F 
ATOM     98  C   UNL A   1      49.498  25.279  32.665  1.00  0.00     0.198 A 
ATOM     99  C   UNL A   1      50.415  26.573  30.862  1.00  0.00     0.198 A 
ATOM    100  F   UNL A   1      49.010  27.931  29.555  1.00  0.00    -0.203 F 
ATOM    101  F   UNL A   1      49.670  24.445  33.700  1.00  0.00    -0.200 F 
ATOM    102  C   UNL A   1      50.590  25.687  31.914  1.00  0.00     0.200 A 
ATOM    103  F   UNL A   1      51.466  26.954  30.124  1.00  0.00    -0.200 F 
ATOM    104  F   UNL A   1      51.816  25.231  32.210  1.00  0.00    -0.200 F 
ENDBRANCH  71  94
ENDBRANCH  45  46
ENDBRANCH  38  40
ENDBRANCH  37  38
ENDBRANCH  36  37
ENDBRANCH  35  36
ENDBRANCH  34  35
ENDBRANCH  33  34
ENDBRANCH  32  33
ENDBRANCH  31  32
ENDBRANCH   1  31
TORSDOF 24
ENDMDL
MODEL 3
REMARK VINA RESULT:      -7.6      7.232     12.075
REMARK SMILES COc1cccc(Cn2c(=O)c(=O)n(CC(=O)OCCOCCOCCOCCOC(=O)c3ccc(-c4c5nc(c(-c6c(F)c(F)c(F)c(F)c6F)c6ccc([nH]6)c(-c6c(F)c(F)c(F)c(F)c6F)c6nc(c(-c7c(F)c(F)c(F)c(F)c7F)c7ccc4[nH]7)C=C6)C=C5)cc3)c3ccccc32)c1
REMARK SMILES IDX 23 1 22 2 21 3 20 4 19 5 18 6 16 7 17 8 15 9 14 10 9 11
REMARK SMILES IDX 10 12 101 13 11 14 12 15 96 16 100 17 13 18 97 19 99 20
REMARK SMILES IDX 98 21 8 22 7 23 3 24 4 25 102 26 5 27 6 28 2 29 1 30 24 31
REMARK SMILES IDX 25 32 26 33 27 34 28 35 29 36 30 37 31 38 32 39 33 40 34 41
REMARK SMILES IDX 95 42 35 43 94 44 36 45 37 46 38 47 88 48 39 49 93 50 87 51
REMARK SMILES IDX 89 52 40 53 92 54 86 55 85 56 41 58 73 59 53 60 72 61 54 62
REMARK SMILES IDX 57 63 71 64 90 65 55 66 56 67 70 69 91 70 58 71 42 72 43 73
REMARK SMILES IDX 51 74 44 75 45 76 49 77 52 78 46 79 47 80 50 81 48 82 74 83
REMARK SMILES IDX 75 84 83 85 76 86 77 87 81 88 84 89 78 90 79 91 82 92 80 93
REMARK SMILES IDX 59 94 60 95 68 96 61 97 62 98 66 99 69 100 63 101 64 102
REMARK SMILES IDX 67 103 65 104
REMARK H PARENT 89 57 57 68
REMARK Flexibility Score: inf
ROOT
ATOM      1  C   UNL A   1      41.847  40.150  28.775  1.00  0.00     0.188 C 
ENDROOT
BRANCH   1   2
ATOM      2  C   UNL A   1      41.263  40.563  27.412  1.00  0.00     0.188 C 
BRANCH   2   3
ATOM      3  O   UNL A   1      41.991  40.263  26.224  1.00  0.00    -0.376 OA
BRANCH   3   4
ATOM      4  C   UNL A   1      42.338  41.274  25.288  1.00  0.00     0.202 C 
BRANCH   4   5
ATOM      5  C   UNL A   1      43.794  41.709  25.087  1.00  0.00     0.261 C 
BRANCH   5   6
ATOM      6  O   UNL A   1      44.722  40.761  25.592  1.00  0.00    -0.462 OA
BRANCH   6   7
ATOM      7  C   UNL A   1      45.452  41.017  26.701  1.00  0.00     0.326 C 
ATOM      8  O   UNL A   1      45.954  42.096  26.977  1.00  0.00    -0.250 OA
BRANCH   7   9
ATOM      9  C   UNL A   1      45.476  39.777  27.626  1.00  0.00     0.248 C 
BRANCH   9  10
ATOM     10  N   UNL A   1      45.821  38.539  26.930  1.00  0.00    -0.291 N 
ATOM     11  N   UNL A   1      47.279  36.178  27.498  1.00  0.00    -0.298 N 
ATOM     12  C   UNL A   1      47.651  37.460  27.842  1.00  0.00     0.317 A 
ATOM     13  C   UNL A   1      45.884  36.060  27.145  1.00  0.00     0.068 A 
ATOM     14  O   UNL A   1      48.102  37.894  28.887  1.00  0.00    -0.263 OA
ATOM     15  C   UNL A   1      47.179  38.371  26.751  1.00  0.00     0.317 A 
ATOM     16  C   UNL A   1      45.109  37.289  27.090  1.00  0.00     0.069 A 
ATOM     17  C   UNL A   1      45.234  34.844  26.956  1.00  0.00     0.028 A 
ATOM     18  O   UNL A   1      47.863  38.648  25.783  1.00  0.00    -0.263 OA
ATOM     19  C   UNL A   1      43.718  37.246  26.992  1.00  0.00     0.028 A 
ATOM     20  C   UNL A   1      43.842  34.829  26.779  1.00  0.00     0.002 A 
ATOM     21  C   UNL A   1      43.090  36.011  26.828  1.00  0.00     0.002 A 
BRANCH  11  22
ATOM     22  C   UNL A   1      48.317  35.157  27.571  1.00  0.00     0.162 C 
BRANCH  22  23
ATOM     23  C   UNL A   1      49.392  35.447  26.493  1.00  0.00    -0.024 A 
ATOM     24  C   UNL A   1      51.399  36.769  26.029  1.00  0.00     0.119 A 
ATOM     25  C   UNL A   1      50.970  36.920  24.712  1.00  0.00     0.046 A 
ATOM     26  C   UNL A   1      50.669  35.938  26.883  1.00  0.00     0.052 A 
ATOM     27  C   UNL A   1      49.817  36.281  24.258  1.00  0.00     0.004 A 
ATOM     28  C   UNL A   1      49.010  35.573  25.150  1.00  0.00     0.006 A 
BRANCH  24  29
ATOM     29  O   UNL A   1      52.449  37.579  26.359  1.00  0.00    -0.497 OA
ATOM     30  C   UNL A   1      53.132  38.300  25.345  1.00  0.00     0.278 C 
ENDBRANCH  24  29
ENDBRANCH  22  23
ENDBRANCH  11  22
ENDBRANCH   9  10
ENDBRANCH   7   9
ENDBRANCH   6   7
ENDBRANCH   5   6
ENDBRANCH   4   5
ENDBRANCH   3   4
ENDBRANCH   2   3
ENDBRANCH   1   2
BRANCH   1  31
ATOM     31  O   UNL A   1      42.659  41.119  29.415  1.00  0.00    -0.377 OA
BRANCH  31  32
ATOM     32  C   UNL A   1      42.058  41.703  30.541  1.00  0.00     0.188 C 
BRANCH  32  33
ATOM     33  C   UNL A   1      42.699  43.015  31.014  1.00  0.00     0.188 C 
BRANCH  33  34
ATOM     34  O   UNL A   1      43.300  43.177  32.294  1.00  0.00    -0.376 OA
BRANCH  34  35
ATOM     35  C   UNL A   1      44.643  42.811  32.573  1.00  0.00     0.202 C 
BRANCH  35  36
ATOM     36  C   UNL A   1      45.137  41.431  32.145  1.00  0.00     0.261 C 
BRANCH  36  37
ATOM     37  O   UNL A   1      45.071  40.456  33.189  1.00  0.00    -0.460 OA
BRANCH  37  38
ATOM     38  C   UNL A   1      43.883  39.815  33.285  1.00  0.00     0.338 C 
ATOM     39  O   UNL A   1      42.815  40.271  33.634  1.00  0.00    -0.246 OA
BRANCH  38  40
ATOM     40  C   UNL A   1      44.027  38.461  32.721  1.00  0.00     0.060 A 
ATOM     41  C   UNL A   1      43.874  38.327  31.335  1.00  0.00     0.016 A 
ATOM     42  C   UNL A   1      44.298  37.350  33.525  1.00  0.00     0.016 A 
ATOM     43  C   UNL A   1      43.962  37.076  30.745  1.00  0.00     0.010 A 
ATOM     44  C   UNL A   1      44.337  36.083  32.940  1.00  0.00     0.010 A 
ATOM     45  C   UNL A   1      44.125  35.947  31.557  1.00  0.00    -0.014 A 
BRANCH  45  46
ATOM     46  C   UNL A   1      43.757  34.638  30.980  1.00  0.00     0.031 A 
ATOM     47  C   UNL A   1      44.874  33.791  30.440  1.00  0.00     0.074 A 
ATOM     48  C   UNL A   1      42.495  34.187  31.018  1.00  0.00     0.049 A 
ATOM     49  N   UNL A   1      44.838  32.585  29.939  1.00  0.00    -0.248 NA
ATOM     50  C   UNL A   1      46.220  34.387  30.480  1.00  0.00     0.031 C 
ATOM     51  C   UNL A   1      41.353  34.912  31.572  1.00  0.00     0.029 A 
ATOM     52  N   UNL A   1      41.967  32.998  30.586  1.00  0.00    -0.354 N 
ATOM     53  C   UNL A   1      46.154  32.280  29.612  1.00  0.00     0.074 A 
ATOM     54  C   UNL A   1      46.958  33.434  29.937  1.00  0.00     0.031 C 
ATOM     55  C   UNL A   1      40.252  34.153  31.435  1.00  0.00     0.029 A 
ATOM     56  C   UNL A   1      40.613  32.903  30.769  1.00  0.00     0.049 A 
ATOM     57  H   UNL A   1      42.510  32.283  30.183  1.00  0.00     0.167 HD
ATOM     58  C   UNL A   1      46.645  31.132  29.093  1.00  0.00     0.037 A 
ATOM     59  C   UNL A   1      39.766  31.914  30.419  1.00  0.00     0.037 A 
ATOM     60  C   UNL A   1      45.829  29.999  28.753  1.00  0.00     0.049 A 
ATOM     61  C   UNL A   1      40.326  30.673  29.772  1.00  0.00     0.074 A 
ATOM     62  C   UNL A   1      46.212  28.787  28.212  1.00  0.00     0.029 A 
ATOM     63  N   UNL A   1      44.450  29.953  28.911  1.00  0.00    -0.354 N 
ATOM     64  N   UNL A   1      41.571  30.377  29.484  1.00  0.00    -0.248 NA
ATOM     65  C   UNL A   1      39.364  29.624  29.411  1.00  0.00     0.031 C 
ATOM     66  C   UNL A   1      45.058  28.028  27.989  1.00  0.00     0.029 A 
ATOM     67  C   UNL A   1      43.962  28.741  28.454  1.00  0.00     0.049 A 
ATOM     68  H   UNL A   1      43.900  30.675  29.293  1.00  0.00     0.167 HD
ATOM     69  C   UNL A   1      41.549  29.099  28.940  1.00  0.00     0.074 A 
ATOM     70  C   UNL A   1      40.163  28.674  28.947  1.00  0.00     0.031 C 
ATOM     71  C   UNL A   1      42.577  28.342  28.480  1.00  0.00     0.037 A 
BRANCH  58  72
ATOM     72  C   UNL A   1      48.120  31.081  28.821  1.00  0.00     0.064 A 
ATOM     73  C   UNL A   1      48.666  31.515  27.602  1.00  0.00     0.173 A 
ATOM     74  C   UNL A   1      48.998  30.565  29.785  1.00  0.00     0.173 A 
ATOM     75  F   UNL A   1      47.867  31.993  26.636  1.00  0.00    -0.203 F 
ATOM     76  C   UNL A   1      50.030  31.403  27.348  1.00  0.00     0.198 A 
ATOM     77  C   UNL A   1      50.366  30.485  29.540  1.00  0.00     0.198 A 
ATOM     78  F   UNL A   1      48.529  30.130  30.964  1.00  0.00    -0.203 F 
ATOM     79  F   UNL A   1      50.520  31.764  26.154  1.00  0.00    -0.200 F 
ATOM     80  C   UNL A   1      50.881  30.893  28.318  1.00  0.00     0.200 A 
ATOM     81  F   UNL A   1      51.187  29.999  30.482  1.00  0.00    -0.200 F 
ATOM     82  F   UNL A   1      52.193  30.783  28.071  1.00  0.00    -0.200 F 
ENDBRANCH  58  72
BRANCH  59  83
ATOM     83  C   UNL A   1      38.310  32.064  30.675  1.00  0.00     0.064 A 
ATOM     84  C   UNL A   1      37.739  31.670  31.893  1.00  0.00     0.173 A 
ATOM     85  C   UNL A   1      37.457  32.604  29.701  1.00  0.00     0.173 A 
ATOM     86  F   UNL A   1      38.508  31.125  32.847  1.00  0.00    -0.203 F 
ATOM     87  C   UNL A   1      36.371  31.799  32.121  1.00  0.00     0.198 A 
ATOM     88  C   UNL A   1      36.094  32.759  29.941  1.00  0.00     0.198 A 
ATOM     89  F   UNL A   1      37.952  32.994  28.516  1.00  0.00    -0.203 F 
ATOM     90  F   UNL A   1      35.844  31.377  33.279  1.00  0.00    -0.200 F 
ATOM     91  C   UNL A   1      35.550  32.350  31.148  1.00  0.00     0.200 A 
ATOM     92  F   UNL A   1      35.307  33.303  29.001  1.00  0.00    -0.200 F 
ATOM     93  F   UNL A   1      34.235  32.479  31.371  1.00  0.00    -0.200 F 
ENDBRANCH  59  83
BRANCH  71  94
ATOM     94  C   UNL A   1      42.249  26.961  27.990  1.00  0.00     0.064 A 
ATOM     95  C   UNL A   1      42.439  25.826  28.790  1.00  0.00     0.173 A 
ATOM     96  C   UNL A   1      41.688  26.780  26.715  1.00  0.00     0.173 A 
ATOM     97  F   UNL A   1      42.980  25.945  30.013  1.00  0.00    -0.203 F 
ATOM     98  C   UNL A   1      42.110  24.557  28.321  1.00  0.00     0.198 A 
ATOM     99  C   UNL A   1      41.329  25.514  26.263  1.00  0.00     0.198 A 
ATOM    100  F   UNL A   1      41.475  27.835  25.914  1.00  0.00    -0.203 F 
ATOM    101  F   UNL A   1      42.349  23.480  29.084  1.00  0.00    -0.200 F 
ATOM    102  C   UNL A   1      41.548  24.403  27.063  1.00  0.00     0.200 A 
ATOM    103  F   UNL A   1      40.770  25.371  25.054  1.00  0.00    -0.200 F 
ATOM    104  F   UNL A   1      41.224  23.182  26.616  1.00  0.00    -0.200 F 
ENDBRANCH  71  94
ENDBRANCH  45  46
ENDBRANCH  38  40
ENDBRANCH  37  38
ENDBRANCH  36  37
ENDBRANCH  35  36
ENDBRANCH  34  35
ENDBRANCH  33  34
ENDBRANCH  32  33
ENDBRANCH  31  32
ENDBRANCH   1  31
TORSDOF 24
ENDMDL
