MODEL 1
REMARK VINA RESULT:     -10.3      0.000      0.000
REMARK SMILES O=C(/C=C\c1ccc(OCc2ccc(Br)cc2)cc1)OCCOCCOCCOCCOC(=O)c1ccc(-c2c3nc(c(-c4c(F)c(F)c(F)c(F)c4F)c4ccc([nH]4)c(-c4c(F)c(F)c(F)c(F)c4F)c4nc(c(-c5c(F)c(F)c(F)c(F)c5F)c5ccc2[nH]5)C=C4)C=C3)cc1
REMARK SMILES IDX 25 1 24 2 23 3 22 4 21 5 20 6 2 7 1 8 3 9 4 10 5 11 6 12
REMARK SMILES IDX 19 13 7 14 18 15 8 16 9 17 10 18 11 19 12 20 17 21 13 22
REMARK SMILES IDX 16 23 14 24 15 25 26 26 27 27 28 28 29 29 30 30 31 31 32 32
REMARK SMILES IDX 33 33 34 34 35 35 36 36 97 37 37 38 96 39 38 40 39 41 40 42
REMARK SMILES IDX 90 43 41 44 95 45 89 46 91 47 42 48 94 49 88 50 87 51 43 53
REMARK SMILES IDX 75 54 55 55 74 56 56 57 59 58 73 59 92 60 57 61 58 62 72 64
REMARK SMILES IDX 93 65 60 66 44 67 45 68 53 69 46 70 47 71 51 72 54 73 48 74
REMARK SMILES IDX 49 75 52 76 50 77 76 78 77 79 85 80 78 81 79 82 83 83 86 84
REMARK SMILES IDX 80 85 81 86 84 87 82 88 61 89 62 90 70 91 63 92 64 93 68 94
REMARK SMILES IDX 71 95 65 96 66 97 69 98 67 99
REMARK H PARENT 91 52 59 63
REMARK Flexibility Score: inf
ROOT
ATOM      1  C   UNL A   1      33.280  22.834  26.906  1.00  0.00     0.188 C 
ENDROOT
BRANCH   1   2
ATOM      2  C   UNL A   1      32.255  23.976  26.784  1.00  0.00     0.188 C 
BRANCH   2   3
ATOM      3  O   UNL A   1      32.716  25.228  26.289  1.00  0.00    -0.376 OA
BRANCH   3   4
ATOM      4  C   UNL A   1      31.877  26.363  26.499  1.00  0.00     0.202 C 
BRANCH   4   5
ATOM      5  C   UNL A   1      32.543  27.730  26.736  1.00  0.00     0.261 C 
BRANCH   5   6
ATOM      6  O   UNL A   1      32.813  28.477  25.545  1.00  0.00    -0.460 OA
BRANCH   6   7
ATOM      7  C   UNL A   1      31.944  29.244  24.869  1.00  0.00     0.330 C 
ATOM      8  O   UNL A   1      31.448  30.222  25.429  1.00  0.00    -0.247 OA
BRANCH   7   9
ATOM      9  C   UNL A   1      31.443  28.907  23.520  1.00  0.00     0.094 C 
ATOM     10  C   UNL A   1      31.303  27.835  22.717  1.00  0.00     0.015 C 
BRANCH  10  11
ATOM     11  C   UNL A   1      31.641  26.418  22.864  1.00  0.00    -0.025 A 
ATOM     12  C   UNL A   1      32.961  25.992  22.706  1.00  0.00     0.012 A 
ATOM     13  C   UNL A   1      30.649  25.444  23.030  1.00  0.00     0.012 A 
ATOM     14  C   UNL A   1      33.289  24.639  22.845  1.00  0.00     0.047 A 
ATOM     15  C   UNL A   1      30.981  24.096  23.221  1.00  0.00     0.047 A 
ATOM     16  C   UNL A   1      32.315  23.700  23.186  1.00  0.00     0.119 A 
BRANCH  16  17
ATOM     17  O   UNL A   1      32.777  22.437  23.434  1.00  0.00    -0.489 OA
BRANCH  17  18
ATOM     18  C   UNL A   1      32.138  21.351  22.753  1.00  0.00     0.265 C 
BRANCH  18  19
ATOM     19  C   UNL A   1      32.377  19.999  23.393  1.00  0.00    -0.011 A 
ATOM     20  C   UNL A   1      32.569  19.892  24.779  1.00  0.00     0.008 A 
ATOM     21  C   UNL A   1      32.424  18.832  22.615  1.00  0.00     0.008 A 
ATOM     22  C   UNL A   1      32.809  18.654  25.378  1.00  0.00     0.016 A 
ATOM     23  C   UNL A   1      32.650  17.587  23.215  1.00  0.00     0.016 A 
ATOM     24  C   UNL A   1      32.845  17.506  24.593  1.00  0.00     0.017 A 
ATOM     25  Br  UNL A   1      33.167  15.829  25.404  1.00  0.00    -0.051 Br
ENDBRANCH  18  19
ENDBRANCH  17  18
ENDBRANCH  16  17
ENDBRANCH  10  11
ENDBRANCH   7   9
ENDBRANCH   6   7
ENDBRANCH   5   6
ENDBRANCH   4   5
ENDBRANCH   3   4
ENDBRANCH   2   3
ENDBRANCH   1   2
BRANCH   1  26
ATOM     26  O   UNL A   1      34.605  23.233  26.564  1.00  0.00    -0.377 OA
BRANCH  26  27
ATOM     27  C   UNL A   1      35.473  22.163  26.218  1.00  0.00     0.188 C 
BRANCH  27  28
ATOM     28  C   UNL A   1      36.904  22.571  25.801  1.00  0.00     0.188 C 
BRANCH  28  29
ATOM     29  O   UNL A   1      37.678  21.823  24.879  1.00  0.00    -0.376 OA
BRANCH  29  30
ATOM     30  C   UNL A   1      37.629  20.412  24.799  1.00  0.00     0.202 C 
BRANCH  30  31
ATOM     31  C   UNL A   1      38.791  19.525  25.282  1.00  0.00     0.261 C 
BRANCH  31  32
ATOM     32  O   UNL A   1      39.659  20.117  26.258  1.00  0.00    -0.460 OA
BRANCH  32  33
ATOM     33  C   UNL A   1      40.963  19.775  26.154  1.00  0.00     0.338 C 
ATOM     34  O   UNL A   1      41.408  18.714  25.729  1.00  0.00    -0.246 OA
BRANCH  33  35
ATOM     35  C   UNL A   1      41.832  20.948  26.409  1.00  0.00     0.060 A 
ATOM     36  C   UNL A   1      42.095  21.267  27.751  1.00  0.00     0.016 A 
ATOM     37  C   UNL A   1      42.349  21.748  25.386  1.00  0.00     0.016 A 
ATOM     38  C   UNL A   1      42.791  22.426  28.079  1.00  0.00     0.010 A 
ATOM     39  C   UNL A   1      43.028  22.931  25.717  1.00  0.00     0.010 A 
ATOM     40  C   UNL A   1      43.187  23.306  27.066  1.00  0.00    -0.014 A 
BRANCH  40  41
ATOM     41  C   UNL A   1      43.437  24.722  27.443  1.00  0.00     0.031 A 
ATOM     42  C   UNL A   1      44.796  25.296  27.130  1.00  0.00     0.074 A 
ATOM     43  C   UNL A   1      42.472  25.514  27.943  1.00  0.00     0.049 A 
ATOM     44  N   UNL A   1      45.252  26.511  27.297  1.00  0.00    -0.248 NA
ATOM     45  C   UNL A   1      45.775  24.366  26.541  1.00  0.00     0.031 C 
ATOM     46  C   UNL A   1      41.106  25.098  28.244  1.00  0.00     0.029 A 
ATOM     47  N   UNL A   1      42.501  26.847  28.273  1.00  0.00    -0.354 N 
ATOM     48  C   UNL A   1      46.567  26.485  26.847  1.00  0.00     0.074 A 
ATOM     49  C   UNL A   1      46.848  25.131  26.430  1.00  0.00     0.031 C 
ATOM     50  C   UNL A   1      40.422  26.158  28.714  1.00  0.00     0.029 A 
ATOM     51  C   UNL A   1      41.310  27.320  28.766  1.00  0.00     0.049 A 
ATOM     52  H   UNL A   1      43.301  27.410  28.167  1.00  0.00     0.167 HD
ATOM     53  C   UNL A   1      47.460  27.499  26.774  1.00  0.00     0.037 A 
ATOM     54  C   UNL A   1      40.984  28.548  29.217  1.00  0.00     0.037 A 
ATOM     55  C   UNL A   1      47.183  28.849  27.182  1.00  0.00     0.049 A 
ATOM     56  C   UNL A   1      42.018  29.649  29.183  1.00  0.00     0.074 A 
ATOM     57  C   UNL A   1      48.018  29.952  27.143  1.00  0.00     0.029 A 
ATOM     58  N   UNL A   1      45.977  29.279  27.713  1.00  0.00    -0.354 N 
ATOM     59  N   UNL A   1      43.251  29.622  28.734  1.00  0.00    -0.248 NA
ATOM     60  C   UNL A   1      41.608  30.958  29.713  1.00  0.00     0.031 C 
ATOM     61  C   UNL A   1      47.335  31.036  27.703  1.00  0.00     0.029 A 
ATOM     62  C   UNL A   1      46.052  30.625  28.026  1.00  0.00     0.049 A 
ATOM     63  H   UNL A   1      45.184  28.710  27.848  1.00  0.00     0.167 HD
ATOM     64  C   UNL A   1      43.744  30.913  28.888  1.00  0.00     0.074 A 
ATOM     65  C   UNL A   1      42.676  31.701  29.462  1.00  0.00     0.031 C 
ATOM     66  C   UNL A   1      44.971  31.403  28.578  1.00  0.00     0.037 A 
BRANCH  53  67
ATOM     67  C   UNL A   1      48.836  27.172  26.268  1.00  0.00     0.064 A 
ATOM     68  C   UNL A   1      49.152  27.201  24.901  1.00  0.00     0.173 A 
ATOM     69  C   UNL A   1      49.856  26.832  27.170  1.00  0.00     0.173 A 
ATOM     70  F   UNL A   1      48.208  27.499  23.995  1.00  0.00    -0.203 F 
ATOM     71  C   UNL A   1      50.429  26.872  24.454  1.00  0.00     0.198 A 
ATOM     72  C   UNL A   1      51.141  26.536  26.721  1.00  0.00     0.198 A 
ATOM     73  F   UNL A   1      49.608  26.788  28.487  1.00  0.00    -0.203 F 
ATOM     74  F   UNL A   1      50.692  26.849  23.140  1.00  0.00    -0.200 F 
ATOM     75  C   UNL A   1      51.424  26.547  25.364  1.00  0.00     0.200 A 
ATOM     76  F   UNL A   1      52.102  26.234  27.604  1.00  0.00    -0.200 F 
ATOM     77  F   UNL A   1      52.654  26.234  24.933  1.00  0.00    -0.200 F 
ENDBRANCH  53  67
BRANCH  54  78
ATOM     78  C   UNL A   1      39.617  28.818  29.739  1.00  0.00     0.064 A 
ATOM     79  C   UNL A   1      38.615  29.349  28.913  1.00  0.00     0.173 A 
ATOM     80  C   UNL A   1      39.295  28.593  31.085  1.00  0.00     0.173 A 
ATOM     81  F   UNL A   1      38.880  29.609  27.623  1.00  0.00    -0.203 F 
ATOM     82  C   UNL A   1      37.355  29.665  29.417  1.00  0.00     0.198 A 
ATOM     83  C   UNL A   1      38.024  28.878  31.581  1.00  0.00     0.198 A 
ATOM     84  F   UNL A   1      40.216  28.091  31.921  1.00  0.00    -0.203 F 
ATOM     85  F   UNL A   1      36.437  30.225  28.618  1.00  0.00    -0.200 F 
ATOM     86  C   UNL A   1      37.059  29.424  30.749  1.00  0.00     0.200 A 
ATOM     87  F   UNL A   1      37.738  28.632  32.867  1.00  0.00    -0.200 F 
ATOM     88  F   UNL A   1      35.847  29.729  31.235  1.00  0.00    -0.200 F 
ENDBRANCH  54  78
BRANCH  66  89
ATOM     89  C   UNL A   1      45.206  32.874  28.786  1.00  0.00     0.064 A 
ATOM     90  C   UNL A   1      44.966  33.819  27.777  1.00  0.00     0.173 A 
ATOM     91  C   UNL A   1      45.648  33.347  30.032  1.00  0.00     0.173 A 
ATOM     92  F   UNL A   1      44.550  33.421  26.565  1.00  0.00    -0.203 F 
ATOM     93  C   UNL A   1      45.199  35.175  27.995  1.00  0.00     0.198 A 
ATOM     94  C   UNL A   1      45.845  34.707  30.257  1.00  0.00     0.198 A 
ATOM     95  F   UNL A   1      45.880  32.490  31.037  1.00  0.00    -0.203 F 
ATOM     96  F   UNL A   1      45.022  36.051  26.996  1.00  0.00    -0.200 F 
ATOM     97  C   UNL A   1      45.632  35.618  29.235  1.00  0.00     0.200 A 
ATOM     98  F   UNL A   1      46.244  35.134  31.463  1.00  0.00    -0.200 F 
ATOM     99  F   UNL A   1      45.852  36.923  29.443  1.00  0.00    -0.200 F 
ENDBRANCH  66  89
ENDBRANCH  40  41
ENDBRANCH  33  35
ENDBRANCH  32  33
ENDBRANCH  31  32
ENDBRANCH  30  31
ENDBRANCH  29  30
ENDBRANCH  28  29
ENDBRANCH  27  28
ENDBRANCH  26  27
ENDBRANCH   1  26
TORSDOF 24
ENDMDL
MODEL 2
REMARK VINA RESULT:     -10.1      2.921      5.495
REMARK SMILES O=C(/C=C\c1ccc(OCc2ccc(Br)cc2)cc1)OCCOCCOCCOCCOC(=O)c1ccc(-c2c3nc(c(-c4c(F)c(F)c(F)c(F)c4F)c4ccc([nH]4)c(-c4c(F)c(F)c(F)c(F)c4F)c4nc(c(-c5c(F)c(F)c(F)c(F)c5F)c5ccc2[nH]5)C=C4)C=C3)cc1
REMARK SMILES IDX 25 1 24 2 23 3 22 4 21 5 20 6 2 7 1 8 3 9 4 10 5 11 6 12
REMARK SMILES IDX 19 13 7 14 18 15 8 16 9 17 10 18 11 19 12 20 17 21 13 22
REMARK SMILES IDX 16 23 14 24 15 25 26 26 27 27 28 28 29 29 30 30 31 31 32 32
REMARK SMILES IDX 33 33 34 34 35 35 36 36 97 37 37 38 96 39 38 40 39 41 40 42
REMARK SMILES IDX 90 43 41 44 95 45 89 46 91 47 42 48 94 49 88 50 87 51 43 53
REMARK SMILES IDX 75 54 55 55 74 56 56 57 59 58 73 59 92 60 57 61 58 62 72 64
REMARK SMILES IDX 93 65 60 66 44 67 45 68 53 69 46 70 47 71 51 72 54 73 48 74
REMARK SMILES IDX 49 75 52 76 50 77 76 78 77 79 85 80 78 81 79 82 83 83 86 84
REMARK SMILES IDX 80 85 81 86 84 87 82 88 61 89 62 90 70 91 63 92 64 93 68 94
REMARK SMILES IDX 71 95 65 96 66 97 69 98 67 99
REMARK H PARENT 91 52 59 63
REMARK Flexibility Score: inf
ROOT
ATOM      1  C   UNL A   1      34.102  24.018  23.429  1.00  0.00     0.188 C 
ENDROOT
BRANCH   1   2
ATOM      2  C   UNL A   1      33.188  22.781  23.474  1.00  0.00     0.188 C 
BRANCH   2   3
ATOM      3  O   UNL A   1      33.124  22.050  24.692  1.00  0.00    -0.376 OA
BRANCH   3   4
ATOM      4  C   UNL A   1      31.828  21.702  25.179  1.00  0.00     0.202 C 
BRANCH   4   5
ATOM      5  C   UNL A   1      30.991  22.793  25.872  1.00  0.00     0.261 C 
BRANCH   5   6
ATOM      6  O   UNL A   1      30.614  23.884  25.027  1.00  0.00    -0.460 OA
BRANCH   6   7
ATOM      7  C   UNL A   1      30.682  25.189  25.329  1.00  0.00     0.330 C 
ATOM      8  O   UNL A   1      30.441  25.550  26.481  1.00  0.00    -0.247 OA
BRANCH   7   9
ATOM      9  C   UNL A   1      30.907  26.246  24.320  1.00  0.00     0.094 C 
ATOM     10  C   UNL A   1      31.470  27.465  24.221  1.00  0.00     0.015 C 
BRANCH  10  11
ATOM     11  C   UNL A   1      32.147  28.340  25.180  1.00  0.00    -0.025 A 
ATOM     12  C   UNL A   1      31.578  29.564  25.534  1.00  0.00     0.012 A 
ATOM     13  C   UNL A   1      33.428  28.044  25.660  1.00  0.00     0.012 A 
ATOM     14  C   UNL A   1      32.221  30.405  26.450  1.00  0.00     0.047 A 
ATOM     15  C   UNL A   1      34.050  28.858  26.616  1.00  0.00     0.047 A 
ATOM     16  C   UNL A   1      33.416  30.016  27.057  1.00  0.00     0.119 A 
BRANCH  16  17
ATOM     17  O   UNL A   1      33.875  30.851  28.037  1.00  0.00    -0.489 OA
BRANCH  17  18
ATOM     18  C   UNL A   1      34.386  32.127  27.637  1.00  0.00     0.265 C 
BRANCH  18  19
ATOM     19  C   UNL A   1      34.119  33.238  28.633  1.00  0.00    -0.011 A 
ATOM     20  C   UNL A   1      34.695  33.200  29.912  1.00  0.00     0.008 A 
ATOM     21  C   UNL A   1      33.282  34.315  28.304  1.00  0.00     0.008 A 
ATOM     22  C   UNL A   1      34.441  34.207  30.845  1.00  0.00     0.016 A 
ATOM     23  C   UNL A   1      33.037  35.333  29.232  1.00  0.00     0.016 A 
ATOM     24  C   UNL A   1      33.615  35.271  30.499  1.00  0.00     0.017 A 
ATOM     25  Br  UNL A   1      33.272  36.637  31.761  1.00  0.00    -0.051 Br
ENDBRANCH  18  19
ENDBRANCH  17  18
ENDBRANCH  16  17
ENDBRANCH  10  11
ENDBRANCH   7   9
ENDBRANCH   6   7
ENDBRANCH   5   6
ENDBRANCH   4   5
ENDBRANCH   3   4
ENDBRANCH   2   3
ENDBRANCH   1   2
BRANCH   1  26
ATOM     26  O   UNL A   1      35.323  23.837  24.141  1.00  0.00    -0.377 OA
BRANCH  26  27
ATOM     27  C   UNL A   1      36.262  22.987  23.497  1.00  0.00     0.188 C 
BRANCH  27  28
ATOM     28  C   UNL A   1      36.604  21.680  24.247  1.00  0.00     0.188 C 
BRANCH  28  29
ATOM     29  O   UNL A   1      37.925  21.336  24.628  1.00  0.00    -0.376 OA
BRANCH  29  30
ATOM     30  C   UNL A   1      38.481  21.684  25.880  1.00  0.00     0.202 C 
BRANCH  30  31
ATOM     31  C   UNL A   1      39.921  21.305  26.271  1.00  0.00     0.261 C 
BRANCH  31  32
ATOM     32  O   UNL A   1      40.207  19.899  26.294  1.00  0.00    -0.460 OA
BRANCH  32  33
ATOM     33  C   UNL A   1      41.515  19.575  26.191  1.00  0.00     0.338 C 
ATOM     34  O   UNL A   1      41.976  18.532  25.738  1.00  0.00    -0.246 OA
BRANCH  33  35
ATOM     35  C   UNL A   1      42.369  20.749  26.491  1.00  0.00     0.060 A 
ATOM     36  C   UNL A   1      42.478  21.131  27.838  1.00  0.00     0.016 A 
ATOM     37  C   UNL A   1      43.017  21.491  25.499  1.00  0.00     0.016 A 
ATOM     38  C   UNL A   1      43.151  22.296  28.190  1.00  0.00     0.010 A 
ATOM     39  C   UNL A   1      43.673  22.680  25.851  1.00  0.00     0.010 A 
ATOM     40  C   UNL A   1      43.679  23.119  27.190  1.00  0.00    -0.014 A 
BRANCH  40  41
ATOM     41  C   UNL A   1      43.907  24.549  27.526  1.00  0.00     0.031 A 
ATOM     42  C   UNL A   1      45.310  25.084  27.375  1.00  0.00     0.074 A 
ATOM     43  C   UNL A   1      42.902  25.382  27.847  1.00  0.00     0.049 A 
ATOM     44  N   UNL A   1      45.767  26.299  27.543  1.00  0.00    -0.248 NA
ATOM     45  C   UNL A   1      46.338  24.108  26.975  1.00  0.00     0.031 C 
ATOM     46  C   UNL A   1      41.498  25.005  27.977  1.00  0.00     0.029 A 
ATOM     47  N   UNL A   1      42.916  26.730  28.110  1.00  0.00    -0.354 N 
ATOM     48  C   UNL A   1      47.130  26.227  27.280  1.00  0.00     0.074 A 
ATOM     49  C   UNL A   1      47.434  24.849  26.975  1.00  0.00     0.031 C 
ATOM     50  C   UNL A   1      40.782  26.100  28.293  1.00  0.00     0.029 A 
ATOM     51  C   UNL A   1      41.680  27.248  28.409  1.00  0.00     0.049 A 
ATOM     52  H   UNL A   1      43.737  27.274  28.087  1.00  0.00     0.167 HD
ATOM     53  C   UNL A   1      48.048  27.222  27.280  1.00  0.00     0.037 A 
ATOM     54  C   UNL A   1      41.324  28.504  28.747  1.00  0.00     0.037 A 
ATOM     55  C   UNL A   1      47.750  28.596  27.577  1.00  0.00     0.049 A 
ATOM     56  C   UNL A   1      42.379  29.585  28.802  1.00  0.00     0.074 A 
ATOM     57  C   UNL A   1      48.608  29.681  27.598  1.00  0.00     0.029 A 
ATOM     58  N   UNL A   1      46.492  29.072  27.913  1.00  0.00    -0.354 N 
ATOM     59  N   UNL A   1      43.660  29.513  28.529  1.00  0.00    -0.248 NA
ATOM     60  C   UNL A   1      41.931  30.927  29.203  1.00  0.00     0.031 C 
ATOM     61  C   UNL A   1      47.880  30.805  28.003  1.00  0.00     0.029 A 
ATOM     62  C   UNL A   1      46.555  30.432  28.166  1.00  0.00     0.049 A 
ATOM     63  H   UNL A   1      45.675  28.525  27.966  1.00  0.00     0.167 HD
ATOM     64  C   UNL A   1      44.159  30.803  28.684  1.00  0.00     0.074 A 
ATOM     65  C   UNL A   1      43.040  31.638  29.065  1.00  0.00     0.031 C 
ATOM     66  C   UNL A   1      45.427  31.256  28.522  1.00  0.00     0.037 A 
BRANCH  53  67
ATOM     67  C   UNL A   1      49.473  26.845  26.987  1.00  0.00     0.064 A 
ATOM     68  C   UNL A   1      49.973  26.791  25.676  1.00  0.00     0.173 A 
ATOM     69  C   UNL A   1      50.353  26.543  28.037  1.00  0.00     0.173 A 
ATOM     70  F   UNL A   1      49.167  27.050  24.634  1.00  0.00    -0.203 F 
ATOM     71  C   UNL A   1      51.291  26.418  25.427  1.00  0.00     0.198 A 
ATOM     72  C   UNL A   1      51.679  26.203  27.786  1.00  0.00     0.198 A 
ATOM     73  F   UNL A   1      49.926  26.579  29.308  1.00  0.00    -0.203 F 
ATOM     74  F   UNL A   1      51.730  26.315  24.165  1.00  0.00    -0.200 F 
ATOM     75  C   UNL A   1      52.145  26.132  26.482  1.00  0.00     0.200 A 
ATOM     76  F   UNL A   1      52.505  25.939  28.807  1.00  0.00    -0.200 F 
ATOM     77  F   UNL A   1      53.415  25.777  26.241  1.00  0.00    -0.200 F 
ENDBRANCH  53  67
BRANCH  54  78
ATOM     78  C   UNL A   1      39.905  28.824  29.062  1.00  0.00     0.064 A 
ATOM     79  C   UNL A   1      39.398  28.673  30.361  1.00  0.00     0.173 A 
ATOM     80  C   UNL A   1      39.016  29.245  28.063  1.00  0.00     0.173 A 
ATOM     81  F   UNL A   1      40.201  28.246  31.348  1.00  0.00    -0.203 F 
ATOM     82  C   UNL A   1      38.053  28.907  30.643  1.00  0.00     0.198 A 
ATOM     83  C   UNL A   1      37.679  29.510  28.353  1.00  0.00     0.198 A 
ATOM     84  F   UNL A   1      39.446  29.401  26.802  1.00  0.00    -0.203 F 
ATOM     85  F   UNL A   1      37.584  28.699  31.881  1.00  0.00    -0.200 F 
ATOM     86  C   UNL A   1      37.196  29.331  29.640  1.00  0.00     0.200 A 
ATOM     87  F   UNL A   1      36.856  29.932  27.383  1.00  0.00    -0.200 F 
ATOM     88  F   UNL A   1      35.903  29.556  29.911  1.00  0.00    -0.200 F 
ENDBRANCH  54  78
BRANCH  66  89
ATOM     89  C   UNL A   1      45.665  32.732  28.686  1.00  0.00     0.064 A 
ATOM     90  C   UNL A   1      45.527  33.634  27.621  1.00  0.00     0.173 A 
ATOM     91  C   UNL A   1      46.007  33.255  29.945  1.00  0.00     0.173 A 
ATOM     92  F   UNL A   1      45.210  33.187  26.396  1.00  0.00    -0.203 F 
ATOM     93  C   UNL A   1      45.761  34.995  27.799  1.00  0.00     0.198 A 
ATOM     94  C   UNL A   1      46.204  34.621  30.127  1.00  0.00     0.198 A 
ATOM     95  F   UNL A   1      46.140  32.440  31.002  1.00  0.00    -0.203 F 
ATOM     96  F   UNL A   1      45.683  35.829  26.752  1.00  0.00    -0.200 F 
ATOM     97  C   UNL A   1      46.093  35.488  29.052  1.00  0.00     0.200 A 
ATOM     98  F   UNL A   1      46.506  35.096  31.344  1.00  0.00    -0.200 F 
ATOM     99  F   UNL A   1      46.314  36.799  29.222  1.00  0.00    -0.200 F 
ENDBRANCH  66  89
ENDBRANCH  40  41
ENDBRANCH  33  35
ENDBRANCH  32  33
ENDBRANCH  31  32
ENDBRANCH  30  31
ENDBRANCH  29  30
ENDBRANCH  28  29
ENDBRANCH  27  28
ENDBRANCH  26  27
ENDBRANCH   1  26
TORSDOF 24
ENDMDL
MODEL 3
REMARK VINA RESULT:      -9.8      2.378      4.972
REMARK SMILES O=C(/C=C\c1ccc(OCc2ccc(Br)cc2)cc1)OCCOCCOCCOCCOC(=O)c1ccc(-c2c3nc(c(-c4c(F)c(F)c(F)c(F)c4F)c4ccc([nH]4)c(-c4c(F)c(F)c(F)c(F)c4F)c4nc(c(-c5c(F)c(F)c(F)c(F)c5F)c5ccc2[nH]5)C=C4)C=C3)cc1
REMARK SMILES IDX 25 1 24 2 23 3 22 4 21 5 20 6 2 7 1 8 3 9 4 10 5 11 6 12
REMARK SMILES IDX 19 13 7 14 18 15 8 16 9 17 10 18 11 19 12 20 17 21 13 22
REMARK SMILES IDX 16 23 14 24 15 25 26 26 27 27 28 28 29 29 30 30 31 31 32 32
REMARK SMILES IDX 33 33 34 34 35 35 36 36 97 37 37 38 96 39 38 40 39 41 40 42
REMARK SMILES IDX 90 43 41 44 95 45 89 46 91 47 42 48 94 49 88 50 87 51 43 53
REMARK SMILES IDX 75 54 55 55 74 56 56 57 59 58 73 59 92 60 57 61 58 62 72 64
REMARK SMILES IDX 93 65 60 66 44 67 45 68 53 69 46 70 47 71 51 72 54 73 48 74
REMARK SMILES IDX 49 75 52 76 50 77 76 78 77 79 85 80 78 81 79 82 83 83 86 84
REMARK SMILES IDX 80 85 81 86 84 87 82 88 61 89 62 90 70 91 63 92 64 93 68 94
REMARK SMILES IDX 71 95 65 96 66 97 69 98 67 99
REMARK H PARENT 91 52 59 63
REMARK Flexibility Score: inf
ROOT
ATOM      1  C   UNL A   1      32.782  22.985  27.082  1.00  0.00     0.188 C 
ENDROOT
BRANCH   1   2
ATOM      2  C   UNL A   1      31.539  23.837  26.769  1.00  0.00     0.188 C 
BRANCH   2   3
ATOM      3  O   UNL A   1      31.734  25.223  26.512  1.00  0.00    -0.376 OA
BRANCH   3   4
ATOM      4  C   UNL A   1      31.019  25.791  25.416  1.00  0.00     0.202 C 
BRANCH   4   5
ATOM      5  C   UNL A   1      30.766  24.915  24.175  1.00  0.00     0.261 C 
BRANCH   5   6
ATOM      6  O   UNL A   1      31.349  25.410  22.965  1.00  0.00    -0.460 OA
BRANCH   6   7
ATOM      7  C   UNL A   1      32.654  25.423  22.656  1.00  0.00     0.330 C 
ATOM      8  O   UNL A   1      33.317  24.398  22.812  1.00  0.00    -0.247 OA
BRANCH   7   9
ATOM      9  C   UNL A   1      33.381  26.647  22.256  1.00  0.00     0.094 C 
ATOM     10  C   UNL A   1      33.735  27.842  22.766  1.00  0.00     0.015 C 
BRANCH  10  11
ATOM     11  C   UNL A   1      33.505  28.491  24.058  1.00  0.00    -0.025 A 
ATOM     12  C   UNL A   1      34.299  28.163  25.158  1.00  0.00     0.012 A 
ATOM     13  C   UNL A   1      32.414  29.344  24.262  1.00  0.00     0.012 A 
ATOM     14  C   UNL A   1      34.082  28.780  26.396  1.00  0.00     0.047 A 
ATOM     15  C   UNL A   1      32.227  30.002  25.485  1.00  0.00     0.047 A 
ATOM     16  C   UNL A   1      33.101  29.762  26.541  1.00  0.00     0.119 A 
BRANCH  16  17
ATOM     17  O   UNL A   1      33.077  30.393  27.754  1.00  0.00    -0.489 OA
BRANCH  17  18
ATOM     18  C   UNL A   1      33.290  31.809  27.769  1.00  0.00     0.265 C 
BRANCH  18  19
ATOM     19  C   UNL A   1      34.571  32.232  28.458  1.00  0.00    -0.011 A 
ATOM     20  C   UNL A   1      35.747  32.423  27.717  1.00  0.00     0.008 A 
ATOM     21  C   UNL A   1      34.612  32.427  29.847  1.00  0.00     0.008 A 
ATOM     22  C   UNL A   1      36.939  32.794  28.343  1.00  0.00     0.016 A 
ATOM     23  C   UNL A   1      35.802  32.812  30.475  1.00  0.00     0.016 A 
ATOM     24  C   UNL A   1      36.960  32.990  29.720  1.00  0.00     0.017 A 
ATOM     25  Br  UNL A   1      38.572  33.494  30.568  1.00  0.00    -0.051 Br
ENDBRANCH  18  19
ENDBRANCH  17  18
ENDBRANCH  16  17
ENDBRANCH  10  11
ENDBRANCH   7   9
ENDBRANCH   6   7
ENDBRANCH   5   6
ENDBRANCH   4   5
ENDBRANCH   3   4
ENDBRANCH   2   3
ENDBRANCH   1   2
BRANCH   1  26
ATOM     26  O   UNL A   1      33.669  22.863  25.974  1.00  0.00    -0.377 OA
BRANCH  26  27
ATOM     27  C   UNL A   1      34.791  22.022  26.205  1.00  0.00     0.188 C 
BRANCH  27  28
ATOM     28  C   UNL A   1      35.402  21.361  24.949  1.00  0.00     0.188 C 
BRANCH  28  29
ATOM     29  O   UNL A   1      36.706  20.807  24.930  1.00  0.00    -0.376 OA
BRANCH  29  30
ATOM     30  C   UNL A   1      37.785  21.353  25.664  1.00  0.00     0.202 C 
BRANCH  30  31
ATOM     31  C   UNL A   1      39.244  20.933  25.407  1.00  0.00     0.261 C 
BRANCH  31  32
ATOM     32  O   UNL A   1      39.804  20.021  26.362  1.00  0.00    -0.460 OA
BRANCH  32  33
ATOM     33  C   UNL A   1      41.106  19.711  26.169  1.00  0.00     0.338 C 
ATOM     34  O   UNL A   1      41.545  18.684  25.664  1.00  0.00    -0.246 OA
BRANCH  33  35
ATOM     35  C   UNL A   1      41.967  20.885  26.443  1.00  0.00     0.060 A 
ATOM     36  C   UNL A   1      42.178  21.222  27.790  1.00  0.00     0.016 A 
ATOM     37  C   UNL A   1      42.527  21.670  25.431  1.00  0.00     0.016 A 
ATOM     38  C   UNL A   1      42.864  22.383  28.130  1.00  0.00     0.010 A 
ATOM     39  C   UNL A   1      43.196  22.855  25.772  1.00  0.00     0.010 A 
ATOM     40  C   UNL A   1      43.303  23.248  27.121  1.00  0.00    -0.014 A 
BRANCH  40  41
ATOM     41  C   UNL A   1      43.542  24.669  27.489  1.00  0.00     0.031 A 
ATOM     42  C   UNL A   1      44.891  25.256  27.157  1.00  0.00     0.074 A 
ATOM     43  C   UNL A   1      42.574  25.453  27.996  1.00  0.00     0.049 A 
ATOM     44  N   UNL A   1      45.336  26.476  27.314  1.00  0.00    -0.248 NA
ATOM     45  C   UNL A   1      45.873  24.333  26.562  1.00  0.00     0.031 C 
ATOM     46  C   UNL A   1      41.216  25.023  28.315  1.00  0.00     0.029 A 
ATOM     47  N   UNL A   1      42.593  26.788  28.320  1.00  0.00    -0.354 N 
ATOM     48  C   UNL A   1      46.646  26.462  26.848  1.00  0.00     0.074 A 
ATOM     49  C   UNL A   1      46.937  25.109  26.434  1.00  0.00     0.031 C 
ATOM     50  C   UNL A   1      40.527  26.079  28.787  1.00  0.00     0.029 A 
ATOM     51  C   UNL A   1      41.402  27.250  28.824  1.00  0.00     0.049 A 
ATOM     52  H   UNL A   1      43.386  27.359  28.201  1.00  0.00     0.167 HD
ATOM     53  C   UNL A   1      47.527  27.485  26.760  1.00  0.00     0.037 A 
ATOM     54  C   UNL A   1      41.069  28.477  29.272  1.00  0.00     0.037 A 
ATOM     55  C   UNL A   1      47.240  28.834  27.165  1.00  0.00     0.049 A 
ATOM     56  C   UNL A   1      42.091  29.589  29.222  1.00  0.00     0.074 A 
ATOM     57  C   UNL A   1      48.064  29.945  27.111  1.00  0.00     0.029 A 
ATOM     58  N   UNL A   1      46.036  29.253  27.707  1.00  0.00    -0.354 N 
ATOM     59  N   UNL A   1      43.318  29.572  28.758  1.00  0.00    -0.248 NA
ATOM     60  C   UNL A   1      41.673  30.896  29.750  1.00  0.00     0.031 C 
ATOM     61  C   UNL A   1      47.375  31.025  27.674  1.00  0.00     0.029 A 
ATOM     62  C   UNL A   1      46.100  30.602  28.013  1.00  0.00     0.049 A 
ATOM     63  H   UNL A   1      45.250  28.677  27.855  1.00  0.00     0.167 HD
ATOM     64  C   UNL A   1      43.800  30.870  28.900  1.00  0.00     0.074 A 
ATOM     65  C   UNL A   1      42.729  31.649  29.484  1.00  0.00     0.031 C 
ATOM     66  C   UNL A   1      45.017  31.371  28.574  1.00  0.00     0.037 A 
BRANCH  53  67
ATOM     67  C   UNL A   1      48.901  27.170  26.240  1.00  0.00     0.064 A 
ATOM     68  C   UNL A   1      49.237  27.325  24.886  1.00  0.00     0.173 A 
ATOM     69  C   UNL A   1      49.898  26.713  27.115  1.00  0.00     0.173 A 
ATOM     70  F   UNL A   1      48.314  27.738  24.003  1.00  0.00    -0.203 F 
ATOM     71  C   UNL A   1      50.510  27.006  24.423  1.00  0.00     0.198 A 
ATOM     72  C   UNL A   1      51.180  26.427  26.654  1.00  0.00     0.198 A 
ATOM     73  F   UNL A   1      49.630  26.546  28.418  1.00  0.00    -0.203 F 
ATOM     74  F   UNL A   1      50.791  27.105  23.116  1.00  0.00    -0.200 F 
ATOM     75  C   UNL A   1      51.483  26.563  25.308  1.00  0.00     0.200 A 
ATOM     76  F   UNL A   1      52.121  26.011  27.513  1.00  0.00    -0.200 F 
ATOM     77  F   UNL A   1      52.710  26.260  24.862  1.00  0.00    -0.200 F 
ENDBRANCH  53  67
BRANCH  54  78
ATOM     78  C   UNL A   1      39.705  28.735  29.810  1.00  0.00     0.064 A 
ATOM     79  C   UNL A   1      38.623  28.986  28.953  1.00  0.00     0.173 A 
ATOM     80  C   UNL A   1      39.463  28.779  31.190  1.00  0.00     0.173 A 
ATOM     81  F   UNL A   1      38.806  28.984  27.624  1.00  0.00    -0.203 F 
ATOM     82  C   UNL A   1      37.360  29.295  29.456  1.00  0.00     0.198 A 
ATOM     83  C   UNL A   1      38.193  29.055  31.692  1.00  0.00     0.198 A 
ATOM     84  F   UNL A   1      40.463  28.552  32.055  1.00  0.00    -0.203 F 
ATOM     85  F   UNL A   1      36.359  29.588  28.614  1.00  0.00    -0.200 F 
ATOM     86  C   UNL A   1      37.144  29.323  30.825  1.00  0.00     0.200 A 
ATOM     87  F   UNL A   1      37.986  29.069  33.016  1.00  0.00    -0.200 F 
ATOM     88  F   UNL A   1      35.931  29.620  31.309  1.00  0.00    -0.200 F 
ENDBRANCH  54  78
BRANCH  66  89
ATOM     89  C   UNL A   1      45.239  32.846  28.772  1.00  0.00     0.064 A 
ATOM     90  C   UNL A   1      45.715  33.374  29.981  1.00  0.00     0.173 A 
ATOM     91  C   UNL A   1      44.999  33.742  27.717  1.00  0.00     0.173 A 
ATOM     92  F   UNL A   1      45.953  32.564  31.024  1.00  0.00    -0.203 F 
ATOM     93  C   UNL A   1      45.904  34.744  30.139  1.00  0.00     0.198 A 
ATOM     94  C   UNL A   1      45.224  35.108  27.867  1.00  0.00     0.198 A 
ATOM     95  F   UNL A   1      44.555  33.291  26.534  1.00  0.00    -0.203 F 
ATOM     96  F   UNL A   1      46.301  35.231  31.324  1.00  0.00    -0.200 F 
ATOM     97  C   UNL A   1      45.664  35.609  29.082  1.00  0.00     0.200 A 
ATOM     98  F   UNL A   1      45.010  35.938  26.837  1.00  0.00    -0.200 F 
ATOM     99  F   UNL A   1      45.851  36.927  29.236  1.00  0.00    -0.200 F 
ENDBRANCH  66  89
ENDBRANCH  40  41
ENDBRANCH  33  35
ENDBRANCH  32  33
ENDBRANCH  31  32
ENDBRANCH  30  31
ENDBRANCH  29  30
ENDBRANCH  28  29
ENDBRANCH  27  28
ENDBRANCH  26  27
ENDBRANCH   1  26
TORSDOF 24
ENDMDL
