MODEL 1
REMARK VINA RESULT:      -9.2      0.000      0.000
REMARK SMILES CC(C)[C@](C)(CC(=O)NC#N)C(=O)OCCOCCOCCOCCOC(=O)c1ccc(-c2c3nc(c(-c4c(F)c(F)c(F)c(F)c4F)c4ccc([nH]4)c(-c4c(F)c(F)c(F)c(F)c4F)c4nc(c(-c5c(F)c(F)c(F)c(F)c5F)c5ccc2[nH]5)C=C4)C=C3)cc1
REMARK SMILES IDX 19 1 18 2 17 3 16 4 15 5 14 6 12 7 13 8 4 9 5 10 2 11 1 12
REMARK SMILES IDX 3 13 6 14 7 15 8 16 9 17 10 19 11 20 20 21 21 22 22 23 23 24
REMARK SMILES IDX 24 25 25 26 26 27 27 28 28 29 29 30 30 31 91 32 31 33 90 34
REMARK SMILES IDX 32 35 33 36 34 37 84 38 35 39 89 40 83 41 85 42 36 43 88 44
REMARK SMILES IDX 82 45 81 46 37 48 69 49 49 50 68 51 50 52 53 53 67 54 86 55
REMARK SMILES IDX 51 56 52 57 66 59 87 60 54 61 38 62 39 63 47 64 40 65 41 66
REMARK SMILES IDX 45 67 48 68 42 69 43 70 46 71 44 72 70 73 71 74 79 75 72 76
REMARK SMILES IDX 73 77 77 78 80 79 74 80 75 81 78 82 76 83 55 84 56 85 64 86
REMARK SMILES IDX 57 87 58 88 62 89 65 90 59 91 60 92 63 93 61 94
REMARK H PARENT 9 18 85 47 53 58
REMARK Flexibility Score: inf
ROOT
ATOM      1  C   UNL A   1      34.378  32.238  28.974  1.00  0.00     0.188 C 
ENDROOT
BRANCH   1   2
ATOM      2  C   UNL A   1      33.595  31.475  27.908  1.00  0.00     0.188 C 
BRANCH   2   3
ATOM      3  O   UNL A   1      34.164  30.265  27.488  1.00  0.00    -0.376 OA
BRANCH   3   4
ATOM      4  C   UNL A   1      34.041  29.758  26.180  1.00  0.00     0.202 C 
BRANCH   4   5
ATOM      5  C   UNL A   1      33.651  28.313  25.801  1.00  0.00     0.261 C 
BRANCH   5   6
ATOM      6  O   UNL A   1      33.225  27.383  26.813  1.00  0.00    -0.463 OA
BRANCH   6   7
ATOM      7  C   UNL A   1      31.899  27.089  26.777  1.00  0.00     0.312 C 
ATOM      8  O   UNL A   1      31.066  27.767  27.374  1.00  0.00    -0.252 OA
BRANCH   7   9
ATOM      9  C   UNL A   1      31.504  25.817  25.964  1.00  0.00     0.076 C 
ATOM     10  C   UNL A   1      30.011  25.629  26.261  1.00  0.00     0.024 C 
BRANCH   9  11
ATOM     11  C   UNL A   1      32.380  24.652  26.598  1.00  0.00     0.000 C 
ATOM     12  C   UNL A   1      31.602  23.328  26.739  1.00  0.00     0.008 C 
ATOM     13  C   UNL A   1      33.707  24.389  25.882  1.00  0.00     0.008 C 
ENDBRANCH   9  11
BRANCH   9  14
ATOM     14  C   UNL A   1      31.757  25.732  24.409  1.00  0.00     0.119 C 
BRANCH  14  15
ATOM     15  C   UNL A   1      31.275  24.707  23.359  1.00  0.00     0.234 C 
ATOM     16  O   UNL A   1      30.075  24.707  23.046  1.00  0.00    -0.274 OA
ATOM     17  N   UNL A   1      32.042  23.877  22.616  1.00  0.00    -0.263 N 
ATOM     18  H   UNL A   1      31.471  23.317  22.042  1.00  0.00     0.182 HD
BRANCH  17  19
ATOM     19  C   UNL A   1      33.323  23.577  22.414  1.00  0.00     0.183 C 
ATOM     20  N   UNL A   1      34.427  23.325  22.159  1.00  0.00    -0.172 NA
ENDBRANCH  17  19
ENDBRANCH  14  15
ENDBRANCH   9  14
ENDBRANCH   7   9
ENDBRANCH   6   7
ENDBRANCH   5   6
ENDBRANCH   4   5
ENDBRANCH   3   4
ENDBRANCH   2   3
ENDBRANCH   1   2
BRANCH   1  21
ATOM     21  O   UNL A   1      34.476  33.640  29.091  1.00  0.00    -0.377 OA
BRANCH  21  22
ATOM     22  C   UNL A   1      33.326  34.447  28.995  1.00  0.00     0.188 C 
BRANCH  22  23
ATOM     23  C   UNL A   1      33.196  35.512  30.090  1.00  0.00     0.188 C 
BRANCH  23  24
ATOM     24  O   UNL A   1      32.809  35.138  31.398  1.00  0.00    -0.376 OA
BRANCH  24  25
ATOM     25  C   UNL A   1      33.746  34.812  32.406  1.00  0.00     0.202 C 
BRANCH  25  26
ATOM     26  C   UNL A   1      34.086  33.392  32.895  1.00  0.00     0.261 C 
BRANCH  26  27
ATOM     27  O   UNL A   1      35.143  32.683  32.255  1.00  0.00    -0.460 OA
BRANCH  27  28
ATOM     28  C   UNL A   1      36.362  32.827  32.815  1.00  0.00     0.338 C 
ATOM     29  O   UNL A   1      36.643  33.395  33.854  1.00  0.00    -0.246 OA
BRANCH  28  30
ATOM     30  C   UNL A   1      37.318  32.026  32.028  1.00  0.00     0.060 A 
ATOM     31  C   UNL A   1      38.187  31.158  32.700  1.00  0.00     0.016 A 
ATOM     32  C   UNL A   1      37.374  32.160  30.640  1.00  0.00     0.016 A 
ATOM     33  C   UNL A   1      39.139  30.438  31.992  1.00  0.00     0.010 A 
ATOM     34  C   UNL A   1      38.357  31.467  29.932  1.00  0.00     0.010 A 
ATOM     35  C   UNL A   1      39.264  30.635  30.613  1.00  0.00    -0.014 A 
BRANCH  35  36
ATOM     36  C   UNL A   1      40.476  30.137  29.931  1.00  0.00     0.031 A 
ATOM     37  C   UNL A   1      41.619  31.089  29.733  1.00  0.00     0.074 A 
ATOM     38  C   UNL A   1      40.568  28.855  29.544  1.00  0.00     0.049 A 
ATOM     39  N   UNL A   1      42.757  30.904  29.115  1.00  0.00    -0.248 NA
ATOM     40  C   UNL A   1      41.456  32.435  30.308  1.00  0.00     0.031 C 
ATOM     41  C   UNL A   1      39.543  27.835  29.751  1.00  0.00     0.029 A 
ATOM     42  N   UNL A   1      41.577  28.197  28.888  1.00  0.00    -0.354 N 
ATOM     43  C   UNL A   1      43.434  32.113  29.211  1.00  0.00     0.074 A 
ATOM     44  C   UNL A   1      42.571  33.033  29.918  1.00  0.00     0.031 C 
ATOM     45  C   UNL A   1      39.970  26.678  29.217  1.00  0.00     0.029 A 
ATOM     46  C   UNL A   1      41.275  26.892  28.594  1.00  0.00     0.049 A 
ATOM     47  H   UNL A   1      42.434  28.620  28.651  1.00  0.00     0.167 HD
ATOM     48  C   UNL A   1      44.669  32.420  28.752  1.00  0.00     0.037 A 
ATOM     49  C   UNL A   1      41.965  25.988  27.872  1.00  0.00     0.037 A 
ATOM     50  C   UNL A   1      45.514  31.493  28.047  1.00  0.00     0.049 A 
ATOM     51  C   UNL A   1      43.298  26.388  27.289  1.00  0.00     0.074 A 
ATOM     52  C   UNL A   1      46.788  31.694  27.549  1.00  0.00     0.029 A 
ATOM     53  N   UNL A   1      45.158  30.189  27.727  1.00  0.00    -0.354 N 
ATOM     54  N   UNL A   1      43.945  27.524  27.394  1.00  0.00    -0.248 NA
ATOM     55  C   UNL A   1      43.999  25.373  26.489  1.00  0.00     0.031 C 
ATOM     56  C   UNL A   1      47.171  30.541  26.858  1.00  0.00     0.029 A 
ATOM     57  C   UNL A   1      46.175  29.588  27.002  1.00  0.00     0.049 A 
ATOM     58  H   UNL A   1      44.310  29.756  27.976  1.00  0.00     0.167 HD
ATOM     59  C   UNL A   1      45.142  27.350  26.709  1.00  0.00     0.074 A 
ATOM     60  C   UNL A   1      45.136  25.992  26.205  1.00  0.00     0.031 C 
ATOM     61  C   UNL A   1      46.155  28.231  26.516  1.00  0.00     0.037 A 
BRANCH  48  62
ATOM     62  C   UNL A   1      45.160  33.826  28.955  1.00  0.00     0.064 A 
ATOM     63  C   UNL A   1      44.906  34.847  28.027  1.00  0.00     0.173 A 
ATOM     64  C   UNL A   1      45.876  34.160  30.115  1.00  0.00     0.173 A 
ATOM     65  F   UNL A   1      44.239  34.581  26.895  1.00  0.00    -0.203 F 
ATOM     66  C   UNL A   1      45.377  36.141  28.239  1.00  0.00     0.198 A 
ATOM     67  C   UNL A   1      46.310  35.463  30.342  1.00  0.00     0.198 A 
ATOM     68  F   UNL A   1      46.146  33.224  31.038  1.00  0.00    -0.203 F 
ATOM     69  F   UNL A   1      45.172  37.087  27.312  1.00  0.00    -0.200 F 
ATOM     70  C   UNL A   1      46.069  36.450  29.400  1.00  0.00     0.200 A 
ATOM     71  F   UNL A   1      46.963  35.762  31.474  1.00  0.00    -0.200 F 
ATOM     72  F   UNL A   1      46.511  37.698  29.607  1.00  0.00    -0.200 F 
ENDBRANCH  48  62
BRANCH  49  73
ATOM     73  C   UNL A   1      41.405  24.631  27.639  1.00  0.00     0.064 A 
ATOM     74  C   UNL A   1      41.994  23.497  28.214  1.00  0.00     0.173 A 
ATOM     75  C   UNL A   1      40.284  24.437  26.817  1.00  0.00     0.173 A 
ATOM     76  F   UNL A   1      43.079  23.627  28.992  1.00  0.00    -0.203 F 
ATOM     77  C   UNL A   1      41.504  22.219  27.950  1.00  0.00     0.198 A 
ATOM     78  C   UNL A   1      39.773  23.162  26.585  1.00  0.00     0.198 A 
ATOM     79  F   UNL A   1      39.680  25.487  26.242  1.00  0.00    -0.203 F 
ATOM     80  F   UNL A   1      42.125  21.149  28.464  1.00  0.00    -0.200 F 
ATOM     81  C   UNL A   1      40.390  22.053  27.142  1.00  0.00     0.200 A 
ATOM     82  F   UNL A   1      38.684  23.009  25.819  1.00  0.00    -0.200 F 
ATOM     83  F   UNL A   1      39.918  20.825  26.892  1.00  0.00    -0.200 F 
ENDBRANCH  49  73
BRANCH  61  84
ATOM     84  C   UNL A   1      47.369  27.740  25.775  1.00  0.00     0.064 A 
ATOM     85  C   UNL A   1      48.485  27.211  26.441  1.00  0.00     0.173 A 
ATOM     86  C   UNL A   1      47.394  27.764  24.371  1.00  0.00     0.173 A 
ATOM     87  F   UNL A   1      48.518  27.174  27.781  1.00  0.00    -0.203 F 
ATOM     88  C   UNL A   1      49.594  26.760  25.729  1.00  0.00     0.198 A 
ATOM     89  C   UNL A   1      48.487  27.271  23.663  1.00  0.00     0.198 A 
ATOM     90  F   UNL A   1      46.350  28.248  23.682  1.00  0.00    -0.203 F 
ATOM     91  F   UNL A   1      50.675  26.319  26.390  1.00  0.00    -0.200 F 
ATOM     92  C   UNL A   1      49.591  26.782  24.343  1.00  0.00     0.200 A 
ATOM     93  F   UNL A   1      48.470  27.271  22.323  1.00  0.00    -0.200 F 
ATOM     94  F   UNL A   1      50.656  26.337  23.661  1.00  0.00    -0.200 F 
ENDBRANCH  61  84
ENDBRANCH  35  36
ENDBRANCH  28  30
ENDBRANCH  27  28
ENDBRANCH  26  27
ENDBRANCH  25  26
ENDBRANCH  24  25
ENDBRANCH  23  24
ENDBRANCH  22  23
ENDBRANCH  21  22
ENDBRANCH   1  21
TORSDOF 24
ENDMDL
MODEL 2
REMARK VINA RESULT:      -8.7      5.660     10.557
REMARK SMILES CC(C)[C@](C)(CC(=O)NC#N)C(=O)OCCOCCOCCOCCOC(=O)c1ccc(-c2c3nc(c(-c4c(F)c(F)c(F)c(F)c4F)c4ccc([nH]4)c(-c4c(F)c(F)c(F)c(F)c4F)c4nc(c(-c5c(F)c(F)c(F)c(F)c5F)c5ccc2[nH]5)C=C4)C=C3)cc1
REMARK SMILES IDX 19 1 18 2 17 3 16 4 15 5 14 6 12 7 13 8 4 9 5 10 2 11 1 12
REMARK SMILES IDX 3 13 6 14 7 15 8 16 9 17 10 19 11 20 20 21 21 22 22 23 23 24
REMARK SMILES IDX 24 25 25 26 26 27 27 28 28 29 29 30 30 31 91 32 31 33 90 34
REMARK SMILES IDX 32 35 33 36 34 37 84 38 35 39 89 40 83 41 85 42 36 43 88 44
REMARK SMILES IDX 82 45 81 46 37 48 69 49 49 50 68 51 50 52 53 53 67 54 86 55
REMARK SMILES IDX 51 56 52 57 66 59 87 60 54 61 38 62 39 63 47 64 40 65 41 66
REMARK SMILES IDX 45 67 48 68 42 69 43 70 46 71 44 72 70 73 71 74 79 75 72 76
REMARK SMILES IDX 73 77 77 78 80 79 74 80 75 81 78 82 76 83 55 84 56 85 64 86
REMARK SMILES IDX 57 87 58 88 62 89 65 90 59 91 60 92 63 93 61 94
REMARK H PARENT 9 18 85 47 53 58
REMARK Flexibility Score: inf
ROOT
ATOM      1  C   UNL A   1      40.580  25.410  26.623  1.00  0.00     0.188 C 
ENDROOT
BRANCH   1   2
ATOM      2  C   UNL A   1      40.574  23.978  27.151  1.00  0.00     0.188 C 
BRANCH   2   3
ATOM      3  O   UNL A   1      39.309  23.402  27.327  1.00  0.00    -0.376 OA
BRANCH   3   4
ATOM      4  C   UNL A   1      38.542  22.866  26.274  1.00  0.00     0.202 C 
BRANCH   4   5
ATOM      5  C   UNL A   1      37.513  23.637  25.419  1.00  0.00     0.261 C 
BRANCH   5   6
ATOM      6  O   UNL A   1      36.134  23.708  25.824  1.00  0.00    -0.463 OA
BRANCH   6   7
ATOM      7  C   UNL A   1      35.297  22.926  25.093  1.00  0.00     0.312 C 
ATOM      8  O   UNL A   1      35.705  21.968  24.441  1.00  0.00    -0.252 OA
BRANCH   7   9
ATOM      9  C   UNL A   1      33.793  23.342  25.102  1.00  0.00     0.076 C 
ATOM     10  C   UNL A   1      33.823  24.857  25.341  1.00  0.00     0.024 C 
BRANCH   9  11
ATOM     11  C   UNL A   1      33.173  22.565  26.342  1.00  0.00     0.000 C 
ATOM     12  C   UNL A   1      34.226  22.199  27.406  1.00  0.00     0.008 C 
ATOM     13  C   UNL A   1      31.994  23.273  27.014  1.00  0.00     0.008 C 
ENDBRANCH   9  11
BRANCH   9  14
ATOM     14  C   UNL A   1      32.848  23.009  23.884  1.00  0.00     0.119 C 
BRANCH  14  15
ATOM     15  C   UNL A   1      31.701  23.820  23.240  1.00  0.00     0.234 C 
ATOM     16  O   UNL A   1      30.539  23.585  23.605  1.00  0.00    -0.274 OA
ATOM     17  N   UNL A   1      31.818  24.877  22.405  1.00  0.00    -0.263 N 
ATOM     18  H   UNL A   1      30.925  25.188  22.132  1.00  0.00     0.182 HD
BRANCH  17  19
ATOM     19  C   UNL A   1      32.756  25.631  21.837  1.00  0.00     0.183 C 
ATOM     20  N   UNL A   1      33.608  26.221  21.313  1.00  0.00    -0.172 NA
ENDBRANCH  17  19
ENDBRANCH  14  15
ENDBRANCH   9  14
ENDBRANCH   7   9
ENDBRANCH   6   7
ENDBRANCH   5   6
ENDBRANCH   4   5
ENDBRANCH   3   4
ENDBRANCH   2   3
ENDBRANCH   1   2
BRANCH   1  21
ATOM     21  O   UNL A   1      41.054  25.832  25.363  1.00  0.00    -0.377 OA
BRANCH  21  22
ATOM     22  C   UNL A   1      42.340  26.390  25.234  1.00  0.00     0.188 C 
BRANCH  22  23
ATOM     23  C   UNL A   1      43.472  25.365  25.098  1.00  0.00     0.188 C 
BRANCH  23  24
ATOM     24  O   UNL A   1      43.171  24.009  24.832  1.00  0.00    -0.376 OA
BRANCH  24  25
ATOM     25  C   UNL A   1      44.155  23.074  24.435  1.00  0.00     0.202 C 
BRANCH  25  26
ATOM     26  C   UNL A   1      45.437  22.729  25.214  1.00  0.00     0.261 C 
BRANCH  26  27
ATOM     27  O   UNL A   1      45.430  22.854  26.633  1.00  0.00    -0.460 OA
BRANCH  27  28
ATOM     28  C   UNL A   1      46.187  23.853  27.132  1.00  0.00     0.338 C 
ATOM     29  O   UNL A   1      47.374  24.052  26.949  1.00  0.00    -0.246 OA
BRANCH  28  30
ATOM     30  C   UNL A   1      45.292  24.792  27.832  1.00  0.00     0.060 A 
ATOM     31  C   UNL A   1      45.577  26.162  27.782  1.00  0.00     0.016 A 
ATOM     32  C   UNL A   1      44.200  24.316  28.558  1.00  0.00     0.016 A 
ATOM     33  C   UNL A   1      44.788  27.064  28.483  1.00  0.00     0.010 A 
ATOM     34  C   UNL A   1      43.431  25.217  29.295  1.00  0.00     0.010 A 
ATOM     35  C   UNL A   1      43.749  26.588  29.287  1.00  0.00    -0.014 A 
BRANCH  35  36
ATOM     36  C   UNL A   1      43.141  27.499  30.278  1.00  0.00     0.031 A 
ATOM     37  C   UNL A   1      43.816  27.649  31.611  1.00  0.00     0.074 A 
ATOM     38  C   UNL A   1      42.044  28.211  29.975  1.00  0.00     0.049 A 
ATOM     39  N   UNL A   1      43.445  28.339  32.657  1.00  0.00    -0.248 NA
ATOM     40  C   UNL A   1      45.081  26.916  31.788  1.00  0.00     0.031 C 
ATOM     41  C   UNL A   1      41.353  28.190  28.688  1.00  0.00     0.029 A 
ATOM     42  N   UNL A   1      41.317  29.087  30.738  1.00  0.00    -0.354 N 
ATOM     43  C   UNL A   1      44.419  28.109  33.620  1.00  0.00     0.074 A 
ATOM     44  C   UNL A   1      45.380  27.193  33.047  1.00  0.00     0.031 C 
ATOM     45  C   UNL A   1      40.289  29.007  28.754  1.00  0.00     0.029 A 
ATOM     46  C   UNL A   1      40.201  29.569  30.101  1.00  0.00     0.049 A 
ATOM     47  H   UNL A   1      41.569  29.345  31.654  1.00  0.00     0.167 HD
ATOM     48  C   UNL A   1      44.501  28.624  34.869  1.00  0.00     0.037 A 
ATOM     49  C   UNL A   1      39.208  30.348  30.571  1.00  0.00     0.037 A 
ATOM     50  C   UNL A   1      43.532  29.532  35.424  1.00  0.00     0.049 A 
ATOM     51  C   UNL A   1      39.275  30.831  31.998  1.00  0.00     0.074 A 
ATOM     52  C   UNL A   1      43.524  30.126  36.673  1.00  0.00     0.029 A 
ATOM     53  N   UNL A   1      42.390  29.966  34.766  1.00  0.00    -0.354 N 
ATOM     54  N   UNL A   1      40.203  30.627  32.902  1.00  0.00    -0.248 NA
ATOM     55  C   UNL A   1      38.154  31.657  32.469  1.00  0.00     0.031 C 
ATOM     56  C   UNL A   1      42.338  30.853  36.800  1.00  0.00     0.029 A 
ATOM     57  C   UNL A   1      41.649  30.789  35.599  1.00  0.00     0.049 A 
ATOM     58  H   UNL A   1      42.142  29.725  33.844  1.00  0.00     0.167 HD
ATOM     59  C   UNL A   1      39.801  31.329  34.032  1.00  0.00     0.074 A 
ATOM     60  C   UNL A   1      38.550  31.975  33.693  1.00  0.00     0.031 C 
ATOM     61  C   UNL A   1      40.409  31.431  35.240  1.00  0.00     0.037 A 
BRANCH  48  62
ATOM     62  C   UNL A   1      45.647  28.181  35.733  1.00  0.00     0.064 A 
ATOM     63  C   UNL A   1      46.868  28.872  35.767  1.00  0.00     0.173 A 
ATOM     64  C   UNL A   1      45.509  27.058  36.563  1.00  0.00     0.173 A 
ATOM     65  F   UNL A   1      47.060  29.943  34.983  1.00  0.00    -0.203 F 
ATOM     66  C   UNL A   1      47.916  28.436  36.574  1.00  0.00     0.198 A 
ATOM     67  C   UNL A   1      46.544  26.649  37.399  1.00  0.00     0.198 A 
ATOM     68  F   UNL A   1      44.363  26.360  36.574  1.00  0.00    -0.203 F 
ATOM     69  F   UNL A   1      49.092  29.078  36.547  1.00  0.00    -0.200 F 
ATOM     70  C   UNL A   1      47.749  27.332  37.397  1.00  0.00     0.200 A 
ATOM     71  F   UNL A   1      46.374  25.592  38.206  1.00  0.00    -0.200 F 
ATOM     72  F   UNL A   1      48.755  26.921  38.182  1.00  0.00    -0.200 F 
ENDBRANCH  48  62
BRANCH  49  73
ATOM     73  C   UNL A   1      38.059  30.702  29.697  1.00  0.00     0.064 A 
ATOM     74  C   UNL A   1      37.949  31.978  29.127  1.00  0.00     0.173 A 
ATOM     75  C   UNL A   1      37.033  29.782  29.434  1.00  0.00     0.173 A 
ATOM     76  F   UNL A   1      38.894  32.901  29.363  1.00  0.00    -0.203 F 
ATOM     77  C   UNL A   1      36.843  32.329  28.355  1.00  0.00     0.198 A 
ATOM     78  C   UNL A   1      35.947  30.122  28.631  1.00  0.00     0.198 A 
ATOM     79  F   UNL A   1      37.087  28.546  29.953  1.00  0.00    -0.203 F 
ATOM     80  F   UNL A   1      36.735  33.576  27.875  1.00  0.00    -0.200 F 
ATOM     81  C   UNL A   1      35.846  31.399  28.102  1.00  0.00     0.200 A 
ATOM     82  F   UNL A   1      34.996  29.214  28.373  1.00  0.00    -0.200 F 
ATOM     83  F   UNL A   1      34.786  31.737  27.357  1.00  0.00    -0.200 F 
ENDBRANCH  49  73
BRANCH  61  84
ATOM     84  C   UNL A   1      39.763  32.319  36.269  1.00  0.00     0.064 A 
ATOM     85  C   UNL A   1      40.208  33.628  36.508  1.00  0.00     0.173 A 
ATOM     86  C   UNL A   1      38.653  31.861  36.998  1.00  0.00     0.173 A 
ATOM     87  F   UNL A   1      41.270  34.113  35.849  1.00  0.00    -0.203 F 
ATOM     88  C   UNL A   1      39.589  34.430  37.465  1.00  0.00     0.198 A 
ATOM     89  C   UNL A   1      38.010  32.681  37.921  1.00  0.00     0.198 A 
ATOM     90  F   UNL A   1      38.178  30.622  36.801  1.00  0.00    -0.203 F 
ATOM     91  F   UNL A   1      40.072  35.654  37.722  1.00  0.00    -0.200 F 
ATOM     92  C   UNL A   1      38.486  33.960  38.162  1.00  0.00     0.200 A 
ATOM     93  F   UNL A   1      36.931  32.233  38.575  1.00  0.00    -0.200 F 
ATOM     94  F   UNL A   1      37.886  34.738  39.073  1.00  0.00    -0.200 F 
ENDBRANCH  61  84
ENDBRANCH  35  36
ENDBRANCH  28  30
ENDBRANCH  27  28
ENDBRANCH  26  27
ENDBRANCH  25  26
ENDBRANCH  24  25
ENDBRANCH  23  24
ENDBRANCH  22  23
ENDBRANCH  21  22
ENDBRANCH   1  21
TORSDOF 24
ENDMDL
MODEL 3
REMARK VINA RESULT:      -8.6      5.852     12.780
REMARK SMILES CC(C)[C@](C)(CC(=O)NC#N)C(=O)OCCOCCOCCOCCOC(=O)c1ccc(-c2c3nc(c(-c4c(F)c(F)c(F)c(F)c4F)c4ccc([nH]4)c(-c4c(F)c(F)c(F)c(F)c4F)c4nc(c(-c5c(F)c(F)c(F)c(F)c5F)c5ccc2[nH]5)C=C4)C=C3)cc1
REMARK SMILES IDX 19 1 18 2 17 3 16 4 15 5 14 6 12 7 13 8 4 9 5 10 2 11 1 12
REMARK SMILES IDX 3 13 6 14 7 15 8 16 9 17 10 19 11 20 20 21 21 22 22 23 23 24
REMARK SMILES IDX 24 25 25 26 26 27 27 28 28 29 29 30 30 31 91 32 31 33 90 34
REMARK SMILES IDX 32 35 33 36 34 37 84 38 35 39 89 40 83 41 85 42 36 43 88 44
REMARK SMILES IDX 82 45 81 46 37 48 69 49 49 50 68 51 50 52 53 53 67 54 86 55
REMARK SMILES IDX 51 56 52 57 66 59 87 60 54 61 38 62 39 63 47 64 40 65 41 66
REMARK SMILES IDX 45 67 48 68 42 69 43 70 46 71 44 72 70 73 71 74 79 75 72 76
REMARK SMILES IDX 73 77 77 78 80 79 74 80 75 81 78 82 76 83 55 84 56 85 64 86
REMARK SMILES IDX 57 87 58 88 62 89 65 90 59 91 60 92 63 93 61 94
REMARK H PARENT 9 18 85 47 53 58
REMARK Flexibility Score: inf
ROOT
ATOM      1  C   UNL A   1      45.936  30.562  26.351  1.00  0.00     0.188 C 
ENDROOT
BRANCH   1   2
ATOM      2  C   UNL A   1      45.377  31.013  27.699  1.00  0.00     0.188 C 
BRANCH   2   3
ATOM      3  O   UNL A   1      45.642  32.343  28.049  1.00  0.00    -0.376 OA
BRANCH   3   4
ATOM      4  C   UNL A   1      45.418  33.436  27.189  1.00  0.00     0.202 C 
BRANCH   4   5
ATOM      5  C   UNL A   1      45.361  34.921  27.607  1.00  0.00     0.261 C 
BRANCH   5   6
ATOM      6  O   UNL A   1      44.945  35.928  26.666  1.00  0.00    -0.463 OA
BRANCH   6   7
ATOM      7  C   UNL A   1      43.606  36.158  26.652  1.00  0.00     0.312 C 
ATOM      8  O   UNL A   1      42.813  35.357  26.163  1.00  0.00    -0.252 OA
BRANCH   7   9
ATOM      9  C   UNL A   1      43.141  37.518  27.260  1.00  0.00     0.076 C 
ATOM     10  C   UNL A   1      44.395  38.400  27.213  1.00  0.00     0.024 C 
BRANCH   9  11
ATOM     11  C   UNL A   1      42.727  37.165  28.754  1.00  0.00     0.000 C 
ATOM     12  C   UNL A   1      41.947  35.840  28.861  1.00  0.00     0.008 C 
ATOM     13  C   UNL A   1      43.889  37.154  29.751  1.00  0.00     0.008 C 
ENDBRANCH   9  11
BRANCH   9  14
ATOM     14  C   UNL A   1      41.910  38.301  26.660  1.00  0.00     0.119 C 
BRANCH  14  15
ATOM     15  C   UNL A   1      41.524  39.795  26.738  1.00  0.00     0.234 C 
ATOM     16  O   UNL A   1      40.889  40.288  25.794  1.00  0.00    -0.274 OA
ATOM     17  N   UNL A   1      41.676  40.623  27.796  1.00  0.00    -0.263 N 
ATOM     18  H   UNL A   1      41.363  41.526  27.563  1.00  0.00     0.182 HD
BRANCH  17  19
ATOM     19  C   UNL A   1      42.114  40.604  29.053  1.00  0.00     0.183 C 
ATOM     20  N   UNL A   1      42.547  40.648  30.129  1.00  0.00    -0.172 NA
ENDBRANCH  17  19
ENDBRANCH  14  15
ENDBRANCH   9  14
ENDBRANCH   7   9
ENDBRANCH   6   7
ENDBRANCH   5   6
ENDBRANCH   4   5
ENDBRANCH   3   4
ENDBRANCH   2   3
ENDBRANCH   1   2
BRANCH   1  21
ATOM     21  O   UNL A   1      45.693  29.322  25.722  1.00  0.00    -0.377 OA
BRANCH  21  22
ATOM     22  C   UNL A   1      46.752  28.592  25.151  1.00  0.00     0.188 C 
BRANCH  22  23
ATOM     23  C   UNL A   1      47.034  27.242  25.821  1.00  0.00     0.188 C 
BRANCH  23  24
ATOM     24  O   UNL A   1      47.394  26.124  25.033  1.00  0.00    -0.376 OA
BRANCH  24  25
ATOM     25  C   UNL A   1      47.102  24.794  25.419  1.00  0.00     0.202 C 
BRANCH  25  26
ATOM     26  C   UNL A   1      45.834  24.006  25.045  1.00  0.00     0.261 C 
BRANCH  26  27
ATOM     27  O   UNL A   1      44.699  24.722  24.565  1.00  0.00    -0.460 OA
BRANCH  27  28
ATOM     28  C   UNL A   1      43.500  24.201  24.898  1.00  0.00     0.338 C 
ATOM     29  O   UNL A   1      43.070  23.093  24.637  1.00  0.00    -0.246 OA
BRANCH  28  30
ATOM     30  C   UNL A   1      42.826  25.158  25.795  1.00  0.00     0.060 A 
ATOM     31  C   UNL A   1      43.374  26.436  25.957  1.00  0.00     0.016 A 
ATOM     32  C   UNL A   1      41.678  24.780  26.493  1.00  0.00     0.016 A 
ATOM     33  C   UNL A   1      42.797  27.336  26.841  1.00  0.00     0.010 A 
ATOM     34  C   UNL A   1      41.121  25.670  27.412  1.00  0.00     0.010 A 
ATOM     35  C   UNL A   1      41.703  26.935  27.613  1.00  0.00    -0.014 A 
BRANCH  35  36
ATOM     36  C   UNL A   1      41.312  27.759  28.774  1.00  0.00     0.031 A 
ATOM     37  C   UNL A   1      42.119  27.637  30.035  1.00  0.00     0.074 A 
ATOM     38  C   UNL A   1      40.293  28.629  28.688  1.00  0.00     0.049 A 
ATOM     39  N   UNL A   1      41.938  28.210  31.196  1.00  0.00    -0.248 NA
ATOM     40  C   UNL A   1      43.289  26.746  29.976  1.00  0.00     0.031 C 
ATOM     41  C   UNL A   1      39.491  28.873  27.491  1.00  0.00     0.029 A 
ATOM     42  N   UNL A   1      39.758  29.466  29.633  1.00  0.00    -0.354 N 
ATOM     43  C   UNL A   1      42.957  27.732  32.009  1.00  0.00     0.074 A 
ATOM     44  C   UNL A   1      43.735  26.803  31.221  1.00  0.00     0.031 C 
ATOM     45  C   UNL A   1      38.552  29.790  27.779  1.00  0.00     0.029 A 
ATOM     46  C   UNL A   1      38.661  30.160  29.189  1.00  0.00     0.049 A 
ATOM     47  H   UNL A   1      40.125  29.559  30.542  1.00  0.00     0.167 HD
ATOM     48  C   UNL A   1      43.218  28.051  33.298  1.00  0.00     0.037 A 
ATOM     49  C   UNL A   1      37.824  30.973  29.861  1.00  0.00     0.037 A 
ATOM     50  C   UNL A   1      42.431  28.976  34.070  1.00  0.00     0.049 A 
ATOM     51  C   UNL A   1      38.083  31.236  31.324  1.00  0.00     0.074 A 
ATOM     52  C   UNL A   1      42.614  29.382  35.378  1.00  0.00     0.029 A 
ATOM     53  N   UNL A   1      41.299  29.629  33.601  1.00  0.00    -0.354 N 
ATOM     54  N   UNL A   1      39.056  30.799  32.088  1.00  0.00    -0.248 NA
ATOM     55  C   UNL A   1      37.127  32.110  32.016  1.00  0.00     0.031 C 
ATOM     56  C   UNL A   1      41.548  30.216  35.727  1.00  0.00     0.029 A 
ATOM     57  C   UNL A   1      40.750  30.404  34.609  1.00  0.00     0.049 A 
ATOM     58  H   UNL A   1      40.939  29.553  32.688  1.00  0.00     0.167 HD
ATOM     59  C   UNL A   1      38.852  31.374  33.336  1.00  0.00     0.074 A 
ATOM     60  C   UNL A   1      37.670  32.201  33.222  1.00  0.00     0.031 C 
ATOM     61  C   UNL A   1      39.576  31.231  34.474  1.00  0.00     0.037 A 
BRANCH  48  62
ATOM     62  C   UNL A   1      44.372  27.359  33.968  1.00  0.00     0.064 A 
ATOM     63  C   UNL A   1      44.263  26.061  34.491  1.00  0.00     0.173 A 
ATOM     64  C   UNL A   1      45.617  27.999  34.064  1.00  0.00     0.173 A 
ATOM     65  F   UNL A   1      43.093  25.408  34.439  1.00  0.00    -0.203 F 
ATOM     66  C   UNL A   1      45.347  25.445  35.111  1.00  0.00     0.198 A 
ATOM     67  C   UNL A   1      46.709  27.365  34.649  1.00  0.00     0.198 A 
ATOM     68  F   UNL A   1      45.780  29.240  33.580  1.00  0.00    -0.203 F 
ATOM     69  F   UNL A   1      45.204  24.228  35.654  1.00  0.00    -0.200 F 
ATOM     70  C   UNL A   1      46.571  26.093  35.180  1.00  0.00     0.200 A 
ATOM     71  F   UNL A   1      47.895  27.987  34.698  1.00  0.00    -0.200 F 
ATOM     72  F   UNL A   1      47.617  25.493  35.767  1.00  0.00    -0.200 F 
ENDBRANCH  48  62
BRANCH  49  73
ATOM     73  C   UNL A   1      36.656  31.579  29.171  1.00  0.00     0.064 A 
ATOM     74  C   UNL A   1      36.613  32.951  28.888  1.00  0.00     0.173 A 
ATOM     75  C   UNL A   1      35.545  30.805  28.802  1.00  0.00     0.173 A 
ATOM     76  F   UNL A   1      37.641  33.739  29.238  1.00  0.00    -0.203 F 
ATOM     77  C   UNL A   1      35.494  33.530  28.293  1.00  0.00     0.198 A 
ATOM     78  C   UNL A   1      34.443  31.378  28.172  1.00  0.00     0.198 A 
ATOM     79  F   UNL A   1      35.532  29.486  29.046  1.00  0.00    -0.203 F 
ATOM     80  F   UNL A   1      35.457  34.854  28.092  1.00  0.00    -0.200 F 
ATOM     81  C   UNL A   1      34.412  32.742  27.930  1.00  0.00     0.200 A 
ATOM     82  F   UNL A   1      33.408  30.610  27.805  1.00  0.00    -0.200 F 
ATOM     83  F   UNL A   1      33.338  33.299  27.355  1.00  0.00    -0.200 F 
ENDBRANCH  49  73
BRANCH  61  84
ATOM     84  C   UNL A   1      39.148  32.031  35.674  1.00  0.00     0.064 A 
ATOM     85  C   UNL A   1      39.502  33.378  35.836  1.00  0.00     0.173 A 
ATOM     86  C   UNL A   1      38.332  31.445  36.657  1.00  0.00     0.173 A 
ATOM     87  F   UNL A   1      40.287  33.985  34.934  1.00  0.00    -0.203 F 
ATOM     88  C   UNL A   1      39.088  34.097  36.956  1.00  0.00     0.198 A 
ATOM     89  C   UNL A   1      37.885  32.180  37.751  1.00  0.00     0.198 A 
ATOM     90  F   UNL A   1      37.954  30.163  36.547  1.00  0.00    -0.203 F 
ATOM     91  F   UNL A   1      39.493  35.365  37.121  1.00  0.00    -0.200 F 
ATOM     92  C   UNL A   1      38.273  33.501  37.906  1.00  0.00     0.200 A 
ATOM     93  F   UNL A   1      37.078  31.607  38.655  1.00  0.00    -0.200 F 
ATOM     94  F   UNL A   1      37.867  34.198  38.976  1.00  0.00    -0.200 F 
ENDBRANCH  61  84
ENDBRANCH  35  36
ENDBRANCH  28  30
ENDBRANCH  27  28
ENDBRANCH  26  27
ENDBRANCH  25  26
ENDBRANCH  24  25
ENDBRANCH  23  24
ENDBRANCH  22  23
ENDBRANCH  21  22
ENDBRANCH   1  21
TORSDOF 24
ENDMDL
