MODEL 1
REMARK VINA RESULT:     -10.1      0.000      0.000
REMARK SMILES Cc1ccc(C2=NN(C(=O)CCC(=O)OCCOCCOCCOCCOC(=O)c3ccc(-c4c5nc(c(-c6c(F)c(F)c(F)c(F)c6F)c6ccc([nH]6)c(-c6c(F)c(F)c(F)c(F)c6F)c6nc(c(-c7c(F)c(F)c(F)c(F)c7F)c7ccc4[nH]7)C=C6)C=C5)cc3)[C@H](C[C@H]3C=c4cccc(C)c4=NC3=O)C2)cc1
REMARK SMILES IDX 19 1 18 2 17 3 16 4 15 5 13 6 14 7 12 8 11 9 9 10 10 11 8 12
REMARK SMILES IDX 6 13 7 14 107 15 93 16 5 17 1 18 2 19 3 20 109 21 4 22
REMARK SMILES IDX 108 23 94 24 95 25 96 26 105 27 97 28 104 29 106 30 98 31
REMARK SMILES IDX 103 32 99 33 101 34 100 35 102 36 20 37 21 38 22 39 23 40
REMARK SMILES IDX 24 41 25 42 26 43 27 44 28 45 29 46 30 47 31 48 92 49 32 50
REMARK SMILES IDX 91 51 33 52 34 53 35 54 85 55 36 56 90 57 84 58 86 59 37 60
REMARK SMILES IDX 89 61 83 62 82 63 38 65 70 66 50 67 69 68 51 69 54 70 68 71
REMARK SMILES IDX 87 72 52 73 53 74 67 76 88 77 55 78 39 79 40 80 48 81 41 82
REMARK SMILES IDX 42 83 46 84 49 85 43 86 44 87 47 88 45 89 71 90 72 91 80 92
REMARK SMILES IDX 73 93 74 94 78 95 81 96 75 97 76 98 79 99 77 100 56 101
REMARK SMILES IDX 57 102 65 103 58 104 59 105 63 106 66 107 60 108 61 109
REMARK SMILES IDX 64 110 62 111
REMARK H PARENT 86 64 54 75
REMARK Flexibility Score: inf
ROOT
ATOM      1  C   UNL A   1      39.529  34.409  33.153  1.00  0.00     0.188 C 
ENDROOT
BRANCH   1   2
ATOM      2  O   UNL A   1      38.297  33.786  33.559  1.00  0.00    -0.376 OA
BRANCH   2   3
ATOM      3  C   UNL A   1      37.134  34.114  32.822  1.00  0.00     0.202 C 
BRANCH   3   4
ATOM      4  C   UNL A   1      35.947  34.543  33.624  1.00  0.00     0.261 C 
BRANCH   4   5
ATOM      5  O   UNL A   1      35.539  35.825  33.094  1.00  0.00    -0.463 OA
BRANCH   5   6
ATOM      6  C   UNL A   1      34.275  36.227  33.030  1.00  0.00     0.306 C 
ATOM      7  O   UNL A   1      33.803  37.051  33.805  1.00  0.00    -0.252 OA
BRANCH   6   8
ATOM      8  C   UNL A   1      33.506  35.676  31.792  1.00  0.00     0.132 C 
BRANCH   8   9
ATOM      9  C   UNL A   1      33.771  34.806  30.424  1.00  0.00     0.114 C 
BRANCH   9  10
ATOM     10  C   UNL A   1      33.398  34.088  28.865  1.00  0.00     0.243 C 
ATOM     11  O   UNL A   1      32.762  34.932  28.193  1.00  0.00    -0.273 OA
BRANCH  10  12
ATOM     12  N   UNL A   1      33.715  32.685  28.217  1.00  0.00    -0.230 N 
ATOM     13  C   UNL A   1      33.070  30.092  26.682  1.00  0.00     0.070 C 
ATOM     14  N   UNL A   1      32.528  31.598  26.905  1.00  0.00    -0.174 NA
ATOM     15  C   UNL A   1      34.772  29.802  27.690  1.00  0.00     0.086 C 
ATOM     16  C   UNL A   1      35.314  31.540  28.573  1.00  0.00     0.118 C 
BRANCH  13  17
ATOM     17  C   UNL A   1      32.264  29.020  26.165  1.00  0.00    -0.002 A 
ATOM     18  C   UNL A   1      29.928  25.967  24.415  1.00  0.00     0.044 C 
ATOM     19  C   UNL A   1      30.673  27.070  25.093  1.00  0.00    -0.051 A 
ATOM     20  C   UNL A   1      30.983  28.219  24.348  1.00  0.00     0.004 A 
ATOM     21  C   UNL A   1      31.109  26.940  26.418  1.00  0.00     0.004 A 
ATOM     22  C   UNL A   1      31.766  29.215  24.893  1.00  0.00     0.010 A 
ATOM     23  C   UNL A   1      31.921  27.923  26.962  1.00  0.00     0.010 A 
ENDBRANCH  13  17
BRANCH  16  24
ATOM     24  C   UNL A   1      37.048  32.294  29.208  1.00  0.00     0.045 C 
BRANCH  24  25
ATOM     25  C   UNL A   1      38.622  31.361  30.043  1.00  0.00     0.106 C 
ATOM     26  C   UNL A   1      38.606  30.879  31.686  1.00  0.00    -0.003 C 
ATOM     27  C   UNL A   1      39.730  30.301  29.593  1.00  0.00     0.253 C 
ATOM     28  C   UNL A   1      39.370  30.101  32.429  1.00  0.00    -0.003 A 
ATOM     29  N   UNL A   1      40.847  30.245  30.469  1.00  0.00    -0.212 NA
ATOM     30  O   UNL A   1      39.722  29.715  28.519  1.00  0.00    -0.272 OA
ATOM     31  C   UNL A   1      39.126  30.153  33.868  1.00  0.00     0.010 A 
ATOM     32  C   UNL A   1      40.657  30.246  31.765  1.00  0.00     0.077 A 
ATOM     33  C   UNL A   1      40.090  30.629  34.658  1.00  0.00     0.001 A 
ATOM     34  C   UNL A   1      41.693  30.696  32.777  1.00  0.00    -0.025 A 
ATOM     35  C   UNL A   1      41.389  30.899  34.082  1.00  0.00     0.005 A 
ATOM     36  C   UNL A   1      42.973  31.132  32.181  1.00  0.00     0.047 C 
ENDBRANCH  24  25
ENDBRANCH  16  24
ENDBRANCH  10  12
ENDBRANCH   9  10
ENDBRANCH   8   9
ENDBRANCH   6   8
ENDBRANCH   5   6
ENDBRANCH   4   5
ENDBRANCH   3   4
ENDBRANCH   2   3
ENDBRANCH   1   2
BRANCH   1  37
ATOM     37  C   UNL A   1      40.332  34.140  31.646  1.00  0.00     0.188 C 
BRANCH  37  38
ATOM     38  O   UNL A   1      41.975  34.170  30.953  1.00  0.00    -0.377 OA
BRANCH  38  39
ATOM     39  C   UNL A   1      42.870  34.952  29.702  1.00  0.00     0.188 C 
BRANCH  39  40
ATOM     40  C   UNL A   1      42.756  36.519  29.247  1.00  0.00     0.188 C 
BRANCH  40  41
ATOM     41  O   UNL A   1      43.452  36.947  28.054  1.00  0.00    -0.376 OA
BRANCH  41  42
ATOM     42  C   UNL A   1      43.528  36.266  26.835  1.00  0.00     0.202 C 
BRANCH  42  43
ATOM     43  C   UNL A   1      44.975  36.290  26.504  1.00  0.00     0.261 C 
BRANCH  43  44
ATOM     44  O   UNL A   1      45.394  34.852  26.692  1.00  0.00    -0.460 OA
BRANCH  44  45
ATOM     45  C   UNL A   1      46.588  34.262  26.291  1.00  0.00     0.338 C 
ATOM     46  O   UNL A   1      47.171  34.684  25.294  1.00  0.00    -0.246 OA
BRANCH  45  47
ATOM     47  C   UNL A   1      47.262  33.063  27.104  1.00  0.00     0.060 A 
ATOM     48  C   UNL A   1      47.353  31.755  26.590  1.00  0.00     0.016 A 
ATOM     49  C   UNL A   1      47.652  33.078  28.431  1.00  0.00     0.016 A 
ATOM     50  C   UNL A   1      47.484  30.532  27.439  1.00  0.00     0.010 A 
ATOM     51  C   UNL A   1      47.606  31.855  29.259  1.00  0.00     0.010 A 
ATOM     52  C   UNL A   1      47.245  30.539  28.832  1.00  0.00    -0.014 A 
BRANCH  52  53
ATOM     53  C   UNL A   1      46.931  29.228  29.975  1.00  0.00     0.031 A 
ATOM     54  C   UNL A   1      45.418  29.121  29.908  1.00  0.00     0.074 A 
ATOM     55  C   UNL A   1      47.689  28.109  30.682  1.00  0.00     0.049 A 
ATOM     56  N   UNL A   1      44.747  28.185  30.450  1.00  0.00    -0.248 NA
ATOM     57  C   UNL A   1      44.544  29.906  29.017  1.00  0.00     0.031 C 
ATOM     58  C   UNL A   1      47.402  26.754  31.329  1.00  0.00     0.029 A 
ATOM     59  N   UNL A   1      49.045  27.819  30.940  1.00  0.00    -0.354 N 
ATOM     60  C   UNL A   1      43.671  27.895  29.626  1.00  0.00     0.074 A 
ATOM     61  C   UNL A   1      43.523  29.064  28.807  1.00  0.00     0.031 C 
ATOM     62  C   UNL A   1      48.390  26.128  32.049  1.00  0.00     0.029 A 
ATOM     63  C   UNL A   1      49.470  27.025  32.027  1.00  0.00     0.049 A 
ATOM     64  H   UNL A   1      49.727  28.186  30.331  1.00  0.00     0.167 HD
ATOM     65  C   UNL A   1      43.190  26.612  29.672  1.00  0.00     0.037 A 
ATOM     66  C   UNL A   1      50.093  27.627  33.079  1.00  0.00     0.037 A 
ATOM     67  C   UNL A   1      43.891  25.845  30.755  1.00  0.00     0.049 A 
ATOM     68  C   UNL A   1      48.786  28.015  33.916  1.00  0.00     0.074 A 
ATOM     69  C   UNL A   1      44.544  24.629  30.870  1.00  0.00     0.029 A 
ATOM     70  N   UNL A   1      44.221  26.523  31.938  1.00  0.00    -0.354 N 
ATOM     71  N   UNL A   1      47.557  28.065  33.404  1.00  0.00    -0.248 NA
ATOM     72  C   UNL A   1      48.672  28.006  35.372  1.00  0.00     0.031 C 
ATOM     73  C   UNL A   1      45.316  24.651  32.100  1.00  0.00     0.029 A 
ATOM     74  C   UNL A   1      45.189  25.912  32.714  1.00  0.00     0.049 A 
ATOM     75  H   UNL A   1      43.795  27.373  32.195  1.00  0.00     0.167 HD
ATOM     76  C   UNL A   1      46.667  27.460  34.268  1.00  0.00     0.074 A 
ATOM     77  C   UNL A   1      47.337  27.830  35.523  1.00  0.00     0.031 C 
ATOM     78  C   UNL A   1      45.600  26.568  33.995  1.00  0.00     0.037 A 
BRANCH  65  79
ATOM     79  C   UNL A   1      42.201  25.957  28.696  1.00  0.00     0.064 A 
ATOM     80  C   UNL A   1      42.708  25.137  27.658  1.00  0.00     0.173 A 
ATOM     81  C   UNL A   1      40.789  26.079  28.676  1.00  0.00     0.173 A 
ATOM     82  F   UNL A   1      44.021  24.905  27.540  1.00  0.00    -0.203 F 
ATOM     83  C   UNL A   1      41.903  24.493  26.711  1.00  0.00     0.198 A 
ATOM     84  C   UNL A   1      39.975  25.390  27.751  1.00  0.00     0.198 A 
ATOM     85  F   UNL A   1      40.136  26.879  29.525  1.00  0.00    -0.203 F 
ATOM     86  F   UNL A   1      42.475  23.755  25.750  1.00  0.00    -0.200 F 
ATOM     87  C   UNL A   1      40.533  24.597  26.770  1.00  0.00     0.200 A 
ATOM     88  F   UNL A   1      38.637  25.501  27.820  1.00  0.00    -0.200 F 
ATOM     89  F   UNL A   1      39.762  23.932  25.897  1.00  0.00    -0.200 F 
ENDBRANCH  65  79
BRANCH  66  90
ATOM     90  C   UNL A   1      51.174  28.449  32.356  1.00  0.00     0.064 A 
ATOM     91  C   UNL A   1      51.192  30.111  31.830  1.00  0.00     0.173 A 
ATOM     92  C   UNL A   1      52.761  27.762  32.578  1.00  0.00     0.173 A 
ATOM     93  F   UNL A   1      50.032  30.780  31.713  1.00  0.00    -0.203 F 
ATOM     94  C   UNL A   1      52.628  31.074  31.505  1.00  0.00     0.198 A 
ATOM     95  C   UNL A   1      54.391  28.952  32.192  1.00  0.00     0.198 A 
ATOM     96  F   UNL A   1      52.587  26.414  32.533  1.00  0.00    -0.203 F 
ATOM     97  F   UNL A   1      52.508  32.355  31.112  1.00  0.00    -0.200 F 
ATOM     98  C   UNL A   1      54.149  30.547  31.698  1.00  0.00     0.200 A 
ATOM     99  F   UNL A   1      55.682  28.607  31.914  1.00  0.00    -0.200 F 
ATOM    100  F   UNL A   1      55.238  31.266  31.363  1.00  0.00    -0.200 F 
ENDBRANCH  66  90
BRANCH  78 101
ATOM    101  C   UNL A   1      44.587  26.248  35.052  1.00  0.00     0.064 A 
ATOM    102  C   UNL A   1      44.731  25.182  35.915  1.00  0.00     0.173 A 
ATOM    103  C   UNL A   1      43.453  27.078  35.277  1.00  0.00     0.173 A 
ATOM    104  F   UNL A   1      45.509  24.138  35.599  1.00  0.00    -0.203 F 
ATOM    105  C   UNL A   1      44.057  25.171  37.122  1.00  0.00     0.198 A 
ATOM    106  C   UNL A   1      42.713  27.010  36.430  1.00  0.00     0.198 A 
ATOM    107  F   UNL A   1      42.994  27.990  34.413  1.00  0.00    -0.203 F 
ATOM    108  F   UNL A   1      44.394  24.261  38.042  1.00  0.00    -0.200 F 
ATOM    109  C   UNL A   1      43.073  26.106  37.394  1.00  0.00     0.200 A 
ATOM    110  F   UNL A   1      41.690  27.858  36.601  1.00  0.00    -0.200 F 
ATOM    111  F   UNL A   1      42.444  26.114  38.572  1.00  0.00    -0.200 F 
ENDBRANCH  78 101
ENDBRANCH  52  53
ENDBRANCH  45  47
ENDBRANCH  44  45
ENDBRANCH  43  44
ENDBRANCH  42  43
ENDBRANCH  41  42
ENDBRANCH  40  41
ENDBRANCH  39  40
ENDBRANCH  38  39
ENDBRANCH  37  38
ENDBRANCH   1  37
TORSDOF 26
ENDMDL
MODEL 2
REMARK VINA RESULT:     -10.1      6.610     12.043
REMARK SMILES Cc1ccc(C2=NN(C(=O)CCC(=O)OCCOCCOCCOCCOC(=O)c3ccc(-c4c5nc(c(-c6c(F)c(F)c(F)c(F)c6F)c6ccc([nH]6)c(-c6c(F)c(F)c(F)c(F)c6F)c6nc(c(-c7c(F)c(F)c(F)c(F)c7F)c7ccc4[nH]7)C=C6)C=C5)cc3)[C@H](C[C@H]3C=c4cccc(C)c4=NC3=O)C2)cc1
REMARK SMILES IDX 19 1 18 2 17 3 16 4 15 5 13 6 14 7 12 8 11 9 9 10 10 11 8 12
REMARK SMILES IDX 6 13 7 14 107 15 93 16 5 17 1 18 2 19 3 20 109 21 4 22
REMARK SMILES IDX 108 23 94 24 95 25 96 26 105 27 97 28 104 29 106 30 98 31
REMARK SMILES IDX 103 32 99 33 101 34 100 35 102 36 20 37 21 38 22 39 23 40
REMARK SMILES IDX 24 41 25 42 26 43 27 44 28 45 29 46 30 47 31 48 92 49 32 50
REMARK SMILES IDX 91 51 33 52 34 53 35 54 85 55 36 56 90 57 84 58 86 59 37 60
REMARK SMILES IDX 89 61 83 62 82 63 38 65 70 66 50 67 69 68 51 69 54 70 68 71
REMARK SMILES IDX 87 72 52 73 53 74 67 76 88 77 55 78 39 79 40 80 48 81 41 82
REMARK SMILES IDX 42 83 46 84 49 85 43 86 44 87 47 88 45 89 71 90 72 91 80 92
REMARK SMILES IDX 73 93 74 94 78 95 81 96 75 97 76 98 79 99 77 100 56 101
REMARK SMILES IDX 57 102 65 103 58 104 59 105 63 106 66 107 60 108 61 109
REMARK SMILES IDX 64 110 62 111
REMARK H PARENT 86 64 54 75
REMARK Flexibility Score: inf
ROOT
ATOM      1  C   UNL A   1      53.009  24.071  33.615  1.00  0.00     0.188 C 
ENDROOT
BRANCH   1   2
ATOM      2  O   UNL A   1      53.702  22.869  33.232  1.00  0.00    -0.376 OA
BRANCH   2   3
ATOM      3  C   UNL A   1      54.016  21.950  34.261  1.00  0.00     0.202 C 
BRANCH   3   4
ATOM      4  C   UNL A   1      53.328  20.624  34.190  1.00  0.00     0.261 C 
BRANCH   4   5
ATOM      5  O   UNL A   1      52.107  20.758  34.954  1.00  0.00    -0.463 OA
BRANCH   5   6
ATOM      6  C   UNL A   1      51.682  19.853  35.828  1.00  0.00     0.306 C 
ATOM      7  O   UNL A   1      52.055  18.686  35.805  1.00  0.00    -0.252 OA
BRANCH   6   8
ATOM      8  C   UNL A   1      50.797  20.449  36.964  1.00  0.00     0.132 C 
BRANCH   8   9
ATOM      9  C   UNL A   1      49.747  21.682  37.232  1.00  0.00     0.114 C 
BRANCH   9  10
ATOM     10  C   UNL A   1      48.867  23.163  36.888  1.00  0.00     0.243 C 
ATOM     11  O   UNL A   1      49.545  24.124  37.319  1.00  0.00    -0.273 OA
BRANCH  10  12
ATOM     12  N   UNL A   1      47.494  23.464  36.173  1.00  0.00    -0.230 N 
ATOM     13  C   UNL A   1      45.350  25.234  34.845  1.00  0.00     0.070 C 
ATOM     14  N   UNL A   1      46.925  25.211  35.206  1.00  0.00    -0.174 NA
ATOM     15  C   UNL A   1      44.482  23.514  35.378  1.00  0.00     0.086 C 
ATOM     16  C   UNL A   1      45.898  22.263  36.099  1.00  0.00     0.118 C 
BRANCH  13  17
ATOM     17  C   UNL A   1      44.614  26.433  34.548  1.00  0.00    -0.002 A 
ATOM     18  C   UNL A   1      42.508  29.921  33.432  1.00  0.00     0.044 C 
ATOM     19  C   UNL A   1      43.310  28.746  33.888  1.00  0.00    -0.051 A 
ATOM     20  C   UNL A   1      44.181  28.138  32.970  1.00  0.00     0.004 A 
ATOM     21  C   UNL A   1      43.157  28.223  35.178  1.00  0.00     0.004 A 
ATOM     22  C   UNL A   1      44.857  26.984  33.306  1.00  0.00     0.010 A 
ATOM     23  C   UNL A   1      43.810  27.047  35.514  1.00  0.00     0.010 A 
ENDBRANCH  13  17
BRANCH  16  24
ATOM     24  C   UNL A   1      46.045  20.280  36.269  1.00  0.00     0.045 C 
BRANCH  24  25
ATOM     25  C   UNL A   1      45.981  19.126  37.915  1.00  0.00     0.106 C 
ATOM     26  C   UNL A   1      44.987  17.735  37.993  1.00  0.00    -0.003 C 
ATOM     27  C   UNL A   1      47.002  18.637  39.043  1.00  0.00     0.253 C 
ATOM     28  C   UNL A   1      44.892  16.711  38.821  1.00  0.00    -0.003 A 
ATOM     29  N   UNL A   1      46.361  18.120  40.200  1.00  0.00    -0.212 NA
ATOM     30  O   UNL A   1      48.209  18.838  39.009  1.00  0.00    -0.272 OA
ATOM     31  C   UNL A   1      43.726  15.851  38.640  1.00  0.00     0.010 A 
ATOM     32  C   UNL A   1      45.339  17.311  40.069  1.00  0.00     0.077 A 
ATOM     33  C   UNL A   1      42.822  15.795  39.620  1.00  0.00     0.001 A 
ATOM     34  C   UNL A   1      44.277  17.102  41.131  1.00  0.00    -0.025 A 
ATOM     35  C   UNL A   1      43.121  16.440  40.879  1.00  0.00     0.005 A 
ATOM     36  C   UNL A   1      44.491  17.888  42.365  1.00  0.00     0.047 C 
ENDBRANCH  24  25
ENDBRANCH  16  24
ENDBRANCH  10  12
ENDBRANCH   9  10
ENDBRANCH   8   9
ENDBRANCH   6   8
ENDBRANCH   5   6
ENDBRANCH   4   5
ENDBRANCH   3   4
ENDBRANCH   2   3
ENDBRANCH   1   2
BRANCH   1  37
ATOM     37  C   UNL A   1      52.631  25.384  32.555  1.00  0.00     0.188 C 
BRANCH  37  38
ATOM     38  O   UNL A   1      53.455  26.604  31.550  1.00  0.00    -0.377 OA
BRANCH  38  39
ATOM     39  C   UNL A   1      54.605  26.704  30.267  1.00  0.00     0.188 C 
BRANCH  39  40
ATOM     40  C   UNL A   1      54.640  27.812  29.064  1.00  0.00     0.188 C 
BRANCH  40  41
ATOM     41  O   UNL A   1      55.832  27.919  28.254  1.00  0.00    -0.376 OA
BRANCH  41  42
ATOM     42  C   UNL A   1      55.894  28.119  26.872  1.00  0.00     0.202 C 
BRANCH  42  43
ATOM     43  C   UNL A   1      54.488  28.398  26.489  1.00  0.00     0.261 C 
BRANCH  43  44
ATOM     44  O   UNL A   1      54.463  28.074  25.014  1.00  0.00    -0.460 OA
BRANCH  44  45
ATOM     45  C   UNL A   1      54.027  26.896  24.417  1.00  0.00     0.338 C 
ATOM     46  O   UNL A   1      54.780  26.280  23.665  1.00  0.00    -0.246 OA
BRANCH  45  47
ATOM     47  C   UNL A   1      52.580  26.283  24.699  1.00  0.00     0.060 A 
ATOM     48  C   UNL A   1      51.412  26.783  24.090  1.00  0.00     0.016 A 
ATOM     49  C   UNL A   1      52.246  25.360  25.673  1.00  0.00     0.016 A 
ATOM     50  C   UNL A   1      50.039  26.625  24.660  1.00  0.00     0.010 A 
ATOM     51  C   UNL A   1      50.912  25.363  26.310  1.00  0.00     0.010 A 
ATOM     52  C   UNL A   1      49.808  26.213  25.992  1.00  0.00    -0.014 A 
BRANCH  52  53
ATOM     53  C   UNL A   1      48.378  26.331  27.024  1.00  0.00     0.031 A 
ATOM     54  C   UNL A   1      47.302  25.753  26.120  1.00  0.00     0.074 A 
ATOM     55  C   UNL A   1      48.032  26.535  28.496  1.00  0.00     0.049 A 
ATOM     56  N   UNL A   1      46.121  25.482  26.508  1.00  0.00    -0.248 NA
ATOM     57  C   UNL A   1      47.526  25.191  24.777  1.00  0.00     0.031 C 
ATOM     58  C   UNL A   1      46.881  26.245  29.459  1.00  0.00     0.029 A 
ATOM     59  N   UNL A   1      48.718  27.005  29.634  1.00  0.00    -0.354 N 
ATOM     60  C   UNL A   1      45.699  24.344  25.838  1.00  0.00     0.074 A 
ATOM     61  C   UNL A   1      46.560  24.266  24.691  1.00  0.00     0.031 C 
ATOM     62  C   UNL A   1      46.903  26.791  30.718  1.00  0.00     0.029 A 
ATOM     63  C   UNL A   1      48.064  27.579  30.746  1.00  0.00     0.049 A 
ATOM     64  H   UNL A   1      49.700  26.928  29.656  1.00  0.00     0.167 HD
ATOM     65  C   UNL A   1      44.781  23.556  26.481  1.00  0.00     0.037 A 
ATOM     66  C   UNL A   1      48.172  28.923  30.953  1.00  0.00     0.037 A 
ATOM     67  C   UNL A   1      44.335  24.226  27.748  1.00  0.00     0.049 A 
ATOM     68  C   UNL A   1      46.947  29.385  30.034  1.00  0.00     0.074 A 
ATOM     69  C   UNL A   1      44.207  23.879  29.083  1.00  0.00     0.029 A 
ATOM     70  N   UNL A   1      44.196  25.622  27.743  1.00  0.00    -0.354 N 
ATOM     71  N   UNL A   1      46.389  28.627  29.092  1.00  0.00    -0.248 NA
ATOM     72  C   UNL A   1      46.044  30.498  30.315  1.00  0.00     0.031 C 
ATOM     73  C   UNL A   1      44.068  25.103  29.852  1.00  0.00     0.029 A 
ATOM     74  C   UNL A   1      44.178  26.214  28.994  1.00  0.00     0.049 A 
ATOM     75  H   UNL A   1      44.117  26.142  26.911  1.00  0.00     0.167 HD
ATOM     76  C   UNL A   1      45.015  28.717  29.173  1.00  0.00     0.074 A 
ATOM     77  C   UNL A   1      44.941  30.113  29.628  1.00  0.00     0.031 C 
ATOM     78  C   UNL A   1      44.030  27.701  29.081  1.00  0.00     0.037 A 
BRANCH  65  79
ATOM     79  C   UNL A   1      44.349  22.132  26.098  1.00  0.00     0.064 A 
ATOM     80  C   UNL A   1      43.015  21.733  26.348  1.00  0.00     0.173 A 
ATOM     81  C   UNL A   1      45.142  21.110  25.519  1.00  0.00     0.173 A 
ATOM     82  F   UNL A   1      42.128  22.582  26.881  1.00  0.00    -0.203 F 
ATOM     83  C   UNL A   1      42.512  20.462  26.044  1.00  0.00     0.198 A 
ATOM     84  C   UNL A   1      44.623  19.845  25.167  1.00  0.00     0.198 A 
ATOM     85  F   UNL A   1      46.449  21.273  25.288  1.00  0.00    -0.203 F 
ATOM     86  F   UNL A   1      41.239  20.167  26.341  1.00  0.00    -0.200 F 
ATOM     87  C   UNL A   1      43.307  19.523  25.430  1.00  0.00     0.200 A 
ATOM     88  F   UNL A   1      45.410  18.937  24.567  1.00  0.00    -0.200 F 
ATOM     89  F   UNL A   1      42.806  18.328  25.087  1.00  0.00    -0.200 F 
ENDBRANCH  65  79
BRANCH  66  90
ATOM     90  C   UNL A   1      49.695  29.117  30.869  1.00  0.00     0.064 A 
ATOM     91  C   UNL A   1      50.697  29.807  29.619  1.00  0.00     0.173 A 
ATOM     92  C   UNL A   1      50.432  29.128  32.449  1.00  0.00     0.173 A 
ATOM     93  F   UNL A   1      50.205  29.940  28.375  1.00  0.00    -0.203 F 
ATOM     94  C   UNL A   1      52.319  30.452  29.837  1.00  0.00     0.198 A 
ATOM     95  C   UNL A   1      52.323  29.910  32.627  1.00  0.00     0.198 A 
ATOM     96  F   UNL A   1      49.763  28.191  33.171  1.00  0.00    -0.203 F 
ATOM     97  F   UNL A   1      52.987  30.968  28.789  1.00  0.00    -0.200 F 
ATOM     98  C   UNL A   1      53.091  30.533  31.259  1.00  0.00     0.200 A 
ATOM     99  F   UNL A   1      53.264  29.719  33.598  1.00  0.00    -0.200 F 
ATOM    100  F   UNL A   1      54.364  30.949  31.398  1.00  0.00    -0.200 F 
ENDBRANCH  66  90
BRANCH  78 101
ATOM    101  C   UNL A   1      42.583  28.056  28.920  1.00  0.00     0.064 A 
ATOM    102  C   UNL A   1      42.086  28.626  27.767  1.00  0.00     0.173 A 
ATOM    103  C   UNL A   1      41.623  27.751  29.925  1.00  0.00     0.173 A 
ATOM    104  F   UNL A   1      42.886  29.291  26.924  1.00  0.00    -0.203 F 
ATOM    105  C   UNL A   1      40.738  28.528  27.471  1.00  0.00     0.198 A 
ATOM    106  C   UNL A   1      40.274  27.747  29.671  1.00  0.00     0.198 A 
ATOM    107  F   UNL A   1      41.919  27.444  31.193  1.00  0.00    -0.203 F 
ATOM    108  F   UNL A   1      40.320  28.866  26.247  1.00  0.00    -0.200 F 
ATOM    109  C   UNL A   1      39.838  28.056  28.411  1.00  0.00     0.200 A 
ATOM    110  F   UNL A   1      39.427  27.397  30.648  1.00  0.00    -0.200 F 
ATOM    111  F   UNL A   1      38.542  27.933  28.114  1.00  0.00    -0.200 F 
ENDBRANCH  78 101
ENDBRANCH  52  53
ENDBRANCH  45  47
ENDBRANCH  44  45
ENDBRANCH  43  44
ENDBRANCH  42  43
ENDBRANCH  41  42
ENDBRANCH  40  41
ENDBRANCH  39  40
ENDBRANCH  38  39
ENDBRANCH  37  38
ENDBRANCH   1  37
TORSDOF 26
ENDMDL
MODEL 3
REMARK VINA RESULT:      -9.6      5.112     13.440
REMARK SMILES Cc1ccc(C2=NN(C(=O)CCC(=O)OCCOCCOCCOCCOC(=O)c3ccc(-c4c5nc(c(-c6c(F)c(F)c(F)c(F)c6F)c6ccc([nH]6)c(-c6c(F)c(F)c(F)c(F)c6F)c6nc(c(-c7c(F)c(F)c(F)c(F)c7F)c7ccc4[nH]7)C=C6)C=C5)cc3)[C@H](C[C@H]3C=c4cccc(C)c4=NC3=O)C2)cc1
REMARK SMILES IDX 19 1 18 2 17 3 16 4 15 5 13 6 14 7 12 8 11 9 9 10 10 11 8 12
REMARK SMILES IDX 6 13 7 14 107 15 93 16 5 17 1 18 2 19 3 20 109 21 4 22
REMARK SMILES IDX 108 23 94 24 95 25 96 26 105 27 97 28 104 29 106 30 98 31
REMARK SMILES IDX 103 32 99 33 101 34 100 35 102 36 20 37 21 38 22 39 23 40
REMARK SMILES IDX 24 41 25 42 26 43 27 44 28 45 29 46 30 47 31 48 92 49 32 50
REMARK SMILES IDX 91 51 33 52 34 53 35 54 85 55 36 56 90 57 84 58 86 59 37 60
REMARK SMILES IDX 89 61 83 62 82 63 38 65 70 66 50 67 69 68 51 69 54 70 68 71
REMARK SMILES IDX 87 72 52 73 53 74 67 76 88 77 55 78 39 79 40 80 48 81 41 82
REMARK SMILES IDX 42 83 46 84 49 85 43 86 44 87 47 88 45 89 71 90 72 91 80 92
REMARK SMILES IDX 73 93 74 94 78 95 81 96 75 97 76 98 79 99 77 100 56 101
REMARK SMILES IDX 57 102 65 103 58 104 59 105 63 106 66 107 60 108 61 109
REMARK SMILES IDX 64 110 62 111
REMARK H PARENT 86 64 54 75
REMARK Flexibility Score: inf
ROOT
ATOM      1  C   UNL A   1      42.512  29.035  34.433  1.00  0.00     0.188 C 
ENDROOT
BRANCH   1   2
ATOM      2  O   UNL A   1      43.276  27.946  33.883  1.00  0.00    -0.376 OA
BRANCH   2   3
ATOM      3  C   UNL A   1      43.824  27.015  34.797  1.00  0.00     0.202 C 
BRANCH   3   4
ATOM      4  C   UNL A   1      42.892  25.956  35.293  1.00  0.00     0.261 C 
BRANCH   4   5
ATOM      5  O   UNL A   1      43.721  24.843  35.701  1.00  0.00    -0.463 OA
BRANCH   5   6
ATOM      6  C   UNL A   1      43.567  23.605  35.246  1.00  0.00     0.306 C 
ATOM      7  O   UNL A   1      42.622  23.273  34.539  1.00  0.00    -0.252 OA
BRANCH   6   8
ATOM      8  C   UNL A   1      44.771  22.669  35.564  1.00  0.00     0.132 C 
BRANCH   8   9
ATOM      9  C   UNL A   1      45.784  22.288  36.799  1.00  0.00     0.114 C 
BRANCH   9  10
ATOM     10  C   UNL A   1      46.247  21.846  38.434  1.00  0.00     0.243 C 
ATOM     11  O   UNL A   1      45.818  22.731  39.210  1.00  0.00    -0.273 OA
BRANCH  10  12
ATOM     12  N   UNL A   1      47.031  20.620  39.043  1.00  0.00    -0.230 N 
ATOM     13  C   UNL A   1      47.460  18.217  40.923  1.00  0.00     0.070 C 
ATOM     14  N   UNL A   1      46.291  19.137  40.293  1.00  0.00    -0.174 NA
ATOM     15  C   UNL A   1      49.246  18.767  40.213  1.00  0.00     0.086 C 
ATOM     16  C   UNL A   1      48.982  20.233  38.844  1.00  0.00     0.118 C 
BRANCH  13  17
ATOM     17  C   UNL A   1      47.292  17.399  42.093  1.00  0.00    -0.002 A 
ATOM     18  C   UNL A   1      46.854  15.198  45.672  1.00  0.00     0.044 C 
ATOM     19  C   UNL A   1      47.080  15.908  44.378  1.00  0.00    -0.051 A 
ATOM     20  C   UNL A   1      47.697  17.169  44.410  1.00  0.00     0.004 A 
ATOM     21  C   UNL A   1      46.636  15.363  43.166  1.00  0.00     0.004 A 
ATOM     22  C   UNL A   1      47.826  17.914  43.256  1.00  0.00     0.010 A 
ATOM     23  C   UNL A   1      46.735  16.118  42.008  1.00  0.00     0.010 A 
ENDBRANCH  13  17
BRANCH  16  24
ATOM     24  C   UNL A   1      50.050  20.897  37.295  1.00  0.00     0.045 C 
BRANCH  24  25
ATOM     25  C   UNL A   1      49.547  22.217  35.863  1.00  0.00     0.106 C 
ATOM     26  C   UNL A   1      49.836  23.894  36.054  1.00  0.00    -0.003 C 
ATOM     27  C   UNL A   1      49.514  22.258  34.266  1.00  0.00     0.253 C 
ATOM     28  C   UNL A   1      49.807  24.935  35.243  1.00  0.00    -0.003 A 
ATOM     29  N   UNL A   1      48.723  23.316  33.744  1.00  0.00    -0.212 NA
ATOM     30  O   UNL A   1      49.969  21.377  33.548  1.00  0.00    -0.272 OA
ATOM     31  C   UNL A   1      49.893  26.245  35.883  1.00  0.00     0.010 A 
ATOM     32  C   UNL A   1      48.811  24.512  34.269  1.00  0.00     0.077 A 
ATOM     33  C   UNL A   1      48.842  27.063  35.795  1.00  0.00     0.001 A 
ATOM     34  C   UNL A   1      47.720  25.561  34.184  1.00  0.00    -0.025 A 
ATOM     35  C   UNL A   1      47.747  26.696  34.926  1.00  0.00     0.005 A 
ATOM     36  C   UNL A   1      46.522  25.131  33.432  1.00  0.00     0.047 C 
ENDBRANCH  24  25
ENDBRANCH  16  24
ENDBRANCH  10  12
ENDBRANCH   9  10
ENDBRANCH   8   9
ENDBRANCH   6   8
ENDBRANCH   5   6
ENDBRANCH   4   5
ENDBRANCH   3   4
ENDBRANCH   2   3
ENDBRANCH   1   2
BRANCH   1  37
ATOM     37  C   UNL A   1      40.788  29.078  34.563  1.00  0.00     0.188 C 
BRANCH  37  38
ATOM     38  O   UNL A   1      39.355  29.420  33.560  1.00  0.00    -0.377 OA
BRANCH  38  39
ATOM     39  C   UNL A   1      38.088  30.584  33.414  1.00  0.00     0.188 C 
BRANCH  39  40
ATOM     40  C   UNL A   1      38.154  32.012  32.620  1.00  0.00     0.188 C 
BRANCH  40  41
ATOM     41  O   UNL A   1      37.044  32.387  31.773  1.00  0.00    -0.376 OA
BRANCH  41  42
ATOM     42  C   UNL A   1      37.094  33.185  30.626  1.00  0.00     0.202 C 
BRANCH  42  43
ATOM     43  C   UNL A   1      35.667  33.373  30.261  1.00  0.00     0.261 C 
BRANCH  43  44
ATOM     44  O   UNL A   1      35.174  31.958  30.068  1.00  0.00    -0.460 OA
BRANCH  44  45
ATOM     45  C   UNL A   1      35.404  31.127  28.977  1.00  0.00     0.338 C 
ATOM     46  O   UNL A   1      34.668  31.195  27.995  1.00  0.00    -0.246 OA
BRANCH  45  47
ATOM     47  C   UNL A   1      36.623  30.097  28.933  1.00  0.00     0.060 A 
ATOM     48  C   UNL A   1      37.054  29.382  30.068  1.00  0.00     0.016 A 
ATOM     49  C   UNL A   1      37.514  29.910  27.891  1.00  0.00     0.016 A 
ATOM     50  C   UNL A   1      38.433  28.828  30.232  1.00  0.00     0.010 A 
ATOM     51  C   UNL A   1      38.914  29.512  28.140  1.00  0.00     0.010 A 
ATOM     52  C   UNL A   1      39.512  29.207  29.402  1.00  0.00    -0.014 A 
BRANCH  52  53
ATOM     53  C   UNL A   1      41.261  29.046  29.606  1.00  0.00     0.031 A 
ATOM     54  C   UNL A   1      41.669  30.483  29.880  1.00  0.00     0.074 A 
ATOM     55  C   UNL A   1      42.296  27.955  29.860  1.00  0.00     0.049 A 
ATOM     56  N   UNL A   1      42.833  30.831  30.257  1.00  0.00    -0.248 NA
ATOM     57  C   UNL A   1      40.745  31.625  30.005  1.00  0.00     0.031 C 
ATOM     58  C   UNL A   1      43.707  27.818  30.431  1.00  0.00     0.029 A 
ATOM     59  N   UNL A   1      42.320  26.549  29.760  1.00  0.00    -0.354 N 
ATOM     60  C   UNL A   1      42.702  31.894  31.136  1.00  0.00     0.074 A 
ATOM     61  C   UNL A   1      41.397  32.425  30.860  1.00  0.00     0.031 C 
ATOM     62  C   UNL A   1      44.375  26.626  30.296  1.00  0.00     0.029 A 
ATOM     63  C   UNL A   1      43.506  25.812  29.553  1.00  0.00     0.049 A 
ATOM     64  H   UNL A   1      41.471  26.058  29.840  1.00  0.00     0.167 HD
ATOM     65  C   UNL A   1      43.683  32.034  32.083  1.00  0.00     0.037 A 
ATOM     66  C   UNL A   1      43.719  25.233  28.337  1.00  0.00     0.037 A 
ATOM     67  C   UNL A   1      44.777  31.040  31.832  1.00  0.00     0.049 A 
ATOM     68  C   UNL A   1      44.409  26.484  27.616  1.00  0.00     0.074 A 
ATOM     69  C   UNL A   1      45.475  30.097  32.570  1.00  0.00     0.029 A 
ATOM     70  N   UNL A   1      45.111  30.745  30.501  1.00  0.00    -0.354 N 
ATOM     71  N   UNL A   1      44.323  27.739  28.051  1.00  0.00    -0.248 NA
ATOM     72  C   UNL A   1      45.495  26.413  26.643  1.00  0.00     0.031 C 
ATOM     73  C   UNL A   1      46.151  29.211  31.639  1.00  0.00     0.029 A 
ATOM     74  C   UNL A   1      45.816  29.569  30.319  1.00  0.00     0.049 A 
ATOM     75  H   UNL A   1      44.860  31.333  29.752  1.00  0.00     0.167 HD
ATOM     76  C   UNL A   1      45.564  28.340  27.990  1.00  0.00     0.074 A 
ATOM     77  C   UNL A   1      46.060  27.635  26.800  1.00  0.00     0.031 C 
ATOM     78  C   UNL A   1      46.214  29.179  28.929  1.00  0.00     0.037 A 
BRANCH  65  79
ATOM     79  C   UNL A   1      43.653  32.943  33.322  1.00  0.00     0.064 A 
ATOM     80  C   UNL A   1      42.503  32.932  34.148  1.00  0.00     0.173 A 
ATOM     81  C   UNL A   1      44.653  33.844  33.763  1.00  0.00     0.173 A 
ATOM     82  F   UNL A   1      41.468  32.127  33.881  1.00  0.00    -0.203 F 
ATOM     83  C   UNL A   1      42.363  33.719  35.298  1.00  0.00     0.198 A 
ATOM     84  C   UNL A   1      44.532  34.600  34.949  1.00  0.00     0.198 A 
ATOM     85  F   UNL A   1      45.774  34.054  33.065  1.00  0.00    -0.203 F 
ATOM     86  F   UNL A   1      41.227  33.659  36.005  1.00  0.00    -0.200 F 
ATOM     87  C   UNL A   1      43.387  34.536  35.715  1.00  0.00     0.200 A 
ATOM     88  F   UNL A   1      45.541  35.395  35.346  1.00  0.00    -0.200 F 
ATOM     89  F   UNL A   1      43.273  35.243  36.849  1.00  0.00    -0.200 F 
ENDBRANCH  65  79
BRANCH  66  90
ATOM     90  C   UNL A   1      42.392  24.484  28.126  1.00  0.00     0.064 A 
ATOM     91  C   UNL A   1      40.943  24.937  27.267  1.00  0.00     0.173 A 
ATOM     92  C   UNL A   1      42.584  22.763  28.328  1.00  0.00     0.173 A 
ATOM     93  F   UNL A   1      40.729  26.229  26.966  1.00  0.00    -0.203 F 
ATOM     94  C   UNL A   1      39.723  23.830  26.650  1.00  0.00     0.198 A 
ATOM     95  C   UNL A   1      41.123  21.534  27.569  1.00  0.00     0.198 A 
ATOM     96  F   UNL A   1      43.457  22.611  29.359  1.00  0.00    -0.203 F 
ATOM     97  F   UNL A   1      38.650  24.306  25.992  1.00  0.00    -0.200 F 
ATOM     98  C   UNL A   1      39.808  22.215  26.761  1.00  0.00     0.200 A 
ATOM     99  F   UNL A   1      40.810  20.244  27.888  1.00  0.00    -0.200 F 
ATOM    100  F   UNL A   1      38.826  21.385  26.362  1.00  0.00    -0.200 F 
ENDBRANCH  66  90
BRANCH  78 101
ATOM    101  C   UNL A   1      47.442  29.946  28.542  1.00  0.00     0.064 A 
ATOM    102  C   UNL A   1      48.714  29.506  28.847  1.00  0.00     0.173 A 
ATOM    103  C   UNL A   1      47.367  31.137  27.767  1.00  0.00     0.173 A 
ATOM    104  F   UNL A   1      48.925  28.646  29.852  1.00  0.00    -0.203 F 
ATOM    105  C   UNL A   1      49.798  29.962  28.119  1.00  0.00     0.198 A 
ATOM    106  C   UNL A   1      48.459  31.657  27.118  1.00  0.00     0.198 A 
ATOM    107  F   UNL A   1      46.257  31.861  27.589  1.00  0.00    -0.203 F 
ATOM    108  F   UNL A   1      50.976  29.347  28.262  1.00  0.00    -0.200 F 
ATOM    109  C   UNL A   1      49.662  31.015  27.229  1.00  0.00     0.200 A 
ATOM    110  F   UNL A   1      48.308  32.751  26.360  1.00  0.00    -0.200 F 
ATOM    111  F   UNL A   1      50.703  31.434  26.505  1.00  0.00    -0.200 F 
ENDBRANCH  78 101
ENDBRANCH  52  53
ENDBRANCH  45  47
ENDBRANCH  44  45
ENDBRANCH  43  44
ENDBRANCH  42  43
ENDBRANCH  41  42
ENDBRANCH  40  41
ENDBRANCH  39  40
ENDBRANCH  38  39
ENDBRANCH  37  38
ENDBRANCH   1  37
TORSDOF 26
ENDMDL
