MODEL 1
REMARK VINA RESULT:      -9.0      0.000      0.000
REMARK SMILES CCC[NH2+][C@@H]1COC[C@@H]1C(=O)N[C@@](C)(CC)C(=O)OCCOCCOCCOCCOC(=O)c1ccc(-c2c3nc(c(-c4c(F)c(F)c(F)c(F)c4F)c4ccc([nH]4)c(-c4c(F)c(F)c(F)c(F)c4F)c4nc(c(-c5c(F)c(F)c(F)c(F)c5F)c5ccc2[nH]5)C=C4)C=C3)cc1
REMARK SMILES IDX 23 1 22 2 21 3 20 4 19 5 17 6 18 7 13 8 14 9 12 10 10 11
REMARK SMILES IDX 11 12 9 14 5 15 6 16 7 17 8 18 4 19 3 22 2 23 1 24 15 25
REMARK SMILES IDX 16 26 24 27 25 28 26 29 27 30 28 31 29 32 30 33 31 34 32 35
REMARK SMILES IDX 33 36 34 37 35 38 96 39 36 40 95 41 37 42 38 43 39 44 89 45
REMARK SMILES IDX 40 46 94 47 88 48 90 49 41 50 93 51 87 52 86 53 42 55 74 56
REMARK SMILES IDX 54 57 73 58 55 59 58 60 72 61 91 62 56 63 57 64 71 66 92 67
REMARK SMILES IDX 59 68 43 69 44 70 52 71 45 72 46 73 50 74 53 75 47 76 48 77
REMARK SMILES IDX 51 78 49 79 75 80 76 81 84 82 77 83 78 84 82 85 85 86 79 87
REMARK SMILES IDX 80 88 83 89 81 90 60 91 61 92 69 93 62 94 63 95 67 96 70 97
REMARK SMILES IDX 64 98 65 99 68 100 66 101
REMARK H PARENT 12 13 4 20 4 21 90 54 58 65
REMARK Flexibility Score: inf
ROOT
ATOM      1  C   UNL A   1      33.585  33.378  27.978  1.00  0.00     0.188 C 
ENDROOT
BRANCH   1   2
ATOM      2  O   UNL A   1      34.152  32.081  27.895  1.00  0.00    -0.376 OA
BRANCH   2   3
ATOM      3  C   UNL A   1      33.352  30.968  27.521  1.00  0.00     0.202 C 
BRANCH   3   4
ATOM      4  C   UNL A   1      33.881  29.876  26.571  1.00  0.00     0.261 C 
BRANCH   4   5
ATOM      5  O   UNL A   1      32.887  29.157  25.826  1.00  0.00    -0.462 OA
BRANCH   5   6
ATOM      6  C   UNL A   1      33.320  28.237  24.923  1.00  0.00     0.331 C 
ATOM      7  O   UNL A   1      34.414  27.689  24.997  1.00  0.00    -0.249 OA
BRANCH   6   8
ATOM      8  C   UNL A   1      32.229  27.875  23.846  1.00  0.00     0.135 C 
ATOM      9  C   UNL A   1      32.938  28.041  22.490  1.00  0.00     0.047 C 
BRANCH   8  10
ATOM     10  N   UNL A   1      31.820  26.462  24.117  1.00  0.00    -0.340 N 
ATOM     11  C   UNL A   1      32.688  25.395  24.082  1.00  0.00     0.232 C 
ATOM     12  O   UNL A   1      33.367  25.179  23.077  1.00  0.00    -0.274 OA
ATOM     13  H   UNL A   1      30.875  26.286  24.333  1.00  0.00     0.164 HD
BRANCH  11  14
ATOM     14  C   UNL A   1      32.730  24.412  25.257  1.00  0.00     0.164 C 
ATOM     15  C   UNL A   1      31.940  23.107  25.253  1.00  0.00     0.223 C 
ATOM     16  C   UNL A   1      30.621  23.565  25.858  1.00  0.00     0.225 C 
ATOM     17  O   UNL A   1      30.988  24.452  26.920  1.00  0.00    -0.374 OA
ATOM     18  C   UNL A   1      32.183  25.134  26.493  1.00  0.00     0.180 C 
BRANCH  15  19
ATOM     19  N   UNL A   1      31.933  22.435  23.957  1.00  0.00    -0.341 N 
ATOM     20  H   UNL A   1      31.187  21.739  23.963  1.00  0.00     0.346 HD
ATOM     21  H   UNL A   1      31.794  23.161  23.254  1.00  0.00     0.346 HD
BRANCH  19  22
ATOM     22  C   UNL A   1      33.183  21.762  23.620  1.00  0.00     0.260 C 
BRANCH  22  23
ATOM     23  C   UNL A   1      33.448  20.640  24.635  1.00  0.00     0.058 C 
ATOM     24  C   UNL A   1      32.556  19.419  24.427  1.00  0.00     0.010 C 
ENDBRANCH  22  23
ENDBRANCH  19  22
ENDBRANCH  15  19
ENDBRANCH  11  14
ENDBRANCH   8  10
BRANCH   8  25
ATOM     25  C   UNL A   1      30.998  28.858  23.829  1.00  0.00     0.037 C 
ATOM     26  C   UNL A   1      29.614  28.295  23.498  1.00  0.00     0.007 C 
ENDBRANCH   8  25
ENDBRANCH   6   8
ENDBRANCH   5   6
ENDBRANCH   4   5
ENDBRANCH   3   4
ENDBRANCH   2   3
ENDBRANCH   1   2
BRANCH   1  27
ATOM     27  C   UNL A   1      34.523  34.573  28.102  1.00  0.00     0.188 C 
BRANCH  27  28
ATOM     28  O   UNL A   1      33.992  35.562  28.963  1.00  0.00    -0.377 OA
BRANCH  28  29
ATOM     29  C   UNL A   1      33.377  35.019  30.119  1.00  0.00     0.188 C 
BRANCH  29  30
ATOM     30  C   UNL A   1      33.535  35.760  31.462  1.00  0.00     0.188 C 
BRANCH  30  31
ATOM     31  O   UNL A   1      33.457  34.879  32.585  1.00  0.00    -0.376 OA
BRANCH  31  32
ATOM     32  C   UNL A   1      34.027  33.584  32.454  1.00  0.00     0.202 C 
BRANCH  32  33
ATOM     33  C   UNL A   1      35.132  33.355  33.490  1.00  0.00     0.261 C 
BRANCH  33  34
ATOM     34  O   UNL A   1      36.407  33.058  32.909  1.00  0.00    -0.460 OA
BRANCH  34  35
ATOM     35  C   UNL A   1      37.209  32.200  33.578  1.00  0.00     0.338 C 
ATOM     36  O   UNL A   1      37.049  31.753  34.700  1.00  0.00    -0.246 OA
BRANCH  35  37
ATOM     37  C   UNL A   1      38.167  31.676  32.585  1.00  0.00     0.060 A 
ATOM     38  C   UNL A   1      39.201  30.839  33.037  1.00  0.00     0.016 A 
ATOM     39  C   UNL A   1      37.926  31.843  31.216  1.00  0.00     0.016 A 
ATOM     40  C   UNL A   1      39.993  30.157  32.113  1.00  0.00     0.010 A 
ATOM     41  C   UNL A   1      38.739  31.193  30.294  1.00  0.00     0.010 A 
ATOM     42  C   UNL A   1      39.795  30.383  30.743  1.00  0.00    -0.014 A 
BRANCH  42  43
ATOM     43  C   UNL A   1      40.914  30.154  29.807  1.00  0.00     0.031 A 
ATOM     44  C   UNL A   1      40.971  28.778  29.205  1.00  0.00     0.074 A 
ATOM     45  C   UNL A   1      41.860  31.074  29.570  1.00  0.00     0.049 A 
ATOM     46  N   UNL A   1      41.893  28.221  28.470  1.00  0.00    -0.248 NA
ATOM     47  C   UNL A   1      39.825  27.895  29.500  1.00  0.00     0.031 C 
ATOM     48  C   UNL A   1      41.868  32.444  30.080  1.00  0.00     0.029 A 
ATOM     49  N   UNL A   1      43.019  30.976  28.844  1.00  0.00    -0.354 N 
ATOM     50  C   UNL A   1      41.438  26.932  28.225  1.00  0.00     0.074 A 
ATOM     51  C   UNL A   1      40.182  26.770  28.913  1.00  0.00     0.031 C 
ATOM     52  C   UNL A   1      42.989  33.057  29.658  1.00  0.00     0.029 A 
ATOM     53  C   UNL A   1      43.792  32.109  28.885  1.00  0.00     0.049 A 
ATOM     54  H   UNL A   1      43.273  30.169  28.342  1.00  0.00     0.167 HD
ATOM     55  C   UNL A   1      42.020  25.961  27.490  1.00  0.00     0.037 A 
ATOM     56  C   UNL A   1      45.018  32.326  28.370  1.00  0.00     0.037 A 
ATOM     57  C   UNL A   1      43.294  26.124  26.858  1.00  0.00     0.049 A 
ATOM     58  C   UNL A   1      45.700  31.196  27.633  1.00  0.00     0.074 A 
ATOM     59  C   UNL A   1      44.009  25.216  26.103  1.00  0.00     0.029 A 
ATOM     60  N   UNL A   1      44.056  27.283  26.937  1.00  0.00    -0.354 N 
ATOM     61  N   UNL A   1      45.256  29.986  27.377  1.00  0.00    -0.248 NA
ATOM     62  C   UNL A   1      47.053  31.456  27.124  1.00  0.00     0.031 C 
ATOM     63  C   UNL A   1      45.228  25.810  25.765  1.00  0.00     0.029 A 
ATOM     64  C   UNL A   1      45.246  27.108  26.258  1.00  0.00     0.049 A 
ATOM     65  H   UNL A   1      43.787  28.106  27.405  1.00  0.00     0.167 HD
ATOM     66  C   UNL A   1      46.253  29.358  26.641  1.00  0.00     0.074 A 
ATOM     67  C   UNL A   1      47.329  30.317  26.500  1.00  0.00     0.031 C 
ATOM     68  C   UNL A   1      46.276  28.106  26.118  1.00  0.00     0.037 A 
BRANCH  55  69
ATOM     69  C   UNL A   1      41.294  24.652  27.404  1.00  0.00     0.064 A 
ATOM     70  C   UNL A   1      41.759  23.505  28.069  1.00  0.00     0.173 A 
ATOM     71  C   UNL A   1      40.163  24.521  26.586  1.00  0.00     0.173 A 
ATOM     72  F   UNL A   1      42.861  23.568  28.833  1.00  0.00    -0.203 F 
ATOM     73  C   UNL A   1      41.147  22.269  27.881  1.00  0.00     0.198 A 
ATOM     74  C   UNL A   1      39.532  23.291  26.428  1.00  0.00     0.198 A 
ATOM     75  F   UNL A   1      39.686  25.581  25.916  1.00  0.00    -0.203 F 
ATOM     76  F   UNL A   1      41.661  21.175  28.457  1.00  0.00    -0.200 F 
ATOM     77  C   UNL A   1      40.032  22.164  27.064  1.00  0.00     0.200 A 
ATOM     78  F   UNL A   1      38.453  23.190  25.639  1.00  0.00    -0.200 F 
ATOM     79  F   UNL A   1      39.451  20.971  26.872  1.00  0.00    -0.200 F 
ENDBRANCH  55  69
BRANCH  56  80
ATOM     80  C   UNL A   1      45.671  33.655  28.513  1.00  0.00     0.064 A 
ATOM     81  C   UNL A   1      46.524  33.921  29.594  1.00  0.00     0.173 A 
ATOM     82  C   UNL A   1      45.466  34.683  27.582  1.00  0.00     0.173 A 
ATOM     83  F   UNL A   1      46.733  32.980  30.526  1.00  0.00    -0.203 F 
ATOM     84  C   UNL A   1      47.138  35.163  29.743  1.00  0.00     0.198 A 
ATOM     85  C   UNL A   1      46.098  35.918  27.718  1.00  0.00     0.198 A 
ATOM     86  F   UNL A   1      44.655  34.487  26.531  1.00  0.00    -0.203 F 
ATOM     87  F   UNL A   1      47.921  35.399  30.804  1.00  0.00    -0.200 F 
ATOM     88  C   UNL A   1      46.931  36.159  28.801  1.00  0.00     0.200 A 
ATOM     89  F   UNL A   1      45.902  36.876  26.801  1.00  0.00    -0.200 F 
ATOM     90  F   UNL A   1      47.527  37.352  28.940  1.00  0.00    -0.200 F 
ENDBRANCH  56  80
BRANCH  68  91
ATOM     91  C   UNL A   1      47.464  27.720  25.289  1.00  0.00     0.064 A 
ATOM     92  C   UNL A   1      48.565  27.055  25.841  1.00  0.00     0.173 A 
ATOM     93  C   UNL A   1      47.435  27.920  23.900  1.00  0.00     0.173 A 
ATOM     94  F   UNL A   1      48.638  26.850  27.164  1.00  0.00    -0.203 F 
ATOM     95  C   UNL A   1      49.603  26.605  25.028  1.00  0.00     0.198 A 
ATOM     96  C   UNL A   1      48.459  27.443  23.088  1.00  0.00     0.198 A 
ATOM     97  F   UNL A   1      46.393  28.541  23.327  1.00  0.00    -0.203 F 
ATOM     98  F   UNL A   1      50.659  25.989  25.575  1.00  0.00    -0.200 F 
ATOM     99  C   UNL A   1      49.543  26.789  23.654  1.00  0.00     0.200 A 
ATOM    100  F   UNL A   1      48.388  27.603  21.760  1.00  0.00    -0.200 F 
ATOM    101  F   UNL A   1      50.529  26.330  22.872  1.00  0.00    -0.200 F 
ENDBRANCH  68  91
ENDBRANCH  42  43
ENDBRANCH  35  37
ENDBRANCH  34  35
ENDBRANCH  33  34
ENDBRANCH  32  33
ENDBRANCH  31  32
ENDBRANCH  30  31
ENDBRANCH  29  30
ENDBRANCH  28  29
ENDBRANCH  27  28
ENDBRANCH   1  27
TORSDOF 26
ENDMDL
MODEL 2
REMARK VINA RESULT:      -8.5      1.136      7.417
REMARK SMILES CCC[NH2+][C@@H]1COC[C@@H]1C(=O)N[C@@](C)(CC)C(=O)OCCOCCOCCOCCOC(=O)c1ccc(-c2c3nc(c(-c4c(F)c(F)c(F)c(F)c4F)c4ccc([nH]4)c(-c4c(F)c(F)c(F)c(F)c4F)c4nc(c(-c5c(F)c(F)c(F)c(F)c5F)c5ccc2[nH]5)C=C4)C=C3)cc1
REMARK SMILES IDX 23 1 22 2 21 3 20 4 19 5 17 6 18 7 13 8 14 9 12 10 10 11
REMARK SMILES IDX 11 12 9 14 5 15 6 16 7 17 8 18 4 19 3 22 2 23 1 24 15 25
REMARK SMILES IDX 16 26 24 27 25 28 26 29 27 30 28 31 29 32 30 33 31 34 32 35
REMARK SMILES IDX 33 36 34 37 35 38 96 39 36 40 95 41 37 42 38 43 39 44 89 45
REMARK SMILES IDX 40 46 94 47 88 48 90 49 41 50 93 51 87 52 86 53 42 55 74 56
REMARK SMILES IDX 54 57 73 58 55 59 58 60 72 61 91 62 56 63 57 64 71 66 92 67
REMARK SMILES IDX 59 68 43 69 44 70 52 71 45 72 46 73 50 74 53 75 47 76 48 77
REMARK SMILES IDX 51 78 49 79 75 80 76 81 84 82 77 83 78 84 82 85 85 86 79 87
REMARK SMILES IDX 80 88 83 89 81 90 60 91 61 92 69 93 62 94 63 95 67 96 70 97
REMARK SMILES IDX 64 98 65 99 68 100 66 101
REMARK H PARENT 12 13 4 20 4 21 90 54 58 65
REMARK Flexibility Score: inf
ROOT
ATOM      1  C   UNL A   1      34.405  32.263  28.478  1.00  0.00     0.188 C 
ENDROOT
BRANCH   1   2
ATOM      2  O   UNL A   1      34.683  31.386  27.400  1.00  0.00    -0.376 OA
BRANCH   2   3
ATOM      3  C   UNL A   1      33.714  30.439  26.974  1.00  0.00     0.202 C 
BRANCH   3   4
ATOM      4  C   UNL A   1      34.070  29.304  25.994  1.00  0.00     0.261 C 
BRANCH   4   5
ATOM      5  O   UNL A   1      32.996  28.822  25.173  1.00  0.00    -0.462 OA
BRANCH   5   6
ATOM      6  C   UNL A   1      33.116  27.575  24.646  1.00  0.00     0.331 C 
ATOM      7  O   UNL A   1      34.103  27.203  24.020  1.00  0.00    -0.249 OA
BRANCH   6   8
ATOM      8  C   UNL A   1      31.909  26.633  25.020  1.00  0.00     0.135 C 
ATOM      9  C   UNL A   1      30.677  27.293  24.377  1.00  0.00     0.047 C 
BRANCH   8  10
ATOM     10  N   UNL A   1      32.222  25.294  24.433  1.00  0.00    -0.340 N 
ATOM     11  C   UNL A   1      32.556  24.190  25.183  1.00  0.00     0.232 C 
ATOM     12  O   UNL A   1      33.493  24.242  25.982  1.00  0.00    -0.274 OA
ATOM     13  H   UNL A   1      32.187  25.197  23.454  1.00  0.00     0.164 HD
BRANCH  11  14
ATOM     14  C   UNL A   1      31.829  22.861  24.946  1.00  0.00     0.164 C 
ATOM     15  C   UNL A   1      32.580  21.564  24.661  1.00  0.00     0.223 C 
ATOM     16  C   UNL A   1      32.690  21.621  23.144  1.00  0.00     0.225 C 
ATOM     17  O   UNL A   1      31.419  22.102  22.697  1.00  0.00    -0.374 OA
ATOM     18  C   UNL A   1      30.951  23.023  23.700  1.00  0.00     0.180 C 
BRANCH  15  19
ATOM     19  N   UNL A   1      33.792  21.407  25.457  1.00  0.00    -0.341 N 
ATOM     20  H   UNL A   1      33.871  22.211  26.081  1.00  0.00     0.346 HD
ATOM     21  H   UNL A   1      33.700  20.523  25.957  1.00  0.00     0.346 HD
BRANCH  19  22
ATOM     22  C   UNL A   1      35.021  21.316  24.674  1.00  0.00     0.260 C 
BRANCH  22  23
ATOM     23  C   UNL A   1      36.113  22.166  25.338  1.00  0.00     0.058 C 
ATOM     24  C   UNL A   1      36.539  23.364  24.494  1.00  0.00     0.010 C 
ENDBRANCH  22  23
ENDBRANCH  19  22
ENDBRANCH  15  19
ENDBRANCH  11  14
ENDBRANCH   8  10
BRANCH   8  25
ATOM     25  C   UNL A   1      31.617  26.553  26.566  1.00  0.00     0.037 C 
ATOM     26  C   UNL A   1      31.199  27.829  27.299  1.00  0.00     0.007 C 
ENDBRANCH   8  25
ENDBRANCH   6   8
ENDBRANCH   5   6
ENDBRANCH   4   5
ENDBRANCH   3   4
ENDBRANCH   2   3
ENDBRANCH   1   2
BRANCH   1  27
ATOM     27  C   UNL A   1      34.066  33.715  28.164  1.00  0.00     0.188 C 
BRANCH  27  28
ATOM     28  O   UNL A   1      34.595  34.594  29.139  1.00  0.00    -0.377 OA
BRANCH  28  29
ATOM     29  C   UNL A   1      34.094  34.344  30.442  1.00  0.00     0.188 C 
BRANCH  29  30
ATOM     30  C   UNL A   1      34.428  35.341  31.570  1.00  0.00     0.188 C 
BRANCH  30  31
ATOM     31  O   UNL A   1      33.869  34.952  32.826  1.00  0.00    -0.376 OA
BRANCH  31  32
ATOM     32  C   UNL A   1      34.623  34.066  33.643  1.00  0.00     0.202 C 
BRANCH  32  33
ATOM     33  C   UNL A   1      36.094  34.032  33.215  1.00  0.00     0.261 C 
BRANCH  33  34
ATOM     34  O   UNL A   1      36.691  32.735  33.330  1.00  0.00    -0.460 OA
BRANCH  34  35
ATOM     35  C   UNL A   1      36.406  31.833  32.364  1.00  0.00     0.338 C 
ATOM     36  O   UNL A   1      35.310  31.543  31.917  1.00  0.00    -0.246 OA
BRANCH  35  37
ATOM     37  C   UNL A   1      37.696  31.475  31.744  1.00  0.00     0.060 A 
ATOM     38  C   UNL A   1      37.828  31.619  30.353  1.00  0.00     0.016 A 
ATOM     39  C   UNL A   1      38.812  31.199  32.545  1.00  0.00     0.016 A 
ATOM     40  C   UNL A   1      39.084  31.495  29.760  1.00  0.00     0.010 A 
ATOM     41  C   UNL A   1      40.058  31.038  31.950  1.00  0.00     0.010 A 
ATOM     42  C   UNL A   1      40.186  31.148  30.556  1.00  0.00    -0.014 A 
BRANCH  42  43
ATOM     43  C   UNL A   1      41.342  30.476  29.930  1.00  0.00     0.031 A 
ATOM     44  C   UNL A   1      42.522  31.364  29.650  1.00  0.00     0.074 A 
ATOM     45  C   UNL A   1      41.318  29.187  29.562  1.00  0.00     0.049 A 
ATOM     46  N   UNL A   1      43.619  31.119  28.990  1.00  0.00    -0.248 NA
ATOM     47  C   UNL A   1      42.433  32.741  30.175  1.00  0.00     0.031 C 
ATOM     48  C   UNL A   1      40.235  28.242  29.824  1.00  0.00     0.029 A 
ATOM     49  N   UNL A   1      42.243  28.457  28.860  1.00  0.00    -0.354 N 
ATOM     50  C   UNL A   1      44.338  32.306  29.020  1.00  0.00     0.074 A 
ATOM     51  C   UNL A   1      43.548  33.282  29.726  1.00  0.00     0.031 C 
ATOM     52  C   UNL A   1      40.554  27.054  29.278  1.00  0.00     0.029 A 
ATOM     53  C   UNL A   1      41.843  27.171  28.595  1.00  0.00     0.049 A 
ATOM     54  H   UNL A   1      43.111  28.820  28.574  1.00  0.00     0.167 HD
ATOM     55  C   UNL A   1      45.556  32.564  28.498  1.00  0.00     0.037 A 
ATOM     56  C   UNL A   1      42.454  26.220  27.861  1.00  0.00     0.037 A 
ATOM     57  C   UNL A   1      46.303  31.596  27.753  1.00  0.00     0.049 A 
ATOM     58  C   UNL A   1      43.771  26.556  27.201  1.00  0.00     0.074 A 
ATOM     59  C   UNL A   1      47.538  31.730  27.152  1.00  0.00     0.029 A 
ATOM     60  N   UNL A   1      45.856  30.307  27.491  1.00  0.00    -0.354 N 
ATOM     61  N   UNL A   1      44.465  27.670  27.254  1.00  0.00    -0.248 NA
ATOM     62  C   UNL A   1      44.385  25.509  26.373  1.00  0.00     0.031 C 
ATOM     63  C   UNL A   1      47.817  30.535  26.482  1.00  0.00     0.029 A 
ATOM     64  C   UNL A   1      46.783  29.638  26.717  1.00  0.00     0.049 A 
ATOM     65  H   UNL A   1      45.006  29.927  27.810  1.00  0.00     0.167 HD
ATOM     66  C   UNL A   1      45.614  27.445  26.506  1.00  0.00     0.074 A 
ATOM     67  C   UNL A   1      45.519  26.090  26.002  1.00  0.00     0.031 C 
ATOM     68  C   UNL A   1      46.659  28.275  26.264  1.00  0.00     0.037 A 
BRANCH  55  69
ATOM     69  C   UNL A   1      46.089  33.954  28.681  1.00  0.00     0.064 A 
ATOM     70  C   UNL A   1      45.745  34.997  27.806  1.00  0.00     0.173 A 
ATOM     71  C   UNL A   1      47.015  34.229  29.697  1.00  0.00     0.173 A 
ATOM     72  F   UNL A   1      44.893  34.775  26.793  1.00  0.00    -0.203 F 
ATOM     73  C   UNL A   1      46.343  36.250  27.913  1.00  0.00     0.198 A 
ATOM     74  C   UNL A   1      47.584  35.493  29.823  1.00  0.00     0.198 A 
ATOM     75  F   UNL A   1      47.391  33.265  30.550  1.00  0.00    -0.203 F 
ATOM     76  F   UNL A   1      46.063  37.202  27.013  1.00  0.00    -0.200 F 
ATOM     77  C   UNL A   1      47.259  36.497  28.924  1.00  0.00     0.200 A 
ATOM     78  F   UNL A   1      48.470  35.732  30.801  1.00  0.00    -0.200 F 
ATOM     79  F   UNL A   1      47.845  37.700  29.018  1.00  0.00    -0.200 F 
ENDBRANCH  55  69
BRANCH  56  80
ATOM     80  C   UNL A   1      41.847  24.870  27.722  1.00  0.00     0.064 A 
ATOM     81  C   UNL A   1      40.705  24.675  26.931  1.00  0.00     0.173 A 
ATOM     82  C   UNL A   1      42.385  23.747  28.367  1.00  0.00     0.173 A 
ATOM     83  F   UNL A   1      40.135  25.721  26.313  1.00  0.00    -0.203 F 
ATOM     84  C   UNL A   1      40.123  23.416  26.796  1.00  0.00     0.198 A 
ATOM     85  C   UNL A   1      41.817  22.483  28.214  1.00  0.00     0.198 A 
ATOM     86  F   UNL A   1      43.473  23.875  29.142  1.00  0.00    -0.203 F 
ATOM     87  F   UNL A   1      39.013  23.268  26.060  1.00  0.00    -0.200 F 
ATOM     88  C   UNL A   1      40.684  22.319  27.432  1.00  0.00     0.200 A 
ATOM     89  F   UNL A   1      42.366  21.423  28.824  1.00  0.00    -0.200 F 
ATOM     90  F   UNL A   1      40.128  21.106  27.297  1.00  0.00    -0.200 F 
ENDBRANCH  56  80
BRANCH  68  91
ATOM     91  C   UNL A   1      47.815  27.729  25.482  1.00  0.00     0.064 A 
ATOM     92  C   UNL A   1      47.843  27.767  24.083  1.00  0.00     0.173 A 
ATOM     93  C   UNL A   1      48.957  27.272  26.158  1.00  0.00     0.173 A 
ATOM     94  F   UNL A   1      46.771  28.189  23.396  1.00  0.00    -0.203 F 
ATOM     95  C   UNL A   1      48.977  27.360  23.384  1.00  0.00     0.198 A 
ATOM     96  C   UNL A   1      50.098  26.894  25.457  1.00  0.00     0.198 A 
ATOM     97  F   UNL A   1      48.980  27.232  27.498  1.00  0.00    -0.203 F 
ATOM     98  F   UNL A   1      48.979  27.382  22.044  1.00  0.00    -0.200 F 
ATOM     99  C   UNL A   1      50.105  26.936  24.072  1.00  0.00     0.200 A 
ATOM    100  F   UNL A   1      51.194  26.506  26.124  1.00  0.00    -0.200 F 
ATOM    101  F   UNL A   1      51.204  26.571  23.397  1.00  0.00    -0.200 F 
ENDBRANCH  68  91
ENDBRANCH  42  43
ENDBRANCH  35  37
ENDBRANCH  34  35
ENDBRANCH  33  34
ENDBRANCH  32  33
ENDBRANCH  31  32
ENDBRANCH  30  31
ENDBRANCH  29  30
ENDBRANCH  28  29
ENDBRANCH  27  28
ENDBRANCH   1  27
TORSDOF 26
ENDMDL
MODEL 3
REMARK VINA RESULT:      -8.5      3.557      6.030
REMARK SMILES CCC[NH2+][C@@H]1COC[C@@H]1C(=O)N[C@@](C)(CC)C(=O)OCCOCCOCCOCCOC(=O)c1ccc(-c2c3nc(c(-c4c(F)c(F)c(F)c(F)c4F)c4ccc([nH]4)c(-c4c(F)c(F)c(F)c(F)c4F)c4nc(c(-c5c(F)c(F)c(F)c(F)c5F)c5ccc2[nH]5)C=C4)C=C3)cc1
REMARK SMILES IDX 23 1 22 2 21 3 20 4 19 5 17 6 18 7 13 8 14 9 12 10 10 11
REMARK SMILES IDX 11 12 9 14 5 15 6 16 7 17 8 18 4 19 3 22 2 23 1 24 15 25
REMARK SMILES IDX 16 26 24 27 25 28 26 29 27 30 28 31 29 32 30 33 31 34 32 35
REMARK SMILES IDX 33 36 34 37 35 38 96 39 36 40 95 41 37 42 38 43 39 44 89 45
REMARK SMILES IDX 40 46 94 47 88 48 90 49 41 50 93 51 87 52 86 53 42 55 74 56
REMARK SMILES IDX 54 57 73 58 55 59 58 60 72 61 91 62 56 63 57 64 71 66 92 67
REMARK SMILES IDX 59 68 43 69 44 70 52 71 45 72 46 73 50 74 53 75 47 76 48 77
REMARK SMILES IDX 51 78 49 79 75 80 76 81 84 82 77 83 78 84 82 85 85 86 79 87
REMARK SMILES IDX 80 88 83 89 81 90 60 91 61 92 69 93 62 94 63 95 67 96 70 97
REMARK SMILES IDX 64 98 65 99 68 100 66 101
REMARK H PARENT 12 13 4 20 4 21 90 54 58 65
REMARK Flexibility Score: inf
ROOT
ATOM      1  C   UNL A   1      33.045  36.153  30.280  1.00  0.00     0.188 C 
ENDROOT
BRANCH   1   2
ATOM      2  O   UNL A   1      33.157  34.741  30.249  1.00  0.00    -0.376 OA
BRANCH   2   3
ATOM      3  C   UNL A   1      34.426  34.121  30.098  1.00  0.00     0.202 C 
BRANCH   3   4
ATOM      4  C   UNL A   1      34.716  32.721  30.674  1.00  0.00     0.261 C 
BRANCH   4   5
ATOM      5  O   UNL A   1      35.442  31.827  29.817  1.00  0.00    -0.462 OA
BRANCH   5   6
ATOM      6  C   UNL A   1      34.802  31.352  28.716  1.00  0.00     0.331 C 
ATOM      7  O   UNL A   1      33.923  31.974  28.131  1.00  0.00    -0.249 OA
BRANCH   6   8
ATOM      8  C   UNL A   1      35.386  29.977  28.213  1.00  0.00     0.135 C 
ATOM      9  C   UNL A   1      36.014  29.332  29.461  1.00  0.00     0.047 C 
BRANCH   8  10
ATOM     10  N   UNL A   1      34.227  29.198  27.678  1.00  0.00    -0.340 N 
ATOM     11  C   UNL A   1      33.732  29.342  26.403  1.00  0.00     0.232 C 
ATOM     12  O   UNL A   1      33.387  30.451  25.992  1.00  0.00    -0.274 OA
ATOM     13  H   UNL A   1      33.794  28.544  28.274  1.00  0.00     0.164 HD
BRANCH  11  14
ATOM     14  C   UNL A   1      33.510  28.103  25.529  1.00  0.00     0.164 C 
ATOM     15  C   UNL A   1      32.314  27.974  24.590  1.00  0.00     0.223 C 
ATOM     16  C   UNL A   1      31.286  27.341  25.516  1.00  0.00     0.225 C 
ATOM     17  O   UNL A   1      32.015  26.365  26.268  1.00  0.00    -0.374 OA
ATOM     18  C   UNL A   1      33.339  26.897  26.459  1.00  0.00     0.180 C 
BRANCH  15  19
ATOM     19  N   UNL A   1      31.981  29.216  23.900  1.00  0.00    -0.341 N 
ATOM     20  H   UNL A   1      32.528  29.970  24.317  1.00  0.00     0.346 HD
ATOM     21  H   UNL A   1      32.195  29.068  22.914  1.00  0.00     0.346 HD
BRANCH  19  22
ATOM     22  C   UNL A   1      30.570  29.585  23.968  1.00  0.00     0.260 C 
BRANCH  22  23
ATOM     23  C   UNL A   1      29.855  29.102  22.698  1.00  0.00     0.058 C 
ATOM     24  C   UNL A   1      28.424  28.638  22.952  1.00  0.00     0.010 C 
ENDBRANCH  22  23
ENDBRANCH  19  22
ENDBRANCH  15  19
ENDBRANCH  11  14
ENDBRANCH   8  10
BRANCH   8  25
ATOM     25  C   UNL A   1      36.544  30.124  27.156  1.00  0.00     0.037 C 
ATOM     26  C   UNL A   1      37.949  29.654  27.538  1.00  0.00     0.007 C 
ENDBRANCH   8  25
ENDBRANCH   6   8
ENDBRANCH   5   6
ENDBRANCH   4   5
ENDBRANCH   3   4
ENDBRANCH   2   3
ENDBRANCH   1   2
BRANCH   1  27
ATOM     27  C   UNL A   1      32.883  36.839  31.632  1.00  0.00     0.188 C 
BRANCH  27  28
ATOM     28  O   UNL A   1      33.146  35.948  32.700  1.00  0.00    -0.377 OA
BRANCH  28  29
ATOM     29  C   UNL A   1      34.473  36.047  33.190  1.00  0.00     0.188 C 
BRANCH  29  30
ATOM     30  C   UNL A   1      35.115  34.811  33.850  1.00  0.00     0.188 C 
BRANCH  30  31
ATOM     31  O   UNL A   1      36.524  34.958  34.034  1.00  0.00    -0.376 OA
BRANCH  31  32
ATOM     32  C   UNL A   1      37.257  33.828  34.487  1.00  0.00     0.202 C 
BRANCH  32  33
ATOM     33  C   UNL A   1      36.757  32.540  33.825  1.00  0.00     0.261 C 
BRANCH  33  34
ATOM     34  O   UNL A   1      37.612  31.413  34.053  1.00  0.00    -0.460 OA
BRANCH  34  35
ATOM     35  C   UNL A   1      37.686  30.483  33.073  1.00  0.00     0.338 C 
ATOM     36  O   UNL A   1      36.834  29.675  32.749  1.00  0.00    -0.246 OA
BRANCH  35  37
ATOM     37  C   UNL A   1      38.880  30.823  32.276  1.00  0.00     0.060 A 
ATOM     38  C   UNL A   1      40.130  30.824  32.918  1.00  0.00     0.016 A 
ATOM     39  C   UNL A   1      38.790  30.938  30.883  1.00  0.00     0.016 A 
ATOM     40  C   UNL A   1      41.297  30.931  32.162  1.00  0.00     0.010 A 
ATOM     41  C   UNL A   1      39.951  31.082  30.132  1.00  0.00     0.010 A 
ATOM     42  C   UNL A   1      41.199  31.117  30.775  1.00  0.00    -0.014 A 
BRANCH  42  43
ATOM     43  C   UNL A   1      42.308  31.778  30.058  1.00  0.00     0.031 A 
ATOM     44  C   UNL A   1      43.377  30.854  29.546  1.00  0.00     0.074 A 
ATOM     45  C   UNL A   1      42.402  33.110  29.939  1.00  0.00     0.049 A 
ATOM     46  N   UNL A   1      44.535  31.125  29.010  1.00  0.00    -0.248 NA
ATOM     47  C   UNL A   1      43.105  29.410  29.685  1.00  0.00     0.031 C 
ATOM     48  C   UNL A   1      41.399  34.080  30.371  1.00  0.00     0.029 A 
ATOM     49  N   UNL A   1      43.418  33.877  29.429  1.00  0.00    -0.354 N 
ATOM     50  C   UNL A   1      45.120  29.891  28.758  1.00  0.00     0.074 A 
ATOM     51  C   UNL A   1      44.217  28.871  29.227  1.00  0.00     0.031 C 
ATOM     52  C   UNL A   1      41.856  35.320  30.117  1.00  0.00     0.029 A 
ATOM     53  C   UNL A   1      43.199  35.227  29.544  1.00  0.00     0.049 A 
ATOM     54  H   UNL A   1      44.227  33.495  29.020  1.00  0.00     0.167 HD
ATOM     55  C   UNL A   1      46.314  29.629  28.184  1.00  0.00     0.037 A 
ATOM     56  C   UNL A   1      44.016  36.254  29.236  1.00  0.00     0.037 A 
ATOM     57  C   UNL A   1      47.220  30.658  27.773  1.00  0.00     0.049 A 
ATOM     58  C   UNL A   1      45.389  35.942  28.686  1.00  0.00     0.074 A 
ATOM     59  C   UNL A   1      48.469  30.533  27.199  1.00  0.00     0.029 A 
ATOM     60  N   UNL A   1      46.970  32.016  27.921  1.00  0.00    -0.354 N 
ATOM     61  N   UNL A   1      45.930  34.775  28.421  1.00  0.00    -0.248 NA
ATOM     62  C   UNL A   1      46.266  37.086  28.404  1.00  0.00     0.031 C 
ATOM     63  C   UNL A   1      48.997  31.819  27.045  1.00  0.00     0.029 A 
ATOM     64  C   UNL A   1      48.051  32.744  27.467  1.00  0.00     0.049 A 
ATOM     65  H   UNL A   1      46.144  32.402  28.293  1.00  0.00     0.167 HD
ATOM     66  C   UNL A   1      47.190  35.044  27.900  1.00  0.00     0.074 A 
ATOM     67  C   UNL A   1      47.336  36.486  27.896  1.00  0.00     0.031 C 
ATOM     68  C   UNL A   1      48.138  34.183  27.454  1.00  0.00     0.037 A 
BRANCH  55  69
ATOM     69  C   UNL A   1      46.692  28.185  28.043  1.00  0.00     0.064 A 
ATOM     70  C   UNL A   1      47.392  27.504  29.052  1.00  0.00     0.173 A 
ATOM     71  C   UNL A   1      46.422  27.495  26.853  1.00  0.00     0.173 A 
ATOM     72  F   UNL A   1      47.710  28.132  30.195  1.00  0.00    -0.203 F 
ATOM     73  C   UNL A   1      47.846  26.202  28.857  1.00  0.00     0.198 A 
ATOM     74  C   UNL A   1      46.845  26.181  26.675  1.00  0.00     0.198 A 
ATOM     75  F   UNL A   1      45.771  28.104  25.850  1.00  0.00    -0.203 F 
ATOM     76  F   UNL A   1      48.586  25.604  29.800  1.00  0.00    -0.200 F 
ATOM     77  C   UNL A   1      47.569  25.541  27.670  1.00  0.00     0.200 A 
ATOM     78  F   UNL A   1      46.577  25.543  25.527  1.00  0.00    -0.200 F 
ATOM     79  F   UNL A   1      48.018  24.293  27.477  1.00  0.00    -0.200 F 
ENDBRANCH  55  69
BRANCH  56  80
ATOM     80  C   UNL A   1      43.562  37.658  29.420  1.00  0.00     0.064 A 
ATOM     81  C   UNL A   1      43.923  38.383  30.565  1.00  0.00     0.173 A 
ATOM     82  C   UNL A   1      42.765  38.309  28.467  1.00  0.00     0.173 A 
ATOM     83  F   UNL A   1      44.663  37.799  31.519  1.00  0.00    -0.203 F 
ATOM     84  C   UNL A   1      43.501  39.698  30.752  1.00  0.00     0.198 A 
ATOM     85  C   UNL A   1      42.362  39.632  28.643  1.00  0.00     0.198 A 
ATOM     86  F   UNL A   1      42.384  37.662  27.355  1.00  0.00    -0.203 F 
ATOM     87  F   UNL A   1      43.834  40.354  31.872  1.00  0.00    -0.200 F 
ATOM     88  C   UNL A   1      42.727  40.325  29.788  1.00  0.00     0.200 A 
ATOM     89  F   UNL A   1      41.620  40.237  27.705  1.00  0.00    -0.200 F 
ATOM     90  F   UNL A   1      42.326  41.592  29.964  1.00  0.00    -0.200 F 
ENDBRANCH  56  80
BRANCH  68  91
ATOM     91  C   UNL A   1      49.385  34.766  26.862  1.00  0.00     0.064 A 
ATOM     92  C   UNL A   1      49.427  35.232  25.542  1.00  0.00     0.173 A 
ATOM     93  C   UNL A   1      50.513  34.965  27.674  1.00  0.00     0.173 A 
ATOM     94  F   UNL A   1      48.376  35.056  24.729  1.00  0.00    -0.203 F 
ATOM     95  C   UNL A   1      50.561  35.875  25.052  1.00  0.00     0.198 A 
ATOM     96  C   UNL A   1      51.632  35.634  27.190  1.00  0.00     0.198 A 
ATOM     97  F   UNL A   1      50.511  34.547  28.948  1.00  0.00    -0.203 F 
ATOM     98  F   UNL A   1      50.593  36.295  23.780  1.00  0.00    -0.200 F 
ATOM     99  C   UNL A   1      51.656  36.086  25.879  1.00  0.00     0.200 A 
ATOM    100  F   UNL A   1      52.680  35.855  27.996  1.00  0.00    -0.200 F 
ATOM    101  F   UNL A   1      52.735  36.729  25.413  1.00  0.00    -0.200 F 
ENDBRANCH  68  91
ENDBRANCH  42  43
ENDBRANCH  35  37
ENDBRANCH  34  35
ENDBRANCH  33  34
ENDBRANCH  32  33
ENDBRANCH  31  32
ENDBRANCH  30  31
ENDBRANCH  29  30
ENDBRANCH  28  29
ENDBRANCH  27  28
ENDBRANCH   1  27
TORSDOF 26
ENDMDL
