MODEL 1
REMARK VINA RESULT:     -14.6      0.000      0.000
REMARK SMILES CC[C@@H](C)[C@H](NC(=O)NCc1ccc(C)cc1)C(=O)OCCOCCOCCOCCOC(=O)c1ccc(-c2c3nc(c(-c4c(F)c(F)c(F)c(F)c4F)c4ccc([nH]4)c(-c4c(F)c(F)c(F)c(F)c4F)c4nc(c(-c5c(F)c(F)c(F)c(F)c5F)c5ccc2[nH]5)C=C4)C=C3)cc1
REMARK SMILES IDX 25 1 24 2 23 3 22 4 21 5 20 6 18 7 19 8 5 9 3 10 4 11 2 12
REMARK SMILES IDX 1 13 6 14 7 15 8 17 9 18 10 20 11 21 12 22 17 23 13 24 16 25
REMARK SMILES IDX 14 26 15 27 26 28 27 29 28 30 29 31 30 32 31 33 32 34 33 35
REMARK SMILES IDX 34 36 35 37 36 38 97 39 37 40 96 41 38 42 39 43 40 44 90 45
REMARK SMILES IDX 41 46 95 47 89 48 91 49 42 50 94 51 88 52 87 53 43 55 75 56
REMARK SMILES IDX 55 57 74 58 56 59 59 60 73 61 92 62 57 63 58 64 72 66 93 67
REMARK SMILES IDX 60 68 44 69 45 70 53 71 46 72 47 73 51 74 54 75 48 76 49 77
REMARK SMILES IDX 52 78 50 79 76 80 77 81 85 82 78 83 79 84 83 85 86 86 80 87
REMARK SMILES IDX 81 88 84 89 82 90 61 91 62 92 70 93 63 94 64 95 68 96 71 97
REMARK SMILES IDX 65 98 66 99 69 100 67 101
REMARK H PARENT 6 16 9 19 91 54 59 65
REMARK Flexibility Score: inf
ROOT
ATOM      1  C   UNL A   1      33.672  28.984  26.192  1.00  0.00     0.188 C 
ENDROOT
BRANCH   1   2
ATOM      2  C   UNL A   1      32.084  29.091  25.929  1.00  0.00     0.188 C 
BRANCH   2   3
ATOM      3  O   UNL A   1      30.854  28.469  24.720  1.00  0.00    -0.376 OA
BRANCH   3   4
ATOM      4  C   UNL A   1      30.021  26.888  24.570  1.00  0.00     0.202 C 
BRANCH   4   5
ATOM      5  C   UNL A   1      30.276  25.423  25.758  1.00  0.00     0.261 C 
BRANCH   5   6
ATOM      6  O   UNL A   1      30.723  23.652  25.269  1.00  0.00    -0.462 OA
BRANCH   6   7
ATOM      7  C   UNL A   1      31.464  22.658  24.361  1.00  0.00     0.329 C 
ATOM      8  O   UNL A   1      31.338  22.692  23.121  1.00  0.00    -0.250 OA
BRANCH   7   9
ATOM      9  C   UNL A   1      32.698  21.266  24.907  1.00  0.00     0.196 C 
BRANCH   9  10
ATOM     10  C   UNL A   1      33.269  19.438  23.810  1.00  0.00     0.019 C 
ATOM     11  C   UNL A   1      32.292  18.456  22.703  1.00  0.00     0.010 C 
BRANCH  10  12
ATOM     12  C   UNL A   1      33.936  17.887  24.626  1.00  0.00     0.002 C 
ATOM     13  C   UNL A   1      33.045  16.864  25.329  1.00  0.00     0.004 C 
ENDBRANCH  10  12
ENDBRANCH   9  10
BRANCH   9  14
ATOM     14  N   UNL A   1      32.534  21.528  26.564  1.00  0.00    -0.324 N 
ATOM     15  C   UNL A   1      33.305  22.002  27.574  1.00  0.00     0.315 C 
ATOM     16  H   UNL A   1      31.640  21.268  26.884  1.00  0.00     0.166 HD
ATOM     17  O   UNL A   1      32.840  22.210  28.693  1.00  0.00    -0.249 OA
ATOM     18  N   UNL A   1      34.579  22.359  27.289  1.00  0.00    -0.334 N 
ATOM     19  H   UNL A   1      35.058  22.965  27.898  1.00  0.00     0.165 HD
BRANCH  18  20
ATOM     20  C   UNL A   1      35.245  21.872  26.116  1.00  0.00     0.153 C 
BRANCH  20  21
ATOM     21  C   UNL A   1      35.518  22.983  25.083  1.00  0.00    -0.029 A 
ATOM     22  C   UNL A   1      35.402  22.846  23.233  1.00  0.00     0.006 A 
ATOM     23  C   UNL A   1      34.926  24.473  25.853  1.00  0.00     0.006 A 
ATOM     24  C   UNL A   1      34.400  24.093  22.350  1.00  0.00     0.004 A 
ATOM     25  C   UNL A   1      33.988  25.619  24.972  1.00  0.00     0.004 A 
ATOM     26  C   UNL A   1      33.751  25.486  23.268  1.00  0.00    -0.051 A 
ATOM     27  C   UNL A   1      32.891  26.536  22.636  1.00  0.00     0.044 C 
ENDBRANCH  20  21
ENDBRANCH  18  20
ENDBRANCH   9  14
ENDBRANCH   7   9
ENDBRANCH   6   7
ENDBRANCH   5   6
ENDBRANCH   4   5
ENDBRANCH   3   4
ENDBRANCH   2   3
ENDBRANCH   1   2
BRANCH   1  28
ATOM     28  O   UNL A   1      34.522  29.843  26.939  1.00  0.00    -0.377 OA
BRANCH  28  29
ATOM     29  C   UNL A   1      34.056  30.784  27.895  1.00  0.00     0.188 C 
BRANCH  29  30
ATOM     30  C   UNL A   1      33.359  32.060  27.495  1.00  0.00     0.188 C 
BRANCH  30  31
ATOM     31  O   UNL A   1      33.952  33.101  28.211  1.00  0.00    -0.376 OA
BRANCH  31  32
ATOM     32  C   UNL A   1      33.457  34.397  27.995  1.00  0.00     0.202 C 
BRANCH  32  33
ATOM     33  C   UNL A   1      33.744  35.202  29.248  1.00  0.00     0.261 C 
BRANCH  33  34
ATOM     34  O   UNL A   1      32.716  34.932  30.252  1.00  0.00    -0.460 OA
BRANCH  34  35
ATOM     35  C   UNL A   1      32.823  35.554  31.478  1.00  0.00     0.338 C 
ATOM     36  O   UNL A   1      32.200  36.552  31.793  1.00  0.00    -0.246 OA
BRANCH  35  37
ATOM     37  C   UNL A   1      33.892  34.926  32.333  1.00  0.00     0.060 A 
ATOM     38  C   UNL A   1      35.006  35.599  32.855  1.00  0.00     0.016 A 
ATOM     39  C   UNL A   1      33.978  33.574  32.316  1.00  0.00     0.016 A 
ATOM     40  C   UNL A   1      36.307  34.956  32.959  1.00  0.00     0.010 A 
ATOM     41  C   UNL A   1      35.267  33.044  32.256  1.00  0.00     0.010 A 
ATOM     42  C   UNL A   1      36.577  33.689  32.398  1.00  0.00    -0.014 A 
BRANCH  42  43
ATOM     43  C   UNL A   1      38.257  32.967  32.002  1.00  0.00     0.031 A 
ATOM     44  C   UNL A   1      38.564  31.550  30.556  1.00  0.00     0.074 A 
ATOM     45  C   UNL A   1      39.067  33.318  33.166  1.00  0.00     0.049 A 
ATOM     46  N   UNL A   1      39.384  30.466  30.518  1.00  0.00    -0.248 NA
ATOM     47  C   UNL A   1      37.572  30.939  29.324  1.00  0.00     0.031 C 
ATOM     48  C   UNL A   1      40.469  32.991  33.534  1.00  0.00     0.029 A 
ATOM     49  N   UNL A   1      38.797  33.948  34.413  1.00  0.00    -0.354 N 
ATOM     50  C   UNL A   1      39.176  29.430  29.658  1.00  0.00     0.074 A 
ATOM     51  C   UNL A   1      38.021  29.762  28.926  1.00  0.00     0.031 C 
ATOM     52  C   UNL A   1      41.013  33.594  34.577  1.00  0.00     0.029 A 
ATOM     53  C   UNL A   1      39.866  33.826  35.331  1.00  0.00     0.049 A 
ATOM     54  H   UNL A   1      37.955  34.420  34.614  1.00  0.00     0.167 HD
ATOM     55  C   UNL A   1      40.009  28.349  29.649  1.00  0.00     0.037 A 
ATOM     56  C   UNL A   1      39.848  33.079  36.467  1.00  0.00     0.037 A 
ATOM     57  C   UNL A   1      41.019  28.412  30.729  1.00  0.00     0.049 A 
ATOM     58  C   UNL A   1      40.624  31.677  36.345  1.00  0.00     0.074 A 
ATOM     59  C   UNL A   1      42.346  28.770  30.717  1.00  0.00     0.029 A 
ATOM     60  N   UNL A   1      40.706  28.298  32.105  1.00  0.00    -0.354 N 
ATOM     61  N   UNL A   1      40.451  30.770  35.371  1.00  0.00    -0.248 NA
ATOM     62  C   UNL A   1      41.893  31.428  37.047  1.00  0.00     0.031 C 
ATOM     63  C   UNL A   1      42.747  29.092  32.045  1.00  0.00     0.029 A 
ATOM     64  C   UNL A   1      41.687  28.904  32.935  1.00  0.00     0.049 A 
ATOM     65  H   UNL A   1      39.900  27.849  32.448  1.00  0.00     0.167 HD
ATOM     66  C   UNL A   1      41.532  29.864  35.307  1.00  0.00     0.074 A 
ATOM     67  C   UNL A   1      42.404  30.381  36.369  1.00  0.00     0.031 C 
ATOM     68  C   UNL A   1      41.785  28.792  34.432  1.00  0.00     0.037 A 
BRANCH  55  69
ATOM     69  C   UNL A   1      40.093  27.577  28.324  1.00  0.00     0.064 A 
ATOM     70  C   UNL A   1      39.677  26.235  28.231  1.00  0.00     0.173 A 
ATOM     71  C   UNL A   1      40.747  28.054  27.163  1.00  0.00     0.173 A 
ATOM     72  F   UNL A   1      38.909  25.675  29.169  1.00  0.00    -0.203 F 
ATOM     73  C   UNL A   1      40.028  25.404  27.158  1.00  0.00     0.198 A 
ATOM     74  C   UNL A   1      41.158  27.210  26.119  1.00  0.00     0.198 A 
ATOM     75  F   UNL A   1      40.981  29.364  26.997  1.00  0.00    -0.203 F 
ATOM     76  F   UNL A   1      39.611  24.129  27.145  1.00  0.00    -0.200 F 
ATOM     77  C   UNL A   1      40.810  25.876  26.126  1.00  0.00     0.200 A 
ATOM     78  F   UNL A   1      41.896  27.698  25.111  1.00  0.00    -0.200 F 
ATOM     79  F   UNL A   1      41.186  25.065  25.128  1.00  0.00    -0.200 F 
ENDBRANCH  55  69
BRANCH  56  80
ATOM     80  C   UNL A   1      39.094  33.933  37.454  1.00  0.00     0.064 A 
ATOM     81  C   UNL A   1      37.770  33.456  37.757  1.00  0.00     0.173 A 
ATOM     82  C   UNL A   1      39.857  34.332  38.557  1.00  0.00     0.173 A 
ATOM     83  F   UNL A   1      36.962  33.064  36.754  1.00  0.00    -0.203 F 
ATOM     84  C   UNL A   1      37.444  33.006  39.045  1.00  0.00     0.198 A 
ATOM     85  C   UNL A   1      39.483  33.960  39.857  1.00  0.00     0.198 A 
ATOM     86  F   UNL A   1      41.085  34.830  38.359  1.00  0.00    -0.203 F 
ATOM     87  F   UNL A   1      36.386  32.200  39.234  1.00  0.00    -0.200 F 
ATOM     88  C   UNL A   1      38.330  33.217  40.085  1.00  0.00     0.200 A 
ATOM     89  F   UNL A   1      40.341  34.158  40.868  1.00  0.00    -0.200 F 
ATOM     90  F   UNL A   1      38.139  32.608  41.265  1.00  0.00    -0.200 F 
ENDBRANCH  56  80
BRANCH  68  91
ATOM     91  C   UNL A   1      42.550  27.498  34.851  1.00  0.00     0.064 A 
ATOM     92  C   UNL A   1      41.970  26.234  35.026  1.00  0.00     0.173 A 
ATOM     93  C   UNL A   1      43.980  27.486  34.953  1.00  0.00     0.173 A 
ATOM     94  F   UNL A   1      40.659  26.027  34.860  1.00  0.00    -0.203 F 
ATOM     95  C   UNL A   1      42.728  25.092  35.323  1.00  0.00     0.198 A 
ATOM     96  C   UNL A   1      44.732  26.348  35.230  1.00  0.00     0.198 A 
ATOM     97  F   UNL A   1      44.740  28.561  34.723  1.00  0.00    -0.203 F 
ATOM     98  F   UNL A   1      42.106  23.917  35.485  1.00  0.00    -0.200 F 
ATOM     99  C   UNL A   1      44.106  25.147  35.417  1.00  0.00     0.200 A 
ATOM    100  F   UNL A   1      46.070  26.434  35.268  1.00  0.00    -0.200 F 
ATOM    101  F   UNL A   1      44.825  24.042  35.642  1.00  0.00    -0.200 F 
ENDBRANCH  68  91
ENDBRANCH  42  43
ENDBRANCH  35  37
ENDBRANCH  34  35
ENDBRANCH  33  34
ENDBRANCH  32  33
ENDBRANCH  31  32
ENDBRANCH  30  31
ENDBRANCH  29  30
ENDBRANCH  28  29
ENDBRANCH   1  28
TORSDOF 25
ENDMDL
MODEL 2
REMARK VINA RESULT:     -13.5      3.585      9.936
REMARK SMILES CC[C@@H](C)[C@H](NC(=O)NCc1ccc(C)cc1)C(=O)OCCOCCOCCOCCOC(=O)c1ccc(-c2c3nc(c(-c4c(F)c(F)c(F)c(F)c4F)c4ccc([nH]4)c(-c4c(F)c(F)c(F)c(F)c4F)c4nc(c(-c5c(F)c(F)c(F)c(F)c5F)c5ccc2[nH]5)C=C4)C=C3)cc1
REMARK SMILES IDX 25 1 24 2 23 3 22 4 21 5 20 6 18 7 19 8 5 9 3 10 4 11 2 12
REMARK SMILES IDX 1 13 6 14 7 15 8 17 9 18 10 20 11 21 12 22 17 23 13 24 16 25
REMARK SMILES IDX 14 26 15 27 26 28 27 29 28 30 29 31 30 32 31 33 32 34 33 35
REMARK SMILES IDX 34 36 35 37 36 38 97 39 37 40 96 41 38 42 39 43 40 44 90 45
REMARK SMILES IDX 41 46 95 47 89 48 91 49 42 50 94 51 88 52 87 53 43 55 75 56
REMARK SMILES IDX 55 57 74 58 56 59 59 60 73 61 92 62 57 63 58 64 72 66 93 67
REMARK SMILES IDX 60 68 44 69 45 70 53 71 46 72 47 73 51 74 54 75 48 76 49 77
REMARK SMILES IDX 52 78 50 79 76 80 77 81 85 82 78 83 79 84 83 85 86 86 80 87
REMARK SMILES IDX 81 88 84 89 82 90 61 91 62 92 70 93 63 94 64 95 68 96 71 97
REMARK SMILES IDX 65 98 66 99 69 100 67 101
REMARK H PARENT 6 16 9 19 91 54 59 65
REMARK Flexibility Score: inf
ROOT
ATOM      1  C   UNL A   1      32.805  24.073  23.864  1.00  0.00     0.188 C 
ENDROOT
BRANCH   1   2
ATOM      2  C   UNL A   1      34.231  24.251  24.597  1.00  0.00     0.188 C 
BRANCH   2   3
ATOM      3  O   UNL A   1      35.947  23.629  24.418  1.00  0.00    -0.376 OA
BRANCH   3   4
ATOM      4  C   UNL A   1      37.316  23.556  25.573  1.00  0.00     0.202 C 
BRANCH   4   5
ATOM      5  C   UNL A   1      38.367  22.002  25.896  1.00  0.00     0.261 C 
BRANCH   5   6
ATOM      6  O   UNL A   1      40.013  21.939  26.824  1.00  0.00    -0.462 OA
BRANCH   6   7
ATOM      7  C   UNL A   1      41.326  21.224  27.180  1.00  0.00     0.329 C 
ATOM      8  O   UNL A   1      41.333  20.048  27.594  1.00  0.00    -0.250 OA
BRANCH   7   9
ATOM      9  C   UNL A   1      43.125  21.930  27.030  1.00  0.00     0.196 C 
BRANCH   9  10
ATOM     10  C   UNL A   1      44.597  21.592  25.421  1.00  0.00     0.019 C 
ATOM     11  C   UNL A   1      44.730  22.403  23.850  1.00  0.00     0.010 C 
BRANCH  10  12
ATOM     12  C   UNL A   1      44.905  19.930  24.610  1.00  0.00     0.002 C 
ATOM     13  C   UNL A   1      45.473  18.726  25.360  1.00  0.00     0.004 C 
ENDBRANCH  10  12
ENDBRANCH   9  10
BRANCH   9  14
ATOM     14  N   UNL A   1      43.360  22.157  28.684  1.00  0.00    -0.324 N 
ATOM     15  C   UNL A   1      43.721  23.176  29.503  1.00  0.00     0.315 C 
ATOM     16  H   UNL A   1      43.191  21.330  29.189  1.00  0.00     0.166 HD
ATOM     17  O   UNL A   1      43.668  23.065  30.726  1.00  0.00    -0.249 OA
ATOM     18  N   UNL A   1      44.030  24.368  28.940  1.00  0.00    -0.334 N 
ATOM     19  H   UNL A   1      44.004  25.182  29.490  1.00  0.00     0.165 HD
BRANCH  18  20
ATOM     20  C   UNL A   1      44.391  24.467  27.556  1.00  0.00     0.153 C 
BRANCH  20  21
ATOM     21  C   UNL A   1      45.405  25.596  27.287  1.00  0.00    -0.029 A 
ATOM     22  C   UNL A   1      46.775  26.165  28.408  1.00  0.00     0.006 A 
ATOM     23  C   UNL A   1      45.735  25.502  25.541  1.00  0.00     0.006 A 
ATOM     24  C   UNL A   1      48.456  26.279  27.704  1.00  0.00     0.004 A 
ATOM     25  C   UNL A   1      47.341  25.620  24.930  1.00  0.00     0.004 A 
ATOM     26  C   UNL A   1      48.675  26.036  25.945  1.00  0.00    -0.051 A 
ATOM     27  C   UNL A   1      50.018  26.076  25.286  1.00  0.00     0.044 C 
ENDBRANCH  20  21
ENDBRANCH  18  20
ENDBRANCH   9  14
ENDBRANCH   7   9
ENDBRANCH   6   7
ENDBRANCH   5   6
ENDBRANCH   4   5
ENDBRANCH   3   4
ENDBRANCH   2   3
ENDBRANCH   1   2
BRANCH   1  28
ATOM     28  O   UNL A   1      31.565  24.710  24.138  1.00  0.00    -0.377 OA
BRANCH  28  29
ATOM     29  C   UNL A   1      31.115  25.885  23.482  1.00  0.00     0.188 C 
BRANCH  29  30
ATOM     30  C   UNL A   1      30.157  26.853  24.132  1.00  0.00     0.188 C 
BRANCH  30  31
ATOM     31  O   UNL A   1      30.838  27.471  25.182  1.00  0.00    -0.376 OA
BRANCH  31  32
ATOM     32  C   UNL A   1      31.980  28.221  24.859  1.00  0.00     0.202 C 
BRANCH  32  33
ATOM     33  C   UNL A   1      31.746  29.633  25.360  1.00  0.00     0.261 C 
BRANCH  33  34
ATOM     34  O   UNL A   1      32.604  29.895  26.515  1.00  0.00    -0.460 OA
BRANCH  34  35
ATOM     35  C   UNL A   1      32.649  31.178  27.016  1.00  0.00     0.338 C 
ATOM     36  O   UNL A   1      31.741  31.983  26.909  1.00  0.00    -0.246 OA
BRANCH  35  37
ATOM     37  C   UNL A   1      33.997  31.504  27.601  1.00  0.00     0.060 A 
ATOM     38  C   UNL A   1      35.157  30.733  27.435  1.00  0.00     0.016 A 
ATOM     39  C   UNL A   1      34.026  32.394  28.622  1.00  0.00     0.016 A 
ATOM     40  C   UNL A   1      36.126  30.571  28.507  1.00  0.00     0.010 A 
ATOM     41  C   UNL A   1      34.872  32.077  29.686  1.00  0.00     0.010 A 
ATOM     42  C   UNL A   1      35.893  31.033  29.821  1.00  0.00    -0.014 A 
BRANCH  42  43
ATOM     43  C   UNL A   1      36.767  30.482  31.381  1.00  0.00     0.031 A 
ATOM     44  C   UNL A   1      36.990  31.676  33.031  1.00  0.00     0.074 A 
ATOM     45  C   UNL A   1      37.524  29.308  30.957  1.00  0.00     0.049 A 
ATOM     46  N   UNL A   1      38.026  31.826  33.898  1.00  0.00    -0.248 NA
ATOM     47  C   UNL A   1      36.309  33.166  33.465  1.00  0.00     0.031 C 
ATOM     48  C   UNL A   1      38.486  28.435  31.678  1.00  0.00     0.029 A 
ATOM     49  N   UNL A   1      37.745  28.665  29.707  1.00  0.00    -0.354 N 
ATOM     50  C   UNL A   1      38.154  32.929  34.689  1.00  0.00     0.074 A 
ATOM     51  C   UNL A   1      37.055  33.753  34.384  1.00  0.00     0.031 C 
ATOM     52  C   UNL A   1      38.897  27.320  31.097  1.00  0.00     0.029 A 
ATOM     53  C   UNL A   1      38.779  27.701  29.763  1.00  0.00     0.049 A 
ATOM     54  H   UNL A   1      37.233  28.869  28.891  1.00  0.00     0.167 HD
ATOM     55  C   UNL A   1      39.211  33.060  35.543  1.00  0.00     0.037 A 
ATOM     56  C   UNL A   1      39.994  27.812  29.161  1.00  0.00     0.037 A 
ATOM     57  C   UNL A   1      40.192  31.962  35.391  1.00  0.00     0.049 A 
ATOM     58  C   UNL A   1      41.186  28.227  30.155  1.00  0.00     0.074 A 
ATOM     59  C   UNL A   1      40.412  30.826  36.133  1.00  0.00     0.029 A 
ATOM     60  N   UNL A   1      41.000  31.785  34.242  1.00  0.00    -0.354 N 
ATOM     61  N   UNL A   1      41.166  29.260  31.011  1.00  0.00    -0.248 NA
ATOM     62  C   UNL A   1      42.249  27.281  30.529  1.00  0.00     0.031 C 
ATOM     63  C   UNL A   1      41.143  29.895  35.341  1.00  0.00     0.029 A 
ATOM     64  C   UNL A   1      41.437  30.441  34.089  1.00  0.00     0.049 A 
ATOM     65  H   UNL A   1      41.235  32.511  33.620  1.00  0.00     0.167 HD
ATOM     66  C   UNL A   1      42.156  29.126  32.010  1.00  0.00     0.074 A 
ATOM     67  C   UNL A   1      42.757  27.837  31.648  1.00  0.00     0.031 C 
ATOM     68  C   UNL A   1      42.466  29.941  33.114  1.00  0.00     0.037 A 
BRANCH  55  69
ATOM     69  C   UNL A   1      38.974  33.948  36.773  1.00  0.00     0.064 A 
ATOM     70  C   UNL A   1      39.533  35.237  36.864  1.00  0.00     0.173 A 
ATOM     71  C   UNL A   1      38.359  33.507  37.969  1.00  0.00     0.173 A 
ATOM     72  F   UNL A   1      40.011  35.868  35.787  1.00  0.00    -0.203 F 
ATOM     73  C   UNL A   1      39.620  35.944  38.071  1.00  0.00     0.198 A 
ATOM     74  C   UNL A   1      38.502  34.180  39.192  1.00  0.00     0.198 A 
ATOM     75  F   UNL A   1      37.574  32.420  37.977  1.00  0.00    -0.203 F 
ATOM     76  F   UNL A   1      40.182  37.162  38.085  1.00  0.00    -0.200 F 
ATOM     77  C   UNL A   1      39.150  35.396  39.245  1.00  0.00     0.200 A 
ATOM     78  F   UNL A   1      38.013  33.640  40.319  1.00  0.00    -0.200 F 
ATOM     79  F   UNL A   1      39.281  36.053  40.406  1.00  0.00    -0.200 F 
ENDBRANCH  55  69
BRANCH  56  80
ATOM     80  C   UNL A   1      39.724  27.443  27.724  1.00  0.00     0.064 A 
ATOM     81  C   UNL A   1      40.153  28.433  26.770  1.00  0.00     0.173 A 
ATOM     82  C   UNL A   1      40.051  26.120  27.407  1.00  0.00     0.173 A 
ATOM     83  F   UNL A   1      39.868  29.730  26.989  1.00  0.00    -0.203 F 
ATOM     84  C   UNL A   1      41.183  28.155  25.859  1.00  0.00     0.198 A 
ATOM     85  C   UNL A   1      41.018  25.837  26.430  1.00  0.00     0.198 A 
ATOM     86  F   UNL A   1      39.652  25.133  28.221  1.00  0.00    -0.203 F 
ATOM     87  F   UNL A   1      41.854  29.159  25.270  1.00  0.00    -0.200 F 
ATOM     88  C   UNL A   1      41.647  26.860  25.730  1.00  0.00     0.200 A 
ATOM     89  F   UNL A   1      41.475  24.584  26.305  1.00  0.00    -0.200 F 
ATOM     90  F   UNL A   1      42.768  26.615  25.034  1.00  0.00    -0.200 F 
ENDBRANCH  56  80
BRANCH  68  91
ATOM     91  C   UNL A   1      43.910  30.111  33.682  1.00  0.00     0.064 A 
ATOM     92  C   UNL A   1      44.620  29.137  34.397  1.00  0.00     0.173 A 
ATOM     93  C   UNL A   1      44.692  31.273  33.374  1.00  0.00     0.173 A 
ATOM     94  F   UNL A   1      44.092  27.942  34.682  1.00  0.00    -0.203 F 
ATOM     95  C   UNL A   1      45.948  29.324  34.808  1.00  0.00     0.198 A 
ATOM     96  C   UNL A   1      46.014  31.448  33.768  1.00  0.00     0.198 A 
ATOM     97  F   UNL A   1      44.243  32.279  32.617  1.00  0.00    -0.203 F 
ATOM     98  F   UNL A   1      46.563  28.353  35.497  1.00  0.00    -0.200 F 
ATOM     99  C   UNL A   1      46.646  30.472  34.488  1.00  0.00     0.200 A 
ATOM    100  F   UNL A   1      46.672  32.557  33.397  1.00  0.00    -0.200 F 
ATOM    101  F   UNL A   1      47.930  30.616  34.834  1.00  0.00    -0.200 F 
ENDBRANCH  68  91
ENDBRANCH  42  43
ENDBRANCH  35  37
ENDBRANCH  34  35
ENDBRANCH  33  34
ENDBRANCH  32  33
ENDBRANCH  31  32
ENDBRANCH  30  31
ENDBRANCH  29  30
ENDBRANCH  28  29
ENDBRANCH   1  28
TORSDOF 25
ENDMDL
MODEL 3
REMARK VINA RESULT:     -13.5      3.076      5.765
REMARK SMILES CC[C@@H](C)[C@H](NC(=O)NCc1ccc(C)cc1)C(=O)OCCOCCOCCOCCOC(=O)c1ccc(-c2c3nc(c(-c4c(F)c(F)c(F)c(F)c4F)c4ccc([nH]4)c(-c4c(F)c(F)c(F)c(F)c4F)c4nc(c(-c5c(F)c(F)c(F)c(F)c5F)c5ccc2[nH]5)C=C4)C=C3)cc1
REMARK SMILES IDX 25 1 24 2 23 3 22 4 21 5 20 6 18 7 19 8 5 9 3 10 4 11 2 12
REMARK SMILES IDX 1 13 6 14 7 15 8 17 9 18 10 20 11 21 12 22 17 23 13 24 16 25
REMARK SMILES IDX 14 26 15 27 26 28 27 29 28 30 29 31 30 32 31 33 32 34 33 35
REMARK SMILES IDX 34 36 35 37 36 38 97 39 37 40 96 41 38 42 39 43 40 44 90 45
REMARK SMILES IDX 41 46 95 47 89 48 91 49 42 50 94 51 88 52 87 53 43 55 75 56
REMARK SMILES IDX 55 57 74 58 56 59 59 60 73 61 92 62 57 63 58 64 72 66 93 67
REMARK SMILES IDX 60 68 44 69 45 70 53 71 46 72 47 73 51 74 54 75 48 76 49 77
REMARK SMILES IDX 52 78 50 79 76 80 77 81 85 82 78 83 79 84 83 85 86 86 80 87
REMARK SMILES IDX 81 88 84 89 82 90 61 91 62 92 70 93 63 94 64 95 68 96 71 97
REMARK SMILES IDX 65 98 66 99 69 100 67 101
REMARK H PARENT 6 16 9 19 91 54 59 65
REMARK Flexibility Score: inf
ROOT
ATOM      1  C   UNL A   1      39.527  26.052  28.129  1.00  0.00     0.188 C 
ENDROOT
BRANCH   1   2
ATOM      2  C   UNL A   1      39.089  24.515  27.912  1.00  0.00     0.188 C 
BRANCH   2   3
ATOM      3  O   UNL A   1      39.289  23.203  26.646  1.00  0.00    -0.376 OA
BRANCH   3   4
ATOM      4  C   UNL A   1      38.096  22.327  25.635  1.00  0.00     0.202 C 
BRANCH   4   5
ATOM      5  C   UNL A   1      36.255  22.793  25.502  1.00  0.00     0.261 C 
BRANCH   5   6
ATOM      6  O   UNL A   1      35.486  23.958  24.225  1.00  0.00    -0.462 OA
BRANCH   6   7
ATOM      7  C   UNL A   1      34.299  24.782  23.706  1.00  0.00     0.329 C 
ATOM      8  O   UNL A   1      34.024  24.831  22.490  1.00  0.00    -0.250 OA
BRANCH   7   9
ATOM      9  C   UNL A   1      33.037  25.812  24.756  1.00  0.00     0.196 C 
BRANCH   9  10
ATOM     10  C   UNL A   1      33.237  27.884  25.488  1.00  0.00     0.019 C 
ATOM     11  C   UNL A   1      34.273  28.508  26.785  1.00  0.00     0.010 C 
BRANCH  10  12
ATOM     12  C   UNL A   1      31.805  28.924  26.107  1.00  0.00     0.002 C 
ATOM     13  C   UNL A   1      31.472  30.306  25.546  1.00  0.00     0.004 C 
ENDBRANCH  10  12
ENDBRANCH   9  10
BRANCH   9  14
ATOM     14  N   UNL A   1      32.270  24.485  25.457  1.00  0.00    -0.324 N 
ATOM     15  C   UNL A   1      30.997  24.051  25.629  1.00  0.00     0.315 C 
ATOM     16  H   UNL A   1      32.921  23.857  25.846  1.00  0.00     0.166 HD
ATOM     17  O   UNL A   1      30.754  22.932  26.074  1.00  0.00    -0.249 OA
ATOM     18  N   UNL A   1      29.990  24.839  25.181  1.00  0.00    -0.334 N 
ATOM     19  H   UNL A   1      29.104  24.443  25.018  1.00  0.00     0.165 HD
BRANCH  18  20
ATOM     20  C   UNL A   1      30.189  26.237  24.938  1.00  0.00     0.153 C 
BRANCH  20  21
ATOM     21  C   UNL A   1      29.372  26.754  23.738  1.00  0.00    -0.029 A 
ATOM     22  C   UNL A   1      27.581  27.253  23.733  1.00  0.00     0.006 A 
ATOM     23  C   UNL A   1      30.519  27.736  22.797  1.00  0.00     0.006 A 
ATOM     24  C   UNL A   1      27.157  28.889  23.041  1.00  0.00     0.004 A 
ATOM     25  C   UNL A   1      30.065  29.272  22.162  1.00  0.00     0.004 A 
ATOM     26  C   UNL A   1      28.436  29.840  22.227  1.00  0.00    -0.051 A 
ATOM     27  C   UNL A   1      28.190  31.205  21.661  1.00  0.00     0.044 C 
ENDBRANCH  20  21
ENDBRANCH  18  20
ENDBRANCH   9  14
ENDBRANCH   7   9
ENDBRANCH   6   7
ENDBRANCH   5   6
ENDBRANCH   4   5
ENDBRANCH   3   4
ENDBRANCH   2   3
ENDBRANCH   1   2
BRANCH   1  28
ATOM     28  O   UNL A   1      39.856  26.734  29.331  1.00  0.00    -0.377 OA
BRANCH  28  29
ATOM     29  C   UNL A   1      38.903  27.122  30.310  1.00  0.00     0.188 C 
BRANCH  29  30
ATOM     30  C   UNL A   1      38.155  28.429  30.230  1.00  0.00     0.188 C 
BRANCH  30  31
ATOM     31  O   UNL A   1      38.701  29.158  29.173  1.00  0.00    -0.376 OA
BRANCH  31  32
ATOM     32  C   UNL A   1      37.808  29.708  28.239  1.00  0.00     0.202 C 
BRANCH  32  33
ATOM     33  C   UNL A   1      36.501  29.964  28.965  1.00  0.00     0.261 C 
BRANCH  33  34
ATOM     34  O   UNL A   1      36.237  31.402  29.012  1.00  0.00    -0.460 OA
BRANCH  34  35
ATOM     35  C   UNL A   1      36.162  32.010  30.247  1.00  0.00     0.338 C 
ATOM     36  O   UNL A   1      35.116  32.293  30.804  1.00  0.00    -0.246 OA
BRANCH  35  37
ATOM     37  C   UNL A   1      37.522  32.394  30.767  1.00  0.00     0.060 A 
ATOM     38  C   UNL A   1      38.493  33.100  30.042  1.00  0.00     0.016 A 
ATOM     39  C   UNL A   1      37.971  31.732  31.859  1.00  0.00     0.016 A 
ATOM     40  C   UNL A   1      39.910  32.802  30.173  1.00  0.00     0.010 A 
ATOM     41  C   UNL A   1      39.312  31.344  31.831  1.00  0.00     0.010 A 
ATOM     42  C   UNL A   1      40.391  31.691  30.900  1.00  0.00    -0.014 A 
BRANCH  42  43
ATOM     43  C   UNL A   1      42.077  30.893  30.754  1.00  0.00     0.031 A 
ATOM     44  C   UNL A   1      42.592  29.613  29.240  1.00  0.00     0.074 A 
ATOM     45  C   UNL A   1      42.656  31.063  32.084  1.00  0.00     0.049 A 
ATOM     46  N   UNL A   1      43.347  28.483  29.236  1.00  0.00    -0.248 NA
ATOM     47  C   UNL A   1      41.834  29.206  27.779  1.00  0.00     0.031 C 
ATOM     48  C   UNL A   1      43.939  30.599  32.673  1.00  0.00     0.029 A 
ATOM     49  N   UNL A   1      42.177  31.580  33.319  1.00  0.00    -0.354 N 
ATOM     50  C   UNL A   1      43.261  27.558  28.238  1.00  0.00     0.074 A 
ATOM     51  C   UNL A   1      42.293  28.047  27.341  1.00  0.00     0.031 C 
ATOM     52  C   UNL A   1      44.295  31.050  33.864  1.00  0.00     0.029 A 
ATOM     53  C   UNL A   1      43.034  31.287  34.405  1.00  0.00     0.049 A 
ATOM     54  H   UNL A   1      41.337  32.088  33.408  1.00  0.00     0.167 HD
ATOM     55  C   UNL A   1      44.022  26.426  28.265  1.00  0.00     0.037 A 
ATOM     56  C   UNL A   1      42.753  30.430  35.423  1.00  0.00     0.037 A 
ATOM     57  C   UNL A   1      44.800  26.304  29.518  1.00  0.00     0.049 A 
ATOM     58  C   UNL A   1      43.465  28.995  35.292  1.00  0.00     0.074 A 
ATOM     59  C   UNL A   1      46.119  26.564  29.802  1.00  0.00     0.029 A 
ATOM     60  N   UNL A   1      44.214  26.073  30.787  1.00  0.00    -0.354 N 
ATOM     61  N   UNL A   1      43.443  28.208  34.205  1.00  0.00    -0.248 NA
ATOM     62  C   UNL A   1      44.555  28.584  36.191  1.00  0.00     0.031 C 
ATOM     63  C   UNL A   1      46.264  26.718  31.210  1.00  0.00     0.029 A 
ATOM     64  C   UNL A   1      45.041  26.517  31.854  1.00  0.00     0.049 A 
ATOM     65  H   UNL A   1      43.334  25.651  30.915  1.00  0.00     0.167 HD
ATOM     66  C   UNL A   1      44.467  27.237  34.246  1.00  0.00     0.074 A 
ATOM     67  C   UNL A   1      45.136  27.577  35.508  1.00  0.00     0.031 C 
ATOM     68  C   UNL A   1      44.834  26.245  33.318  1.00  0.00     0.037 A 
BRANCH  55  69
ATOM     69  C   UNL A   1      44.328  25.790  26.901  1.00  0.00     0.064 A 
ATOM     70  C   UNL A   1      43.475  24.823  26.336  1.00  0.00     0.173 A 
ATOM     71  C   UNL A   1      45.542  25.962  26.195  1.00  0.00     0.173 A 
ATOM     72  F   UNL A   1      42.227  24.647  26.781  1.00  0.00    -0.203 F 
ATOM     73  C   UNL A   1      43.865  23.992  25.277  1.00  0.00     0.198 A 
ATOM     74  C   UNL A   1      45.964  25.089  25.180  1.00  0.00     0.198 A 
ATOM     75  F   UNL A   1      46.346  27.004  26.454  1.00  0.00    -0.203 F 
ATOM     76  F   UNL A   1      43.004  23.079  24.802  1.00  0.00    -0.200 F 
ATOM     77  C   UNL A   1      45.127  24.090  24.731  1.00  0.00     0.200 A 
ATOM     78  F   UNL A   1      47.186  25.220  24.644  1.00  0.00    -0.200 F 
ATOM     79  F   UNL A   1      45.514  23.259  23.753  1.00  0.00    -0.200 F 
ENDBRANCH  55  69
BRANCH  56  80
ATOM     80  C   UNL A   1      41.863  31.231  36.339  1.00  0.00     0.064 A 
ATOM     81  C   UNL A   1      42.383  32.532  36.677  1.00  0.00     0.173 A 
ATOM     82  C   UNL A   1      40.510  31.197  35.988  1.00  0.00     0.173 A 
ATOM     83  F   UNL A   1      43.673  32.654  37.040  1.00  0.00    -0.203 F 
ATOM     84  C   UNL A   1      41.729  33.699  36.256  1.00  0.00     0.198 A 
ATOM     85  C   UNL A   1      39.827  32.377  35.654  1.00  0.00     0.198 A 
ATOM     86  F   UNL A   1      39.936  30.021  35.701  1.00  0.00    -0.203 F 
ATOM     87  F   UNL A   1      42.394  34.866  36.203  1.00  0.00    -0.200 F 
ATOM     88  C   UNL A   1      40.468  33.610  35.698  1.00  0.00     0.200 A 
ATOM     89  F   UNL A   1      38.606  32.296  35.107  1.00  0.00    -0.200 F 
ATOM     90  F   UNL A   1      39.924  34.679  35.095  1.00  0.00    -0.200 F 
ENDBRANCH  56  80
BRANCH  68  91
ATOM     91  C   UNL A   1      45.433  24.863  33.725  1.00  0.00     0.064 A 
ATOM     92  C   UNL A   1      46.786  24.611  33.987  1.00  0.00     0.173 A 
ATOM     93  C   UNL A   1      44.581  23.744  34.006  1.00  0.00     0.173 A 
ATOM     94  F   UNL A   1      47.717  25.565  33.887  1.00  0.00    -0.203 F 
ATOM     95  C   UNL A   1      47.247  23.362  34.429  1.00  0.00     0.198 A 
ATOM     96  C   UNL A   1      45.039  22.512  34.462  1.00  0.00     0.198 A 
ATOM     97  F   UNL A   1      43.248  23.797  33.921  1.00  0.00    -0.203 F 
ATOM     98  F   UNL A   1      48.557  23.189  34.652  1.00  0.00    -0.200 F 
ATOM     99  C   UNL A   1      46.376  22.318  34.674  1.00  0.00     0.200 A 
ATOM    100  F   UNL A   1      44.157  21.538  34.732  1.00  0.00    -0.200 F 
ATOM    101  F   UNL A   1      46.819  21.150  35.152  1.00  0.00    -0.200 F 
ENDBRANCH  68  91
ENDBRANCH  42  43
ENDBRANCH  35  37
ENDBRANCH  34  35
ENDBRANCH  33  34
ENDBRANCH  32  33
ENDBRANCH  31  32
ENDBRANCH  30  31
ENDBRANCH  29  30
ENDBRANCH  28  29
ENDBRANCH   1  28
TORSDOF 25
ENDMDL
