MODEL 1
REMARK VINA RESULT:      -9.5      0.000      0.000
REMARK SMILES O=C(OCCOCCOCCOCCOC(=O)c1cc(-c2ccc(Cl)cc2)nc2c3c(C4CC4)cc(C(F)(F)F)nc3nn12)c1ccc(-c2c3nc(c(-c4c(F)c(F)c(F)c(F)c4F)c4ccc([nH]4)c(-c4c(F)c(F)c(F)c(F)c4F)c4nc(c(-c5c(F)c(F)c(F)c(F)c5F)c5ccc2[nH]5)C=C4)C=C3)cc1
REMARK SMILES IDX 8 1 7 2 6 3 5 4 4 5 3 6 2 7 1 8 45 9 46 10 107 11 47 12
REMARK SMILES IDX 106 13 48 14 49 15 50 16 100 17 51 18 105 19 99 20 101 21
REMARK SMILES IDX 52 22 104 23 98 24 97 25 53 27 85 28 65 29 84 30 66 31 69 32
REMARK SMILES IDX 83 33 102 34 67 35 68 36 82 38 103 39 70 40 54 41 55 42
REMARK SMILES IDX 63 43 56 44 57 45 61 46 64 47 58 48 59 49 62 50 60 51 86 52
REMARK SMILES IDX 87 53 95 54 88 55 89 56 93 57 96 58 90 59 91 60 94 61 92 62
REMARK SMILES IDX 71 63 72 64 80 65 73 66 74 67 78 68 81 69 75 70 76 71 79 72
REMARK SMILES IDX 77 73 9 74 10 75 11 76 12 77 13 78 14 79 15 80 16 81 17 82
REMARK SMILES IDX 18 83 19 84 44 85 20 86 29 87 43 88 28 89 30 90 42 91 31 92
REMARK SMILES IDX 41 93 35 94 36 95 21 96 22 97 27 98 23 99 26 100 24 101
REMARK SMILES IDX 25 102 32 103 33 104 34 105 37 106 38 107 39 108 40 109
REMARK H PARENT 101 26 69 37
REMARK Flexibility Score: inf
ROOT
ATOM      1  C   UNL A   1      51.845  26.966  28.599  1.00  0.00     0.188 C 
ENDROOT
BRANCH   1   2
ATOM      2  C   UNL A   1      51.535  28.457  28.593  1.00  0.00     0.188 C 
BRANCH   2   3
ATOM      3  O   UNL A   1      50.346  28.795  29.307  1.00  0.00    -0.376 OA
BRANCH   3   4
ATOM      4  C   UNL A   1      49.114  28.826  28.590  1.00  0.00     0.202 C 
BRANCH   4   5
ATOM      5  C   UNL A   1      48.936  30.044  27.688  1.00  0.00     0.261 C 
BRANCH   5   6
ATOM      6  O   UNL A   1      47.646  30.662  27.829  1.00  0.00    -0.460 OA
BRANCH   6   7
ATOM      7  C   UNL A   1      47.338  31.411  28.924  1.00  0.00     0.338 C 
ATOM      8  O   UNL A   1      48.135  32.169  29.457  1.00  0.00    -0.246 OA
BRANCH   7   9
ATOM      9  C   UNL A   1      45.922  31.424  29.309  1.00  0.00     0.060 A 
ATOM     10  C   UNL A   1      44.881  31.154  28.409  1.00  0.00     0.016 A 
ATOM     11  C   UNL A   1      45.661  31.729  30.640  1.00  0.00     0.016 A 
ATOM     12  C   UNL A   1      43.569  31.287  28.803  1.00  0.00     0.010 A 
ATOM     13  C   UNL A   1      44.347  31.806  31.055  1.00  0.00     0.010 A 
ATOM     14  C   UNL A   1      43.311  31.571  30.136  1.00  0.00    -0.014 A 
BRANCH  14  15
ATOM     15  C   UNL A   1      41.931  31.351  30.554  1.00  0.00     0.031 A 
ATOM     16  C   UNL A   1      41.776  30.033  31.233  1.00  0.00     0.074 A 
ATOM     17  C   UNL A   1      41.128  32.394  30.820  1.00  0.00     0.049 A 
ATOM     18  N   UNL A   1      42.174  29.906  32.464  1.00  0.00    -0.248 NA
ATOM     19  C   UNL A   1      41.646  28.756  30.530  1.00  0.00     0.031 C 
ATOM     20  C   UNL A   1      41.605  33.704  31.279  1.00  0.00     0.029 A 
ATOM     21  N   UNL A   1      39.764  32.453  30.944  1.00  0.00    -0.354 N 
ATOM     22  C   UNL A   1      42.491  28.583  32.663  1.00  0.00     0.074 A 
ATOM     23  C   UNL A   1      42.081  27.888  31.463  1.00  0.00     0.031 C 
ATOM     24  C   UNL A   1      40.568  34.370  31.821  1.00  0.00     0.029 A 
ATOM     25  C   UNL A   1      39.343  33.600  31.622  1.00  0.00     0.049 A 
ATOM     26  H   UNL A   1      39.151  31.766  30.595  1.00  0.00     0.167 HD
ATOM     27  C   UNL A   1      43.132  28.180  33.790  1.00  0.00     0.037 A 
ATOM     28  C   UNL A   1      38.308  33.546  32.507  1.00  0.00     0.037 A 
ATOM     29  C   UNL A   1      43.517  29.233  34.689  1.00  0.00     0.049 A 
ATOM     30  C   UNL A   1      38.944  32.758  33.639  1.00  0.00     0.074 A 
ATOM     31  C   UNL A   1      44.672  29.897  35.039  1.00  0.00     0.029 A 
ATOM     32  N   UNL A   1      42.513  29.880  35.372  1.00  0.00    -0.354 N 
ATOM     33  N   UNL A   1      39.827  33.231  34.483  1.00  0.00    -0.248 NA
ATOM     34  C   UNL A   1      38.880  31.297  33.602  1.00  0.00     0.031 C 
ATOM     35  C   UNL A   1      44.242  31.162  35.559  1.00  0.00     0.029 A 
ATOM     36  C   UNL A   1      42.850  31.206  35.461  1.00  0.00     0.049 A 
ATOM     37  H   UNL A   1      41.697  29.464  35.735  1.00  0.00     0.167 HD
ATOM     38  C   UNL A   1      40.616  32.137  34.860  1.00  0.00     0.074 A 
ATOM     39  C   UNL A   1      39.938  30.973  34.336  1.00  0.00     0.031 C 
ATOM     40  C   UNL A   1      41.865  32.267  35.399  1.00  0.00     0.037 A 
BRANCH  27  41
ATOM     41  C   UNL A   1      43.202  26.783  34.239  1.00  0.00     0.064 A 
ATOM     42  C   UNL A   1      44.178  25.995  33.612  1.00  0.00     0.173 A 
ATOM     43  C   UNL A   1      42.260  26.156  35.055  1.00  0.00     0.173 A 
ATOM     44  F   UNL A   1      45.083  26.571  32.802  1.00  0.00    -0.203 F 
ATOM     45  C   UNL A   1      44.192  24.616  33.757  1.00  0.00     0.198 A 
ATOM     46  C   UNL A   1      42.285  24.768  35.214  1.00  0.00     0.198 A 
ATOM     47  F   UNL A   1      41.297  26.867  35.659  1.00  0.00    -0.203 F 
ATOM     48  F   UNL A   1      45.102  23.889  33.097  1.00  0.00    -0.200 F 
ATOM     49  C   UNL A   1      43.240  24.002  34.553  1.00  0.00     0.200 A 
ATOM     50  F   UNL A   1      41.367  24.163  35.979  1.00  0.00    -0.200 F 
ATOM     51  F   UNL A   1      43.235  22.667  34.671  1.00  0.00    -0.200 F 
ENDBRANCH  27  41
BRANCH  28  52
ATOM     52  C   UNL A   1      37.016  33.211  31.818  1.00  0.00     0.064 A 
ATOM     53  C   UNL A   1      35.997  34.195  31.827  1.00  0.00     0.173 A 
ATOM     54  C   UNL A   1      36.742  32.054  31.082  1.00  0.00     0.173 A 
ATOM     55  F   UNL A   1      36.116  35.285  32.603  1.00  0.00    -0.203 F 
ATOM     56  C   UNL A   1      34.877  34.109  31.004  1.00  0.00     0.198 A 
ATOM     57  C   UNL A   1      35.625  31.975  30.242  1.00  0.00     0.198 A 
ATOM     58  F   UNL A   1      37.554  30.991  31.133  1.00  0.00    -0.203 F 
ATOM     59  F   UNL A   1      33.989  35.114  30.978  1.00  0.00    -0.200 F 
ATOM     60  C   UNL A   1      34.713  33.015  30.179  1.00  0.00     0.200 A 
ATOM     61  F   UNL A   1      35.461  30.900  29.458  1.00  0.00    -0.200 F 
ATOM     62  F   UNL A   1      33.684  32.964  29.323  1.00  0.00    -0.200 F 
ENDBRANCH  28  52
BRANCH  40  63
ATOM     63  C   UNL A   1      42.260  33.668  35.731  1.00  0.00     0.064 A 
ATOM     64  C   UNL A   1      41.790  34.266  36.908  1.00  0.00     0.173 A 
ATOM     65  C   UNL A   1      43.110  34.421  34.905  1.00  0.00     0.173 A 
ATOM     66  F   UNL A   1      40.985  33.586  37.739  1.00  0.00    -0.203 F 
ATOM     67  C   UNL A   1      42.158  35.564  37.247  1.00  0.00     0.198 A 
ATOM     68  C   UNL A   1      43.505  35.706  35.268  1.00  0.00     0.198 A 
ATOM     69  F   UNL A   1      43.571  33.918  33.748  1.00  0.00    -0.203 F 
ATOM     70  F   UNL A   1      41.682  36.120  38.371  1.00  0.00    -0.200 F 
ATOM     71  C   UNL A   1      43.027  36.277  36.436  1.00  0.00     0.200 A 
ATOM     72  F   UNL A   1      44.360  36.388  34.491  1.00  0.00    -0.200 F 
ATOM     73  F   UNL A   1      43.410  37.513  36.785  1.00  0.00    -0.200 F 
ENDBRANCH  40  63
ENDBRANCH  14  15
ENDBRANCH   7   9
ENDBRANCH   6   7
ENDBRANCH   5   6
ENDBRANCH   4   5
ENDBRANCH   3   4
ENDBRANCH   2   3
ENDBRANCH   1   2
BRANCH   1  74
ATOM     74  O   UNL A   1      52.083  26.522  27.274  1.00  0.00    -0.377 OA
BRANCH  74  75
ATOM     75  C   UNL A   1      50.956  25.950  26.617  1.00  0.00     0.188 C 
BRANCH  75  76
ATOM     76  C   UNL A   1      50.511  26.401  25.196  1.00  0.00     0.188 C 
BRANCH  76  77
ATOM     77  O   UNL A   1      49.188  25.999  24.866  1.00  0.00    -0.376 OA
BRANCH  77  78
ATOM     78  C   UNL A   1      48.631  26.466  23.646  1.00  0.00     0.202 C 
BRANCH  78  79
ATOM     79  C   UNL A   1      47.546  27.547  23.736  1.00  0.00     0.261 C 
BRANCH  79  80
ATOM     80  O   UNL A   1      46.287  27.136  24.287  1.00  0.00    -0.459 OA
BRANCH  80  81
ATOM     81  C   UNL A   1      46.118  27.004  25.619  1.00  0.00     0.357 C 
ATOM     82  O   UNL A   1      46.792  27.546  26.487  1.00  0.00    -0.244 OA
BRANCH  81  83
ATOM     83  C   UNL A   1      44.827  26.313  25.864  1.00  0.00     0.154 A 
ATOM     84  C   UNL A   1      43.831  27.002  26.451  1.00  0.00     0.065 A 
ATOM     85  N   UNL A   1      44.603  25.011  25.420  1.00  0.00    -0.205 N 
ATOM     86  C   UNL A   1      42.505  26.306  26.492  1.00  0.00     0.075 A 
ATOM     87  C   UNL A   1      43.380  24.364  25.689  1.00  0.00     0.166 A 
ATOM     88  N   UNL A   1      45.467  24.213  24.753  1.00  0.00    -0.145 NA
ATOM     89  N   UNL A   1      42.298  25.063  26.167  1.00  0.00    -0.228 NA
ATOM     90  C   UNL A   1      43.631  23.030  25.431  1.00  0.00     0.069 A 
ATOM     91  C   UNL A   1      44.910  23.013  24.803  1.00  0.00     0.184 A 
ATOM     92  C   UNL A   1      42.839  21.911  25.735  1.00  0.00    -0.028 A 
ATOM     93  N   UNL A   1      45.509  21.880  24.380  1.00  0.00    -0.222 NA
ATOM     94  C   UNL A   1      43.518  20.743  25.317  1.00  0.00     0.038 A 
ATOM     95  C   UNL A   1      44.791  20.754  24.673  1.00  0.00     0.147 A 
BRANCH  86  96
ATOM     96  C   UNL A   1      41.375  27.150  26.944  1.00  0.00     0.000 A 
ATOM     97  C   UNL A   1      41.376  28.505  26.609  1.00  0.00     0.012 A 
ATOM     98  C   UNL A   1      40.318  26.599  27.683  1.00  0.00     0.012 A 
ATOM     99  C   UNL A   1      40.301  29.313  26.991  1.00  0.00     0.021 A 
ATOM    100  C   UNL A   1      39.242  27.413  28.060  1.00  0.00     0.021 A 
ATOM    101  C   UNL A   1      39.238  28.764  27.709  1.00  0.00     0.041 A 
ATOM    102  Cl  UNL A   1      37.911  29.763  28.160  1.00  0.00    -0.084 Cl
ENDBRANCH  86  96
BRANCH  92 103
ATOM    103  C   UNL A   1      41.551  21.990  26.492  1.00  0.00     0.020 C 
ATOM    104  C   UNL A   1      40.946  20.790  27.187  1.00  0.00     0.009 C 
ATOM    105  C   UNL A   1      41.593  21.868  28.002  1.00  0.00     0.009 C 
ENDBRANCH  92 103
BRANCH  95 106
ATOM    106  C   UNL A   1      45.449  19.426  24.316  1.00  0.00     0.433 C 
ATOM    107  F   UNL A   1      46.796  19.529  24.139  1.00  0.00    -0.165 F 
ATOM    108  F   UNL A   1      45.264  18.470  25.273  1.00  0.00    -0.165 F 
ATOM    109  F   UNL A   1      44.968  18.876  23.161  1.00  0.00    -0.165 F 
ENDBRANCH  95 106
ENDBRANCH  81  83
ENDBRANCH  80  81
ENDBRANCH  79  80
ENDBRANCH  78  79
ENDBRANCH  77  78
ENDBRANCH  76  77
ENDBRANCH  75  76
ENDBRANCH  74  75
ENDBRANCH   1  74
TORSDOF 23
ENDMDL
MODEL 2
REMARK VINA RESULT:      -9.3      1.257      2.120
REMARK SMILES O=C(OCCOCCOCCOCCOC(=O)c1cc(-c2ccc(Cl)cc2)nc2c3c(C4CC4)cc(C(F)(F)F)nc3nn12)c1ccc(-c2c3nc(c(-c4c(F)c(F)c(F)c(F)c4F)c4ccc([nH]4)c(-c4c(F)c(F)c(F)c(F)c4F)c4nc(c(-c5c(F)c(F)c(F)c(F)c5F)c5ccc2[nH]5)C=C4)C=C3)cc1
REMARK SMILES IDX 8 1 7 2 6 3 5 4 4 5 3 6 2 7 1 8 45 9 46 10 107 11 47 12
REMARK SMILES IDX 106 13 48 14 49 15 50 16 100 17 51 18 105 19 99 20 101 21
REMARK SMILES IDX 52 22 104 23 98 24 97 25 53 27 85 28 65 29 84 30 66 31 69 32
REMARK SMILES IDX 83 33 102 34 67 35 68 36 82 38 103 39 70 40 54 41 55 42
REMARK SMILES IDX 63 43 56 44 57 45 61 46 64 47 58 48 59 49 62 50 60 51 86 52
REMARK SMILES IDX 87 53 95 54 88 55 89 56 93 57 96 58 90 59 91 60 94 61 92 62
REMARK SMILES IDX 71 63 72 64 80 65 73 66 74 67 78 68 81 69 75 70 76 71 79 72
REMARK SMILES IDX 77 73 9 74 10 75 11 76 12 77 13 78 14 79 15 80 16 81 17 82
REMARK SMILES IDX 18 83 19 84 44 85 20 86 29 87 43 88 28 89 30 90 42 91 31 92
REMARK SMILES IDX 41 93 35 94 36 95 21 96 22 97 27 98 23 99 26 100 24 101
REMARK SMILES IDX 25 102 32 103 33 104 34 105 37 106 38 107 39 108 40 109
REMARK H PARENT 101 26 69 37
REMARK Flexibility Score: inf
ROOT
ATOM      1  C   UNL A   1      51.928  28.467  30.866  1.00  0.00     0.188 C 
ENDROOT
BRANCH   1   2
ATOM      2  C   UNL A   1      51.258  29.830  30.973  1.00  0.00     0.188 C 
BRANCH   2   3
ATOM      3  O   UNL A   1      49.836  29.759  31.081  1.00  0.00    -0.376 OA
BRANCH   3   4
ATOM      4  C   UNL A   1      49.055  30.069  29.929  1.00  0.00     0.202 C 
BRANCH   4   5
ATOM      5  C   UNL A   1      49.002  31.553  29.579  1.00  0.00     0.261 C 
BRANCH   5   6
ATOM      6  O   UNL A   1      47.661  32.039  29.399  1.00  0.00    -0.460 OA
BRANCH   6   7
ATOM      7  C   UNL A   1      47.048  32.789  30.357  1.00  0.00     0.338 C 
ATOM      8  O   UNL A   1      47.607  33.705  30.943  1.00  0.00    -0.246 OA
BRANCH   7   9
ATOM      9  C   UNL A   1      45.603  32.581  30.501  1.00  0.00     0.060 A 
ATOM     10  C   UNL A   1      44.707  32.656  29.424  1.00  0.00     0.016 A 
ATOM     11  C   UNL A   1      45.158  32.304  31.788  1.00  0.00     0.016 A 
ATOM     12  C   UNL A   1      43.352  32.559  29.639  1.00  0.00     0.010 A 
ATOM     13  C   UNL A   1      43.802  32.147  32.000  1.00  0.00     0.010 A 
ATOM     14  C   UNL A   1      42.911  32.262  30.921  1.00  0.00    -0.014 A 
BRANCH  14  15
ATOM     15  C   UNL A   1      41.520  31.830  31.007  1.00  0.00     0.031 A 
ATOM     16  C   UNL A   1      41.424  30.398  31.410  1.00  0.00     0.074 A 
ATOM     17  C   UNL A   1      40.550  32.718  31.275  1.00  0.00     0.049 A 
ATOM     18  N   UNL A   1      41.605  30.079  32.657  1.00  0.00    -0.248 NA
ATOM     19  C   UNL A   1      41.598  29.272  30.491  1.00  0.00     0.031 C 
ATOM     20  C   UNL A   1      40.754  33.957  32.033  1.00  0.00     0.029 A 
ATOM     21  N   UNL A   1      39.190  32.616  31.127  1.00  0.00    -0.354 N 
ATOM     22  C   UNL A   1      42.057  28.781  32.692  1.00  0.00     0.074 A 
ATOM     23  C   UNL A   1      41.969  28.290  31.335  1.00  0.00     0.031 C 
ATOM     24  C   UNL A   1      39.556  34.401  32.457  1.00  0.00     0.029 A 
ATOM     25  C   UNL A   1      38.502  33.565  31.888  1.00  0.00     0.049 A 
ATOM     26  H   UNL A   1      38.750  31.950  30.551  1.00  0.00     0.167 HD
ATOM     27  C   UNL A   1      42.530  28.236  33.842  1.00  0.00     0.037 A 
ATOM     28  C   UNL A   1      37.341  33.240  32.522  1.00  0.00     0.037 A 
ATOM     29  C   UNL A   1      42.600  29.133  34.963  1.00  0.00     0.049 A 
ATOM     30  C   UNL A   1      37.860  32.319  33.611  1.00  0.00     0.074 A 
ATOM     31  C   UNL A   1      43.571  29.829  35.647  1.00  0.00     0.029 A 
ATOM     32  N   UNL A   1      41.410  29.534  35.527  1.00  0.00    -0.354 N 
ATOM     33  N   UNL A   1      38.504  32.708  34.684  1.00  0.00    -0.248 NA
ATOM     34  C   UNL A   1      38.003  30.892  33.318  1.00  0.00     0.031 C 
ATOM     35  C   UNL A   1      42.888  30.923  36.273  1.00  0.00     0.029 A 
ATOM     36  C   UNL A   1      41.544  30.846  35.904  1.00  0.00     0.049 A 
ATOM     37  H   UNL A   1      40.606  28.977  35.641  1.00  0.00     0.167 HD
ATOM     38  C   UNL A   1      39.351  31.647  35.025  1.00  0.00     0.074 A 
ATOM     39  C   UNL A   1      38.943  30.541  34.187  1.00  0.00     0.031 C 
ATOM     40  C   UNL A   1      40.452  31.795  35.821  1.00  0.00     0.037 A 
BRANCH  27  41
ATOM     41  C   UNL A   1      42.705  26.793  34.056  1.00  0.00     0.064 A 
ATOM     42  C   UNL A   1      41.804  26.202  34.953  1.00  0.00     0.173 A 
ATOM     43  C   UNL A   1      43.797  26.046  33.616  1.00  0.00     0.173 A 
ATOM     44  F   UNL A   1      40.756  26.909  35.410  1.00  0.00    -0.203 F 
ATOM     45  C   UNL A   1      42.004  24.917  35.431  1.00  0.00     0.198 A 
ATOM     46  C   UNL A   1      43.989  24.744  34.087  1.00  0.00     0.198 A 
ATOM     47  F   UNL A   1      44.696  26.577  32.774  1.00  0.00    -0.203 F 
ATOM     48  F   UNL A   1      41.155  24.405  36.331  1.00  0.00    -0.200 F 
ATOM     49  C   UNL A   1      43.102  24.190  35.003  1.00  0.00     0.200 A 
ATOM     50  F   UNL A   1      45.051  24.034  33.682  1.00  0.00    -0.200 F 
ATOM     51  F   UNL A   1      43.313  22.958  35.489  1.00  0.00    -0.200 F 
ENDBRANCH  27  41
BRANCH  28  52
ATOM     52  C   UNL A   1      36.252  32.915  31.539  1.00  0.00     0.064 A 
ATOM     53  C   UNL A   1      35.248  33.892  31.329  1.00  0.00     0.173 A 
ATOM     54  C   UNL A   1      36.174  31.775  30.732  1.00  0.00     0.173 A 
ATOM     55  F   UNL A   1      35.168  34.962  32.136  1.00  0.00    -0.203 F 
ATOM     56  C   UNL A   1      34.356  33.821  30.262  1.00  0.00     0.198 A 
ATOM     57  C   UNL A   1      35.289  31.712  29.650  1.00  0.00     0.198 A 
ATOM     58  F   UNL A   1      36.964  30.716  30.949  1.00  0.00    -0.203 F 
ATOM     59  F   UNL A   1      33.488  34.820  30.050  1.00  0.00    -0.200 F 
ATOM     60  C   UNL A   1      34.405  32.747  29.397  1.00  0.00     0.200 A 
ATOM     61  F   UNL A   1      35.328  30.656  28.824  1.00  0.00    -0.200 F 
ATOM     62  F   UNL A   1      33.609  32.712  28.320  1.00  0.00    -0.200 F 
ENDBRANCH  28  52
BRANCH  40  63
ATOM     63  C   UNL A   1      40.588  33.140  36.456  1.00  0.00     0.064 A 
ATOM     64  C   UNL A   1      41.450  34.093  35.895  1.00  0.00     0.173 A 
ATOM     65  C   UNL A   1      39.865  33.501  37.603  1.00  0.00     0.173 A 
ATOM     66  F   UNL A   1      42.155  33.803  34.791  1.00  0.00    -0.203 F 
ATOM     67  C   UNL A   1      41.581  35.358  36.458  1.00  0.00     0.198 A 
ATOM     68  C   UNL A   1      39.971  34.782  38.141  1.00  0.00     0.198 A 
ATOM     69  F   UNL A   1      39.045  32.626  38.208  1.00  0.00    -0.203 F 
ATOM     70  F   UNL A   1      42.423  36.247  35.913  1.00  0.00    -0.200 F 
ATOM     71  C   UNL A   1      40.830  35.707  37.570  1.00  0.00     0.200 A 
ATOM     72  F   UNL A   1      39.232  35.124  39.206  1.00  0.00    -0.200 F 
ATOM     73  F   UNL A   1      40.929  36.940  38.088  1.00  0.00    -0.200 F 
ENDBRANCH  40  63
ENDBRANCH  14  15
ENDBRANCH   7   9
ENDBRANCH   6   7
ENDBRANCH   5   6
ENDBRANCH   4   5
ENDBRANCH   3   4
ENDBRANCH   2   3
ENDBRANCH   1   2
BRANCH   1  74
ATOM     74  O   UNL A   1      52.418  28.277  29.549  1.00  0.00    -0.377 OA
BRANCH  74  75
ATOM     75  C   UNL A   1      51.673  27.361  28.753  1.00  0.00     0.188 C 
BRANCH  75  76
ATOM     76  C   UNL A   1      51.149  27.733  27.336  1.00  0.00     0.188 C 
BRANCH  76  77
ATOM     77  O   UNL A   1      49.830  27.269  27.083  1.00  0.00    -0.376 OA
BRANCH  77  78
ATOM     78  C   UNL A   1      49.004  28.038  26.222  1.00  0.00     0.202 C 
BRANCH  78  79
ATOM     79  C   UNL A   1      47.598  28.391  26.726  1.00  0.00     0.261 C 
BRANCH  79  80
ATOM     80  O   UNL A   1      46.594  27.380  26.559  1.00  0.00    -0.459 OA
BRANCH  80  81
ATOM     81  C   UNL A   1      46.328  26.492  27.539  1.00  0.00     0.357 C 
ATOM     82  O   UNL A   1      46.961  26.360  28.580  1.00  0.00    -0.244 OA
BRANCH  81  83
ATOM     83  C   UNL A   1      44.999  25.884  27.278  1.00  0.00     0.154 A 
ATOM     84  C   UNL A   1      43.898  26.579  27.620  1.00  0.00     0.065 A 
ATOM     85  N   UNL A   1      44.875  24.668  26.609  1.00  0.00    -0.205 N 
ATOM     86  C   UNL A   1      42.599  25.993  27.156  1.00  0.00     0.075 A 
ATOM     87  C   UNL A   1      43.603  24.096  26.397  1.00  0.00     0.166 A 
ATOM     88  N   UNL A   1      45.870  23.888  26.135  1.00  0.00    -0.145 NA
ATOM     89  N   UNL A   1      42.455  24.820  26.613  1.00  0.00    -0.228 NA
ATOM     90  C   UNL A   1      43.868  22.787  26.045  1.00  0.00     0.069 A 
ATOM     91  C   UNL A   1      45.279  22.740  25.844  1.00  0.00     0.184 A 
ATOM     92  C   UNL A   1      42.977  21.708  25.934  1.00  0.00    -0.028 A 
ATOM     93  N   UNL A   1      45.934  21.620  25.472  1.00  0.00    -0.222 NA
ATOM     94  C   UNL A   1      43.705  20.546  25.586  1.00  0.00     0.038 A 
ATOM     95  C   UNL A   1      45.115  20.530  25.371  1.00  0.00     0.147 A 
BRANCH  86  96
ATOM     96  C   UNL A   1      41.420  26.867  27.353  1.00  0.00     0.000 A 
ATOM     97  C   UNL A   1      40.426  26.459  28.244  1.00  0.00     0.012 A 
ATOM     98  C   UNL A   1      41.307  28.086  26.668  1.00  0.00     0.012 A 
ATOM     99  C   UNL A   1      39.322  27.285  28.475  1.00  0.00     0.021 A 
ATOM    100  C   UNL A   1      40.200  28.911  26.906  1.00  0.00     0.021 A 
ATOM    101  C   UNL A   1      39.216  28.508  27.811  1.00  0.00     0.041 A 
ATOM    102  Cl  UNL A   1      37.862  29.526  28.114  1.00  0.00    -0.084 Cl
ENDBRANCH  86  96
BRANCH  92 103
ATOM    103  C   UNL A   1      41.520  21.801  26.262  1.00  0.00     0.020 C 
ATOM    104  C   UNL A   1      40.626  20.582  26.330  1.00  0.00     0.009 C 
ATOM    105  C   UNL A   1      41.046  21.263  27.597  1.00  0.00     0.009 C 
ENDBRANCH  92 103
BRANCH  95 106
ATOM    106  C   UNL A   1      45.797  19.205  25.051  1.00  0.00     0.433 C 
ATOM    107  F   UNL A   1      47.132  19.214  25.323  1.00  0.00    -0.165 F 
ATOM    108  F   UNL A   1      45.274  18.157  25.753  1.00  0.00    -0.165 F 
ATOM    109  F   UNL A   1      45.694  18.845  23.737  1.00  0.00    -0.165 F 
ENDBRANCH  95 106
ENDBRANCH  81  83
ENDBRANCH  80  81
ENDBRANCH  79  80
ENDBRANCH  78  79
ENDBRANCH  77  78
ENDBRANCH  76  77
ENDBRANCH  75  76
ENDBRANCH  74  75
ENDBRANCH   1  74
TORSDOF 23
ENDMDL
MODEL 3
REMARK VINA RESULT:      -8.8      5.305     12.363
REMARK SMILES O=C(OCCOCCOCCOCCOC(=O)c1cc(-c2ccc(Cl)cc2)nc2c3c(C4CC4)cc(C(F)(F)F)nc3nn12)c1ccc(-c2c3nc(c(-c4c(F)c(F)c(F)c(F)c4F)c4ccc([nH]4)c(-c4c(F)c(F)c(F)c(F)c4F)c4nc(c(-c5c(F)c(F)c(F)c(F)c5F)c5ccc2[nH]5)C=C4)C=C3)cc1
REMARK SMILES IDX 8 1 7 2 6 3 5 4 4 5 3 6 2 7 1 8 45 9 46 10 107 11 47 12
REMARK SMILES IDX 106 13 48 14 49 15 50 16 100 17 51 18 105 19 99 20 101 21
REMARK SMILES IDX 52 22 104 23 98 24 97 25 53 27 85 28 65 29 84 30 66 31 69 32
REMARK SMILES IDX 83 33 102 34 67 35 68 36 82 38 103 39 70 40 54 41 55 42
REMARK SMILES IDX 63 43 56 44 57 45 61 46 64 47 58 48 59 49 62 50 60 51 86 52
REMARK SMILES IDX 87 53 95 54 88 55 89 56 93 57 96 58 90 59 91 60 94 61 92 62
REMARK SMILES IDX 71 63 72 64 80 65 73 66 74 67 78 68 81 69 75 70 76 71 79 72
REMARK SMILES IDX 77 73 9 74 10 75 11 76 12 77 13 78 14 79 15 80 16 81 17 82
REMARK SMILES IDX 18 83 19 84 44 85 20 86 29 87 43 88 28 89 30 90 42 91 31 92
REMARK SMILES IDX 41 93 35 94 36 95 21 96 22 97 27 98 23 99 26 100 24 101
REMARK SMILES IDX 25 102 32 103 33 104 34 105 37 106 38 107 39 108 40 109
REMARK H PARENT 101 26 69 37
REMARK Flexibility Score: inf
ROOT
ATOM      1  C   UNL A   1      38.762  34.077  33.163  1.00  0.00     0.188 C 
ENDROOT
BRANCH   1   2
ATOM      2  C   UNL A   1      38.939  34.643  31.761  1.00  0.00     0.188 C 
BRANCH   2   3
ATOM      3  O   UNL A   1      40.059  34.098  31.064  1.00  0.00    -0.376 OA
BRANCH   3   4
ATOM      4  C   UNL A   1      40.231  34.439  29.691  1.00  0.00     0.202 C 
BRANCH   4   5
ATOM      5  C   UNL A   1      41.579  35.071  29.357  1.00  0.00     0.261 C 
BRANCH   5   6
ATOM      6  O   UNL A   1      42.661  34.124  29.370  1.00  0.00    -0.460 OA
BRANCH   6   7
ATOM      7  C   UNL A   1      43.449  33.939  28.275  1.00  0.00     0.338 C 
ATOM      8  O   UNL A   1      43.407  34.666  27.294  1.00  0.00    -0.246 OA
BRANCH   7   9
ATOM      9  C   UNL A   1      44.514  32.939  28.418  1.00  0.00     0.060 A 
ATOM     10  C   UNL A   1      45.870  33.230  28.209  1.00  0.00     0.016 A 
ATOM     11  C   UNL A   1      44.099  31.662  28.776  1.00  0.00     0.016 A 
ATOM     12  C   UNL A   1      46.811  32.226  28.253  1.00  0.00     0.010 A 
ATOM     13  C   UNL A   1      45.048  30.663  28.879  1.00  0.00     0.010 A 
ATOM     14  C   UNL A   1      46.398  30.956  28.630  1.00  0.00    -0.014 A 
BRANCH  14  15
ATOM     15  C   UNL A   1      47.476  30.044  28.995  1.00  0.00     0.031 A 
ATOM     16  C   UNL A   1      47.427  29.703  30.445  1.00  0.00     0.074 A 
ATOM     17  C   UNL A   1      48.000  29.213  28.079  1.00  0.00     0.049 A 
ATOM     18  N   UNL A   1      46.549  28.840  30.861  1.00  0.00    -0.248 NA
ATOM     19  C   UNL A   1      47.948  30.562  31.509  1.00  0.00     0.031 C 
ATOM     20  C   UNL A   1      47.270  28.711  26.910  1.00  0.00     0.029 A 
ATOM     21  N   UNL A   1      49.168  28.496  28.100  1.00  0.00    -0.354 N 
ATOM     22  C   UNL A   1      46.283  29.123  32.181  1.00  0.00     0.074 A 
ATOM     23  C   UNL A   1      47.224  30.150  32.567  1.00  0.00     0.031 C 
ATOM     24  C   UNL A   1      47.915  27.628  26.437  1.00  0.00     0.029 A 
ATOM     25  C   UNL A   1      49.163  27.449  27.174  1.00  0.00     0.049 A 
ATOM     26  H   UNL A   1      49.924  28.695  28.698  1.00  0.00     0.167 HD
ATOM     27  C   UNL A   1      45.253  28.521  32.830  1.00  0.00     0.037 A 
ATOM     28  C   UNL A   1      49.717  26.243  27.483  1.00  0.00     0.037 A 
ATOM     29  C   UNL A   1      44.437  27.658  32.022  1.00  0.00     0.049 A 
ATOM     30  C   UNL A   1      48.720  25.728  28.506  1.00  0.00     0.074 A 
ATOM     31  C   UNL A   1      43.195  27.700  31.428  1.00  0.00     0.029 A 
ATOM     32  N   UNL A   1      44.993  26.472  31.602  1.00  0.00    -0.354 N 
ATOM     33  N   UNL A   1      47.525  25.268  28.228  1.00  0.00    -0.248 NA
ATOM     34  C   UNL A   1      48.909  26.081  29.913  1.00  0.00     0.031 C 
ATOM     35  C   UNL A   1      43.257  26.759  30.348  1.00  0.00     0.029 A 
ATOM     36  C   UNL A   1      44.546  26.225  30.329  1.00  0.00     0.049 A 
ATOM     37  H   UNL A   1      45.603  25.901  32.123  1.00  0.00     0.167 HD
ATOM     38  C   UNL A   1      46.740  25.548  29.354  1.00  0.00     0.074 A 
ATOM     39  C   UNL A   1      47.668  25.985  30.374  1.00  0.00     0.031 C 
ATOM     40  C   UNL A   1      45.375  25.595  29.321  1.00  0.00     0.037 A 
BRANCH  27  41
ATOM     41  C   UNL A   1      45.107  28.497  34.292  1.00  0.00     0.064 A 
ATOM     42  C   UNL A   1      45.893  27.547  34.961  1.00  0.00     0.173 A 
ATOM     43  C   UNL A   1      44.122  29.174  35.009  1.00  0.00     0.173 A 
ATOM     44  F   UNL A   1      46.834  26.864  34.288  1.00  0.00    -0.203 F 
ATOM     45  C   UNL A   1      45.678  27.249  36.297  1.00  0.00     0.198 A 
ATOM     46  C   UNL A   1      43.916  28.883  36.361  1.00  0.00     0.198 A 
ATOM     47  F   UNL A   1      43.333  30.075  34.406  1.00  0.00    -0.203 F 
ATOM     48  F   UNL A   1      46.409  26.295  36.890  1.00  0.00    -0.200 F 
ATOM     49  C   UNL A   1      44.684  27.912  36.996  1.00  0.00     0.200 A 
ATOM     50  F   UNL A   1      42.954  29.517  37.045  1.00  0.00    -0.200 F 
ATOM     51  F   UNL A   1      44.455  27.603  38.280  1.00  0.00    -0.200 F 
ENDBRANCH  27  41
BRANCH  28  52
ATOM     52  C   UNL A   1      51.202  26.356  27.679  1.00  0.00     0.064 A 
ATOM     53  C   UNL A   1      52.037  25.770  26.697  1.00  0.00     0.173 A 
ATOM     54  C   UNL A   1      51.855  27.065  28.692  1.00  0.00     0.173 A 
ATOM     55  F   UNL A   1      51.513  24.969  25.755  1.00  0.00    -0.203 F 
ATOM     56  C   UNL A   1      53.402  26.039  26.628  1.00  0.00     0.198 A 
ATOM     57  C   UNL A   1      53.222  27.351  28.613  1.00  0.00     0.198 A 
ATOM     58  F   UNL A   1      51.188  27.521  29.760  1.00  0.00    -0.203 F 
ATOM     59  F   UNL A   1      54.131  25.537  25.621  1.00  0.00    -0.200 F 
ATOM     60  C   UNL A   1      53.987  26.865  27.565  1.00  0.00     0.200 A 
ATOM     61  F   UNL A   1      53.789  28.137  29.539  1.00  0.00    -0.200 F 
ATOM     62  F   UNL A   1      55.280  27.199  27.457  1.00  0.00    -0.200 F 
ENDBRANCH  28  52
BRANCH  40  63
ATOM     63  C   UNL A   1      44.765  25.145  28.034  1.00  0.00     0.064 A 
ATOM     64  C   UNL A   1      44.444  26.086  27.046  1.00  0.00     0.173 A 
ATOM     65  C   UNL A   1      44.508  23.792  27.761  1.00  0.00     0.173 A 
ATOM     66  F   UNL A   1      44.680  27.391  27.251  1.00  0.00    -0.203 F 
ATOM     67  C   UNL A   1      43.891  25.690  25.833  1.00  0.00     0.198 A 
ATOM     68  C   UNL A   1      43.990  23.397  26.530  1.00  0.00     0.198 A 
ATOM     69  F   UNL A   1      44.765  22.842  28.675  1.00  0.00    -0.203 F 
ATOM     70  F   UNL A   1      43.577  26.610  24.910  1.00  0.00    -0.200 F 
ATOM     71  C   UNL A   1      43.679  24.346  25.569  1.00  0.00     0.200 A 
ATOM     72  F   UNL A   1      43.802  22.095  26.270  1.00  0.00    -0.200 F 
ATOM     73  F   UNL A   1      43.182  23.963  24.384  1.00  0.00    -0.200 F 
ENDBRANCH  40  63
ENDBRANCH  14  15
ENDBRANCH   7   9
ENDBRANCH   6   7
ENDBRANCH   5   6
ENDBRANCH   4   5
ENDBRANCH   3   4
ENDBRANCH   2   3
ENDBRANCH   1   2
BRANCH   1  74
ATOM     74  O   UNL A   1      37.784  34.829  33.863  1.00  0.00    -0.377 OA
BRANCH  74  75
ATOM     75  C   UNL A   1      36.649  34.087  34.297  1.00  0.00     0.188 C 
BRANCH  75  76
ATOM     76  C   UNL A   1      35.196  34.515  33.941  1.00  0.00     0.188 C 
BRANCH  76  77
ATOM     77  O   UNL A   1      35.067  35.025  32.621  1.00  0.00    -0.376 OA
BRANCH  77  78
ATOM     78  C   UNL A   1      34.764  34.111  31.577  1.00  0.00     0.202 C 
BRANCH  78  79
ATOM     79  C   UNL A   1      33.930  34.637  30.401  1.00  0.00     0.261 C 
BRANCH  79  80
ATOM     80  O   UNL A   1      34.256  34.108  29.108  1.00  0.00    -0.459 OA
BRANCH  80  81
ATOM     81  C   UNL A   1      33.309  33.562  28.318  1.00  0.00     0.357 C 
ATOM     82  O   UNL A   1      32.355  34.153  27.826  1.00  0.00    -0.244 OA
BRANCH  81  83
ATOM     83  C   UNL A   1      33.750  32.200  27.925  1.00  0.00     0.154 A 
ATOM     84  C   UNL A   1      34.912  31.734  28.419  1.00  0.00     0.065 A 
ATOM     85  N   UNL A   1      32.948  31.375  27.140  1.00  0.00    -0.205 N 
ATOM     86  C   UNL A   1      35.198  30.291  28.135  1.00  0.00     0.075 A 
ATOM     87  C   UNL A   1      33.399  30.095  26.754  1.00  0.00     0.166 A 
ATOM     88  N   UNL A   1      31.730  31.661  26.629  1.00  0.00    -0.145 NA
ATOM     89  N   UNL A   1      34.511  29.532  27.333  1.00  0.00    -0.228 NA
ATOM     90  C   UNL A   1      32.546  29.721  25.734  1.00  0.00     0.069 A 
ATOM     91  C   UNL A   1      31.508  30.698  25.748  1.00  0.00     0.184 A 
ATOM     92  C   UNL A   1      32.661  28.643  24.842  1.00  0.00    -0.028 A 
ATOM     93  N   UNL A   1      30.461  30.673  24.897  1.00  0.00    -0.222 NA
ATOM     94  C   UNL A   1      31.571  28.676  23.941  1.00  0.00     0.038 A 
ATOM     95  C   UNL A   1      30.534  29.655  23.988  1.00  0.00     0.147 A 
BRANCH  86  96
ATOM     96  C   UNL A   1      36.366  29.737  28.858  1.00  0.00     0.000 A 
ATOM     97  C   UNL A   1      36.305  29.631  30.248  1.00  0.00     0.012 A 
ATOM     98  C   UNL A   1      37.507  29.314  28.161  1.00  0.00     0.012 A 
ATOM     99  C   UNL A   1      37.379  29.075  30.948  1.00  0.00     0.021 A 
ATOM    100  C   UNL A   1      38.580  28.755  28.867  1.00  0.00     0.021 A 
ATOM    101  C   UNL A   1      38.508  28.635  30.256  1.00  0.00     0.041 A 
ATOM    102  Cl  UNL A   1      39.820  27.936  31.125  1.00  0.00    -0.084 Cl
ENDBRANCH  86  96
BRANCH  92 103
ATOM    103  C   UNL A   1      33.833  27.713  24.814  1.00  0.00     0.020 C 
ATOM    104  C   UNL A   1      33.879  26.444  25.636  1.00  0.00     0.009 C 
ATOM    105  C   UNL A   1      33.663  26.359  24.156  1.00  0.00     0.009 C 
ENDBRANCH  92 103
BRANCH  95 106
ATOM    106  C   UNL A   1      29.438  29.619  22.929  1.00  0.00     0.433 C 
ATOM    107  F   UNL A   1      28.845  30.831  22.735  1.00  0.00    -0.165 F 
ATOM    108  F   UNL A   1      29.896  29.220  21.707  1.00  0.00    -0.165 F 
ATOM    109  F   UNL A   1      28.421  28.758  23.231  1.00  0.00    -0.165 F 
ENDBRANCH  95 106
ENDBRANCH  81  83
ENDBRANCH  80  81
ENDBRANCH  79  80
ENDBRANCH  78  79
ENDBRANCH  77  78
ENDBRANCH  76  77
ENDBRANCH  75  76
ENDBRANCH  74  75
ENDBRANCH   1  74
TORSDOF 23
ENDMDL
