MODEL 1
REMARK VINA RESULT:      -8.9      0.000      0.000
REMARK SMILES Cc1nc2cc(S(=O)(=O)N3CCC(C(=O)OCCOCCOCCOCCOC(=O)c4ccc(-c5c6nc(c(-c7c(F)c(F)c(F)c(F)c7F)c7ccc([nH]7)c(-c7c(F)c(F)c(F)c(F)c7F)c7nc(c(-c8c(F)c(F)c(F)c(F)c8F)c8ccc5[nH]8)C=C7)C=C6)cc4)CC3)ccc2n1C1CCCC1
REMARK SMILES IDX 21 1 20 2 19 3 18 4 17 5 16 6 14 7 15 8 13 9 10 10 11 11
REMARK SMILES IDX 95 12 12 13 94 14 7 15 8 16 9 17 6 18 1 19 2 20 3 21 99 22
REMARK SMILES IDX 4 23 98 24 5 25 97 26 96 27 100 28 101 29 104 30 102 31
REMARK SMILES IDX 103 32 22 33 23 34 24 35 25 36 26 37 27 38 28 39 29 40 30 41
REMARK SMILES IDX 31 42 32 43 93 44 33 45 92 46 34 47 35 48 36 49 86 50 37 51
REMARK SMILES IDX 91 52 85 53 87 54 38 55 90 56 84 57 83 58 39 60 71 61 51 62
REMARK SMILES IDX 70 63 52 64 55 65 69 66 88 67 53 68 54 69 68 71 89 72 56 73
REMARK SMILES IDX 40 74 41 75 49 76 42 77 43 78 47 79 50 80 44 81 45 82 48 83
REMARK SMILES IDX 46 84 72 85 73 86 81 87 74 88 75 89 79 90 82 91 76 92 77 93
REMARK SMILES IDX 80 94 78 95 57 96 58 97 66 98 59 99 60 100 64 101 67 102
REMARK SMILES IDX 61 103 62 104 65 105 63 106
REMARK H PARENT 87 59 55 70
REMARK Flexibility Score: inf
ROOT
ATOM      1  C   UNL A   1      39.749  26.615  27.390  1.00  0.00     0.188 C 
ENDROOT
BRANCH   1   2
ATOM      2  C   UNL A   1      39.979  28.100  27.680  1.00  0.00     0.188 C 
BRANCH   2   3
ATOM      3  O   UNL A   1      39.628  28.658  28.930  1.00  0.00    -0.376 OA
BRANCH   3   4
ATOM      4  C   UNL A   1      40.567  28.939  29.959  1.00  0.00     0.202 C 
BRANCH   4   5
ATOM      5  C   UNL A   1      40.449  28.563  31.443  1.00  0.00     0.261 C 
BRANCH   5   6
ATOM      6  O   UNL A   1      39.139  28.573  32.013  1.00  0.00    -0.463 OA
BRANCH   6   7
ATOM      7  C   UNL A   1      38.792  29.742  32.590  1.00  0.00     0.309 C 
ATOM      8  O   UNL A   1      39.262  30.170  33.641  1.00  0.00    -0.252 OA
BRANCH   7   9
ATOM      9  C   UNL A   1      37.753  30.532  31.837  1.00  0.00     0.102 C 
ATOM     10  N   UNL A   1      36.184  32.527  30.523  1.00  0.00    -0.198 NA
ATOM     11  C   UNL A   1      35.549  31.687  31.569  1.00  0.00     0.103 C 
ATOM     12  C   UNL A   1      37.585  32.292  30.099  1.00  0.00     0.103 C 
ATOM     13  C   UNL A   1      36.533  31.082  32.562  1.00  0.00     0.032 C 
ATOM     14  C   UNL A   1      38.454  31.717  31.196  1.00  0.00     0.032 C 
BRANCH  10  15
ATOM     15  S   UNL A   1      35.139  33.048  29.266  1.00  0.00     0.243 S 
ATOM     16  O   UNL A   1      35.929  33.866  28.372  1.00  0.00    -0.207 OA
ATOM     17  O   UNL A   1      33.924  33.544  29.883  1.00  0.00    -0.207 OA
BRANCH  15  18
ATOM     18  C   UNL A   1      34.676  31.592  28.338  1.00  0.00     0.085 A 
ATOM     19  C   UNL A   1      31.042  28.611  24.640  1.00  0.00     0.088 C 
ATOM     20  C   UNL A   1      32.061  29.188  25.555  1.00  0.00     0.106 A 
ATOM     21  N   UNL A   1      31.973  30.395  26.077  1.00  0.00    -0.233 NA
ATOM     22  N   UNL A   1      33.222  28.556  25.962  1.00  0.00    -0.325 N 
ATOM     23  C   UNL A   1      33.087  30.559  26.850  1.00  0.00     0.090 A 
ATOM     24  C   UNL A   1      33.887  29.422  26.809  1.00  0.00     0.068 A 
ATOM     25  C   UNL A   1      33.475  31.665  27.620  1.00  0.00     0.052 A 
ATOM     26  C   UNL A   1      35.083  29.332  27.529  1.00  0.00     0.030 A 
ATOM     27  C   UNL A   1      35.463  30.440  28.287  1.00  0.00     0.024 A 
BRANCH  22  28
ATOM     28  C   UNL A   1      33.650  27.218  25.595  1.00  0.00     0.089 C 
ATOM     29  C   UNL A   1      32.794  26.077  26.149  1.00  0.00     0.025 C 
ATOM     30  C   UNL A   1      33.688  26.966  24.085  1.00  0.00     0.025 C 
ATOM     31  C   UNL A   1      33.163  24.885  25.276  1.00  0.00     0.002 C 
ATOM     32  C   UNL A   1      33.558  25.455  23.916  1.00  0.00     0.002 C 
ENDBRANCH  22  28
ENDBRANCH  15  18
ENDBRANCH  10  15
ENDBRANCH   7   9
ENDBRANCH   6   7
ENDBRANCH   5   6
ENDBRANCH   4   5
ENDBRANCH   3   4
ENDBRANCH   2   3
ENDBRANCH   1   2
BRANCH   1  33
ATOM     33  O   UNL A   1      40.872  25.939  26.886  1.00  0.00    -0.377 OA
BRANCH  33  34
ATOM     34  C   UNL A   1      41.494  24.929  27.658  1.00  0.00     0.188 C 
BRANCH  34  35
ATOM     35  C   UNL A   1      40.688  23.708  28.125  1.00  0.00     0.188 C 
BRANCH  35  36
ATOM     36  O   UNL A   1      41.510  22.564  28.299  1.00  0.00    -0.376 OA
BRANCH  36  37
ATOM     37  C   UNL A   1      41.117  21.366  27.644  1.00  0.00     0.202 C 
BRANCH  37  38
ATOM     38  C   UNL A   1      40.882  21.430  26.124  1.00  0.00     0.261 C 
BRANCH  38  39
ATOM     39  O   UNL A   1      41.955  22.030  25.376  1.00  0.00    -0.460 OA
BRANCH  39  40
ATOM     40  C   UNL A   1      43.193  21.486  25.418  1.00  0.00     0.338 C 
ATOM     41  O   UNL A   1      43.519  20.387  25.016  1.00  0.00    -0.246 OA
BRANCH  40  42
ATOM     42  C   UNL A   1      44.120  22.623  25.693  1.00  0.00     0.060 A 
ATOM     43  C   UNL A   1      44.886  22.681  26.862  1.00  0.00     0.016 A 
ATOM     44  C   UNL A   1      43.957  23.773  24.904  1.00  0.00     0.016 A 
ATOM     45  C   UNL A   1      45.371  23.916  27.297  1.00  0.00     0.010 A 
ATOM     46  C   UNL A   1      44.429  25.009  25.353  1.00  0.00     0.010 A 
ATOM     47  C   UNL A   1      45.098  25.096  26.575  1.00  0.00    -0.014 A 
BRANCH  47  48
ATOM     48  C   UNL A   1      45.725  26.343  27.047  1.00  0.00     0.031 A 
ATOM     49  C   UNL A   1      47.202  26.351  26.854  1.00  0.00     0.074 A 
ATOM     50  C   UNL A   1      45.125  27.474  27.480  1.00  0.00     0.049 A 
ATOM     51  N   UNL A   1      48.133  26.508  27.737  1.00  0.00    -0.248 NA
ATOM     52  C   UNL A   1      47.692  26.038  25.501  1.00  0.00     0.031 C 
ATOM     53  C   UNL A   1      43.704  27.809  27.440  1.00  0.00     0.029 A 
ATOM     54  N   UNL A   1      45.695  28.622  27.983  1.00  0.00    -0.354 N 
ATOM     55  C   UNL A   1      49.331  26.454  27.030  1.00  0.00     0.074 A 
ATOM     56  C   UNL A   1      49.009  26.039  25.690  1.00  0.00     0.031 C 
ATOM     57  C   UNL A   1      43.540  29.117  27.743  1.00  0.00     0.029 A 
ATOM     58  C   UNL A   1      44.832  29.711  28.043  1.00  0.00     0.049 A 
ATOM     59  H   UNL A   1      46.634  28.668  28.275  1.00  0.00     0.167 HD
ATOM     60  C   UNL A   1      50.494  26.941  27.538  1.00  0.00     0.037 A 
ATOM     61  C   UNL A   1      45.148  31.022  28.228  1.00  0.00     0.037 A 
ATOM     62  C   UNL A   1      50.459  27.037  28.969  1.00  0.00     0.049 A 
ATOM     63  C   UNL A   1      46.502  31.094  28.830  1.00  0.00     0.074 A 
ATOM     64  C   UNL A   1      50.261  26.127  29.990  1.00  0.00     0.029 A 
ATOM     65  N   UNL A   1      50.331  28.272  29.552  1.00  0.00    -0.354 N 
ATOM     66  N   UNL A   1      46.787  30.748  30.054  1.00  0.00    -0.248 NA
ATOM     67  C   UNL A   1      47.635  31.168  27.921  1.00  0.00     0.031 C 
ATOM     68  C   UNL A   1      49.533  26.839  30.984  1.00  0.00     0.029 A 
ATOM     69  C   UNL A   1      49.375  28.147  30.528  1.00  0.00     0.049 A 
ATOM     70  H   UNL A   1      50.827  29.089  29.317  1.00  0.00     0.167 HD
ATOM     71  C   UNL A   1      48.028  30.141  29.963  1.00  0.00     0.074 A 
ATOM     72  C   UNL A   1      48.539  30.504  28.645  1.00  0.00     0.031 C 
ATOM     73  C   UNL A   1      48.412  29.173  30.844  1.00  0.00     0.037 A 
BRANCH  60  74
ATOM     74  C   UNL A   1      51.540  27.618  26.696  1.00  0.00     0.064 A 
ATOM     75  C   UNL A   1      52.871  27.161  26.734  1.00  0.00     0.173 A 
ATOM     76  C   UNL A   1      51.341  28.872  26.076  1.00  0.00     0.173 A 
ATOM     77  F   UNL A   1      53.176  26.000  27.333  1.00  0.00    -0.203 F 
ATOM     78  C   UNL A   1      53.927  27.930  26.239  1.00  0.00     0.198 A 
ATOM     79  C   UNL A   1      52.388  29.610  25.531  1.00  0.00     0.198 A 
ATOM     80  F   UNL A   1      50.148  29.481  26.075  1.00  0.00    -0.203 F 
ATOM     81  F   UNL A   1      55.188  27.512  26.406  1.00  0.00    -0.200 F 
ATOM     82  C   UNL A   1      53.685  29.153  25.640  1.00  0.00     0.200 A 
ATOM     83  F   UNL A   1      52.134  30.802  24.976  1.00  0.00    -0.200 F 
ATOM     84  F   UNL A   1      54.700  29.917  25.216  1.00  0.00    -0.200 F 
ENDBRANCH  60  74
BRANCH  61  85
ATOM     85  C   UNL A   1      44.462  32.222  27.667  1.00  0.00     0.064 A 
ATOM     86  C   UNL A   1      43.841  33.182  28.488  1.00  0.00     0.173 A 
ATOM     87  C   UNL A   1      44.608  32.580  26.311  1.00  0.00     0.173 A 
ATOM     88  F   UNL A   1      43.715  32.967  29.806  1.00  0.00    -0.203 F 
ATOM     89  C   UNL A   1      43.399  34.413  27.981  1.00  0.00     0.198 A 
ATOM     90  C   UNL A   1      44.148  33.796  25.803  1.00  0.00     0.198 A 
ATOM     91  F   UNL A   1      45.287  31.800  25.459  1.00  0.00    -0.203 F 
ATOM     92  F   UNL A   1      42.865  35.325  28.806  1.00  0.00    -0.200 F 
ATOM     93  C   UNL A   1      43.552  34.718  26.639  1.00  0.00     0.200 A 
ATOM     94  F   UNL A   1      44.341  34.086  24.509  1.00  0.00    -0.200 F 
ATOM     95  F   UNL A   1      43.170  35.909  26.161  1.00  0.00    -0.200 F 
ENDBRANCH  61  85
BRANCH  73  96
ATOM     96  C   UNL A   1      47.609  28.968  32.096  1.00  0.00     0.064 A 
ATOM     97  C   UNL A   1      47.830  29.668  33.295  1.00  0.00     0.173 A 
ATOM     98  C   UNL A   1      46.451  28.176  32.014  1.00  0.00     0.173 A 
ATOM     99  F   UNL A   1      48.852  30.525  33.423  1.00  0.00    -0.203 F 
ATOM    100  C   UNL A   1      46.943  29.553  34.366  1.00  0.00     0.198 A 
ATOM    101  C   UNL A   1      45.546  28.104  33.070  1.00  0.00     0.198 A 
ATOM    102  F   UNL A   1      46.164  27.523  30.877  1.00  0.00    -0.203 F 
ATOM    103  F   UNL A   1      47.176  30.223  35.502  1.00  0.00    -0.200 F 
ATOM    104  C   UNL A   1      45.794  28.789  34.246  1.00  0.00     0.200 A 
ATOM    105  F   UNL A   1      44.413  27.403  32.928  1.00  0.00    -0.200 F 
ATOM    106  F   UNL A   1      44.912  28.740  35.253  1.00  0.00    -0.200 F 
ENDBRANCH  73  96
ENDBRANCH  47  48
ENDBRANCH  40  42
ENDBRANCH  39  40
ENDBRANCH  38  39
ENDBRANCH  37  38
ENDBRANCH  36  37
ENDBRANCH  35  36
ENDBRANCH  34  35
ENDBRANCH  33  34
ENDBRANCH   1  33
TORSDOF 23
ENDMDL
MODEL 2
REMARK VINA RESULT:      -8.8      3.989      8.070
REMARK SMILES Cc1nc2cc(S(=O)(=O)N3CCC(C(=O)OCCOCCOCCOCCOC(=O)c4ccc(-c5c6nc(c(-c7c(F)c(F)c(F)c(F)c7F)c7ccc([nH]7)c(-c7c(F)c(F)c(F)c(F)c7F)c7nc(c(-c8c(F)c(F)c(F)c(F)c8F)c8ccc5[nH]8)C=C7)C=C6)cc4)CC3)ccc2n1C1CCCC1
REMARK SMILES IDX 21 1 20 2 19 3 18 4 17 5 16 6 14 7 15 8 13 9 10 10 11 11
REMARK SMILES IDX 95 12 12 13 94 14 7 15 8 16 9 17 6 18 1 19 2 20 3 21 99 22
REMARK SMILES IDX 4 23 98 24 5 25 97 26 96 27 100 28 101 29 104 30 102 31
REMARK SMILES IDX 103 32 22 33 23 34 24 35 25 36 26 37 27 38 28 39 29 40 30 41
REMARK SMILES IDX 31 42 32 43 93 44 33 45 92 46 34 47 35 48 36 49 86 50 37 51
REMARK SMILES IDX 91 52 85 53 87 54 38 55 90 56 84 57 83 58 39 60 71 61 51 62
REMARK SMILES IDX 70 63 52 64 55 65 69 66 88 67 53 68 54 69 68 71 89 72 56 73
REMARK SMILES IDX 40 74 41 75 49 76 42 77 43 78 47 79 50 80 44 81 45 82 48 83
REMARK SMILES IDX 46 84 72 85 73 86 81 87 74 88 75 89 79 90 82 91 76 92 77 93
REMARK SMILES IDX 80 94 78 95 57 96 58 97 66 98 59 99 60 100 64 101 67 102
REMARK SMILES IDX 61 103 62 104 65 105 63 106
REMARK H PARENT 87 59 55 70
REMARK Flexibility Score: inf
ROOT
ATOM      1  C   UNL A   1      44.660  23.477  35.618  1.00  0.00     0.188 C 
ENDROOT
BRANCH   1   2
ATOM      2  C   UNL A   1      45.166  24.394  34.503  1.00  0.00     0.188 C 
BRANCH   2   3
ATOM      3  O   UNL A   1      44.311  25.345  33.902  1.00  0.00    -0.376 OA
BRANCH   3   4
ATOM      4  C   UNL A   1      43.718  26.428  34.604  1.00  0.00     0.202 C 
BRANCH   4   5
ATOM      5  C   UNL A   1      42.487  26.369  35.521  1.00  0.00     0.261 C 
BRANCH   5   6
ATOM      6  O   UNL A   1      41.318  27.063  35.083  1.00  0.00    -0.463 OA
BRANCH   6   7
ATOM      7  C   UNL A   1      41.370  28.400  35.248  1.00  0.00     0.309 C 
ATOM      8  O   UNL A   1      41.657  28.965  36.300  1.00  0.00    -0.252 OA
BRANCH   7   9
ATOM      9  C   UNL A   1      41.049  29.200  34.012  1.00  0.00     0.102 C 
ATOM     10  N   UNL A   1      40.626  31.220  32.035  1.00  0.00    -0.198 NA
ATOM     11  C   UNL A   1      39.517  30.289  32.360  1.00  0.00     0.103 C 
ATOM     12  C   UNL A   1      41.962  31.067  32.658  1.00  0.00     0.103 C 
ATOM     13  C   UNL A   1      39.623  29.655  33.741  1.00  0.00     0.032 C 
ATOM     14  C   UNL A   1      41.912  30.451  34.039  1.00  0.00     0.032 C 
BRANCH  10  15
ATOM     15  S   UNL A   1      40.658  31.786  30.415  1.00  0.00     0.243 S 
ATOM     16  O   UNL A   1      40.971  30.651  29.577  1.00  0.00    -0.207 OA
ATOM     17  O   UNL A   1      41.456  32.997  30.390  1.00  0.00    -0.207 OA
BRANCH  15  18
ATOM     18  C   UNL A   1      38.989  32.273  30.002  1.00  0.00     0.085 A 
ATOM     19  C   UNL A   1      33.638  31.250  27.533  1.00  0.00     0.088 C 
ATOM     20  C   UNL A   1      34.892  31.680  28.206  1.00  0.00     0.106 A 
ATOM     21  N   UNL A   1      35.991  30.953  28.236  1.00  0.00    -0.233 NA
ATOM     22  N   UNL A   1      35.066  32.869  28.892  1.00  0.00    -0.325 N 
ATOM     23  C   UNL A   1      36.909  31.677  28.942  1.00  0.00     0.090 A 
ATOM     24  C   UNL A   1      36.366  32.888  29.359  1.00  0.00     0.068 A 
ATOM     25  C   UNL A   1      38.235  31.353  29.260  1.00  0.00     0.052 A 
ATOM     26  C   UNL A   1      37.110  33.820  30.090  1.00  0.00     0.030 A 
ATOM     27  C   UNL A   1      38.428  33.485  30.408  1.00  0.00     0.024 A 
BRANCH  22  28
ATOM     28  C   UNL A   1      34.078  33.919  29.063  1.00  0.00     0.089 C 
ATOM     29  C   UNL A   1      34.003  34.532  30.464  1.00  0.00     0.025 C 
ATOM     30  C   UNL A   1      34.275  35.120  28.133  1.00  0.00     0.025 C 
ATOM     31  C   UNL A   1      33.264  35.846  30.250  1.00  0.00     0.002 C 
ATOM     32  C   UNL A   1      33.590  36.294  28.827  1.00  0.00     0.002 C 
ENDBRANCH  22  28
ENDBRANCH  15  18
ENDBRANCH  10  15
ENDBRANCH   7   9
ENDBRANCH   6   7
ENDBRANCH   5   6
ENDBRANCH   4   5
ENDBRANCH   3   4
ENDBRANCH   2   3
ENDBRANCH   1   2
BRANCH   1  33
ATOM     33  O   UNL A   1      44.482  22.138  35.236  1.00  0.00    -0.377 OA
BRANCH  33  34
ATOM     34  C   UNL A   1      45.605  21.289  35.096  1.00  0.00     0.188 C 
BRANCH  34  35
ATOM     35  C   UNL A   1      46.635  21.176  36.230  1.00  0.00     0.188 C 
BRANCH  35  36
ATOM     36  O   UNL A   1      47.710  22.089  36.065  1.00  0.00    -0.376 OA
BRANCH  36  37
ATOM     37  C   UNL A   1      48.952  21.568  35.612  1.00  0.00     0.202 C 
BRANCH  37  38
ATOM     38  C   UNL A   1      49.202  21.542  34.094  1.00  0.00     0.261 C 
BRANCH  38  39
ATOM     39  O   UNL A   1      50.314  22.344  33.656  1.00  0.00    -0.460 OA
BRANCH  39  40
ATOM     40  C   UNL A   1      50.551  23.543  34.236  1.00  0.00     0.338 C 
ATOM     41  O   UNL A   1      51.302  23.767  35.165  1.00  0.00    -0.246 OA
BRANCH  40  42
ATOM     42  C   UNL A   1      50.019  24.561  33.282  1.00  0.00     0.060 A 
ATOM     43  C   UNL A   1      48.804  25.215  33.508  1.00  0.00     0.016 A 
ATOM     44  C   UNL A   1      50.611  24.601  32.010  1.00  0.00     0.016 A 
ATOM     45  C   UNL A   1      48.130  25.791  32.429  1.00  0.00     0.010 A 
ATOM     46  C   UNL A   1      49.925  25.163  30.930  1.00  0.00     0.010 A 
ATOM     47  C   UNL A   1      48.660  25.720  31.124  1.00  0.00    -0.014 A 
BRANCH  47  48
ATOM     48  C   UNL A   1      47.938  26.434  30.056  1.00  0.00     0.031 A 
ATOM     49  C   UNL A   1      46.723  25.703  29.599  1.00  0.00     0.074 A 
ATOM     50  C   UNL A   1      48.164  27.676  29.573  1.00  0.00     0.049 A 
ATOM     51  N   UNL A   1      46.423  25.296  28.410  1.00  0.00    -0.248 NA
ATOM     52  C   UNL A   1      45.771  25.289  30.643  1.00  0.00     0.031 C 
ATOM     53  C   UNL A   1      49.077  28.689  30.093  1.00  0.00     0.029 A 
ATOM     54  N   UNL A   1      47.540  28.330  28.535  1.00  0.00    -0.354 N 
ATOM     55  C   UNL A   1      45.173  24.693  28.525  1.00  0.00     0.074 A 
ATOM     56  C   UNL A   1      44.879  24.604  29.931  1.00  0.00     0.031 C 
ATOM     57  C   UNL A   1      48.837  29.871  29.480  1.00  0.00     0.029 A 
ATOM     58  C   UNL A   1      47.785  29.700  28.493  1.00  0.00     0.049 A 
ATOM     59  H   UNL A   1      46.969  27.869  27.880  1.00  0.00     0.167 HD
ATOM     60  C   UNL A   1      44.370  24.480  27.449  1.00  0.00     0.037 A 
ATOM     61  C   UNL A   1      47.120  30.648  27.777  1.00  0.00     0.037 A 
ATOM     62  C   UNL A   1      45.108  24.471  26.219  1.00  0.00     0.049 A 
ATOM     63  C   UNL A   1      46.388  29.974  26.676  1.00  0.00     0.074 A 
ATOM     64  C   UNL A   1      46.156  23.713  25.731  1.00  0.00     0.029 A 
ATOM     65  N   UNL A   1      45.017  25.550  25.377  1.00  0.00    -0.354 N 
ATOM     66  N   UNL A   1      46.954  29.439  25.631  1.00  0.00    -0.248 NA
ATOM     67  C   UNL A   1      45.030  29.529  26.949  1.00  0.00     0.031 C 
ATOM     68  C   UNL A   1      46.940  24.618  24.962  1.00  0.00     0.029 A 
ATOM     69  C   UNL A   1      46.296  25.854  24.990  1.00  0.00     0.049 A 
ATOM     70  H   UNL A   1      44.193  26.015  25.104  1.00  0.00     0.167 HD
ATOM     71  C   UNL A   1      46.216  28.292  25.386  1.00  0.00     0.074 A 
ATOM     72  C   UNL A   1      44.996  28.445  26.172  1.00  0.00     0.031 C 
ATOM     73  C   UNL A   1      46.776  27.200  24.793  1.00  0.00     0.037 A 
BRANCH  60  74
ATOM     74  C   UNL A   1      42.872  24.591  27.506  1.00  0.00     0.064 A 
ATOM     75  C   UNL A   1      42.082  23.428  27.451  1.00  0.00     0.173 A 
ATOM     76  C   UNL A   1      42.180  25.810  27.323  1.00  0.00     0.173 A 
ATOM     77  F   UNL A   1      42.643  22.216  27.573  1.00  0.00    -0.203 F 
ATOM     78  C   UNL A   1      40.713  23.481  27.177  1.00  0.00     0.198 A 
ATOM     79  C   UNL A   1      40.806  25.863  27.109  1.00  0.00     0.198 A 
ATOM     80  F   UNL A   1      42.822  26.983  27.231  1.00  0.00    -0.203 F 
ATOM     81  F   UNL A   1      40.024  22.344  27.013  1.00  0.00    -0.200 F 
ATOM     82  C   UNL A   1      40.077  24.698  27.005  1.00  0.00     0.200 A 
ATOM     83  F   UNL A   1      40.214  27.051  26.922  1.00  0.00    -0.200 F 
ATOM     84  F   UNL A   1      38.777  24.748  26.688  1.00  0.00    -0.200 F 
ENDBRANCH  60  74
BRANCH  61  85
ATOM     85  C   UNL A   1      46.862  32.068  28.151  1.00  0.00     0.064 A 
ATOM     86  C   UNL A   1      47.195  33.139  27.300  1.00  0.00     0.173 A 
ATOM     87  C   UNL A   1      46.057  32.398  29.261  1.00  0.00     0.173 A 
ATOM     88  F   UNL A   1      47.900  32.920  26.180  1.00  0.00    -0.203 F 
ATOM     89  C   UNL A   1      46.751  34.446  27.548  1.00  0.00     0.198 A 
ATOM     90  C   UNL A   1      45.634  33.703  29.519  1.00  0.00     0.198 A 
ATOM     91  F   UNL A   1      45.579  31.447  30.074  1.00  0.00    -0.203 F 
ATOM     92  F   UNL A   1      47.040  35.428  26.683  1.00  0.00    -0.200 F 
ATOM     93  C   UNL A   1      45.972  34.726  28.658  1.00  0.00     0.200 A 
ATOM     94  F   UNL A   1      44.848  33.944  30.578  1.00  0.00    -0.200 F 
ATOM     95  F   UNL A   1      45.510  35.965  28.874  1.00  0.00    -0.200 F 
ENDBRANCH  61  85
BRANCH  73  96
ATOM     96  C   UNL A   1      48.118  27.338  24.133  1.00  0.00     0.064 A 
ATOM     97  C   UNL A   1      49.331  26.951  24.728  1.00  0.00     0.173 A 
ATOM     98  C   UNL A   1      48.150  27.692  22.773  1.00  0.00     0.173 A 
ATOM     99  F   UNL A   1      49.375  26.499  25.989  1.00  0.00    -0.203 F 
ATOM    100  C   UNL A   1      50.520  26.948  23.998  1.00  0.00     0.198 A 
ATOM    101  C   UNL A   1      49.332  27.643  22.039  1.00  0.00     0.198 A 
ATOM    102  F   UNL A   1      47.015  28.024  22.139  1.00  0.00    -0.203 F 
ATOM    103  F   UNL A   1      51.666  26.584  24.587  1.00  0.00    -0.200 F 
ATOM    104  C   UNL A   1      50.517  27.275  22.652  1.00  0.00     0.200 A 
ATOM    105  F   UNL A   1      49.312  27.910  20.726  1.00  0.00    -0.200 F 
ATOM    106  F   UNL A   1      51.649  27.202  21.940  1.00  0.00    -0.200 F 
ENDBRANCH  73  96
ENDBRANCH  47  48
ENDBRANCH  40  42
ENDBRANCH  39  40
ENDBRANCH  38  39
ENDBRANCH  37  38
ENDBRANCH  36  37
ENDBRANCH  35  36
ENDBRANCH  34  35
ENDBRANCH  33  34
ENDBRANCH   1  33
TORSDOF 23
ENDMDL
MODEL 3
REMARK VINA RESULT:      -8.7      5.672     12.958
REMARK SMILES Cc1nc2cc(S(=O)(=O)N3CCC(C(=O)OCCOCCOCCOCCOC(=O)c4ccc(-c5c6nc(c(-c7c(F)c(F)c(F)c(F)c7F)c7ccc([nH]7)c(-c7c(F)c(F)c(F)c(F)c7F)c7nc(c(-c8c(F)c(F)c(F)c(F)c8F)c8ccc5[nH]8)C=C7)C=C6)cc4)CC3)ccc2n1C1CCCC1
REMARK SMILES IDX 21 1 20 2 19 3 18 4 17 5 16 6 14 7 15 8 13 9 10 10 11 11
REMARK SMILES IDX 95 12 12 13 94 14 7 15 8 16 9 17 6 18 1 19 2 20 3 21 99 22
REMARK SMILES IDX 4 23 98 24 5 25 97 26 96 27 100 28 101 29 104 30 102 31
REMARK SMILES IDX 103 32 22 33 23 34 24 35 25 36 26 37 27 38 28 39 29 40 30 41
REMARK SMILES IDX 31 42 32 43 93 44 33 45 92 46 34 47 35 48 36 49 86 50 37 51
REMARK SMILES IDX 91 52 85 53 87 54 38 55 90 56 84 57 83 58 39 60 71 61 51 62
REMARK SMILES IDX 70 63 52 64 55 65 69 66 88 67 53 68 54 69 68 71 89 72 56 73
REMARK SMILES IDX 40 74 41 75 49 76 42 77 43 78 47 79 50 80 44 81 45 82 48 83
REMARK SMILES IDX 46 84 72 85 73 86 81 87 74 88 75 89 79 90 82 91 76 92 77 93
REMARK SMILES IDX 80 94 78 95 57 96 58 97 66 98 59 99 60 100 64 101 67 102
REMARK SMILES IDX 61 103 62 104 65 105 63 106
REMARK H PARENT 87 59 55 70
REMARK Flexibility Score: inf
ROOT
ATOM      1  C   UNL A   1      44.273  41.120  25.995  1.00  0.00     0.188 C 
ENDROOT
BRANCH   1   2
ATOM      2  C   UNL A   1      45.609  40.436  25.700  1.00  0.00     0.188 C 
BRANCH   2   3
ATOM      3  O   UNL A   1      46.271  39.678  26.694  1.00  0.00    -0.376 OA
BRANCH   3   4
ATOM      4  C   UNL A   1      46.405  38.265  26.649  1.00  0.00     0.202 C 
BRANCH   4   5
ATOM      5  C   UNL A   1      45.342  37.226  27.035  1.00  0.00     0.261 C 
BRANCH   5   6
ATOM      6  O   UNL A   1      43.974  37.604  26.872  1.00  0.00    -0.463 OA
BRANCH   6   7
ATOM      7  C   UNL A   1      43.099  36.583  26.970  1.00  0.00     0.309 C 
ATOM      8  O   UNL A   1      41.877  36.704  26.947  1.00  0.00    -0.252 OA
BRANCH   7   9
ATOM      9  C   UNL A   1      43.731  35.222  27.111  1.00  0.00     0.102 C 
ATOM     10  N   UNL A   1      44.462  32.463  26.964  1.00  0.00    -0.198 NA
ATOM     11  C   UNL A   1      44.235  33.077  28.296  1.00  0.00     0.103 C 
ATOM     12  C   UNL A   1      44.394  33.276  25.725  1.00  0.00     0.103 C 
ATOM     13  C   UNL A   1      43.345  34.312  28.267  1.00  0.00     0.032 C 
ATOM     14  C   UNL A   1      43.449  34.452  25.832  1.00  0.00     0.032 C 
BRANCH  10  15
ATOM     15  S   UNL A   1      45.627  31.204  26.924  1.00  0.00     0.243 S 
ATOM     16  O   UNL A   1      46.266  31.179  28.221  1.00  0.00    -0.207 OA
ATOM     17  O   UNL A   1      46.390  31.351  25.699  1.00  0.00    -0.207 OA
BRANCH  15  18
ATOM     18  C   UNL A   1      44.727  29.668  26.776  1.00  0.00     0.085 A 
ATOM     19  C   UNL A   1      44.167  24.027  24.868  1.00  0.00     0.088 C 
ATOM     20  C   UNL A   1      44.128  25.402  25.431  1.00  0.00     0.106 A 
ATOM     21  N   UNL A   1      45.078  26.296  25.241  1.00  0.00    -0.233 NA
ATOM     22  N   UNL A   1      43.119  25.914  26.228  1.00  0.00    -0.325 N 
ATOM     23  C   UNL A   1      44.685  27.419  25.912  1.00  0.00     0.090 A 
ATOM     24  C   UNL A   1      43.457  27.218  26.533  1.00  0.00     0.068 A 
ATOM     25  C   UNL A   1      45.339  28.654  26.027  1.00  0.00     0.052 A 
ATOM     26  C   UNL A   1      42.830  28.224  27.275  1.00  0.00     0.030 A 
ATOM     27  C   UNL A   1      43.492  29.448  27.389  1.00  0.00     0.024 A 
BRANCH  22  28
ATOM     28  C   UNL A   1      41.911  25.222  26.641  1.00  0.00     0.089 C 
ATOM     29  C   UNL A   1      41.666  25.169  28.151  1.00  0.00     0.025 C 
ATOM     30  C   UNL A   1      40.622  25.817  26.068  1.00  0.00     0.025 C 
ATOM     31  C   UNL A   1      40.188  24.824  28.270  1.00  0.00     0.002 C 
ATOM     32  C   UNL A   1      39.512  25.396  27.027  1.00  0.00     0.002 C 
ENDBRANCH  22  28
ENDBRANCH  15  18
ENDBRANCH  10  15
ENDBRANCH   7   9
ENDBRANCH   6   7
ENDBRANCH   5   6
ENDBRANCH   4   5
ENDBRANCH   3   4
ENDBRANCH   2   3
ENDBRANCH   1   2
BRANCH   1  33
ATOM     33  O   UNL A   1      44.371  42.491  26.280  1.00  0.00    -0.377 OA
BRANCH  33  34
ATOM     34  C   UNL A   1      44.867  42.918  27.535  1.00  0.00     0.188 C 
BRANCH  34  35
ATOM     35  C   UNL A   1      44.552  42.113  28.805  1.00  0.00     0.188 C 
BRANCH  35  36
ATOM     36  O   UNL A   1      44.664  42.906  29.977  1.00  0.00    -0.376 OA
BRANCH  36  37
ATOM     37  C   UNL A   1      45.213  42.292  31.135  1.00  0.00     0.202 C 
BRANCH  37  38
ATOM     38  C   UNL A   1      44.359  41.230  31.850  1.00  0.00     0.261 C 
BRANCH  38  39
ATOM     39  O   UNL A   1      44.545  39.886  31.367  1.00  0.00    -0.460 OA
BRANCH  39  40
ATOM     40  C   UNL A   1      45.076  38.945  32.181  1.00  0.00     0.338 C 
ATOM     41  O   UNL A   1      46.061  39.061  32.882  1.00  0.00    -0.246 OA
BRANCH  40  42
ATOM     42  C   UNL A   1      44.016  37.905  32.333  1.00  0.00     0.060 A 
ATOM     43  C   UNL A   1      43.309  37.746  33.529  1.00  0.00     0.016 A 
ATOM     44  C   UNL A   1      43.982  36.895  31.358  1.00  0.00     0.016 A 
ATOM     45  C   UNL A   1      42.681  36.526  33.792  1.00  0.00     0.010 A 
ATOM     46  C   UNL A   1      43.367  35.670  31.634  1.00  0.00     0.010 A 
ATOM     47  C   UNL A   1      42.754  35.462  32.869  1.00  0.00    -0.014 A 
BRANCH  47  48
ATOM     48  C   UNL A   1      41.986  34.242  33.177  1.00  0.00     0.031 A 
ATOM     49  C   UNL A   1      40.682  34.189  32.456  1.00  0.00     0.074 A 
ATOM     50  C   UNL A   1      42.375  33.161  33.888  1.00  0.00     0.049 A 
ATOM     51  N   UNL A   1      39.492  34.081  32.946  1.00  0.00    -0.248 NA
ATOM     52  C   UNL A   1      40.727  34.386  30.998  1.00  0.00     0.031 C 
ATOM     53  C   UNL A   1      43.708  32.853  34.398  1.00  0.00     0.029 A 
ATOM     54  N   UNL A   1      41.650  32.044  34.236  1.00  0.00    -0.354 N 
ATOM     55  C   UNL A   1      38.637  34.056  31.848  1.00  0.00     0.074 A 
ATOM     56  C   UNL A   1      39.432  34.373  30.691  1.00  0.00     0.031 C 
ATOM     57  C   UNL A   1      43.738  31.576  34.844  1.00  0.00     0.029 A 
ATOM     58  C   UNL A   1      42.421  30.980  34.695  1.00  0.00     0.049 A 
ATOM     59  H   UNL A   1      40.669  32.001  34.166  1.00  0.00     0.167 HD
ATOM     60  C   UNL A   1      37.364  33.585  31.931  1.00  0.00     0.037 A 
ATOM     61  C   UNL A   1      42.047  29.681  34.855  1.00  0.00     0.037 A 
ATOM     62  C   UNL A   1      36.871  33.600  33.279  1.00  0.00     0.049 A 
ATOM     63  C   UNL A   1      40.565  29.628  34.922  1.00  0.00     0.074 A 
ATOM     64  C   UNL A   1      36.688  34.591  34.225  1.00  0.00     0.029 A 
ATOM     65  N   UNL A   1      36.765  32.417  33.964  1.00  0.00    -0.354 N 
ATOM     66  N   UNL A   1      39.855  30.061  35.925  1.00  0.00    -0.248 NA
ATOM     67  C   UNL A   1      39.844  29.461  33.670  1.00  0.00     0.031 C 
ATOM     68  C   UNL A   1      36.994  33.973  35.470  1.00  0.00     0.029 A 
ATOM     69  C   UNL A   1      37.296  32.637  35.209  1.00  0.00     0.049 A 
ATOM     70  H   UNL A   1      36.382  31.574  33.629  1.00  0.00     0.167 HD
ATOM     71  C   UNL A   1      38.738  30.634  35.337  1.00  0.00     0.074 A 
ATOM     72  C   UNL A   1      38.744  30.159  33.957  1.00  0.00     0.031 C 
ATOM     73  C   UNL A   1      38.067  31.659  35.936  1.00  0.00     0.037 A 
BRANCH  60  74
ATOM     74  C   UNL A   1      36.694  32.824  30.821  1.00  0.00     0.064 A 
ATOM     75  C   UNL A   1      37.319  31.688  30.275  1.00  0.00     0.173 A 
ATOM     76  C   UNL A   1      35.601  33.335  30.084  1.00  0.00     0.173 A 
ATOM     77  F   UNL A   1      38.390  31.146  30.873  1.00  0.00    -0.203 F 
ATOM     78  C   UNL A   1      36.916  31.142  29.054  1.00  0.00     0.198 A 
ATOM     79  C   UNL A   1      35.164  32.753  28.898  1.00  0.00     0.198 A 
ATOM     80  F   UNL A   1      34.990  34.478  30.423  1.00  0.00    -0.203 F 
ATOM     81  F   UNL A   1      37.616  30.137  28.512  1.00  0.00    -0.200 F 
ATOM     82  C   UNL A   1      35.840  31.675  28.367  1.00  0.00     0.200 A 
ATOM     83  F   UNL A   1      34.134  33.299  28.237  1.00  0.00    -0.200 F 
ATOM     84  F   UNL A   1      35.486  31.189  27.171  1.00  0.00    -0.200 F 
ENDBRANCH  60  74
BRANCH  61  85
ATOM     85  C   UNL A   1      42.879  28.456  34.681  1.00  0.00     0.064 A 
ATOM     86  C   UNL A   1      43.211  27.617  35.762  1.00  0.00     0.173 A 
ATOM     87  C   UNL A   1      43.173  27.947  33.400  1.00  0.00     0.173 A 
ATOM     88  F   UNL A   1      42.912  27.979  37.018  1.00  0.00    -0.203 F 
ATOM     89  C   UNL A   1      43.796  26.357  35.566  1.00  0.00     0.198 A 
ATOM     90  C   UNL A   1      43.775  26.703  33.207  1.00  0.00     0.198 A 
ATOM     91  F   UNL A   1      42.797  28.602  32.293  1.00  0.00    -0.203 F 
ATOM     92  F   UNL A   1      44.044  25.563  36.617  1.00  0.00    -0.200 F 
ATOM     93  C   UNL A   1      44.078  25.902  34.289  1.00  0.00     0.200 A 
ATOM     94  F   UNL A   1      44.004  26.266  31.961  1.00  0.00    -0.200 F 
ATOM     95  F   UNL A   1      44.597  24.682  34.097  1.00  0.00    -0.200 F 
ENDBRANCH  61  85
BRANCH  73  96
ATOM     96  C   UNL A   1      38.356  31.976  37.376  1.00  0.00     0.064 A 
ATOM     97  C   UNL A   1      39.252  32.974  37.797  1.00  0.00     0.173 A 
ATOM     98  C   UNL A   1      37.548  31.377  38.357  1.00  0.00     0.173 A 
ATOM     99  F   UNL A   1      39.985  33.668  36.916  1.00  0.00    -0.203 F 
ATOM    100  C   UNL A   1      39.346  33.331  39.142  1.00  0.00     0.198 A 
ATOM    101  C   UNL A   1      37.615  31.772  39.690  1.00  0.00     0.198 A 
ATOM    102  F   UNL A   1      36.641  30.452  38.007  1.00  0.00    -0.203 F 
ATOM    103  F   UNL A   1      40.212  34.280  39.523  1.00  0.00    -0.200 F 
ATOM    104  C   UNL A   1      38.516  32.745  40.083  1.00  0.00     0.200 A 
ATOM    105  F   UNL A   1      36.774  31.237  40.586  1.00  0.00    -0.200 F 
ATOM    106  F   UNL A   1      38.563  33.143  41.362  1.00  0.00    -0.200 F 
ENDBRANCH  73  96
ENDBRANCH  47  48
ENDBRANCH  40  42
ENDBRANCH  39  40
ENDBRANCH  38  39
ENDBRANCH  37  38
ENDBRANCH  36  37
ENDBRANCH  35  36
ENDBRANCH  34  35
ENDBRANCH  33  34
ENDBRANCH   1  33
TORSDOF 23
ENDMDL
