MODEL 1
REMARK VINA RESULT:     -10.0      0.000      0.000
REMARK SMILES CC[C@H](C(=O)OCCOCCOCCOCCOC(=O)c1ccc(-c2c3nc(c(-c4c(F)c(F)c(F)c(F)c4F)c4ccc([nH]4)c(-c4c(F)c(F)c(F)c(F)c4F)c4nc(c(-c5c(F)c(F)c(F)c(F)c5F)c5ccc2[nH]5)C=C4)C=C3)cc1)C1=CCCc2c(C)ccc(C)c21
REMARK SMILES IDX 13 1 12 2 11 3 10 4 9 5 8 6 7 7 6 8 4 9 5 10 3 11 2 12 1 13
REMARK SMILES IDX 84 14 85 15 95 16 86 17 88 18 93 19 87 20 89 21 92 22 94 23
REMARK SMILES IDX 90 24 91 25 14 26 15 27 16 28 17 29 18 30 19 31 20 32 21 33
REMARK SMILES IDX 22 34 83 35 23 36 82 37 24 38 25 39 26 40 76 41 27 42 81 43
REMARK SMILES IDX 75 44 77 45 28 46 80 47 74 48 73 49 29 51 61 52 41 53 60 54
REMARK SMILES IDX 42 55 45 56 59 57 78 58 43 59 44 60 58 62 79 63 46 64 30 65
REMARK SMILES IDX 31 66 39 67 32 68 33 69 37 70 40 71 34 72 35 73 38 74 36 75
REMARK SMILES IDX 62 76 63 77 71 78 64 79 65 80 69 81 72 82 66 83 67 84 70 85
REMARK SMILES IDX 68 86 47 87 48 88 56 89 49 90 50 91 54 92 57 93 51 94 52 95
REMARK SMILES IDX 55 96 53 97
REMARK H PARENT 77 50 45 61
REMARK Flexibility Score: inf
ROOT
ATOM      1  C   UNL A   1      40.769  21.463  26.296  1.00  0.00     0.188 C 
ENDROOT
BRANCH   1   2
ATOM      2  O   UNL A   1      39.367  21.703  26.385  1.00  0.00    -0.377 OA
BRANCH   2   3
ATOM      3  C   UNL A   1      38.938  23.051  26.180  1.00  0.00     0.188 C 
BRANCH   3   4
ATOM      4  C   UNL A   1      37.420  23.290  26.122  1.00  0.00     0.188 C 
BRANCH   4   5
ATOM      5  O   UNL A   1      36.783  23.009  24.892  1.00  0.00    -0.376 OA
BRANCH   5   6
ATOM      6  C   UNL A   1      35.626  22.178  24.840  1.00  0.00     0.202 C 
BRANCH   6   7
ATOM      7  C   UNL A   1      34.235  22.833  24.986  1.00  0.00     0.261 C 
BRANCH   7   8
ATOM      8  O   UNL A   1      34.140  24.217  24.611  1.00  0.00    -0.463 OA
BRANCH   8   9
ATOM      9  C   UNL A   1      33.917  24.504  23.308  1.00  0.00     0.313 C 
ATOM     10  O   UNL A   1      34.451  23.908  22.380  1.00  0.00    -0.252 OA
BRANCH   9  11
ATOM     11  C   UNL A   1      32.874  25.609  23.118  1.00  0.00     0.129 C 
BRANCH  11  12
ATOM     12  C   UNL A   1      31.398  25.228  22.634  1.00  0.00     0.017 C 
ATOM     13  C   UNL A   1      30.676  23.948  23.092  1.00  0.00     0.005 C 
ENDBRANCH  11  12
BRANCH  11  14
ATOM     14  C   UNL A   1      32.898  26.570  24.297  1.00  0.00    -0.030 C 
ATOM     15  C   UNL A   1      33.864  27.528  24.260  1.00  0.00    -0.022 C 
ATOM     16  C   UNL A   1      31.585  27.043  24.980  1.00  0.00    -0.015 A 
ATOM     17  C   UNL A   1      33.467  28.746  23.402  1.00  0.00     0.032 C 
ATOM     18  C   UNL A   1      31.539  28.455  24.866  1.00  0.00    -0.037 A 
ATOM     19  C   UNL A   1      31.160  26.476  26.193  1.00  0.00    -0.043 A 
ATOM     20  C   UNL A   1      31.949  28.975  23.495  1.00  0.00     0.040 C 
ATOM     21  C   UNL A   1      31.733  29.210  26.038  1.00  0.00    -0.047 A 
ATOM     22  C   UNL A   1      31.340  27.220  27.368  1.00  0.00     0.004 A 
ATOM     23  C   UNL A   1      29.951  25.555  26.226  1.00  0.00     0.045 C 
ATOM     24  C   UNL A   1      32.323  30.589  25.969  1.00  0.00     0.044 C 
ATOM     25  C   UNL A   1      31.692  28.564  27.284  1.00  0.00     0.004 A 
ENDBRANCH  11  14
ENDBRANCH   9  11
ENDBRANCH   8   9
ENDBRANCH   7   8
ENDBRANCH   6   7
ENDBRANCH   5   6
ENDBRANCH   4   5
ENDBRANCH   3   4
ENDBRANCH   2   3
ENDBRANCH   1   2
BRANCH   1  26
ATOM     26  C   UNL A   1      41.495  20.917  27.555  1.00  0.00     0.188 C 
BRANCH  26  27
ATOM     27  O   UNL A   1      42.083  19.636  27.392  1.00  0.00    -0.376 OA
BRANCH  27  28
ATOM     28  C   UNL A   1      42.169  19.098  26.082  1.00  0.00     0.202 C 
BRANCH  28  29
ATOM     29  C   UNL A   1      43.351  18.184  25.700  1.00  0.00     0.261 C 
BRANCH  29  30
ATOM     30  O   UNL A   1      44.608  18.819  25.418  1.00  0.00    -0.460 OA
BRANCH  30  31
ATOM     31  C   UNL A   1      44.652  19.705  24.405  1.00  0.00     0.338 C 
ATOM     32  O   UNL A   1      44.629  19.459  23.207  1.00  0.00    -0.246 OA
BRANCH  31  33
ATOM     33  C   UNL A   1      44.503  21.056  24.987  1.00  0.00     0.060 A 
ATOM     34  C   UNL A   1      43.845  22.051  24.248  1.00  0.00     0.016 A 
ATOM     35  C   UNL A   1      44.981  21.332  26.270  1.00  0.00     0.016 A 
ATOM     36  C   UNL A   1      43.689  23.332  24.776  1.00  0.00     0.010 A 
ATOM     37  C   UNL A   1      44.863  22.626  26.782  1.00  0.00     0.010 A 
ATOM     38  C   UNL A   1      44.249  23.639  26.022  1.00  0.00    -0.014 A 
BRANCH  38  39
ATOM     39  C   UNL A   1      44.413  25.058  26.414  1.00  0.00     0.031 A 
ATOM     40  C   UNL A   1      45.785  25.661  26.295  1.00  0.00     0.074 A 
ATOM     41  C   UNL A   1      43.378  25.802  26.838  1.00  0.00     0.049 A 
ATOM     42  N   UNL A   1      46.208  26.851  26.634  1.00  0.00    -0.248 NA
ATOM     43  C   UNL A   1      46.827  24.795  25.714  1.00  0.00     0.031 C 
ATOM     44  C   UNL A   1      41.995  25.347  26.943  1.00  0.00     0.029 A 
ATOM     45  N   UNL A   1      43.341  27.104  27.274  1.00  0.00    -0.354 N 
ATOM     46  C   UNL A   1      47.561  26.871  26.320  1.00  0.00     0.074 A 
ATOM     47  C   UNL A   1      47.897  25.569  25.792  1.00  0.00     0.031 C 
ATOM     48  C   UNL A   1      41.243  26.350  27.434  1.00  0.00     0.029 A 
ATOM     49  C   UNL A   1      42.102  27.502  27.711  1.00  0.00     0.049 A 
ATOM     50  H   UNL A   1      44.128  27.695  27.274  1.00  0.00     0.167 HD
ATOM     51  C   UNL A   1      48.441  27.889  26.456  1.00  0.00     0.037 A 
ATOM     52  C   UNL A   1      41.718  28.655  28.294  1.00  0.00     0.037 A 
ATOM     53  C   UNL A   1      48.102  29.182  26.986  1.00  0.00     0.049 A 
ATOM     54  C   UNL A   1      42.738  29.745  28.514  1.00  0.00     0.074 A 
ATOM     55  C   UNL A   1      48.916  30.287  27.152  1.00  0.00     0.029 A 
ATOM     56  N   UNL A   1      46.843  29.538  27.449  1.00  0.00    -0.354 N 
ATOM     57  N   UNL A   1      44.011  29.771  28.197  1.00  0.00    -0.248 NA
ATOM     58  C   UNL A   1      42.267  30.972  29.173  1.00  0.00     0.031 C 
ATOM     59  C   UNL A   1      48.168  31.290  27.776  1.00  0.00     0.029 A 
ATOM     60  C   UNL A   1      46.867  30.837  27.931  1.00  0.00     0.049 A 
ATOM     61  H   UNL A   1      46.050  28.955  27.436  1.00  0.00     0.167 HD
ATOM     62  C   UNL A   1      44.480  31.020  28.582  1.00  0.00     0.074 A 
ATOM     63  C   UNL A   1      43.352  31.731  29.146  1.00  0.00     0.031 C 
ATOM     64  C   UNL A   1      45.731  31.535  28.478  1.00  0.00     0.037 A 
BRANCH  51  65
ATOM     65  C   UNL A   1      49.867  27.631  26.061  1.00  0.00     0.064 A 
ATOM     66  C   UNL A   1      50.291  27.698  24.725  1.00  0.00     0.173 A 
ATOM     67  C   UNL A   1      50.829  27.340  27.040  1.00  0.00     0.173 A 
ATOM     68  F   UNL A   1      49.409  27.955  23.748  1.00  0.00    -0.203 F 
ATOM     69  C   UNL A   1      51.619  27.458  24.382  1.00  0.00     0.198 A 
ATOM     70  C   UNL A   1      52.163  27.135  26.698  1.00  0.00     0.198 A 
ATOM     71  F   UNL A   1      50.478  27.265  28.332  1.00  0.00    -0.203 F 
ATOM     72  F   UNL A   1      51.991  27.477  23.095  1.00  0.00    -0.200 F 
ATOM     73  C   UNL A   1      52.554  27.186  25.369  1.00  0.00     0.200 A 
ATOM     74  F   UNL A   1      53.067  26.886  27.655  1.00  0.00    -0.200 F 
ATOM     75  F   UNL A   1      53.835  26.965  25.039  1.00  0.00    -0.200 F 
ENDBRANCH  51  65
BRANCH  52  76
ATOM     76  C   UNL A   1      40.309  28.836  28.736  1.00  0.00     0.064 A 
ATOM     77  C   UNL A   1      39.925  28.579  30.061  1.00  0.00     0.173 A 
ATOM     78  C   UNL A   1      39.310  29.237  27.837  1.00  0.00     0.173 A 
ATOM     79  F   UNL A   1      40.837  28.167  30.954  1.00  0.00    -0.203 F 
ATOM     80  C   UNL A   1      38.595  28.693  30.460  1.00  0.00     0.198 A 
ATOM     81  C   UNL A   1      37.986  29.383  28.246  1.00  0.00     0.198 A 
ATOM     82  F   UNL A   1      39.620  29.491  26.556  1.00  0.00    -0.203 F 
ATOM     83  F   UNL A   1      38.247  28.386  31.717  1.00  0.00    -0.200 F 
ATOM     84  C   UNL A   1      37.627  29.100  29.555  1.00  0.00     0.200 A 
ATOM     85  F   UNL A   1      37.057  29.791  27.369  1.00  0.00    -0.200 F 
ATOM     86  F   UNL A   1      36.349  29.212  29.940  1.00  0.00    -0.200 F 
ENDBRANCH  52  76
BRANCH  64  87
ATOM     87  C   UNL A   1      45.942  32.952  28.936  1.00  0.00     0.064 A 
ATOM     88  C   UNL A   1      46.358  33.257  30.240  1.00  0.00     0.173 A 
ATOM     89  C   UNL A   1      45.767  34.017  28.038  1.00  0.00     0.173 A 
ATOM     90  F   UNL A   1      46.529  32.278  31.141  1.00  0.00    -0.203 F 
ATOM     91  C   UNL A   1      46.563  34.577  30.636  1.00  0.00     0.198 A 
ATOM     92  C   UNL A   1      46.008  35.332  28.426  1.00  0.00     0.198 A 
ATOM     93  F   UNL A   1      45.379  33.782  26.775  1.00  0.00    -0.203 F 
ATOM     94  F   UNL A   1      46.908  34.848  31.902  1.00  0.00    -0.200 F 
ATOM     95  C   UNL A   1      46.396  35.611  29.727  1.00  0.00     0.200 A 
ATOM     96  F   UNL A   1      45.865  36.328  27.541  1.00  0.00    -0.200 F 
ATOM     97  F   UNL A   1      46.603  36.879  30.108  1.00  0.00    -0.200 F 
ENDBRANCH  64  87
ENDBRANCH  38  39
ENDBRANCH  31  33
ENDBRANCH  30  31
ENDBRANCH  29  30
ENDBRANCH  28  29
ENDBRANCH  27  28
ENDBRANCH  26  27
ENDBRANCH   1  26
TORSDOF 22
ENDMDL
MODEL 2
REMARK VINA RESULT:      -9.9      0.864      2.088
REMARK SMILES CC[C@H](C(=O)OCCOCCOCCOCCOC(=O)c1ccc(-c2c3nc(c(-c4c(F)c(F)c(F)c(F)c4F)c4ccc([nH]4)c(-c4c(F)c(F)c(F)c(F)c4F)c4nc(c(-c5c(F)c(F)c(F)c(F)c5F)c5ccc2[nH]5)C=C4)C=C3)cc1)C1=CCCc2c(C)ccc(C)c21
REMARK SMILES IDX 13 1 12 2 11 3 10 4 9 5 8 6 7 7 6 8 4 9 5 10 3 11 2 12 1 13
REMARK SMILES IDX 84 14 85 15 95 16 86 17 88 18 93 19 87 20 89 21 92 22 94 23
REMARK SMILES IDX 90 24 91 25 14 26 15 27 16 28 17 29 18 30 19 31 20 32 21 33
REMARK SMILES IDX 22 34 83 35 23 36 82 37 24 38 25 39 26 40 76 41 27 42 81 43
REMARK SMILES IDX 75 44 77 45 28 46 80 47 74 48 73 49 29 51 61 52 41 53 60 54
REMARK SMILES IDX 42 55 45 56 59 57 78 58 43 59 44 60 58 62 79 63 46 64 30 65
REMARK SMILES IDX 31 66 39 67 32 68 33 69 37 70 40 71 34 72 35 73 38 74 36 75
REMARK SMILES IDX 62 76 63 77 71 78 64 79 65 80 69 81 72 82 66 83 67 84 70 85
REMARK SMILES IDX 68 86 47 87 48 88 56 89 49 90 50 91 54 92 57 93 51 94 52 95
REMARK SMILES IDX 55 96 53 97
REMARK H PARENT 77 50 45 61
REMARK Flexibility Score: inf
ROOT
ATOM      1  C   UNL A   1      41.053  21.247  26.384  1.00  0.00     0.188 C 
ENDROOT
BRANCH   1   2
ATOM      2  O   UNL A   1      39.646  21.459  26.301  1.00  0.00    -0.377 OA
BRANCH   2   3
ATOM      3  C   UNL A   1      39.193  22.804  26.474  1.00  0.00     0.188 C 
BRANCH   3   4
ATOM      4  C   UNL A   1      37.784  23.129  25.954  1.00  0.00     0.188 C 
BRANCH   4   5
ATOM      5  O   UNL A   1      37.149  22.130  25.181  1.00  0.00    -0.376 OA
BRANCH   5   6
ATOM      6  C   UNL A   1      36.171  21.269  25.758  1.00  0.00     0.202 C 
BRANCH   6   7
ATOM      7  C   UNL A   1      35.075  21.887  26.653  1.00  0.00     0.261 C 
BRANCH   7   8
ATOM      8  O   UNL A   1      33.879  22.324  25.985  1.00  0.00    -0.463 OA
BRANCH   8   9
ATOM      9  C   UNL A   1      33.218  23.383  26.504  1.00  0.00     0.313 C 
ATOM     10  O   UNL A   1      32.358  23.288  27.373  1.00  0.00    -0.252 OA
BRANCH   9  11
ATOM     11  C   UNL A   1      33.708  24.719  25.938  1.00  0.00     0.129 C 
BRANCH  11  12
ATOM     12  C   UNL A   1      34.770  24.729  24.743  1.00  0.00     0.017 C 
ATOM     13  C   UNL A   1      34.566  23.931  23.442  1.00  0.00     0.005 C 
ENDBRANCH  11  12
BRANCH  11  14
ATOM     14  C   UNL A   1      32.537  25.664  25.719  1.00  0.00    -0.030 C 
ATOM     15  C   UNL A   1      32.589  26.840  26.403  1.00  0.00    -0.022 C 
ATOM     16  C   UNL A   1      31.847  25.787  24.332  1.00  0.00    -0.015 A 
ATOM     17  C   UNL A   1      33.453  27.905  25.698  1.00  0.00     0.032 C 
ATOM     18  C   UNL A   1      31.971  27.137  23.921  1.00  0.00    -0.037 A 
ATOM     19  C   UNL A   1      30.626  25.141  24.076  1.00  0.00    -0.043 A 
ATOM     20  C   UNL A   1      33.349  27.733  24.174  1.00  0.00     0.040 C 
ATOM     21  C   UNL A   1      30.806  27.928  23.918  1.00  0.00    -0.047 A 
ATOM     22  C   UNL A   1      29.459  25.917  24.064  1.00  0.00     0.004 A 
ATOM     23  C   UNL A   1      30.576  23.938  23.147  1.00  0.00     0.045 C 
ATOM     24  C   UNL A   1      30.891  29.413  24.130  1.00  0.00     0.044 C 
ATOM     25  C   UNL A   1      29.555  27.305  24.053  1.00  0.00     0.004 A 
ENDBRANCH  11  14
ENDBRANCH   9  11
ENDBRANCH   8   9
ENDBRANCH   7   8
ENDBRANCH   6   7
ENDBRANCH   5   6
ENDBRANCH   4   5
ENDBRANCH   3   4
ENDBRANCH   2   3
ENDBRANCH   1   2
BRANCH   1  26
ATOM     26  C   UNL A   1      41.601  20.464  27.607  1.00  0.00     0.188 C 
BRANCH  26  27
ATOM     27  O   UNL A   1      42.209  19.222  27.293  1.00  0.00    -0.376 OA
BRANCH  27  28
ATOM     28  C   UNL A   1      42.466  18.925  25.930  1.00  0.00     0.202 C 
BRANCH  28  29
ATOM     29  C   UNL A   1      43.712  18.105  25.541  1.00  0.00     0.261 C 
BRANCH  29  30
ATOM     30  O   UNL A   1      44.912  18.835  25.244  1.00  0.00    -0.460 OA
BRANCH  30  31
ATOM     31  C   UNL A   1      44.881  19.709  24.220  1.00  0.00     0.338 C 
ATOM     32  O   UNL A   1      44.832  19.447  23.026  1.00  0.00    -0.246 OA
BRANCH  31  33
ATOM     33  C   UNL A   1      44.684  21.058  24.792  1.00  0.00     0.060 A 
ATOM     34  C   UNL A   1      44.176  22.081  23.974  1.00  0.00     0.016 A 
ATOM     35  C   UNL A   1      44.968  21.308  26.136  1.00  0.00     0.016 A 
ATOM     36  C   UNL A   1      43.979  23.361  24.491  1.00  0.00     0.010 A 
ATOM     37  C   UNL A   1      44.811  22.600  26.642  1.00  0.00     0.010 A 
ATOM     38  C   UNL A   1      44.350  23.638  25.812  1.00  0.00    -0.014 A 
BRANCH  38  39
ATOM     39  C   UNL A   1      44.494  25.048  26.244  1.00  0.00     0.031 A 
ATOM     40  C   UNL A   1      45.863  25.666  26.165  1.00  0.00     0.074 A 
ATOM     41  C   UNL A   1      43.445  25.771  26.669  1.00  0.00     0.049 A 
ATOM     42  N   UNL A   1      46.267  26.850  26.543  1.00  0.00    -0.248 NA
ATOM     43  C   UNL A   1      46.922  24.826  25.581  1.00  0.00     0.031 C 
ATOM     44  C   UNL A   1      42.064  25.301  26.737  1.00  0.00     0.029 A 
ATOM     45  N   UNL A   1      43.388  27.061  27.139  1.00  0.00    -0.354 N 
ATOM     46  C   UNL A   1      47.626  26.891  26.254  1.00  0.00     0.074 A 
ATOM     47  C   UNL A   1      47.983  25.606  25.698  1.00  0.00     0.031 C 
ATOM     48  C   UNL A   1      41.295  26.284  27.240  1.00  0.00     0.029 A 
ATOM     49  C   UNL A   1      42.138  27.436  27.563  1.00  0.00     0.049 A 
ATOM     50  H   UNL A   1      44.169  27.658  27.168  1.00  0.00     0.167 HD
ATOM     51  C   UNL A   1      48.494  27.913  26.434  1.00  0.00     0.037 A 
ATOM     52  C   UNL A   1      41.733  28.569  28.170  1.00  0.00     0.037 A 
ATOM     53  C   UNL A   1      48.133  29.188  26.992  1.00  0.00     0.049 A 
ATOM     54  C   UNL A   1      42.738  29.662  28.437  1.00  0.00     0.074 A 
ATOM     55  C   UNL A   1      48.934  30.296  27.201  1.00  0.00     0.029 A 
ATOM     56  N   UNL A   1      46.863  29.521  27.441  1.00  0.00    -0.354 N 
ATOM     57  N   UNL A   1      44.016  29.707  28.144  1.00  0.00    -0.248 NA
ATOM     58  C   UNL A   1      42.244  30.867  29.120  1.00  0.00     0.031 C 
ATOM     59  C   UNL A   1      48.165  31.275  27.838  1.00  0.00     0.029 A 
ATOM     60  C   UNL A   1      46.866  30.807  27.957  1.00  0.00     0.049 A 
ATOM     61  H   UNL A   1      46.076  28.931  27.398  1.00  0.00     0.167 HD
ATOM     62  C   UNL A   1      44.466  30.950  28.570  1.00  0.00     0.074 A 
ATOM     63  C   UNL A   1      43.322  31.636  29.133  1.00  0.00     0.031 C 
ATOM     64  C   UNL A   1      45.714  31.479  28.502  1.00  0.00     0.037 A 
BRANCH  51  65
ATOM     65  C   UNL A   1      49.929  27.678  26.057  1.00  0.00     0.064 A 
ATOM     66  C   UNL A   1      50.912  27.394  27.017  1.00  0.00     0.173 A 
ATOM     67  C   UNL A   1      50.319  27.711  24.710  1.00  0.00     0.173 A 
ATOM     68  F   UNL A   1      50.596  27.368  28.321  1.00  0.00    -0.203 F 
ATOM     69  C   UNL A   1      52.235  27.176  26.644  1.00  0.00     0.198 A 
ATOM     70  C   UNL A   1      51.636  27.458  24.337  1.00  0.00     0.198 A 
ATOM     71  F   UNL A   1      49.419  27.977  23.751  1.00  0.00    -0.203 F 
ATOM     72  F   UNL A   1      53.167  26.957  27.582  1.00  0.00    -0.200 F 
ATOM     73  C   UNL A   1      52.595  27.200  25.305  1.00  0.00     0.200 A 
ATOM     74  F   UNL A   1      51.978  27.468  23.041  1.00  0.00    -0.200 F 
ATOM     75  F   UNL A   1      53.867  26.980  24.946  1.00  0.00    -0.200 F 
ENDBRANCH  51  65
BRANCH  52  76
ATOM     76  C   UNL A   1      40.314  28.726  28.592  1.00  0.00     0.064 A 
ATOM     77  C   UNL A   1      39.339  29.192  27.698  1.00  0.00     0.173 A 
ATOM     78  C   UNL A   1      39.910  28.446  29.906  1.00  0.00     0.173 A 
ATOM     79  F   UNL A   1      39.678  29.501  26.438  1.00  0.00    -0.203 F 
ATOM     80  C   UNL A   1      38.022  29.394  28.110  1.00  0.00     0.198 A 
ATOM     81  C   UNL A   1      38.587  28.616  30.307  1.00  0.00     0.198 A 
ATOM     82  F   UNL A   1      40.803  28.002  30.804  1.00  0.00    -0.203 F 
ATOM     83  F   UNL A   1      37.124  29.894  27.250  1.00  0.00    -0.200 F 
ATOM     84  C   UNL A   1      37.646  29.100  29.411  1.00  0.00     0.200 A 
ATOM     85  F   UNL A   1      38.226  28.317  31.562  1.00  0.00    -0.200 F 
ATOM     86  F   UNL A   1      36.380  29.292  29.805  1.00  0.00    -0.200 F 
ENDBRANCH  52  76
BRANCH  64  87
ATOM     87  C   UNL A   1      45.903  32.885  29.001  1.00  0.00     0.064 A 
ATOM     88  C   UNL A   1      46.301  33.159  30.318  1.00  0.00     0.173 A 
ATOM     89  C   UNL A   1      45.726  33.973  28.131  1.00  0.00     0.173 A 
ATOM     90  F   UNL A   1      46.473  32.157  31.193  1.00  0.00    -0.203 F 
ATOM     91  C   UNL A   1      46.486  34.470  30.752  1.00  0.00     0.198 A 
ATOM     92  C   UNL A   1      45.948  35.279  28.558  1.00  0.00     0.198 A 
ATOM     93  F   UNL A   1      45.356  33.768  26.858  1.00  0.00    -0.203 F 
ATOM     94  F   UNL A   1      46.814  34.710  32.029  1.00  0.00    -0.200 F 
ATOM     95  C   UNL A   1      46.318  35.526  29.870  1.00  0.00     0.200 A 
ATOM     96  F   UNL A   1      45.804  36.297  27.698  1.00  0.00    -0.200 F 
ATOM     97  F   UNL A   1      46.506  36.786  30.289  1.00  0.00    -0.200 F 
ENDBRANCH  64  87
ENDBRANCH  38  39
ENDBRANCH  31  33
ENDBRANCH  30  31
ENDBRANCH  29  30
ENDBRANCH  28  29
ENDBRANCH  27  28
ENDBRANCH  26  27
ENDBRANCH   1  26
TORSDOF 22
ENDMDL
MODEL 3
REMARK VINA RESULT:      -9.9      5.938     11.505
REMARK SMILES CC[C@H](C(=O)OCCOCCOCCOCCOC(=O)c1ccc(-c2c3nc(c(-c4c(F)c(F)c(F)c(F)c4F)c4ccc([nH]4)c(-c4c(F)c(F)c(F)c(F)c4F)c4nc(c(-c5c(F)c(F)c(F)c(F)c5F)c5ccc2[nH]5)C=C4)C=C3)cc1)C1=CCCc2c(C)ccc(C)c21
REMARK SMILES IDX 13 1 12 2 11 3 10 4 9 5 8 6 7 7 6 8 4 9 5 10 3 11 2 12 1 13
REMARK SMILES IDX 84 14 85 15 95 16 86 17 88 18 93 19 87 20 89 21 92 22 94 23
REMARK SMILES IDX 90 24 91 25 14 26 15 27 16 28 17 29 18 30 19 31 20 32 21 33
REMARK SMILES IDX 22 34 83 35 23 36 82 37 24 38 25 39 26 40 76 41 27 42 81 43
REMARK SMILES IDX 75 44 77 45 28 46 80 47 74 48 73 49 29 51 61 52 41 53 60 54
REMARK SMILES IDX 42 55 45 56 59 57 78 58 43 59 44 60 58 62 79 63 46 64 30 65
REMARK SMILES IDX 31 66 39 67 32 68 33 69 37 70 40 71 34 72 35 73 38 74 36 75
REMARK SMILES IDX 62 76 63 77 71 78 64 79 65 80 69 81 72 82 66 83 67 84 70 85
REMARK SMILES IDX 68 86 47 87 48 88 56 89 49 90 50 91 54 92 57 93 51 94 52 95
REMARK SMILES IDX 55 96 53 97
REMARK H PARENT 77 50 45 61
REMARK Flexibility Score: inf
ROOT
ATOM      1  C   UNL A   1      32.756  29.549  26.041  1.00  0.00     0.188 C 
ENDROOT
BRANCH   1   2
ATOM      2  O   UNL A   1      32.551  28.521  27.007  1.00  0.00    -0.377 OA
BRANCH   2   3
ATOM      3  C   UNL A   1      31.377  27.721  26.846  1.00  0.00     0.188 C 
BRANCH   3   4
ATOM      4  C   UNL A   1      31.089  27.195  25.430  1.00  0.00     0.188 C 
BRANCH   4   5
ATOM      5  O   UNL A   1      30.215  26.088  25.332  1.00  0.00    -0.376 OA
BRANCH   5   6
ATOM      6  C   UNL A   1      29.788  25.603  24.062  1.00  0.00     0.202 C 
BRANCH   6   7
ATOM      7  C   UNL A   1      30.797  24.828  23.187  1.00  0.00     0.261 C 
BRANCH   7   8
ATOM      8  O   UNL A   1      31.975  25.547  22.785  1.00  0.00    -0.463 OA
BRANCH   8   9
ATOM      9  C   UNL A   1      33.048  24.827  22.386  1.00  0.00     0.313 C 
ATOM     10  O   UNL A   1      33.229  24.460  21.231  1.00  0.00    -0.252 OA
BRANCH   9  11
ATOM     11  C   UNL A   1      34.045  24.576  23.522  1.00  0.00     0.129 C 
BRANCH  11  12
ATOM     12  C   UNL A   1      33.754  25.175  24.975  1.00  0.00     0.017 C 
ATOM     13  C   UNL A   1      34.609  26.290  25.603  1.00  0.00     0.005 C 
ENDBRANCH  11  12
BRANCH  11  14
ATOM     14  C   UNL A   1      34.474  23.118  23.539  1.00  0.00    -0.030 C 
ATOM     15  C   UNL A   1      35.689  22.852  22.985  1.00  0.00    -0.022 C 
ATOM     16  C   UNL A   1      34.124  22.187  24.733  1.00  0.00    -0.015 A 
ATOM     17  C   UNL A   1      36.859  23.105  23.956  1.00  0.00     0.032 C 
ATOM     18  C   UNL A   1      35.347  21.717  25.271  1.00  0.00    -0.037 A 
ATOM     19  C   UNL A   1      33.061  21.273  24.644  1.00  0.00    -0.043 A 
ATOM     20  C   UNL A   1      36.418  22.792  25.395  1.00  0.00     0.040 C 
ATOM     21  C   UNL A   1      35.671  20.362  25.067  1.00  0.00    -0.047 A 
ATOM     22  C   UNL A   1      33.368  19.920  24.448  1.00  0.00     0.004 A 
ATOM     23  C   UNL A   1      31.782  21.506  25.434  1.00  0.00     0.045 C 
ATOM     24  C   UNL A   1      37.106  19.922  25.003  1.00  0.00     0.044 C 
ATOM     25  C   UNL A   1      34.682  19.485  24.594  1.00  0.00     0.004 A 
ENDBRANCH  11  14
ENDBRANCH   9  11
ENDBRANCH   8   9
ENDBRANCH   7   8
ENDBRANCH   6   7
ENDBRANCH   5   6
ENDBRANCH   4   5
ENDBRANCH   3   4
ENDBRANCH   2   3
ENDBRANCH   1   2
BRANCH   1  26
ATOM     26  C   UNL A   1      31.514  30.332  25.537  1.00  0.00     0.188 C 
BRANCH  26  27
ATOM     27  O   UNL A   1      31.298  31.579  26.178  1.00  0.00    -0.376 OA
BRANCH  27  28
ATOM     28  C   UNL A   1      32.225  31.995  27.168  1.00  0.00     0.202 C 
BRANCH  28  29
ATOM     29  C   UNL A   1      32.658  33.473  27.247  1.00  0.00     0.261 C 
BRANCH  29  30
ATOM     30  O   UNL A   1      32.310  34.197  28.437  1.00  0.00    -0.460 OA
BRANCH  30  31
ATOM     31  C   UNL A   1      33.089  35.236  28.793  1.00  0.00     0.338 C 
ATOM     32  O   UNL A   1      32.815  36.425  28.713  1.00  0.00    -0.246 OA
BRANCH  31  33
ATOM     33  C   UNL A   1      34.256  34.691  29.519  1.00  0.00     0.060 A 
ATOM     34  C   UNL A   1      35.489  34.590  28.856  1.00  0.00     0.016 A 
ATOM     35  C   UNL A   1      34.144  34.310  30.858  1.00  0.00     0.016 A 
ATOM     36  C   UNL A   1      36.605  34.083  29.519  1.00  0.00     0.010 A 
ATOM     37  C   UNL A   1      35.251  33.761  31.510  1.00  0.00     0.010 A 
ATOM     38  C   UNL A   1      36.475  33.613  30.831  1.00  0.00    -0.014 A 
BRANCH  38  39
ATOM     39  C   UNL A   1      37.534  32.747  31.401  1.00  0.00     0.031 A 
ATOM     40  C   UNL A   1      38.038  33.076  32.779  1.00  0.00     0.074 A 
ATOM     41  C   UNL A   1      38.019  31.686  30.734  1.00  0.00     0.049 A 
ATOM     42  N   UNL A   1      38.999  32.522  33.470  1.00  0.00    -0.248 NA
ATOM     43  C   UNL A   1      37.363  34.189  33.469  1.00  0.00     0.031 C 
ATOM     44  C   UNL A   1      37.572  31.236  29.419  1.00  0.00     0.029 A 
ATOM     45  N   UNL A   1      39.012  30.802  31.076  1.00  0.00    -0.354 N 
ATOM     46  C   UNL A   1      39.052  33.226  34.668  1.00  0.00     0.074 A 
ATOM     47  C   UNL A   1      38.048  34.263  34.598  1.00  0.00     0.031 C 
ATOM     48  C   UNL A   1      38.303  30.167  29.055  1.00  0.00     0.029 A 
ATOM     49  C   UNL A   1      39.293  29.884  30.095  1.00  0.00     0.049 A 
ATOM     50  H   UNL A   1      39.478  30.824  31.943  1.00  0.00     0.167 HD
ATOM     51  C   UNL A   1      39.863  33.019  35.730  1.00  0.00     0.037 A 
ATOM     52  C   UNL A   1      40.259  28.946  30.037  1.00  0.00     0.037 A 
ATOM     53  C   UNL A   1      40.862  31.987  35.792  1.00  0.00     0.049 A 
ATOM     54  C   UNL A   1      41.207  28.791  31.200  1.00  0.00     0.074 A 
ATOM     55  C   UNL A   1      41.725  31.683  36.829  1.00  0.00     0.029 A 
ATOM     56  N   UNL A   1      41.140  31.096  34.765  1.00  0.00    -0.354 N 
ATOM     57  N   UNL A   1      41.241  29.442  32.339  1.00  0.00    -0.248 NA
ATOM     58  C   UNL A   1      42.254  27.766  31.072  1.00  0.00     0.031 C 
ATOM     59  C   UNL A   1      42.570  30.653  36.405  1.00  0.00     0.029 A 
ATOM     60  C   UNL A   1      42.184  30.263  35.132  1.00  0.00     0.049 A 
ATOM     61  H   UNL A   1      40.665  31.061  33.903  1.00  0.00     0.167 HD
ATOM     62  C   UNL A   1      42.281  28.884  33.072  1.00  0.00     0.074 A 
ATOM     63  C   UNL A   1      42.847  27.832  32.254  1.00  0.00     0.031 C 
ATOM     64  C   UNL A   1      42.728  29.211  34.311  1.00  0.00     0.037 A 
BRANCH  51  65
ATOM     65  C   UNL A   1      39.727  33.953  36.898  1.00  0.00     0.064 A 
ATOM     66  C   UNL A   1      38.958  33.626  38.026  1.00  0.00     0.173 A 
ATOM     67  C   UNL A   1      40.402  35.183  36.900  1.00  0.00     0.173 A 
ATOM     68  F   UNL A   1      38.279  32.470  38.069  1.00  0.00    -0.203 F 
ATOM     69  C   UNL A   1      38.850  34.507  39.098  1.00  0.00     0.198 A 
ATOM     70  C   UNL A   1      40.319  36.047  37.989  1.00  0.00     0.198 A 
ATOM     71  F   UNL A   1      41.151  35.546  35.848  1.00  0.00    -0.203 F 
ATOM     72  F   UNL A   1      38.069  34.196  40.142  1.00  0.00    -0.200 F 
ATOM     73  C   UNL A   1      39.537  35.711  39.083  1.00  0.00     0.200 A 
ATOM     74  F   UNL A   1      40.995  37.204  37.977  1.00  0.00    -0.200 F 
ATOM     75  F   UNL A   1      39.440  36.554  40.121  1.00  0.00    -0.200 F 
ENDBRANCH  51  65
BRANCH  52  76
ATOM     76  C   UNL A   1      40.400  28.093  28.825  1.00  0.00     0.064 A 
ATOM     77  C   UNL A   1      41.162  28.514  27.726  1.00  0.00     0.173 A 
ATOM     78  C   UNL A   1      39.749  26.854  28.729  1.00  0.00     0.173 A 
ATOM     79  F   UNL A   1      41.781  29.703  27.756  1.00  0.00    -0.203 F 
ATOM     80  C   UNL A   1      41.246  27.740  26.569  1.00  0.00     0.198 A 
ATOM     81  C   UNL A   1      39.863  26.066  27.585  1.00  0.00     0.198 A 
ATOM     82  F   UNL A   1      39.003  26.404  29.749  1.00  0.00    -0.203 F 
ATOM     83  F   UNL A   1      41.934  28.194  25.512  1.00  0.00    -0.200 F 
ATOM     84  C   UNL A   1      40.602  26.514  26.502  1.00  0.00     0.200 A 
ATOM     85  F   UNL A   1      39.249  24.875  27.531  1.00  0.00    -0.200 F 
ATOM     86  F   UNL A   1      40.686  25.771  25.391  1.00  0.00    -0.200 F 
ENDBRANCH  52  76
BRANCH  64  87
ATOM     87  C   UNL A   1      43.851  28.393  34.884  1.00  0.00     0.064 A 
ATOM     88  C   UNL A   1      43.616  27.278  35.703  1.00  0.00     0.173 A 
ATOM     89  C   UNL A   1      45.183  28.705  34.570  1.00  0.00     0.173 A 
ATOM     90  F   UNL A   1      42.362  26.943  36.043  1.00  0.00    -0.203 F 
ATOM     91  C   UNL A   1      44.673  26.525  36.208  1.00  0.00     0.198 A 
ATOM     92  C   UNL A   1      46.235  27.928  35.047  1.00  0.00     0.198 A 
ATOM     93  F   UNL A   1      45.466  29.754  33.784  1.00  0.00    -0.203 F 
ATOM     94  F   UNL A   1      44.426  25.497  37.032  1.00  0.00    -0.200 F 
ATOM     95  C   UNL A   1      45.980  26.845  35.874  1.00  0.00     0.200 A 
ATOM     96  F   UNL A   1      47.496  28.228  34.706  1.00  0.00    -0.200 F 
ATOM     97  F   UNL A   1      46.995  26.113  36.354  1.00  0.00    -0.200 F 
ENDBRANCH  64  87
ENDBRANCH  38  39
ENDBRANCH  31  33
ENDBRANCH  30  31
ENDBRANCH  29  30
ENDBRANCH  28  29
ENDBRANCH  27  28
ENDBRANCH  26  27
ENDBRANCH   1  26
TORSDOF 22
ENDMDL
