MODEL 1
REMARK VINA RESULT:     -11.3      0.000      0.000
REMARK SMILES Cc1cc(C)c(NS(=O)(=O)c2cccc3cc(C)cnc23)c(C(=O)OCCOCCOCCOCCOC(=O)c2ccc(-c3c4nc(c(-c5c(F)c(F)c(F)c(F)c5F)c5ccc([nH]5)c(-c5c(F)c(F)c(F)c(F)c5F)c5nc(c(-c6c(F)c(F)c(F)c(F)c6F)c6ccc3[nH]6)C=C5)C=C4)cc2)c1
REMARK SMILES IDX 30 1 29 2 28 3 27 4 26 5 25 6 23 7 24 8 22 9 1 10 2 11 3 12
REMARK SMILES IDX 103 13 4 14 5 15 6 16 7 17 8 19 9 20 10 21 11 22 12 23 21 24
REMARK SMILES IDX 13 25 15 26 20 27 14 28 16 29 19 30 17 31 18 32 31 33 32 34
REMARK SMILES IDX 33 35 34 36 35 37 36 38 37 39 38 40 39 41 40 42 41 43 102 44
REMARK SMILES IDX 42 45 101 46 43 47 44 48 45 49 95 50 46 51 100 52 94 53
REMARK SMILES IDX 96 54 47 55 99 56 93 57 92 58 48 60 80 61 60 62 79 63 61 64
REMARK SMILES IDX 64 65 78 66 97 67 62 68 63 69 77 71 98 72 65 73 49 74 50 75
REMARK SMILES IDX 58 76 51 77 52 78 56 79 59 80 53 81 54 82 57 83 55 84 81 85
REMARK SMILES IDX 82 86 90 87 83 88 84 89 88 90 91 91 85 92 86 93 89 94 87 95
REMARK SMILES IDX 66 96 67 97 75 98 68 99 69 100 73 101 76 102 70 103 71 104
REMARK SMILES IDX 74 105 72 106
REMARK H PARENT 7 18 96 59 64 70
REMARK Flexibility Score: inf
ROOT
ATOM      1  C   UNL A   1      39.279  22.408  25.798  1.00  0.00     0.188 C 
ENDROOT
BRANCH   1   2
ATOM      2  C   UNL A   1      37.927  21.660  25.783  1.00  0.00     0.188 C 
BRANCH   2   3
ATOM      3  O   UNL A   1      36.790  22.504  25.679  1.00  0.00    -0.376 OA
BRANCH   3   4
ATOM      4  C   UNL A   1      36.814  23.516  24.691  1.00  0.00     0.202 C 
BRANCH   4   5
ATOM      5  C   UNL A   1      36.055  23.192  23.400  1.00  0.00     0.261 C 
BRANCH   5   6
ATOM      6  O   UNL A   1      34.829  23.908  23.199  1.00  0.00    -0.460 OA
BRANCH   6   7
ATOM      7  C   UNL A   1      33.762  23.210  22.750  1.00  0.00     0.340 C 
ATOM      8  O   UNL A   1      33.280  23.275  21.633  1.00  0.00    -0.246 OA
BRANCH   7   9
ATOM      9  C   UNL A   1      33.279  22.288  23.806  1.00  0.00     0.084 A 
ATOM     10  C   UNL A   1      32.441  18.617  24.163  1.00  0.00     0.044 C 
ATOM     11  C   UNL A   1      32.855  20.015  24.505  1.00  0.00    -0.050 A 
ATOM     12  C   UNL A   1      33.038  20.440  25.824  1.00  0.00     0.009 A 
ATOM     13  C   UNL A   1      33.068  20.938  23.490  1.00  0.00     0.021 A 
ATOM     14  C   UNL A   1      33.244  21.802  26.138  1.00  0.00    -0.026 A 
ATOM     15  C   UNL A   1      33.754  22.158  27.503  1.00  0.00     0.046 C 
ATOM     16  C   UNL A   1      33.125  22.759  25.128  1.00  0.00     0.066 A 
BRANCH  16  17
ATOM     17  N   UNL A   1      32.266  23.922  25.254  1.00  0.00    -0.278 N 
ATOM     18  H   UNL A   1      31.312  23.726  25.114  1.00  0.00     0.180 HD
BRANCH  17  19
ATOM     19  S   UNL A   1      32.577  25.523  25.587  1.00  0.00     0.264 S 
ATOM     20  O   UNL A   1      31.642  25.902  26.630  1.00  0.00    -0.201 OA
ATOM     21  O   UNL A   1      34.001  25.587  25.860  1.00  0.00    -0.201 OA
BRANCH  19  22
ATOM     22  C   UNL A   1      32.296  26.620  24.226  1.00  0.00     0.114 A 
ATOM     23  C   UNL A   1      33.427  27.378  23.845  1.00  0.00     0.024 A 
ATOM     24  C   UNL A   1      31.016  26.927  23.773  1.00  0.00     0.091 A 
ATOM     25  C   UNL A   1      33.277  28.541  23.107  1.00  0.00     0.002 A 
ATOM     26  C   UNL A   1      30.879  28.180  23.125  1.00  0.00     0.002 A 
ATOM     27  N   UNL A   1      29.937  26.146  23.994  1.00  0.00    -0.255 NA
ATOM     28  C   UNL A   1      31.996  28.965  22.788  1.00  0.00     0.010 A 
ATOM     29  C   UNL A   1      29.590  28.683  22.911  1.00  0.00     0.015 A 
ATOM     30  C   UNL A   1      28.706  26.648  23.736  1.00  0.00     0.115 A 
ATOM     31  C   UNL A   1      28.477  27.934  23.280  1.00  0.00    -0.032 A 
ATOM     32  C   UNL A   1      27.109  28.535  23.255  1.00  0.00     0.046 C 
ENDBRANCH  19  22
ENDBRANCH  17  19
ENDBRANCH  16  17
ENDBRANCH   7   9
ENDBRANCH   6   7
ENDBRANCH   5   6
ENDBRANCH   4   5
ENDBRANCH   3   4
ENDBRANCH   2   3
ENDBRANCH   1   2
BRANCH   1  33
ATOM     33  O   UNL A   1      40.026  22.453  27.008  1.00  0.00    -0.377 OA
BRANCH  33  34
ATOM     34  C   UNL A   1      41.173  21.621  27.157  1.00  0.00     0.188 C 
BRANCH  34  35
ATOM     35  C   UNL A   1      41.040  20.098  27.410  1.00  0.00     0.188 C 
BRANCH  35  36
ATOM     36  O   UNL A   1      42.233  19.364  27.214  1.00  0.00    -0.376 OA
BRANCH  36  37
ATOM     37  C   UNL A   1      42.359  18.585  26.041  1.00  0.00     0.202 C 
BRANCH  37  38
ATOM     38  C   UNL A   1      43.777  18.405  25.487  1.00  0.00     0.261 C 
BRANCH  38  39
ATOM     39  O   UNL A   1      44.074  19.113  24.274  1.00  0.00    -0.460 OA
BRANCH  39  40
ATOM     40  C   UNL A   1      45.273  19.734  24.192  1.00  0.00     0.338 C 
ATOM     41  O   UNL A   1      46.281  19.333  23.649  1.00  0.00    -0.246 OA
BRANCH  40  42
ATOM     42  C   UNL A   1      45.086  21.103  24.720  1.00  0.00     0.060 A 
ATOM     43  C   UNL A   1      44.688  22.129  23.852  1.00  0.00     0.016 A 
ATOM     44  C   UNL A   1      45.281  21.358  26.079  1.00  0.00     0.016 A 
ATOM     45  C   UNL A   1      44.510  23.423  24.338  1.00  0.00     0.010 A 
ATOM     46  C   UNL A   1      45.130  22.658  26.560  1.00  0.00     0.010 A 
ATOM     47  C   UNL A   1      44.777  23.702  25.685  1.00  0.00    -0.014 A 
BRANCH  47  48
ATOM     48  C   UNL A   1      44.910  25.106  26.134  1.00  0.00     0.031 A 
ATOM     49  C   UNL A   1      46.269  25.743  26.065  1.00  0.00     0.074 A 
ATOM     50  C   UNL A   1      43.854  25.804  26.587  1.00  0.00     0.049 A 
ATOM     51  N   UNL A   1      46.658  26.927  26.460  1.00  0.00    -0.248 NA
ATOM     52  C   UNL A   1      47.339  24.923  25.473  1.00  0.00     0.031 C 
ATOM     53  C   UNL A   1      42.483  25.309  26.661  1.00  0.00     0.029 A 
ATOM     54  N   UNL A   1      43.783  27.082  27.081  1.00  0.00    -0.354 N 
ATOM     55  C   UNL A   1      48.014  26.990  26.169  1.00  0.00     0.074 A 
ATOM     56  C   UNL A   1      48.389  25.715  25.601  1.00  0.00     0.031 C 
ATOM     57  C   UNL A   1      41.704  26.269  27.191  1.00  0.00     0.029 A 
ATOM     58  C   UNL A   1      42.530  27.430  27.523  1.00  0.00     0.049 A 
ATOM     59  H   UNL A   1      44.556  27.691  27.117  1.00  0.00     0.167 HD
ATOM     60  C   UNL A   1      48.869  28.025  26.352  1.00  0.00     0.037 A 
ATOM     61  C   UNL A   1      42.112  28.548  28.148  1.00  0.00     0.037 A 
ATOM     62  C   UNL A   1      48.492  29.287  26.929  1.00  0.00     0.049 A 
ATOM     63  C   UNL A   1      43.099  29.657  28.417  1.00  0.00     0.074 A 
ATOM     64  C   UNL A   1      49.276  30.405  27.150  1.00  0.00     0.029 A 
ATOM     65  N   UNL A   1      47.219  29.594  27.391  1.00  0.00    -0.354 N 
ATOM     66  N   UNL A   1      44.374  29.724  28.119  1.00  0.00    -0.248 NA
ATOM     67  C   UNL A   1      42.584  30.849  29.107  1.00  0.00     0.031 C 
ATOM     68  C   UNL A   1      48.495  31.365  27.800  1.00  0.00     0.029 A 
ATOM     69  C   UNL A   1      47.205  30.874  27.923  1.00  0.00     0.049 A 
ATOM     70  H   UNL A   1      46.442  28.991  27.347  1.00  0.00     0.167 HD
ATOM     71  C   UNL A   1      44.806  30.971  28.555  1.00  0.00     0.074 A 
ATOM     72  C   UNL A   1      43.653  31.634  29.127  1.00  0.00     0.031 C 
ATOM     73  C   UNL A   1      46.045  31.520  28.485  1.00  0.00     0.037 A 
BRANCH  60  74
ATOM     74  C   UNL A   1      50.301  27.813  25.955  1.00  0.00     0.064 A 
ATOM     75  C   UNL A   1      50.715  27.873  24.615  1.00  0.00     0.173 A 
ATOM     76  C   UNL A   1      51.275  27.550  26.929  1.00  0.00     0.173 A 
ATOM     77  F   UNL A   1      49.821  28.104  23.641  1.00  0.00    -0.203 F 
ATOM     78  C   UNL A   1      52.043  27.645  24.264  1.00  0.00     0.198 A 
ATOM     79  C   UNL A   1      52.608  27.356  26.578  1.00  0.00     0.198 A 
ATOM     80  F   UNL A   1      50.935  27.482  28.225  1.00  0.00    -0.203 F 
ATOM     81  F   UNL A   1      52.403  27.648  22.972  1.00  0.00    -0.200 F 
ATOM     82  C   UNL A   1      52.989  27.393  25.246  1.00  0.00     0.200 A 
ATOM     83  F   UNL A   1      53.523  27.126  27.530  1.00  0.00    -0.200 F 
ATOM     84  F   UNL A   1      54.268  27.176  24.907  1.00  0.00    -0.200 F 
ENDBRANCH  60  74
BRANCH  61  85
ATOM     85  C   UNL A   1      40.693  28.670  28.576  1.00  0.00     0.064 A 
ATOM     86  C   UNL A   1      40.294  28.321  29.875  1.00  0.00     0.173 A 
ATOM     87  C   UNL A   1      39.704  29.125  27.691  1.00  0.00     0.173 A 
ATOM     88  F   UNL A   1      41.197  27.854  30.749  1.00  0.00    -0.203 F 
ATOM     89  C   UNL A   1      38.960  28.410  30.265  1.00  0.00     0.198 A 
ATOM     90  C   UNL A   1      38.375  29.241  28.092  1.00  0.00     0.198 A 
ATOM     91  F   UNL A   1      40.032  29.467  26.436  1.00  0.00    -0.203 F 
ATOM     92  F   UNL A   1      38.598  28.026  31.498  1.00  0.00    -0.200 F 
ATOM     93  C   UNL A   1      38.002  28.876  29.377  1.00  0.00     0.200 A 
ATOM     94  F   UNL A   1      37.457  29.705  27.234  1.00  0.00    -0.200 F 
ATOM     95  F   UNL A   1      36.720  28.967  29.756  1.00  0.00    -0.200 F 
ENDBRANCH  61  85
BRANCH  73  96
ATOM     96  C   UNL A   1      46.214  32.922  29.001  1.00  0.00     0.064 A 
ATOM     97  C   UNL A   1      46.595  33.184  30.325  1.00  0.00     0.173 A 
ATOM     98  C   UNL A   1      46.037  34.018  28.141  1.00  0.00     0.173 A 
ATOM     99  F   UNL A   1      46.766  32.174  31.191  1.00  0.00    -0.203 F 
ATOM    100  C   UNL A   1      46.766  34.492  30.776  1.00  0.00     0.198 A 
ATOM    101  C   UNL A   1      46.242  35.322  28.586  1.00  0.00     0.198 A 
ATOM    102  F   UNL A   1      45.681  33.825  26.862  1.00  0.00    -0.203 F 
ATOM    103  F   UNL A   1      47.080  34.719  32.058  1.00  0.00    -0.200 F 
ATOM    104  C   UNL A   1      46.598  35.558  29.904  1.00  0.00     0.200 A 
ATOM    105  F   UNL A   1      46.097  36.348  27.738  1.00  0.00    -0.200 F 
ATOM    106  F   UNL A   1      46.773  36.813  30.338  1.00  0.00    -0.200 F 
ENDBRANCH  73  96
ENDBRANCH  47  48
ENDBRANCH  40  42
ENDBRANCH  39  40
ENDBRANCH  38  39
ENDBRANCH  37  38
ENDBRANCH  36  37
ENDBRANCH  35  36
ENDBRANCH  34  35
ENDBRANCH  33  34
ENDBRANCH   1  33
TORSDOF 23
ENDMDL
MODEL 2
REMARK VINA RESULT:     -11.3      6.203     11.973
REMARK SMILES Cc1cc(C)c(NS(=O)(=O)c2cccc3cc(C)cnc23)c(C(=O)OCCOCCOCCOCCOC(=O)c2ccc(-c3c4nc(c(-c5c(F)c(F)c(F)c(F)c5F)c5ccc([nH]5)c(-c5c(F)c(F)c(F)c(F)c5F)c5nc(c(-c6c(F)c(F)c(F)c(F)c6F)c6ccc3[nH]6)C=C5)C=C4)cc2)c1
REMARK SMILES IDX 30 1 29 2 28 3 27 4 26 5 25 6 23 7 24 8 22 9 1 10 2 11 3 12
REMARK SMILES IDX 103 13 4 14 5 15 6 16 7 17 8 19 9 20 10 21 11 22 12 23 21 24
REMARK SMILES IDX 13 25 15 26 20 27 14 28 16 29 19 30 17 31 18 32 31 33 32 34
REMARK SMILES IDX 33 35 34 36 35 37 36 38 37 39 38 40 39 41 40 42 41 43 102 44
REMARK SMILES IDX 42 45 101 46 43 47 44 48 45 49 95 50 46 51 100 52 94 53
REMARK SMILES IDX 96 54 47 55 99 56 93 57 92 58 48 60 80 61 60 62 79 63 61 64
REMARK SMILES IDX 64 65 78 66 97 67 62 68 63 69 77 71 98 72 65 73 49 74 50 75
REMARK SMILES IDX 58 76 51 77 52 78 56 79 59 80 53 81 54 82 57 83 55 84 81 85
REMARK SMILES IDX 82 86 90 87 83 88 84 89 88 90 91 91 85 92 86 93 89 94 87 95
REMARK SMILES IDX 66 96 67 97 75 98 68 99 69 100 73 101 76 102 70 103 71 104
REMARK SMILES IDX 74 105 72 106
REMARK H PARENT 7 18 96 59 64 70
REMARK Flexibility Score: inf
ROOT
ATOM      1  C   UNL A   1      34.481  30.805  27.750  1.00  0.00     0.188 C 
ENDROOT
BRANCH   1   2
ATOM      2  C   UNL A   1      34.936  29.363  27.432  1.00  0.00     0.188 C 
BRANCH   2   3
ATOM      3  O   UNL A   1      33.910  28.521  26.927  1.00  0.00    -0.376 OA
BRANCH   3   4
ATOM      4  C   UNL A   1      32.571  28.933  27.120  1.00  0.00     0.202 C 
BRANCH   4   5
ATOM      5  C   UNL A   1      31.587  27.818  27.488  1.00  0.00     0.261 C 
BRANCH   5   6
ATOM      6  O   UNL A   1      31.714  26.600  26.741  1.00  0.00    -0.460 OA
BRANCH   6   7
ATOM      7  C   UNL A   1      30.692  26.254  25.928  1.00  0.00     0.340 C 
ATOM      8  O   UNL A   1      29.765  25.516  26.215  1.00  0.00    -0.246 OA
BRANCH   7   9
ATOM      9  C   UNL A   1      30.818  26.954  24.628  1.00  0.00     0.084 A 
ATOM     10  C   UNL A   1      28.699  29.168  22.410  1.00  0.00     0.044 C 
ATOM     11  C   UNL A   1      29.896  28.539  23.055  1.00  0.00    -0.050 A 
ATOM     12  C   UNL A   1      31.199  28.778  22.609  1.00  0.00     0.009 A 
ATOM     13  C   UNL A   1      29.727  27.683  24.135  1.00  0.00     0.021 A 
ATOM     14  C   UNL A   1      32.295  28.037  23.104  1.00  0.00    -0.026 A 
ATOM     15  C   UNL A   1      33.683  28.544  22.846  1.00  0.00     0.046 C 
ATOM     16  C   UNL A   1      32.058  26.952  23.951  1.00  0.00     0.066 A 
BRANCH  16  17
ATOM     17  N   UNL A   1      32.598  25.630  23.695  1.00  0.00    -0.278 N 
ATOM     18  H   UNL A   1      32.089  25.118  23.026  1.00  0.00     0.180 HD
BRANCH  17  19
ATOM     19  S   UNL A   1      33.910  24.810  24.310  1.00  0.00     0.264 S 
ATOM     20  O   UNL A   1      34.620  24.277  23.162  1.00  0.00    -0.201 OA
ATOM     21  O   UNL A   1      34.582  25.759  25.176  1.00  0.00    -0.201 OA
BRANCH  19  22
ATOM     22  C   UNL A   1      33.491  23.430  25.337  1.00  0.00     0.114 A 
ATOM     23  C   UNL A   1      33.995  23.511  26.656  1.00  0.00     0.024 A 
ATOM     24  C   UNL A   1      32.977  22.246  24.816  1.00  0.00     0.091 A 
ATOM     25  C   UNL A   1      34.115  22.371  27.433  1.00  0.00     0.002 A 
ATOM     26  C   UNL A   1      33.222  21.080  25.583  1.00  0.00     0.002 A 
ATOM     27  N   UNL A   1      32.355  22.163  23.619  1.00  0.00    -0.255 NA
ATOM     28  C   UNL A   1      33.770  21.148  26.877  1.00  0.00     0.010 A 
ATOM     29  C   UNL A   1      33.001  19.832  24.990  1.00  0.00     0.015 A 
ATOM     30  C   UNL A   1      32.119  20.938  23.093  1.00  0.00     0.115 A 
ATOM     31  C   UNL A   1      32.500  19.752  23.695  1.00  0.00    -0.032 A 
ATOM     32  C   UNL A   1      32.457  18.445  22.971  1.00  0.00     0.046 C 
ENDBRANCH  19  22
ENDBRANCH  17  19
ENDBRANCH  16  17
ENDBRANCH   7   9
ENDBRANCH   6   7
ENDBRANCH   5   6
ENDBRANCH   4   5
ENDBRANCH   3   4
ENDBRANCH   2   3
ENDBRANCH   1   2
BRANCH   1  33
ATOM     33  O   UNL A   1      35.075  31.486  28.848  1.00  0.00    -0.377 OA
BRANCH  33  34
ATOM     34  C   UNL A   1      34.644  32.805  29.174  1.00  0.00     0.188 C 
BRANCH  34  35
ATOM     35  C   UNL A   1      33.973  33.720  28.120  1.00  0.00     0.188 C 
BRANCH  35  36
ATOM     36  O   UNL A   1      32.962  34.566  28.635  1.00  0.00    -0.376 OA
BRANCH  36  37
ATOM     37  C   UNL A   1      33.271  35.929  28.851  1.00  0.00     0.202 C 
BRANCH  37  38
ATOM     38  C   UNL A   1      32.605  36.599  30.058  1.00  0.00     0.261 C 
BRANCH  38  39
ATOM     39  O   UNL A   1      33.312  36.498  31.304  1.00  0.00    -0.460 OA
BRANCH  39  40
ATOM     40  C   UNL A   1      32.893  35.560  32.184  1.00  0.00     0.338 C 
ATOM     41  O   UNL A   1      31.755  35.200  32.399  1.00  0.00    -0.246 OA
BRANCH  40  42
ATOM     42  C   UNL A   1      34.104  34.895  32.713  1.00  0.00     0.060 A 
ATOM     43  C   UNL A   1      35.352  35.518  32.568  1.00  0.00     0.016 A 
ATOM     44  C   UNL A   1      33.993  33.670  33.375  1.00  0.00     0.016 A 
ATOM     45  C   UNL A   1      36.500  34.900  33.062  1.00  0.00     0.010 A 
ATOM     46  C   UNL A   1      35.145  33.040  33.844  1.00  0.00     0.010 A 
ATOM     47  C   UNL A   1      36.406  33.636  33.659  1.00  0.00    -0.014 A 
BRANCH  47  48
ATOM     48  C   UNL A   1      37.632  32.838  33.887  1.00  0.00     0.031 A 
ATOM     49  C   UNL A   1      38.408  33.083  35.150  1.00  0.00     0.074 A 
ATOM     50  C   UNL A   1      38.047  31.916  33.002  1.00  0.00     0.049 A 
ATOM     51  N   UNL A   1      39.542  32.568  35.547  1.00  0.00    -0.248 NA
ATOM     52  C   UNL A   1      37.822  34.050  36.093  1.00  0.00     0.031 C 
ATOM     53  C   UNL A   1      37.357  31.561  31.765  1.00  0.00     0.029 A 
ATOM     54  N   UNL A   1      39.163  31.117  33.011  1.00  0.00    -0.354 N 
ATOM     55  C   UNL A   1      39.807  33.152  36.779  1.00  0.00     0.074 A 
ATOM     56  C   UNL A   1      38.737  34.086  37.047  1.00  0.00     0.031 C 
ATOM     57  C   UNL A   1      38.077  30.625  31.121  1.00  0.00     0.029 A 
ATOM     58  C   UNL A   1      39.292  30.343  31.885  1.00  0.00     0.049 A 
ATOM     59  H   UNL A   1      39.809  31.102  33.753  1.00  0.00     0.167 HD
ATOM     60  C   UNL A   1      40.846  32.921  37.615  1.00  0.00     0.037 A 
ATOM     61  C   UNL A   1      40.294  29.523  31.508  1.00  0.00     0.037 A 
ATOM     62  C   UNL A   1      41.914  31.999  37.337  1.00  0.00     0.049 A 
ATOM     63  C   UNL A   1      41.483  29.343  32.418  1.00  0.00     0.074 A 
ATOM     64  C   UNL A   1      43.009  31.683  38.121  1.00  0.00     0.029 A 
ATOM     65  N   UNL A   1      42.026  31.252  36.173  1.00  0.00    -0.354 N 
ATOM     66  N   UNL A   1      41.719  29.877  33.592  1.00  0.00    -0.248 NA
ATOM     67  C   UNL A   1      42.545  28.441  31.950  1.00  0.00     0.031 C 
ATOM     68  C   UNL A   1      43.815  30.792  37.406  1.00  0.00     0.029 A 
ATOM     69  C   UNL A   1      43.189  30.497  36.205  1.00  0.00     0.049 A 
ATOM     70  H   UNL A   1      41.377  31.257  35.433  1.00  0.00     0.167 HD
ATOM     71  C   UNL A   1      42.935  29.355  34.016  1.00  0.00     0.074 A 
ATOM     72  C   UNL A   1      43.383  28.451  32.978  1.00  0.00     0.031 C 
ATOM     73  C   UNL A   1      43.618  29.598  35.163  1.00  0.00     0.037 A 
BRANCH  60  74
ATOM     74  C   UNL A   1      40.889  33.710  38.893  1.00  0.00     0.064 A 
ATOM     75  C   UNL A   1      40.158  33.324  40.027  1.00  0.00     0.173 A 
ATOM     76  C   UNL A   1      41.678  34.867  38.984  1.00  0.00     0.173 A 
ATOM     77  F   UNL A   1      39.374  32.235  39.988  1.00  0.00    -0.203 F 
ATOM     78  C   UNL A   1      40.189  34.086  41.192  1.00  0.00     0.198 A 
ATOM     79  C   UNL A   1      41.733  35.607  40.162  1.00  0.00     0.198 A 
ATOM     80  F   UNL A   1      42.397  35.281  37.930  1.00  0.00    -0.203 F 
ATOM     81  F   UNL A   1      39.435  33.731  42.242  1.00  0.00    -0.200 F 
ATOM     82  C   UNL A   1      40.980  35.222  41.261  1.00  0.00     0.200 A 
ATOM     83  F   UNL A   1      42.509  36.697  40.230  1.00  0.00    -0.200 F 
ATOM     84  F   UNL A   1      41.012  35.953  42.384  1.00  0.00    -0.200 F 
ENDBRANCH  60  74
BRANCH  61  85
ATOM     85  C   UNL A   1      40.222  28.820  30.200  1.00  0.00     0.064 A 
ATOM     86  C   UNL A   1      39.555  27.593  30.071  1.00  0.00     0.173 A 
ATOM     87  C   UNL A   1      40.831  29.355  29.054  1.00  0.00     0.173 A 
ATOM     88  F   UNL A   1      38.982  27.027  31.143  1.00  0.00    -0.203 F 
ATOM     89  C   UNL A   1      39.513  26.922  28.851  1.00  0.00     0.198 A 
ATOM     90  C   UNL A   1      40.762  28.697  27.828  1.00  0.00     0.198 A 
ATOM     91  F   UNL A   1      41.485  30.523  29.124  1.00  0.00    -0.203 F 
ATOM     92  F   UNL A   1      38.909  25.728  28.766  1.00  0.00    -0.200 F 
ATOM     93  C   UNL A   1      40.109  27.477  27.728  1.00  0.00     0.200 A 
ATOM     94  F   UNL A   1      41.328  29.244  26.744  1.00  0.00    -0.200 F 
ATOM     95  F   UNL A   1      40.062  26.834  26.554  1.00  0.00    -0.200 F 
ENDBRANCH  61  85
BRANCH  73  96
ATOM     96  C   UNL A   1      44.903  28.847  35.379  1.00  0.00     0.064 A 
ATOM     97  C   UNL A   1      44.931  27.585  35.987  1.00  0.00     0.173 A 
ATOM     98  C   UNL A   1      46.119  29.382  34.924  1.00  0.00     0.173 A 
ATOM     99  F   UNL A   1      43.798  27.033  36.450  1.00  0.00    -0.203 F 
ATOM    100  C   UNL A   1      46.131  26.897  36.157  1.00  0.00     0.198 A 
ATOM    101  C   UNL A   1      47.312  28.678  35.065  1.00  0.00     0.198 A 
ATOM    102  F   UNL A   1      46.149  30.584  34.327  1.00  0.00    -0.203 F 
ATOM    103  F   UNL A   1      46.139  25.715  36.787  1.00  0.00    -0.200 F 
ATOM    104  C   UNL A   1      47.318  27.441  35.689  1.00  0.00     0.200 A 
ATOM    105  F   UNL A   1      48.454  29.197  34.595  1.00  0.00    -0.200 F 
ATOM    106  F   UNL A   1      48.469  26.773  35.844  1.00  0.00    -0.200 F 
ENDBRANCH  73  96
ENDBRANCH  47  48
ENDBRANCH  40  42
ENDBRANCH  39  40
ENDBRANCH  38  39
ENDBRANCH  37  38
ENDBRANCH  36  37
ENDBRANCH  35  36
ENDBRANCH  34  35
ENDBRANCH  33  34
ENDBRANCH   1  33
TORSDOF 23
ENDMDL
MODEL 3
REMARK VINA RESULT:     -11.2      3.646      9.437
REMARK SMILES Cc1cc(C)c(NS(=O)(=O)c2cccc3cc(C)cnc23)c(C(=O)OCCOCCOCCOCCOC(=O)c2ccc(-c3c4nc(c(-c5c(F)c(F)c(F)c(F)c5F)c5ccc([nH]5)c(-c5c(F)c(F)c(F)c(F)c5F)c5nc(c(-c6c(F)c(F)c(F)c(F)c6F)c6ccc3[nH]6)C=C5)C=C4)cc2)c1
REMARK SMILES IDX 30 1 29 2 28 3 27 4 26 5 25 6 23 7 24 8 22 9 1 10 2 11 3 12
REMARK SMILES IDX 103 13 4 14 5 15 6 16 7 17 8 19 9 20 10 21 11 22 12 23 21 24
REMARK SMILES IDX 13 25 15 26 20 27 14 28 16 29 19 30 17 31 18 32 31 33 32 34
REMARK SMILES IDX 33 35 34 36 35 37 36 38 37 39 38 40 39 41 40 42 41 43 102 44
REMARK SMILES IDX 42 45 101 46 43 47 44 48 45 49 95 50 46 51 100 52 94 53
REMARK SMILES IDX 96 54 47 55 99 56 93 57 92 58 48 60 80 61 60 62 79 63 61 64
REMARK SMILES IDX 64 65 78 66 97 67 62 68 63 69 77 71 98 72 65 73 49 74 50 75
REMARK SMILES IDX 58 76 51 77 52 78 56 79 59 80 53 81 54 82 57 83 55 84 81 85
REMARK SMILES IDX 82 86 90 87 83 88 84 89 88 90 91 91 85 92 86 93 89 94 87 95
REMARK SMILES IDX 66 96 67 97 75 98 68 99 69 100 73 101 76 102 70 103 71 104
REMARK SMILES IDX 74 105 72 106
REMARK H PARENT 7 18 96 59 64 70
REMARK Flexibility Score: inf
ROOT
ATOM      1  C   UNL A   1      34.519  33.624  28.218  1.00  0.00     0.188 C 
ENDROOT
BRANCH   1   2
ATOM      2  C   UNL A   1      34.401  32.327  29.049  1.00  0.00     0.188 C 
BRANCH   2   3
ATOM      3  O   UNL A   1      35.087  31.212  28.500  1.00  0.00    -0.376 OA
BRANCH   3   4
ATOM      4  C   UNL A   1      34.609  30.689  27.275  1.00  0.00     0.202 C 
BRANCH   4   5
ATOM      5  C   UNL A   1      33.247  29.991  27.345  1.00  0.00     0.261 C 
BRANCH   5   6
ATOM      6  O   UNL A   1      32.964  29.065  26.288  1.00  0.00    -0.460 OA
BRANCH   6   7
ATOM      7  C   UNL A   1      31.884  28.264  26.428  1.00  0.00     0.340 C 
ATOM      8  O   UNL A   1      31.414  27.872  27.482  1.00  0.00    -0.246 OA
BRANCH   7   9
ATOM      9  C   UNL A   1      31.297  27.967  25.100  1.00  0.00     0.084 A 
ATOM     10  C   UNL A   1      29.782  29.875  22.206  1.00  0.00     0.044 C 
ATOM     11  C   UNL A   1      30.482  28.804  22.986  1.00  0.00    -0.050 A 
ATOM     12  C   UNL A   1      30.826  27.571  22.423  1.00  0.00     0.009 A 
ATOM     13  C   UNL A   1      30.808  29.022  24.318  1.00  0.00     0.021 A 
ATOM     14  C   UNL A   1      31.313  26.509  23.217  1.00  0.00    -0.026 A 
ATOM     15  C   UNL A   1      31.967  25.343  22.536  1.00  0.00     0.046 C 
ATOM     16  C   UNL A   1      31.321  26.644  24.606  1.00  0.00     0.066 A 
BRANCH  16  17
ATOM     17  N   UNL A   1      30.715  25.664  25.489  1.00  0.00    -0.278 N 
ATOM     18  H   UNL A   1      29.896  25.984  25.931  1.00  0.00     0.180 HD
BRANCH  17  19
ATOM     19  S   UNL A   1      31.132  24.105  25.898  1.00  0.00     0.264 S 
ATOM     20  O   UNL A   1      30.664  23.913  27.258  1.00  0.00    -0.201 OA
ATOM     21  O   UNL A   1      30.589  23.274  24.841  1.00  0.00    -0.201 OA
BRANCH  19  22
ATOM     22  C   UNL A   1      32.876  23.797  25.909  1.00  0.00     0.114 A 
ATOM     23  C   UNL A   1      33.672  24.950  25.722  1.00  0.00     0.024 A 
ATOM     24  C   UNL A   1      33.402  22.512  25.808  1.00  0.00     0.091 A 
ATOM     25  C   UNL A   1      34.986  24.834  25.298  1.00  0.00     0.002 A 
ATOM     26  C   UNL A   1      34.706  22.424  25.259  1.00  0.00     0.002 A 
ATOM     27  N   UNL A   1      32.712  21.394  26.122  1.00  0.00    -0.255 NA
ATOM     28  C   UNL A   1      35.487  23.570  25.023  1.00  0.00     0.010 A 
ATOM     29  C   UNL A   1      35.177  21.170  24.856  1.00  0.00     0.015 A 
ATOM     30  C   UNL A   1      33.217  20.193  25.753  1.00  0.00     0.115 A 
ATOM     31  C   UNL A   1      34.396  20.035  25.045  1.00  0.00    -0.032 A 
ATOM     32  C   UNL A   1      34.786  18.728  24.436  1.00  0.00     0.046 C 
ENDBRANCH  19  22
ENDBRANCH  17  19
ENDBRANCH  16  17
ENDBRANCH   7   9
ENDBRANCH   6   7
ENDBRANCH   5   6
ENDBRANCH   4   5
ENDBRANCH   3   4
ENDBRANCH   2   3
ENDBRANCH   1   2
BRANCH   1  33
ATOM     33  O   UNL A   1      34.425  34.877  28.885  1.00  0.00    -0.377 OA
BRANCH  33  34
ATOM     34  C   UNL A   1      33.427  35.069  29.884  1.00  0.00     0.188 C 
BRANCH  34  35
ATOM     35  C   UNL A   1      33.803  35.382  31.353  1.00  0.00     0.188 C 
BRANCH  35  36
ATOM     36  O   UNL A   1      33.031  34.694  32.317  1.00  0.00    -0.376 OA
BRANCH  36  37
ATOM     37  C   UNL A   1      33.698  33.857  33.241  1.00  0.00     0.202 C 
BRANCH  37  38
ATOM     38  C   UNL A   1      34.704  32.859  32.658  1.00  0.00     0.261 C 
BRANCH  38  39
ATOM     39  O   UNL A   1      35.999  32.834  33.279  1.00  0.00    -0.460 OA
BRANCH  39  40
ATOM     40  C   UNL A   1      36.948  33.654  32.774  1.00  0.00     0.338 C 
ATOM     41  O   UNL A   1      37.095  34.840  32.986  1.00  0.00    -0.246 OA
BRANCH  40  42
ATOM     42  C   UNL A   1      37.916  32.800  32.052  1.00  0.00     0.060 A 
ATOM     43  C   UNL A   1      38.844  32.042  32.781  1.00  0.00     0.016 A 
ATOM     44  C   UNL A   1      37.883  32.732  30.658  1.00  0.00     0.016 A 
ATOM     45  C   UNL A   1      39.762  31.234  32.112  1.00  0.00     0.010 A 
ATOM     46  C   UNL A   1      38.819  31.946  29.988  1.00  0.00     0.010 A 
ATOM     47  C   UNL A   1      39.784  31.220  30.711  1.00  0.00    -0.014 A 
BRANCH  47  48
ATOM     48  C   UNL A   1      40.942  30.635  29.999  1.00  0.00     0.031 A 
ATOM     49  C   UNL A   1      42.122  31.524  29.724  1.00  0.00     0.074 A 
ATOM     50  C   UNL A   1      40.954  29.350  29.608  1.00  0.00     0.049 A 
ATOM     51  N   UNL A   1      43.221  31.273  29.062  1.00  0.00    -0.248 NA
ATOM     52  C   UNL A   1      42.045  32.889  30.270  1.00  0.00     0.031 C 
ATOM     53  C   UNL A   1      39.888  28.382  29.854  1.00  0.00     0.029 A 
ATOM     54  N   UNL A   1      41.900  28.645  28.908  1.00  0.00    -0.354 N 
ATOM     55  C   UNL A   1      43.961  32.447  29.108  1.00  0.00     0.074 A 
ATOM     56  C   UNL A   1      43.172  33.421  29.828  1.00  0.00     0.031 C 
ATOM     57  C   UNL A   1      40.233  27.208  29.294  1.00  0.00     0.029 A 
ATOM     58  C   UNL A   1      41.525  27.355  28.625  1.00  0.00     0.049 A 
ATOM     59  H   UNL A   1      42.765  29.027  28.634  1.00  0.00     0.167 HD
ATOM     60  C   UNL A   1      45.193  32.688  28.601  1.00  0.00     0.037 A 
ATOM     61  C   UNL A   1      42.145  26.415  27.884  1.00  0.00     0.037 A 
ATOM     62  C   UNL A   1      45.968  31.718  27.874  1.00  0.00     0.049 A 
ATOM     63  C   UNL A   1      43.481  26.731  27.259  1.00  0.00     0.074 A 
ATOM     64  C   UNL A   1      47.231  31.855  27.327  1.00  0.00     0.029 A 
ATOM     65  N   UNL A   1      45.543  30.429  27.582  1.00  0.00    -0.354 N 
ATOM     66  N   UNL A   1      44.189  27.833  27.323  1.00  0.00    -0.248 NA
ATOM     67  C   UNL A   1      44.106  25.667  26.459  1.00  0.00     0.031 C 
ATOM     68  C   UNL A   1      47.545  30.672  26.652  1.00  0.00     0.029 A 
ATOM     69  C   UNL A   1      46.508  29.771  26.836  1.00  0.00     0.049 A 
ATOM     70  H   UNL A   1      44.684  30.040  27.863  1.00  0.00     0.167 HD
ATOM     71  C   UNL A   1      45.352  27.587  26.603  1.00  0.00     0.074 A 
ATOM     72  C   UNL A   1      45.260  26.225  26.119  1.00  0.00     0.031 C 
ATOM     73  C   UNL A   1      46.403  28.412  26.366  1.00  0.00     0.037 A 
BRANCH  60  74
ATOM     74  C   UNL A   1      45.757  34.067  28.787  1.00  0.00     0.064 A 
ATOM     75  C   UNL A   1      45.526  35.094  27.858  1.00  0.00     0.173 A 
ATOM     76  C   UNL A   1      46.536  34.368  29.914  1.00  0.00     0.173 A 
ATOM     77  F   UNL A   1      44.802  34.855  26.753  1.00  0.00    -0.203 F 
ATOM     78  C   UNL A   1      46.082  36.358  28.034  1.00  0.00     0.198 A 
ATOM     79  C   UNL A   1      47.061  35.643  30.104  1.00  0.00     0.198 A 
ATOM     80  F   UNL A   1      46.788  33.424  30.834  1.00  0.00    -0.203 F 
ATOM     81  F   UNL A   1      45.897  37.304  27.103  1.00  0.00    -0.200 F 
ATOM     82  C   UNL A   1      46.843  36.633  29.159  1.00  0.00     0.200 A 
ATOM     83  F   UNL A   1      47.786  35.910  31.200  1.00  0.00    -0.200 F 
ATOM     84  F   UNL A   1      47.376  37.852  29.330  1.00  0.00    -0.200 F 
ENDBRANCH  60  74
BRANCH  61  85
ATOM     85  C   UNL A   1      41.504  25.089  27.683  1.00  0.00     0.064 A 
ATOM     86  C   UNL A   1      40.413  24.935  26.814  1.00  0.00     0.173 A 
ATOM     87  C   UNL A   1      41.959  23.951  28.365  1.00  0.00     0.173 A 
ATOM     88  F   UNL A   1      39.923  25.998  26.160  1.00  0.00    -0.203 F 
ATOM     89  C   UNL A   1      39.796  23.697  26.647  1.00  0.00     0.198 A 
ATOM     90  C   UNL A   1      41.359  22.708  28.174  1.00  0.00     0.198 A 
ATOM     91  F   UNL A   1      42.995  24.044  29.211  1.00  0.00    -0.203 F 
ATOM     92  F   UNL A   1      38.726  23.587  25.846  1.00  0.00    -0.200 F 
ATOM     93  C   UNL A   1      40.273  22.583  27.322  1.00  0.00     0.200 A 
ATOM     94  F   UNL A   1      41.832  21.632  28.818  1.00  0.00    -0.200 F 
ATOM     95  F   UNL A   1      39.681  21.392  27.155  1.00  0.00    -0.200 F 
ENDBRANCH  61  85
BRANCH  73  96
ATOM     96  C   UNL A   1      47.559  27.856  25.582  1.00  0.00     0.064 A 
ATOM     97  C   UNL A   1      47.568  27.844  24.181  1.00  0.00     0.173 A 
ATOM     98  C   UNL A   1      48.697  27.373  26.249  1.00  0.00     0.173 A 
ATOM     99  F   UNL A   1      46.502  28.283  23.495  1.00  0.00    -0.203 F 
ATOM    100  C   UNL A   1      48.660  27.344  23.475  1.00  0.00     0.198 A 
ATOM    101  C   UNL A   1      49.801  26.905  25.540  1.00  0.00     0.198 A 
ATOM    102  F   UNL A   1      48.747  27.370  27.590  1.00  0.00    -0.203 F 
ATOM    103  F   UNL A   1      48.624  27.294  22.136  1.00  0.00    -0.200 F 
ATOM    104  C   UNL A   1      49.778  26.883  24.155  1.00  0.00     0.200 A 
ATOM    105  F   UNL A   1      50.886  26.478  26.199  1.00  0.00    -0.200 F 
ATOM    106  F   UNL A   1      50.831  26.411  23.474  1.00  0.00    -0.200 F 
ENDBRANCH  73  96
ENDBRANCH  47  48
ENDBRANCH  40  42
ENDBRANCH  39  40
ENDBRANCH  38  39
ENDBRANCH  37  38
ENDBRANCH  36  37
ENDBRANCH  35  36
ENDBRANCH  34  35
ENDBRANCH  33  34
ENDBRANCH   1  33
TORSDOF 23
ENDMDL
