MODEL 1
REMARK VINA RESULT:      -9.7      0.000      0.000
REMARK SMILES Cc1cccc(CN(C)c2ccc(C(=O)OCCOCCOCCOCCOC(=O)c3ccc(-c4c5nc(c(-c6c(F)c(F)c(F)c(F)c6F)c6ccc([nH]6)c(-c6c(F)c(F)c(F)c(F)c6F)c6nc(c(-c7c(F)c(F)c(F)c(F)c7F)c7ccc4[nH]7)C=C6)C=C5)cc3)cc2N)n1
REMARK SMILES IDX 21 1 20 2 19 3 18 4 17 5 16 6 14 7 15 8 13 9 10 10 11 11
REMARK SMILES IDX 95 12 12 13 94 14 8 15 9 16 7 17 6 18 1 19 2 20 3 21 97 22
REMARK SMILES IDX 4 23 5 24 96 25 22 28 23 29 24 30 25 31 26 32 27 33 28 34
REMARK SMILES IDX 29 35 30 36 31 37 32 38 93 39 33 40 92 41 34 42 35 43 36 44
REMARK SMILES IDX 86 45 37 46 91 47 85 48 87 49 38 50 90 51 84 52 83 53 39 55
REMARK SMILES IDX 71 56 51 57 70 58 52 59 55 60 69 61 88 62 53 63 54 64 68 66
REMARK SMILES IDX 89 67 56 68 40 69 41 70 49 71 42 72 43 73 47 74 50 75 44 76
REMARK SMILES IDX 45 77 48 78 46 79 72 80 73 81 81 82 74 83 75 84 79 85 82 86
REMARK SMILES IDX 76 87 77 88 80 89 78 90 57 91 58 92 66 93 59 94 60 95 64 96
REMARK SMILES IDX 67 97 61 98 62 99 65 100 63 101
REMARK H PARENT 96 26 96 27 87 54 55 65
REMARK Flexibility Score: inf
ROOT
ATOM      1  C   UNL A   1      33.278  26.164  25.746  1.00  0.00     0.188 C 
ENDROOT
BRANCH   1   2
ATOM      2  C   UNL A   1      32.145  25.127  25.935  1.00  0.00     0.188 C 
BRANCH   2   3
ATOM      3  O   UNL A   1      32.284  23.958  25.143  1.00  0.00    -0.376 OA
BRANCH   3   4
ATOM      4  C   UNL A   1      33.143  22.930  25.595  1.00  0.00     0.202 C 
BRANCH   4   5
ATOM      5  C   UNL A   1      33.344  21.752  24.638  1.00  0.00     0.261 C 
BRANCH   5   6
ATOM      6  O   UNL A   1      34.705  21.361  24.430  1.00  0.00    -0.460 OA
BRANCH   6   7
ATOM      7  C   UNL A   1      35.540  22.279  23.883  1.00  0.00     0.338 C 
ATOM      8  O   UNL A   1      35.279  23.089  23.025  1.00  0.00    -0.246 OA
BRANCH   7   9
ATOM      9  C   UNL A   1      36.800  22.229  24.657  1.00  0.00     0.062 A 
ATOM     10  C   UNL A   1      39.268  22.204  26.137  1.00  0.00     0.060 A 
ATOM     11  C   UNL A   1      38.733  21.057  25.488  1.00  0.00     0.029 A 
ATOM     12  C   UNL A   1      38.419  23.345  26.078  1.00  0.00     0.056 A 
ATOM     13  C   UNL A   1      37.508  21.048  24.799  1.00  0.00     0.018 A 
ATOM     14  C   UNL A   1      37.280  23.378  25.255  1.00  0.00     0.043 A 
BRANCH  10  15
ATOM     15  N   UNL A   1      40.543  22.153  26.723  1.00  0.00    -0.367 N 
ATOM     16  C   UNL A   1      40.707  22.477  28.147  1.00  0.00     0.144 C 
BRANCH  15  17
ATOM     17  C   UNL A   1      41.841  22.089  26.006  1.00  0.00     0.172 C 
BRANCH  17  18
ATOM     18  C   UNL A   1      42.490  20.727  25.788  1.00  0.00     0.060 A 
ATOM     19  C   UNL A   1      45.411  19.337  24.041  1.00  0.00     0.067 C 
ATOM     20  C   UNL A   1      44.229  19.433  24.956  1.00  0.00     0.038 A 
ATOM     21  C   UNL A   1      43.857  18.349  25.747  1.00  0.00     0.023 A 
ATOM     22  N   UNL A   1      43.553  20.607  24.955  1.00  0.00    -0.256 NA
ATOM     23  C   UNL A   1      42.712  18.449  26.524  1.00  0.00     0.004 A 
ATOM     24  C   UNL A   1      41.993  19.636  26.514  1.00  0.00     0.026 A 
ENDBRANCH  17  18
ENDBRANCH  15  17
ENDBRANCH  10  15
BRANCH  12  25
ATOM     25  N   UNL A   1      38.581  24.515  26.812  1.00  0.00    -0.397 N 
ATOM     26  H   UNL A   1      39.054  25.283  26.416  1.00  0.00     0.156 HD
ATOM     27  H   UNL A   1      38.222  24.576  27.727  1.00  0.00     0.156 HD
ENDBRANCH  12  25
ENDBRANCH   7   9
ENDBRANCH   6   7
ENDBRANCH   5   6
ENDBRANCH   4   5
ENDBRANCH   3   4
ENDBRANCH   2   3
ENDBRANCH   1   2
BRANCH   1  28
ATOM     28  O   UNL A   1      33.598  26.649  24.447  1.00  0.00    -0.377 OA
BRANCH  28  29
ATOM     29  C   UNL A   1      32.575  26.827  23.475  1.00  0.00     0.188 C 
BRANCH  29  30
ATOM     30  C   UNL A   1      31.750  28.133  23.421  1.00  0.00     0.188 C 
BRANCH  30  31
ATOM     31  O   UNL A   1      31.144  28.495  24.650  1.00  0.00    -0.376 OA
BRANCH  31  32
ATOM     32  C   UNL A   1      31.525  29.727  25.231  1.00  0.00     0.202 C 
BRANCH  32  33
ATOM     33  C   UNL A   1      33.019  29.906  25.523  1.00  0.00     0.261 C 
BRANCH  33  34
ATOM     34  O   UNL A   1      33.384  29.982  26.910  1.00  0.00    -0.460 OA
BRANCH  34  35
ATOM     35  C   UNL A   1      33.765  31.185  27.390  1.00  0.00     0.338 C 
ATOM     36  O   UNL A   1      33.109  32.209  27.435  1.00  0.00    -0.246 OA
BRANCH  35  37
ATOM     37  C   UNL A   1      35.081  30.998  28.037  1.00  0.00     0.060 A 
ATOM     38  C   UNL A   1      35.439  29.730  28.516  1.00  0.00     0.016 A 
ATOM     39  C   UNL A   1      35.966  32.072  28.140  1.00  0.00     0.016 A 
ATOM     40  C   UNL A   1      36.682  29.540  29.120  1.00  0.00     0.010 A 
ATOM     41  C   UNL A   1      37.199  31.887  28.768  1.00  0.00     0.010 A 
ATOM     42  C   UNL A   1      37.551  30.628  29.284  1.00  0.00    -0.014 A 
BRANCH  42  43
ATOM     43  C   UNL A   1      38.743  30.502  30.156  1.00  0.00     0.031 A 
ATOM     44  C   UNL A   1      39.946  29.785  29.613  1.00  0.00     0.074 A 
ATOM     45  C   UNL A   1      38.757  31.008  31.401  1.00  0.00     0.049 A 
ATOM     46  N   UNL A   1      41.068  29.470  30.207  1.00  0.00    -0.248 NA
ATOM     47  C   UNL A   1      39.869  29.362  28.204  1.00  0.00     0.031 C 
ATOM     48  C   UNL A   1      37.671  31.761  32.021  1.00  0.00     0.029 A 
ATOM     49  N   UNL A   1      39.725  30.946  32.373  1.00  0.00    -0.354 N 
ATOM     50  C   UNL A   1      41.825  28.807  29.250  1.00  0.00     0.074 A 
ATOM     51  C   UNL A   1      41.025  28.737  28.046  1.00  0.00     0.031 C 
ATOM     52  C   UNL A   1      38.026  32.079  33.278  1.00  0.00     0.029 A 
ATOM     53  C   UNL A   1      39.345  31.516  33.562  1.00  0.00     0.049 A 
ATOM     54  H   UNL A   1      40.607  30.532  32.231  1.00  0.00     0.167 HD
ATOM     55  C   UNL A   1      43.077  28.306  29.365  1.00  0.00     0.037 A 
ATOM     56  C   UNL A   1      39.981  31.548  34.751  1.00  0.00     0.037 A 
ATOM     57  C   UNL A   1      43.865  28.371  30.568  1.00  0.00     0.049 A 
ATOM     58  C   UNL A   1      41.339  30.903  34.879  1.00  0.00     0.074 A 
ATOM     59  C   UNL A   1      45.151  27.908  30.783  1.00  0.00     0.029 A 
ATOM     60  N   UNL A   1      43.433  28.925  31.764  1.00  0.00    -0.354 N 
ATOM     61  N   UNL A   1      42.061  30.297  33.967  1.00  0.00    -0.248 NA
ATOM     62  C   UNL A   1      41.970  30.945  36.206  1.00  0.00     0.031 C 
ATOM     63  C   UNL A   1      45.473  28.125  32.126  1.00  0.00     0.029 A 
ATOM     64  C   UNL A   1      44.416  28.785  32.732  1.00  0.00     0.049 A 
ATOM     65  H   UNL A   1      42.559  29.355  31.905  1.00  0.00     0.167 HD
ATOM     66  C   UNL A   1      43.239  29.916  34.598  1.00  0.00     0.074 A 
ATOM     67  C   UNL A   1      43.142  30.373  35.969  1.00  0.00     0.031 C 
ATOM     68  C   UNL A   1      44.306  29.249  34.091  1.00  0.00     0.037 A 
BRANCH  55  69
ATOM     69  C   UNL A   1      43.658  27.609  28.168  1.00  0.00     0.064 A 
ATOM     70  C   UNL A   1      43.397  26.257  27.900  1.00  0.00     0.173 A 
ATOM     71  C   UNL A   1      44.466  28.313  27.262  1.00  0.00     0.173 A 
ATOM     72  F   UNL A   1      42.644  25.534  28.743  1.00  0.00    -0.203 F 
ATOM     73  C   UNL A   1      43.944  25.629  26.784  1.00  0.00     0.198 A 
ATOM     74  C   UNL A   1      44.984  27.692  26.130  1.00  0.00     0.198 A 
ATOM     75  F   UNL A   1      44.745  29.608  27.471  1.00  0.00    -0.203 F 
ATOM     76  F   UNL A   1      43.723  24.324  26.575  1.00  0.00    -0.200 F 
ATOM     77  C   UNL A   1      44.730  26.350  25.896  1.00  0.00     0.200 A 
ATOM     78  F   UNL A   1      45.732  28.392  25.267  1.00  0.00    -0.200 F 
ATOM     79  F   UNL A   1      45.249  25.747  24.817  1.00  0.00    -0.200 F 
ENDBRANCH  55  69
BRANCH  56  80
ATOM     80  C   UNL A   1      39.334  32.191  35.926  1.00  0.00     0.064 A 
ATOM     81  C   UNL A   1      38.451  31.477  36.748  1.00  0.00     0.173 A 
ATOM     82  C   UNL A   1      39.561  33.541  36.233  1.00  0.00     0.173 A 
ATOM     83  F   UNL A   1      38.177  30.192  36.479  1.00  0.00    -0.203 F 
ATOM     84  C   UNL A   1      37.806  32.093  37.819  1.00  0.00     0.198 A 
ATOM     85  C   UNL A   1      38.940  34.148  37.323  1.00  0.00     0.198 A 
ATOM     86  F   UNL A   1      40.391  34.273  35.475  1.00  0.00    -0.203 F 
ATOM     87  F   UNL A   1      36.924  31.401  38.554  1.00  0.00    -0.200 F 
ATOM     88  C   UNL A   1      38.055  33.425  38.110  1.00  0.00     0.200 A 
ATOM     89  F   UNL A   1      39.193  35.433  37.606  1.00  0.00    -0.200 F 
ATOM     90  F   UNL A   1      37.434  34.017  39.139  1.00  0.00    -0.200 F 
ENDBRANCH  56  80
BRANCH  68  91
ATOM     91  C   UNL A   1      45.472  29.005  35.009  1.00  0.00     0.064 A 
ATOM     92  C   UNL A   1      45.553  27.858  35.812  1.00  0.00     0.173 A 
ATOM     93  C   UNL A   1      46.544  29.911  35.050  1.00  0.00     0.173 A 
ATOM     94  F   UNL A   1      44.551  26.966  35.820  1.00  0.00    -0.203 F 
ATOM     95  C   UNL A   1      46.648  27.644  36.646  1.00  0.00     0.198 A 
ATOM     96  C   UNL A   1      47.653  29.675  35.858  1.00  0.00     0.198 A 
ATOM     97  F   UNL A   1      46.522  31.020  34.295  1.00  0.00    -0.203 F 
ATOM     98  F   UNL A   1      46.679  26.567  37.444  1.00  0.00    -0.200 F 
ATOM     99  C   UNL A   1      47.700  28.547  36.661  1.00  0.00     0.200 A 
ATOM    100  F   UNL A   1      48.676  30.541  35.857  1.00  0.00    -0.200 F 
ATOM    101  F   UNL A   1      48.757  28.334  37.457  1.00  0.00    -0.200 F 
ENDBRANCH  68  91
ENDBRANCH  42  43
ENDBRANCH  35  37
ENDBRANCH  34  35
ENDBRANCH  33  34
ENDBRANCH  32  33
ENDBRANCH  31  32
ENDBRANCH  30  31
ENDBRANCH  29  30
ENDBRANCH  28  29
ENDBRANCH   1  28
TORSDOF 24
ENDMDL
MODEL 2
REMARK VINA RESULT:      -9.6      3.354      9.540
REMARK SMILES Cc1cccc(CN(C)c2ccc(C(=O)OCCOCCOCCOCCOC(=O)c3ccc(-c4c5nc(c(-c6c(F)c(F)c(F)c(F)c6F)c6ccc([nH]6)c(-c6c(F)c(F)c(F)c(F)c6F)c6nc(c(-c7c(F)c(F)c(F)c(F)c7F)c7ccc4[nH]7)C=C6)C=C5)cc3)cc2N)n1
REMARK SMILES IDX 21 1 20 2 19 3 18 4 17 5 16 6 14 7 15 8 13 9 10 10 11 11
REMARK SMILES IDX 95 12 12 13 94 14 8 15 9 16 7 17 6 18 1 19 2 20 3 21 97 22
REMARK SMILES IDX 4 23 5 24 96 25 22 28 23 29 24 30 25 31 26 32 27 33 28 34
REMARK SMILES IDX 29 35 30 36 31 37 32 38 93 39 33 40 92 41 34 42 35 43 36 44
REMARK SMILES IDX 86 45 37 46 91 47 85 48 87 49 38 50 90 51 84 52 83 53 39 55
REMARK SMILES IDX 71 56 51 57 70 58 52 59 55 60 69 61 88 62 53 63 54 64 68 66
REMARK SMILES IDX 89 67 56 68 40 69 41 70 49 71 42 72 43 73 47 74 50 75 44 76
REMARK SMILES IDX 45 77 48 78 46 79 72 80 73 81 81 82 74 83 75 84 79 85 82 86
REMARK SMILES IDX 76 87 77 88 80 89 78 90 57 91 58 92 66 93 59 94 60 95 64 96
REMARK SMILES IDX 67 97 61 98 62 99 65 100 63 101
REMARK H PARENT 96 26 96 27 87 54 55 65
REMARK Flexibility Score: inf
ROOT
ATOM      1  C   UNL A   1      38.058  22.636  25.842  1.00  0.00     0.188 C 
ENDROOT
BRANCH   1   2
ATOM      2  C   UNL A   1      37.110  22.581  24.622  1.00  0.00     0.188 C 
BRANCH   2   3
ATOM      3  O   UNL A   1      36.615  21.285  24.325  1.00  0.00    -0.376 OA
BRANCH   3   4
ATOM      4  C   UNL A   1      35.450  20.834  24.986  1.00  0.00     0.202 C 
BRANCH   4   5
ATOM      5  C   UNL A   1      34.157  21.587  24.661  1.00  0.00     0.261 C 
BRANCH   5   6
ATOM      6  O   UNL A   1      33.238  21.722  25.749  1.00  0.00    -0.460 OA
BRANCH   6   7
ATOM      7  C   UNL A   1      33.256  22.891  26.438  1.00  0.00     0.338 C 
ATOM      8  O   UNL A   1      33.908  23.152  27.421  1.00  0.00    -0.246 OA
BRANCH   7   9
ATOM      9  C   UNL A   1      32.456  23.861  25.659  1.00  0.00     0.062 A 
ATOM     10  C   UNL A   1      30.926  25.807  24.190  1.00  0.00     0.060 A 
ATOM     11  C   UNL A   1      30.470  24.484  24.447  1.00  0.00     0.029 A 
ATOM     12  C   UNL A   1      32.256  26.052  24.635  1.00  0.00     0.056 A 
ATOM     13  C   UNL A   1      31.227  23.513  25.126  1.00  0.00     0.018 A 
ATOM     14  C   UNL A   1      32.944  25.138  25.451  1.00  0.00     0.043 A 
BRANCH  10  15
ATOM     15  N   UNL A   1      30.071  26.744  23.589  1.00  0.00    -0.367 N 
ATOM     16  C   UNL A   1      28.620  26.653  23.804  1.00  0.00     0.144 C 
BRANCH  15  17
ATOM     17  C   UNL A   1      30.420  27.682  22.493  1.00  0.00     0.172 C 
BRANCH  17  18
ATOM     18  C   UNL A   1      29.948  29.128  22.590  1.00  0.00     0.060 A 
ATOM     19  C   UNL A   1      28.015  31.514  20.567  1.00  0.00     0.067 C 
ATOM     20  C   UNL A   1      28.725  30.909  21.740  1.00  0.00     0.038 A 
ATOM     21  C   UNL A   1      28.772  31.579  22.960  1.00  0.00     0.023 A 
ATOM     22  N   UNL A   1      29.315  29.706  21.539  1.00  0.00    -0.256 NA
ATOM     23  C   UNL A   1      29.503  31.023  24.001  1.00  0.00     0.004 A 
ATOM     24  C   UNL A   1      30.136  29.804  23.803  1.00  0.00     0.026 A 
ENDBRANCH  17  18
ENDBRANCH  15  17
ENDBRANCH  10  15
BRANCH  12  25
ATOM     25  N   UNL A   1      33.026  27.164  24.313  1.00  0.00    -0.397 N 
ATOM     26  H   UNL A   1      33.277  27.808  25.015  1.00  0.00     0.156 HD
ATOM     27  H   UNL A   1      33.321  27.307  23.385  1.00  0.00     0.156 HD
ENDBRANCH  12  25
ENDBRANCH   7   9
ENDBRANCH   6   7
ENDBRANCH   5   6
ENDBRANCH   4   5
ENDBRANCH   3   4
ENDBRANCH   2   3
ENDBRANCH   1   2
BRANCH   1  28
ATOM     28  O   UNL A   1      39.185  21.769  25.917  1.00  0.00    -0.377 OA
BRANCH  28  29
ATOM     29  C   UNL A   1      40.255  22.058  26.808  1.00  0.00     0.188 C 
BRANCH  29  30
ATOM     30  C   UNL A   1      41.587  21.279  26.727  1.00  0.00     0.188 C 
BRANCH  30  31
ATOM     31  O   UNL A   1      42.284  21.435  25.504  1.00  0.00    -0.376 OA
BRANCH  31  32
ATOM     32  C   UNL A   1      43.670  21.151  25.498  1.00  0.00     0.202 C 
BRANCH  32  33
ATOM     33  C   UNL A   1      44.598  22.315  25.131  1.00  0.00     0.261 C 
BRANCH  33  34
ATOM     34  O   UNL A   1      44.581  23.438  26.027  1.00  0.00    -0.460 OA
BRANCH  34  35
ATOM     35  C   UNL A   1      43.817  24.498  25.684  1.00  0.00     0.338 C 
ATOM     36  O   UNL A   1      43.313  24.732  24.602  1.00  0.00    -0.246 OA
BRANCH  35  37
ATOM     37  C   UNL A   1      43.535  25.249  26.925  1.00  0.00     0.060 A 
ATOM     38  C   UNL A   1      42.717  24.674  27.908  1.00  0.00     0.016 A 
ATOM     39  C   UNL A   1      44.104  26.508  27.123  1.00  0.00     0.016 A 
ATOM     40  C   UNL A   1      42.452  25.371  29.087  1.00  0.00     0.010 A 
ATOM     41  C   UNL A   1      43.817  27.215  28.292  1.00  0.00     0.010 A 
ATOM     42  C   UNL A   1      42.969  26.661  29.266  1.00  0.00    -0.014 A 
BRANCH  42  43
ATOM     43  C   UNL A   1      42.479  27.511  30.377  1.00  0.00     0.031 A 
ATOM     44  C   UNL A   1      41.223  28.306  30.161  1.00  0.00     0.074 A 
ATOM     45  C   UNL A   1      43.133  27.579  31.549  1.00  0.00     0.049 A 
ATOM     46  N   UNL A   1      40.646  29.183  30.941  1.00  0.00    -0.248 NA
ATOM     47  C   UNL A   1      40.524  28.081  28.885  1.00  0.00     0.031 C 
ATOM     48  C   UNL A   1      44.334  26.822  31.893  1.00  0.00     0.029 A 
ATOM     49  N   UNL A   1      42.881  28.339  32.664  1.00  0.00    -0.354 N 
ATOM     50  C   UNL A   1      39.524  29.620  30.249  1.00  0.00     0.074 A 
ATOM     51  C   UNL A   1      39.516  28.934  28.975  1.00  0.00     0.031 C 
ATOM     52  C   UNL A   1      44.725  27.169  33.131  1.00  0.00     0.029 A 
ATOM     53  C   UNL A   1      43.826  28.201  33.649  1.00  0.00     0.049 A 
ATOM     54  H   UNL A   1      42.096  28.929  32.749  1.00  0.00     0.167 HD
ATOM     55  C   UNL A   1      38.583  30.508  30.645  1.00  0.00     0.037 A 
ATOM     56  C   UNL A   1      43.964  28.857  34.818  1.00  0.00     0.037 A 
ATOM     57  C   UNL A   1      38.601  31.193  31.911  1.00  0.00     0.049 A 
ATOM     58  C   UNL A   1      42.951  29.909  35.198  1.00  0.00     0.074 A 
ATOM     59  C   UNL A   1      37.685  32.100  32.413  1.00  0.00     0.029 A 
ATOM     60  N   UNL A   1      39.594  31.052  32.868  1.00  0.00    -0.354 N 
ATOM     61  N   UNL A   1      41.879  30.303  34.551  1.00  0.00    -0.248 NA
ATOM     62  C   UNL A   1      43.169  30.611  36.471  1.00  0.00     0.031 C 
ATOM     63  C   UNL A   1      38.157  32.556  33.648  1.00  0.00     0.029 A 
ATOM     64  C   UNL A   1      39.331  31.883  33.947  1.00  0.00     0.049 A 
ATOM     65  H   UNL A   1      40.370  30.452  32.794  1.00  0.00     0.167 HD
ATOM     66  C   UNL A   1      41.281  31.270  35.351  1.00  0.00     0.074 A 
ATOM     67  C   UNL A   1      42.102  31.393  36.537  1.00  0.00     0.031 C 
ATOM     68  C   UNL A   1      40.155  31.992  35.124  1.00  0.00     0.037 A 
BRANCH  55  69
ATOM     69  C   UNL A   1      37.474  30.819  29.681  1.00  0.00     0.064 A 
ATOM     70  C   UNL A   1      37.405  32.046  29.003  1.00  0.00     0.173 A 
ATOM     71  C   UNL A   1      36.482  29.864  29.411  1.00  0.00     0.173 A 
ATOM     72  F   UNL A   1      38.319  33.000  29.237  1.00  0.00    -0.203 F 
ATOM     73  C   UNL A   1      36.369  32.314  28.112  1.00  0.00     0.198 A 
ATOM     74  C   UNL A   1      35.467  30.123  28.495  1.00  0.00     0.198 A 
ATOM     75  F   UNL A   1      36.502  28.675  30.031  1.00  0.00    -0.203 F 
ATOM     76  F   UNL A   1      36.294  33.512  27.515  1.00  0.00    -0.200 F 
ATOM     77  C   UNL A   1      35.406  31.350  27.853  1.00  0.00     0.200 A 
ATOM     78  F   UNL A   1      34.545  29.186  28.236  1.00  0.00    -0.200 F 
ATOM     79  F   UNL A   1      34.415  31.606  26.988  1.00  0.00    -0.200 F 
ENDBRANCH  55  69
BRANCH  56  80
ATOM     80  C   UNL A   1      45.118  28.561  35.709  1.00  0.00     0.064 A 
ATOM     81  C   UNL A   1      45.013  27.616  36.740  1.00  0.00     0.173 A 
ATOM     82  C   UNL A   1      46.339  29.238  35.570  1.00  0.00     0.173 A 
ATOM     83  F   UNL A   1      43.858  26.962  36.934  1.00  0.00    -0.203 F 
ATOM     84  C   UNL A   1      46.077  27.375  37.608  1.00  0.00     0.198 A 
ATOM     85  C   UNL A   1      47.412  28.974  36.417  1.00  0.00     0.198 A 
ATOM     86  F   UNL A   1      46.491  30.158  34.605  1.00  0.00    -0.203 F 
ATOM     87  F   UNL A   1      45.931  26.507  38.618  1.00  0.00    -0.200 F 
ATOM     88  C   UNL A   1      47.277  28.049  37.443  1.00  0.00     0.200 A 
ATOM     89  F   UNL A   1      48.573  29.620  36.246  1.00  0.00    -0.200 F 
ATOM     90  F   UNL A   1      48.300  27.817  38.276  1.00  0.00    -0.200 F 
ENDBRANCH  56  80
BRANCH  68  91
ATOM     91  C   UNL A   1      39.719  32.952  36.195  1.00  0.00     0.064 A 
ATOM     92  C   UNL A   1      38.787  32.587  37.180  1.00  0.00     0.173 A 
ATOM     93  C   UNL A   1      40.274  34.239  36.263  1.00  0.00     0.173 A 
ATOM     94  F   UNL A   1      38.217  31.374  37.154  1.00  0.00    -0.203 F 
ATOM     95  C   UNL A   1      38.405  33.488  38.172  1.00  0.00     0.198 A 
ATOM     96  C   UNL A   1      39.916  35.124  37.277  1.00  0.00     0.198 A 
ATOM     97  F   UNL A   1      41.176  34.636  35.353  1.00  0.00    -0.203 F 
ATOM     98  F   UNL A   1      37.475  33.136  39.070  1.00  0.00    -0.200 F 
ATOM     99  C   UNL A   1      38.977  34.750  38.225  1.00  0.00     0.200 A 
ATOM    100  F   UNL A   1      40.483  36.336  37.337  1.00  0.00    -0.200 F 
ATOM    101  F   UNL A   1      38.614  35.611  39.186  1.00  0.00    -0.200 F 
ENDBRANCH  68  91
ENDBRANCH  42  43
ENDBRANCH  35  37
ENDBRANCH  34  35
ENDBRANCH  33  34
ENDBRANCH  32  33
ENDBRANCH  31  32
ENDBRANCH  30  31
ENDBRANCH  29  30
ENDBRANCH  28  29
ENDBRANCH   1  28
TORSDOF 24
ENDMDL
MODEL 3
REMARK VINA RESULT:      -8.6      6.107     10.964
REMARK SMILES Cc1cccc(CN(C)c2ccc(C(=O)OCCOCCOCCOCCOC(=O)c3ccc(-c4c5nc(c(-c6c(F)c(F)c(F)c(F)c6F)c6ccc([nH]6)c(-c6c(F)c(F)c(F)c(F)c6F)c6nc(c(-c7c(F)c(F)c(F)c(F)c7F)c7ccc4[nH]7)C=C6)C=C5)cc3)cc2N)n1
REMARK SMILES IDX 21 1 20 2 19 3 18 4 17 5 16 6 14 7 15 8 13 9 10 10 11 11
REMARK SMILES IDX 95 12 12 13 94 14 8 15 9 16 7 17 6 18 1 19 2 20 3 21 97 22
REMARK SMILES IDX 4 23 5 24 96 25 22 28 23 29 24 30 25 31 26 32 27 33 28 34
REMARK SMILES IDX 29 35 30 36 31 37 32 38 93 39 33 40 92 41 34 42 35 43 36 44
REMARK SMILES IDX 86 45 37 46 91 47 85 48 87 49 38 50 90 51 84 52 83 53 39 55
REMARK SMILES IDX 71 56 51 57 70 58 52 59 55 60 69 61 88 62 53 63 54 64 68 66
REMARK SMILES IDX 89 67 56 68 40 69 41 70 49 71 42 72 43 73 47 74 50 75 44 76
REMARK SMILES IDX 45 77 48 78 46 79 72 80 73 81 81 82 74 83 75 84 79 85 82 86
REMARK SMILES IDX 76 87 77 88 80 89 78 90 57 91 58 92 66 93 59 94 60 95 64 96
REMARK SMILES IDX 67 97 61 98 62 99 65 100 63 101
REMARK H PARENT 96 26 96 27 87 54 55 65
REMARK Flexibility Score: inf
ROOT
ATOM      1  C   UNL A   1      39.209  28.677  28.307  1.00  0.00     0.188 C 
ENDROOT
BRANCH   1   2
ATOM      2  C   UNL A   1      39.953  29.430  29.435  1.00  0.00     0.188 C 
BRANCH   2   3
ATOM      3  O   UNL A   1      39.828  28.834  30.716  1.00  0.00    -0.376 OA
BRANCH   3   4
ATOM      4  C   UNL A   1      40.084  29.624  31.861  1.00  0.00     0.202 C 
BRANCH   4   5
ATOM      5  C   UNL A   1      39.312  30.943  31.954  1.00  0.00     0.261 C 
BRANCH   5   6
ATOM      6  O   UNL A   1      38.282  30.979  32.946  1.00  0.00    -0.460 OA
BRANCH   6   7
ATOM      7  C   UNL A   1      37.778  32.195  33.277  1.00  0.00     0.338 C 
ATOM      8  O   UNL A   1      38.096  32.890  34.212  1.00  0.00    -0.246 OA
BRANCH   7   9
ATOM      9  C   UNL A   1      36.881  32.603  32.174  1.00  0.00     0.062 A 
ATOM     10  C   UNL A   1      35.164  33.469  30.032  1.00  0.00     0.060 A 
ATOM     11  C   UNL A   1      34.764  32.535  31.026  1.00  0.00     0.029 A 
ATOM     12  C   UNL A   1      36.530  33.861  30.129  1.00  0.00     0.056 A 
ATOM     13  C   UNL A   1      35.608  32.073  32.052  1.00  0.00     0.018 A 
ATOM     14  C   UNL A   1      37.319  33.525  31.243  1.00  0.00     0.043 A 
BRANCH  10  15
ATOM     15  N   UNL A   1      34.231  33.951  29.100  1.00  0.00    -0.367 N 
ATOM     16  C   UNL A   1      33.517  35.208  29.363  1.00  0.00     0.144 C 
BRANCH  15  17
ATOM     17  C   UNL A   1      33.637  33.190  27.972  1.00  0.00     0.172 C 
BRANCH  17  18
ATOM     18  C   UNL A   1      34.006  31.720  27.807  1.00  0.00     0.060 A 
ATOM     19  C   UNL A   1      32.313  28.545  27.056  1.00  0.00     0.067 C 
ATOM     20  C   UNL A   1      33.410  29.542  27.270  1.00  0.00     0.038 A 
ATOM     21  C   UNL A   1      34.743  29.169  27.119  1.00  0.00     0.023 A 
ATOM     22  N   UNL A   1      33.033  30.793  27.626  1.00  0.00    -0.256 NA
ATOM     23  C   UNL A   1      35.735  30.099  27.401  1.00  0.00     0.004 A 
ATOM     24  C   UNL A   1      35.365  31.379  27.792  1.00  0.00     0.026 A 
ENDBRANCH  17  18
ENDBRANCH  15  17
ENDBRANCH  10  15
BRANCH  12  25
ATOM     25  N   UNL A   1      37.239  34.571  29.167  1.00  0.00    -0.397 N 
ATOM     26  H   UNL A   1      36.935  34.571  28.231  1.00  0.00     0.156 HD
ATOM     27  H   UNL A   1      38.047  35.075  29.422  1.00  0.00     0.156 HD
ENDBRANCH  12  25
ENDBRANCH   7   9
ENDBRANCH   6   7
ENDBRANCH   5   6
ENDBRANCH   4   5
ENDBRANCH   3   4
ENDBRANCH   2   3
ENDBRANCH   1   2
BRANCH   1  28
ATOM     28  O   UNL A   1      39.937  28.073  27.244  1.00  0.00    -0.377 OA
BRANCH  28  29
ATOM     29  C   UNL A   1      40.983  27.151  27.525  1.00  0.00     0.188 C 
BRANCH  29  30
ATOM     30  C   UNL A   1      40.768  25.983  28.513  1.00  0.00     0.188 C 
BRANCH  30  31
ATOM     31  O   UNL A   1      39.792  25.041  28.104  1.00  0.00    -0.376 OA
BRANCH  31  32
ATOM     32  C   UNL A   1      39.895  24.517  26.794  1.00  0.00     0.202 C 
BRANCH  32  33
ATOM     33  C   UNL A   1      40.475  23.102  26.674  1.00  0.00     0.261 C 
BRANCH  33  34
ATOM     34  O   UNL A   1      41.836  22.943  27.104  1.00  0.00    -0.460 OA
BRANCH  34  35
ATOM     35  C   UNL A   1      42.798  22.982  26.157  1.00  0.00     0.338 C 
ATOM     36  O   UNL A   1      42.999  22.175  25.269  1.00  0.00    -0.246 OA
BRANCH  35  37
ATOM     37  C   UNL A   1      43.466  24.295  26.269  1.00  0.00     0.060 A 
ATOM     38  C   UNL A   1      43.492  25.151  25.158  1.00  0.00     0.016 A 
ATOM     39  C   UNL A   1      44.038  24.686  27.480  1.00  0.00     0.016 A 
ATOM     40  C   UNL A   1      44.112  26.398  25.256  1.00  0.00     0.010 A 
ATOM     41  C   UNL A   1      44.680  25.922  27.568  1.00  0.00     0.010 A 
ATOM     42  C   UNL A   1      44.743  26.771  26.449  1.00  0.00    -0.014 A 
BRANCH  42  43
ATOM     43  C   UNL A   1      45.629  27.959  26.481  1.00  0.00     0.031 A 
ATOM     44  C   UNL A   1      47.104  27.749  26.289  1.00  0.00     0.074 A 
ATOM     45  C   UNL A   1      45.138  29.195  26.680  1.00  0.00     0.049 A 
ATOM     46  N   UNL A   1      48.086  28.610  26.362  1.00  0.00    -0.248 NA
ATOM     47  C   UNL A   1      47.528  26.375  25.973  1.00  0.00     0.031 C 
ATOM     48  C   UNL A   1      43.725  29.530  26.834  1.00  0.00     0.029 A 
ATOM     49  N   UNL A   1      45.787  30.398  26.801  1.00  0.00    -0.354 N 
ATOM     50  C   UNL A   1      49.241  27.883  26.111  1.00  0.00     0.074 A 
ATOM     51  C   UNL A   1      48.844  26.505  25.912  1.00  0.00     0.031 C 
ATOM     52  C   UNL A   1      43.614  30.852  27.046  1.00  0.00     0.029 A 
ATOM     53  C   UNL A   1      44.949  31.448  27.084  1.00  0.00     0.049 A 
ATOM     54  H   UNL A   1      46.761  30.500  26.696  1.00  0.00     0.167 HD
ATOM     55  C   UNL A   1      50.518  28.326  26.046  1.00  0.00     0.037 A 
ATOM     56  C   UNL A   1      45.235  32.733  27.371  1.00  0.00     0.037 A 
ATOM     57  C   UNL A   1      50.909  29.695  26.253  1.00  0.00     0.049 A 
ATOM     58  C   UNL A   1      46.675  33.185  27.382  1.00  0.00     0.074 A 
ATOM     59  C   UNL A   1      52.175  30.250  26.193  1.00  0.00     0.029 A 
ATOM     60  N   UNL A   1      50.035  30.724  26.572  1.00  0.00    -0.354 N 
ATOM     61  N   UNL A   1      47.763  32.499  27.121  1.00  0.00    -0.248 NA
ATOM     62  C   UNL A   1      46.926  34.591  27.730  1.00  0.00     0.031 C 
ATOM     63  C   UNL A   1      52.076  31.601  26.539  1.00  0.00     0.029 A 
ATOM     64  C   UNL A   1      50.740  31.906  26.746  1.00  0.00     0.049 A 
ATOM     65  H   UNL A   1      49.060  30.630  26.661  1.00  0.00     0.167 HD
ATOM     66  C   UNL A   1      48.819  33.394  27.242  1.00  0.00     0.074 A 
ATOM     67  C   UNL A   1      48.241  34.677  27.584  1.00  0.00     0.031 C 
ATOM     68  C   UNL A   1      50.149  33.176  27.083  1.00  0.00     0.037 A 
BRANCH  55  69
ATOM     69  C   UNL A   1      51.592  27.310  25.777  1.00  0.00     0.064 A 
ATOM     70  C   UNL A   1      52.278  26.665  26.817  1.00  0.00     0.173 A 
ATOM     71  C   UNL A   1      51.920  26.960  24.458  1.00  0.00     0.173 A 
ATOM     72  F   UNL A   1      52.015  26.976  28.095  1.00  0.00    -0.203 F 
ATOM     73  C   UNL A   1      53.269  25.725  26.546  1.00  0.00     0.198 A 
ATOM     74  C   UNL A   1      52.887  25.996  24.191  1.00  0.00     0.198 A 
ATOM     75  F   UNL A   1      51.293  27.546  23.427  1.00  0.00    -0.203 F 
ATOM     76  F   UNL A   1      53.947  25.158  27.554  1.00  0.00    -0.200 F 
ATOM     77  C   UNL A   1      53.567  25.386  25.234  1.00  0.00     0.200 A 
ATOM     78  F   UNL A   1      53.165  25.660  22.924  1.00  0.00    -0.200 F 
ATOM     79  F   UNL A   1      54.515  24.475  24.975  1.00  0.00    -0.200 F 
ENDBRANCH  55  69
BRANCH  56  80
ATOM     80  C   UNL A   1      44.140  33.686  27.698  1.00  0.00     0.064 A 
ATOM     81  C   UNL A   1      43.652  34.586  26.739  1.00  0.00     0.173 A 
ATOM     82  C   UNL A   1      43.581  33.740  28.984  1.00  0.00     0.173 A 
ATOM     83  F   UNL A   1      44.175  34.595  25.503  1.00  0.00    -0.203 F 
ATOM     84  C   UNL A   1      42.663  35.514  27.059  1.00  0.00     0.198 A 
ATOM     85  C   UNL A   1      42.569  34.646  29.294  1.00  0.00     0.198 A 
ATOM     86  F   UNL A   1      44.015  32.907  29.941  1.00  0.00    -0.203 F 
ATOM     87  F   UNL A   1      42.255  36.399  26.138  1.00  0.00    -0.200 F 
ATOM     88  C   UNL A   1      42.118  35.540  28.333  1.00  0.00     0.200 A 
ATOM     89  F   UNL A   1      42.038  34.659  30.523  1.00  0.00    -0.200 F 
ATOM     90  F   UNL A   1      41.167  36.432  28.640  1.00  0.00    -0.200 F 
ENDBRANCH  56  80
BRANCH  68  91
ATOM     91  C   UNL A   1      51.069  34.354  27.239  1.00  0.00     0.064 A 
ATOM     92  C   UNL A   1      51.449  35.146  26.144  1.00  0.00     0.173 A 
ATOM     93  C   UNL A   1      51.542  34.722  28.509  1.00  0.00     0.173 A 
ATOM     94  F   UNL A   1      51.036  34.832  24.908  1.00  0.00    -0.203 F 
ATOM     95  C   UNL A   1      52.293  36.242  26.312  1.00  0.00     0.198 A 
ATOM     96  C   UNL A   1      52.356  35.839  28.677  1.00  0.00     0.198 A 
ATOM     97  F   UNL A   1      51.203  34.006  29.591  1.00  0.00    -0.203 F 
ATOM     98  F   UNL A   1      52.685  36.951  25.244  1.00  0.00    -0.200 F 
ATOM     99  C   UNL A   1      52.737  36.592  27.578  1.00  0.00     0.200 A 
ATOM    100  F   UNL A   1      52.770  36.186  29.903  1.00  0.00    -0.200 F 
ATOM    101  F   UNL A   1      53.541  37.652  27.737  1.00  0.00    -0.200 F 
ENDBRANCH  68  91
ENDBRANCH  42  43
ENDBRANCH  35  37
ENDBRANCH  34  35
ENDBRANCH  33  34
ENDBRANCH  32  33
ENDBRANCH  31  32
ENDBRANCH  30  31
ENDBRANCH  29  30
ENDBRANCH  28  29
ENDBRANCH   1  28
TORSDOF 24
ENDMDL
