MODEL 1
REMARK VINA RESULT:     -10.6      0.000      0.000
REMARK SMILES CC[NH+]1CCC2(CC1)OC[C@H](C(=O)OCCOCCOCCOCCOC(=O)c1ccc(-c3c4nc(c(-c5c(F)c(F)c(F)c(F)c5F)c5ccc([nH]5)c(-c5c(F)c(F)c(F)c(F)c5F)c5nc(c(-c6c(F)c(F)c(F)c(F)c6F)c6ccc3[nH]6)C=C5)C=C4)cc1)N2C(=O)c1ccc(F)cc1
REMARK SMILES IDX 20 1 19 2 18 3 17 4 16 5 15 6 14 7 12 8 13 9 11 10 3 11 4 12
REMARK SMILES IDX 8 13 5 15 7 16 6 17 9 18 92 19 10 20 2 21 1 22 93 23 94 24
REMARK SMILES IDX 95 25 96 26 101 27 97 28 100 29 98 30 99 31 21 32 22 33
REMARK SMILES IDX 23 34 24 35 25 36 26 37 27 38 28 39 29 40 30 41 91 42 31 43
REMARK SMILES IDX 90 44 32 45 33 46 34 47 84 48 35 49 89 50 83 51 85 52 36 53
REMARK SMILES IDX 88 54 82 55 81 56 37 58 69 59 49 60 68 61 50 62 53 63 67 64
REMARK SMILES IDX 86 65 51 66 52 67 66 69 87 70 54 71 38 72 39 73 47 74 40 75
REMARK SMILES IDX 41 76 45 77 48 78 42 79 43 80 46 81 44 82 70 83 71 84 79 85
REMARK SMILES IDX 72 86 73 87 77 88 80 89 74 90 75 91 78 92 76 93 55 94 56 95
REMARK SMILES IDX 64 96 57 97 58 98 62 99 65 100 59 101 60 102 63 103 61 104
REMARK H PARENT 3 14 85 57 53 68
REMARK Flexibility Score: inf
ROOT
ATOM      1  O   UNL A   1      43.548  19.356  25.929  1.00  0.00    -0.377 OA
ENDROOT
BRANCH   1   2
ATOM      2  C   UNL A   1      42.523  20.335  26.017  1.00  0.00     0.188 C 
BRANCH   2   3
ATOM      3  C   UNL A   1      41.081  20.004  26.463  1.00  0.00     0.188 C 
BRANCH   3   4
ATOM      4  O   UNL A   1      40.276  19.459  25.433  1.00  0.00    -0.376 OA
BRANCH   4   5
ATOM      5  C   UNL A   1      38.959  19.054  25.752  1.00  0.00     0.202 C 
BRANCH   5   6
ATOM      6  C   UNL A   1      37.784  19.662  24.966  1.00  0.00     0.261 C 
BRANCH   6   7
ATOM      7  O   UNL A   1      37.464  21.050  25.189  1.00  0.00    -0.462 OA
BRANCH   7   8
ATOM      8  C   UNL A   1      36.398  21.590  24.537  1.00  0.00     0.331 C 
ATOM      9  O   UNL A   1      36.519  22.379  23.609  1.00  0.00    -0.250 OA
BRANCH   8  10
ATOM     10  C   UNL A   1      35.060  20.989  25.065  1.00  0.00     0.224 C 
ATOM     11  N   UNL A   1      31.238  24.142  23.488  1.00  0.00    -0.335 N 
ATOM     12  C   UNL A   1      32.626  24.105  23.035  1.00  0.00     0.267 C 
ATOM     13  C   UNL A   1      30.874  23.277  24.611  1.00  0.00     0.267 C 
ATOM     14  H   UNL A   1      30.749  23.690  22.716  1.00  0.00     0.348 HD
ATOM     15  C   UNL A   1      33.651  23.906  24.125  1.00  0.00     0.120 C 
ATOM     16  C   UNL A   1      31.957  22.818  25.576  1.00  0.00     0.120 C 
ATOM     17  C   UNL A   1      33.354  22.679  24.989  1.00  0.00     0.155 C 
ATOM     18  O   UNL A   1      34.220  22.838  26.167  1.00  0.00    -0.352 OA
ATOM     19  N   UNL A   1      33.767  21.368  24.438  1.00  0.00    -0.293 N 
ATOM     20  C   UNL A   1      34.863  21.583  26.435  1.00  0.00     0.200 C 
BRANCH  11  21
ATOM     21  C   UNL A   1      30.705  25.501  23.596  1.00  0.00     0.258 C 
ATOM     22  C   UNL A   1      31.367  26.293  24.723  1.00  0.00     0.071 C 
ENDBRANCH  11  21
BRANCH  19  23
ATOM     23  C   UNL A   1      32.998  20.323  23.887  1.00  0.00     0.256 C 
ATOM     24  O   UNL A   1      32.178  20.547  22.992  1.00  0.00    -0.269 OA
BRANCH  23  25
ATOM     25  C   UNL A   1      33.085  18.886  24.277  1.00  0.00     0.040 A 
ATOM     26  C   UNL A   1      33.588  17.961  23.344  1.00  0.00     0.017 A 
ATOM     27  C   UNL A   1      32.529  18.389  25.463  1.00  0.00     0.017 A 
ATOM     28  C   UNL A   1      33.665  16.595  23.664  1.00  0.00     0.040 A 
ATOM     29  C   UNL A   1      32.625  17.031  25.795  1.00  0.00     0.040 A 
ATOM     30  C   UNL A   1      33.211  16.149  24.901  1.00  0.00     0.123 A 
ATOM     31  F   UNL A   1      33.330  14.855  25.228  1.00  0.00    -0.207 F 
ENDBRANCH  23  25
ENDBRANCH  19  23
ENDBRANCH   8  10
ENDBRANCH   7   8
ENDBRANCH   6   7
ENDBRANCH   5   6
ENDBRANCH   4   5
ENDBRANCH   3   4
ENDBRANCH   2   3
ENDBRANCH   1   2
BRANCH   1  32
ATOM     32  C   UNL A   1      44.460  19.473  24.860  1.00  0.00     0.188 C 
BRANCH  32  33
ATOM     33  C   UNL A   1      45.892  19.788  25.330  1.00  0.00     0.188 C 
BRANCH  33  34
ATOM     34  O   UNL A   1      46.101  21.161  25.636  1.00  0.00    -0.376 OA
BRANCH  34  35
ATOM     35  C   UNL A   1      46.147  22.107  24.579  1.00  0.00     0.202 C 
BRANCH  35  36
ATOM     36  C   UNL A   1      45.241  23.349  24.618  1.00  0.00     0.261 C 
BRANCH  36  37
ATOM     37  O   UNL A   1      44.640  23.677  25.875  1.00  0.00    -0.460 OA
BRANCH  37  38
ATOM     38  C   UNL A   1      43.379  24.140  25.880  1.00  0.00     0.338 C 
ATOM     39  O   UNL A   1      42.449  23.776  25.180  1.00  0.00    -0.246 OA
BRANCH  38  40
ATOM     40  C   UNL A   1      43.264  25.018  27.059  1.00  0.00     0.060 A 
ATOM     41  C   UNL A   1      42.650  24.516  28.216  1.00  0.00     0.016 A 
ATOM     42  C   UNL A   1      43.829  26.297  27.052  1.00  0.00     0.016 A 
ATOM     43  C   UNL A   1      42.601  25.291  29.370  1.00  0.00     0.010 A 
ATOM     44  C   UNL A   1      43.733  27.095  28.193  1.00  0.00     0.010 A 
ATOM     45  C   UNL A   1      43.095  26.600  29.343  1.00  0.00    -0.014 A 
BRANCH  45  46
ATOM     46  C   UNL A   1      42.692  27.529  30.420  1.00  0.00     0.031 A 
ATOM     47  C   UNL A   1      41.441  28.329  30.203  1.00  0.00     0.074 A 
ATOM     48  C   UNL A   1      43.387  27.627  31.564  1.00  0.00     0.049 A 
ATOM     49  N   UNL A   1      40.880  29.226  30.971  1.00  0.00    -0.248 NA
ATOM     50  C   UNL A   1      40.722  28.081  28.941  1.00  0.00     0.031 C 
ATOM     51  C   UNL A   1      44.583  26.857  31.897  1.00  0.00     0.029 A 
ATOM     52  N   UNL A   1      43.182  28.426  32.659  1.00  0.00    -0.354 N 
ATOM     53  C   UNL A   1      39.751  29.648  30.283  1.00  0.00     0.074 A 
ATOM     54  C   UNL A   1      39.719  28.939  29.026  1.00  0.00     0.031 C 
ATOM     55  C   UNL A   1      45.015  27.232  33.114  1.00  0.00     0.029 A 
ATOM     56  C   UNL A   1      44.145  28.291  33.626  1.00  0.00     0.049 A 
ATOM     57  H   UNL A   1      42.415  29.039  32.742  1.00  0.00     0.167 HD
ATOM     58  C   UNL A   1      38.819  30.548  30.674  1.00  0.00     0.037 A 
ATOM     59  C   UNL A   1      44.309  28.968  34.779  1.00  0.00     0.037 A 
ATOM     60  C   UNL A   1      38.869  31.259  31.922  1.00  0.00     0.049 A 
ATOM     61  C   UNL A   1      43.305  30.032  35.150  1.00  0.00     0.074 A 
ATOM     62  C   UNL A   1      37.974  32.185  32.423  1.00  0.00     0.029 A 
ATOM     63  N   UNL A   1      39.884  31.130  32.859  1.00  0.00    -0.354 N 
ATOM     64  N   UNL A   1      42.222  30.413  34.514  1.00  0.00    -0.248 NA
ATOM     65  C   UNL A   1      43.546  30.759  36.405  1.00  0.00     0.031 C 
ATOM     66  C   UNL A   1      38.484  32.667  33.634  1.00  0.00     0.029 A 
ATOM     67  C   UNL A   1      39.656  31.986  33.923  1.00  0.00     0.049 A 
ATOM     68  H   UNL A   1      40.654  30.520  32.779  1.00  0.00     0.167 HD
ATOM     69  C   UNL A   1      41.637  31.396  35.302  1.00  0.00     0.074 A 
ATOM     70  C   UNL A   1      42.478  31.543  36.472  1.00  0.00     0.031 C 
ATOM     71  C   UNL A   1      40.505  32.111  35.081  1.00  0.00     0.037 A 
BRANCH  58  72
ATOM     72  C   UNL A   1      37.700  30.841  29.717  1.00  0.00     0.064 A 
ATOM     73  C   UNL A   1      37.611  32.061  29.028  1.00  0.00     0.173 A 
ATOM     74  C   UNL A   1      36.703  29.882  29.484  1.00  0.00     0.173 A 
ATOM     75  F   UNL A   1      38.525  33.021  29.231  1.00  0.00    -0.203 F 
ATOM     76  C   UNL A   1      36.548  32.320  28.165  1.00  0.00     0.198 A 
ATOM     77  C   UNL A   1      35.661  30.131  28.594  1.00  0.00     0.198 A 
ATOM     78  F   UNL A   1      36.737  28.701  30.119  1.00  0.00    -0.203 F 
ATOM     79  F   UNL A   1      36.452  33.514  27.562  1.00  0.00    -0.200 F 
ATOM     80  C   UNL A   1      35.580  31.352  27.942  1.00  0.00     0.200 A 
ATOM     81  F   UNL A   1      34.734  29.189  28.371  1.00  0.00    -0.200 F 
ATOM     82  F   UNL A   1      34.562  31.600  27.107  1.00  0.00    -0.200 F 
ENDBRANCH  58  72
BRANCH  59  83
ATOM     83  C   UNL A   1      45.471  28.674  35.659  1.00  0.00     0.064 A 
ATOM     84  C   UNL A   1      45.373  27.745  36.704  1.00  0.00     0.173 A 
ATOM     85  C   UNL A   1      46.698  29.333  35.488  1.00  0.00     0.173 A 
ATOM     86  F   UNL A   1      44.215  27.106  36.925  1.00  0.00    -0.203 F 
ATOM     87  C   UNL A   1      46.450  27.500  37.555  1.00  0.00     0.198 A 
ATOM     88  C   UNL A   1      47.783  29.065  36.320  1.00  0.00     0.198 A 
ATOM     89  F   UNL A   1      46.846  30.236  34.508  1.00  0.00    -0.203 F 
ATOM     90  F   UNL A   1      46.312  26.643  38.576  1.00  0.00    -0.200 F 
ATOM     91  C   UNL A   1      47.656  28.155  37.358  1.00  0.00     0.200 A 
ATOM     92  F   UNL A   1      48.951  29.692  36.118  1.00  0.00    -0.200 F 
ATOM     93  F   UNL A   1      48.692  27.916  38.174  1.00  0.00    -0.200 F 
ENDBRANCH  59  83
BRANCH  71  94
ATOM     94  C   UNL A   1      40.083  33.084  36.146  1.00  0.00     0.064 A 
ATOM     95  C   UNL A   1      40.627  34.374  36.229  1.00  0.00     0.173 A 
ATOM     96  C   UNL A   1      39.082  32.734  37.066  1.00  0.00     0.173 A 
ATOM     97  F   UNL A   1      41.594  34.755  35.382  1.00  0.00    -0.203 F 
ATOM     98  C   UNL A   1      40.205  35.266  37.213  1.00  0.00     0.198 A 
ATOM     99  C   UNL A   1      38.636  33.640  38.023  1.00  0.00     0.198 A 
ATOM    100  F   UNL A   1      38.519  31.516  37.024  1.00  0.00    -0.203 F 
ATOM    101  F   UNL A   1      40.777  36.474  37.308  1.00  0.00    -0.200 F 
ATOM    102  C   UNL A   1      39.205  34.902  38.102  1.00  0.00     0.200 A 
ATOM    103  F   UNL A   1      37.656  33.293  38.868  1.00  0.00    -0.200 F 
ATOM    104  F   UNL A   1      38.795  35.765  39.041  1.00  0.00    -0.200 F 
ENDBRANCH  71  94
ENDBRANCH  45  46
ENDBRANCH  38  40
ENDBRANCH  37  38
ENDBRANCH  36  37
ENDBRANCH  35  36
ENDBRANCH  34  35
ENDBRANCH  33  34
ENDBRANCH  32  33
ENDBRANCH   1  32
TORSDOF 23
ENDMDL
MODEL 2
REMARK VINA RESULT:     -10.2      5.248      7.545
REMARK SMILES CC[NH+]1CCC2(CC1)OC[C@H](C(=O)OCCOCCOCCOCCOC(=O)c1ccc(-c3c4nc(c(-c5c(F)c(F)c(F)c(F)c5F)c5ccc([nH]5)c(-c5c(F)c(F)c(F)c(F)c5F)c5nc(c(-c6c(F)c(F)c(F)c(F)c6F)c6ccc3[nH]6)C=C5)C=C4)cc1)N2C(=O)c1ccc(F)cc1
REMARK SMILES IDX 20 1 19 2 18 3 17 4 16 5 15 6 14 7 12 8 13 9 11 10 3 11 4 12
REMARK SMILES IDX 8 13 5 15 7 16 6 17 9 18 92 19 10 20 2 21 1 22 93 23 94 24
REMARK SMILES IDX 95 25 96 26 101 27 97 28 100 29 98 30 99 31 21 32 22 33
REMARK SMILES IDX 23 34 24 35 25 36 26 37 27 38 28 39 29 40 30 41 91 42 31 43
REMARK SMILES IDX 90 44 32 45 33 46 34 47 84 48 35 49 89 50 83 51 85 52 36 53
REMARK SMILES IDX 88 54 82 55 81 56 37 58 69 59 49 60 68 61 50 62 53 63 67 64
REMARK SMILES IDX 86 65 51 66 52 67 66 69 87 70 54 71 38 72 39 73 47 74 40 75
REMARK SMILES IDX 41 76 45 77 48 78 42 79 43 80 46 81 44 82 70 83 71 84 79 85
REMARK SMILES IDX 72 86 73 87 77 88 80 89 74 90 75 91 78 92 76 93 55 94 56 95
REMARK SMILES IDX 64 96 57 97 58 98 62 99 65 100 59 101 60 102 63 103 61 104
REMARK H PARENT 3 14 85 57 53 68
REMARK Flexibility Score: inf
ROOT
ATOM      1  O   UNL A   1      38.955  21.902  25.940  1.00  0.00    -0.377 OA
ENDROOT
BRANCH   1   2
ATOM      2  C   UNL A   1      37.774  21.416  25.318  1.00  0.00     0.188 C 
BRANCH   2   3
ATOM      3  C   UNL A   1      36.363  21.938  25.673  1.00  0.00     0.188 C 
BRANCH   3   4
ATOM      4  O   UNL A   1      35.525  22.126  24.548  1.00  0.00    -0.376 OA
BRANCH   4   5
ATOM      5  C   UNL A   1      34.144  21.853  24.685  1.00  0.00     0.202 C 
BRANCH   5   6
ATOM      6  C   UNL A   1      33.153  22.531  23.723  1.00  0.00     0.261 C 
BRANCH   6   7
ATOM      7  O   UNL A   1      32.651  23.836  24.074  1.00  0.00    -0.462 OA
BRANCH   7   8
ATOM      8  C   UNL A   1      31.576  23.923  24.905  1.00  0.00     0.331 C 
ATOM      9  O   UNL A   1      31.369  23.119  25.806  1.00  0.00    -0.250 OA
BRANCH   8  10
ATOM     10  C   UNL A   1      30.746  25.209  24.611  1.00  0.00     0.224 C 
ATOM     11  N   UNL A   1      33.770  29.278  25.766  1.00  0.00    -0.335 N 
ATOM     12  C   UNL A   1      34.157  27.879  25.605  1.00  0.00     0.267 C 
ATOM     13  C   UNL A   1      32.340  29.590  25.721  1.00  0.00     0.267 C 
ATOM     14  H   UNL A   1      34.096  29.692  24.893  1.00  0.00     0.348 HD
ATOM     15  C   UNL A   1      33.204  26.877  26.210  1.00  0.00     0.120 C 
ATOM     16  C   UNL A   1      31.332  28.499  26.049  1.00  0.00     0.120 C 
ATOM     17  C   UNL A   1      31.765  27.075  25.728  1.00  0.00     0.155 C 
ATOM     18  O   UNL A   1      30.952  26.271  26.652  1.00  0.00    -0.352 OA
ATOM     19  N   UNL A   1      31.429  26.512  24.401  1.00  0.00    -0.293 N 
ATOM     20  C   UNL A   1      30.005  25.512  25.886  1.00  0.00     0.200 C 
BRANCH  11  21
ATOM     21  C   UNL A   1      34.484  29.951  26.852  1.00  0.00     0.258 C 
ATOM     22  C   UNL A   1      33.625  31.012  27.538  1.00  0.00     0.071 C 
ENDBRANCH  11  21
BRANCH  19  23
ATOM     23  C   UNL A   1      31.212  27.150  23.163  1.00  0.00     0.256 C 
ATOM     24  O   UNL A   1      31.889  26.857  22.174  1.00  0.00    -0.269 OA
BRANCH  23  25
ATOM     25  C   UNL A   1      30.179  28.191  22.896  1.00  0.00     0.040 A 
ATOM     26  C   UNL A   1      28.834  27.902  23.191  1.00  0.00     0.017 A 
ATOM     27  C   UNL A   1      30.460  29.377  22.204  1.00  0.00     0.017 A 
ATOM     28  C   UNL A   1      27.827  28.847  22.933  1.00  0.00     0.040 A 
ATOM     29  C   UNL A   1      29.462  30.332  21.966  1.00  0.00     0.040 A 
ATOM     30  C   UNL A   1      28.157  30.067  22.352  1.00  0.00     0.123 A 
ATOM     31  F   UNL A   1      27.207  30.990  22.151  1.00  0.00    -0.207 F 
ENDBRANCH  23  25
ENDBRANCH  19  23
ENDBRANCH   8  10
ENDBRANCH   7   8
ENDBRANCH   6   7
ENDBRANCH   5   6
ENDBRANCH   4   5
ENDBRANCH   3   4
ENDBRANCH   2   3
ENDBRANCH   1   2
BRANCH   1  32
ATOM     32  C   UNL A   1      40.001  20.978  26.145  1.00  0.00     0.188 C 
BRANCH  32  33
ATOM     33  C   UNL A   1      41.382  21.651  26.231  1.00  0.00     0.188 C 
BRANCH  33  34
ATOM     34  O   UNL A   1      42.417  20.909  25.597  1.00  0.00    -0.376 OA
BRANCH  34  35
ATOM     35  C   UNL A   1      43.705  21.492  25.464  1.00  0.00     0.202 C 
BRANCH  35  36
ATOM     36  C   UNL A   1      44.151  22.601  26.432  1.00  0.00     0.261 C 
BRANCH  36  37
ATOM     37  O   UNL A   1      45.495  23.074  26.304  1.00  0.00    -0.460 OA
BRANCH  37  38
ATOM     38  C   UNL A   1      45.754  24.025  25.390  1.00  0.00     0.338 C 
ATOM     39  O   UNL A   1      45.995  23.873  24.205  1.00  0.00    -0.246 OA
BRANCH  38  40
ATOM     40  C   UNL A   1      45.463  25.317  26.041  1.00  0.00     0.060 A 
ATOM     41  C   UNL A   1      44.742  26.283  25.326  1.00  0.00     0.016 A 
ATOM     42  C   UNL A   1      45.828  25.541  27.372  1.00  0.00     0.016 A 
ATOM     43  C   UNL A   1      44.380  27.478  25.941  1.00  0.00     0.010 A 
ATOM     44  C   UNL A   1      45.511  26.760  27.973  1.00  0.00     0.010 A 
ATOM     45  C   UNL A   1      44.811  27.739  27.247  1.00  0.00    -0.014 A 
BRANCH  45  46
ATOM     46  C   UNL A   1      44.766  29.131  27.740  1.00  0.00     0.031 A 
ATOM     47  C   UNL A   1      43.524  29.564  28.462  1.00  0.00     0.074 A 
ATOM     48  C   UNL A   1      45.807  29.966  27.591  1.00  0.00     0.049 A 
ATOM     49  N   UNL A   1      43.217  30.728  28.973  1.00  0.00    -0.248 NA
ATOM     50  C   UNL A   1      42.481  28.538  28.631  1.00  0.00     0.031 C 
ATOM     51  C   UNL A   1      47.079  29.630  26.955  1.00  0.00     0.029 A 
ATOM     52  N   UNL A   1      45.950  31.278  27.965  1.00  0.00    -0.354 N 
ATOM     53  C   UNL A   1      41.950  30.572  29.516  1.00  0.00     0.074 A 
ATOM     54  C   UNL A   1      41.528  29.217  29.247  1.00  0.00     0.031 C 
ATOM     55  C   UNL A   1      47.872  30.716  26.972  1.00  0.00     0.029 A 
ATOM     56  C   UNL A   1      47.148  31.829  27.588  1.00  0.00     0.049 A 
ATOM     57  H   UNL A   1      45.258  31.776  28.458  1.00  0.00     0.167 HD
ATOM     58  C   UNL A   1      41.206  31.482  30.185  1.00  0.00     0.037 A 
ATOM     59  C   UNL A   1      47.590  33.095  27.710  1.00  0.00     0.037 A 
ATOM     60  C   UNL A   1      41.631  32.833  30.432  1.00  0.00     0.049 A 
ATOM     61  C   UNL A   1      46.705  34.116  28.380  1.00  0.00     0.074 A 
ATOM     62  C   UNL A   1      40.962  33.837  31.108  1.00  0.00     0.029 A 
ATOM     63  N   UNL A   1      42.834  33.371  29.997  1.00  0.00    -0.354 N 
ATOM     64  N   UNL A   1      45.517  33.963  28.918  1.00  0.00    -0.248 NA
ATOM     65  C   UNL A   1      47.224  35.489  28.463  1.00  0.00     0.031 C 
ATOM     66  C   UNL A   1      41.732  35.002  31.022  1.00  0.00     0.029 A 
ATOM     67  C   UNL A   1      42.912  34.704  30.359  1.00  0.00     0.049 A 
ATOM     68  H   UNL A   1      43.527  32.876  29.502  1.00  0.00     0.167 HD
ATOM     69  C   UNL A   1      45.163  35.204  29.430  1.00  0.00     0.074 A 
ATOM     70  C   UNL A   1      46.267  36.098  29.151  1.00  0.00     0.031 C 
ATOM     71  C   UNL A   1      44.028  35.574  30.076  1.00  0.00     0.037 A 
BRANCH  58  72
ATOM     72  C   UNL A   1      39.845  31.054  30.649  1.00  0.00     0.064 A 
ATOM     73  C   UNL A   1      38.694  31.260  29.871  1.00  0.00     0.173 A 
ATOM     74  C   UNL A   1      39.690  30.421  31.892  1.00  0.00     0.173 A 
ATOM     75  F   UNL A   1      38.782  31.881  28.685  1.00  0.00    -0.203 F 
ATOM     76  C   UNL A   1      37.438  30.878  30.335  1.00  0.00     0.198 A 
ATOM     77  C   UNL A   1      38.436  30.008  32.336  1.00  0.00     0.198 A 
ATOM     78  F   UNL A   1      40.755  30.203  32.677  1.00  0.00    -0.203 F 
ATOM     79  F   UNL A   1      36.346  31.138  29.600  1.00  0.00    -0.200 F 
ATOM     80  C   UNL A   1      37.311  30.245  31.562  1.00  0.00     0.200 A 
ATOM     81  F   UNL A   1      38.319  29.386  33.517  1.00  0.00    -0.200 F 
ATOM     82  F   UNL A   1      36.102  29.871  32.004  1.00  0.00    -0.200 F 
ENDBRANCH  58  72
BRANCH  59  83
ATOM     83  C   UNL A   1      48.926  33.474  27.178  1.00  0.00     0.064 A 
ATOM     84  C   UNL A   1      50.098  33.199  27.897  1.00  0.00     0.173 A 
ATOM     85  C   UNL A   1      49.058  34.140  25.950  1.00  0.00     0.173 A 
ATOM     86  F   UNL A   1      50.025  32.588  29.087  1.00  0.00    -0.203 F 
ATOM     87  C   UNL A   1      51.347  33.593  27.417  1.00  0.00     0.198 A 
ATOM     88  C   UNL A   1      50.309  34.504  25.456  1.00  0.00     0.198 A 
ATOM     89  F   UNL A   1      47.970  34.433  25.223  1.00  0.00    -0.203 F 
ATOM     90  F   UNL A   1      52.446  33.361  28.149  1.00  0.00    -0.200 F 
ATOM     91  C   UNL A   1      51.453  34.238  26.195  1.00  0.00     0.200 A 
ATOM     92  F   UNL A   1      50.407  35.118  24.268  1.00  0.00    -0.200 F 
ATOM     93  F   UNL A   1      52.654  34.612  25.733  1.00  0.00    -0.200 F 
ENDBRANCH  59  83
BRANCH  71  94
ATOM     94  C   UNL A   1      43.941  36.991  30.567  1.00  0.00     0.064 A 
ATOM     95  C   UNL A   1      43.537  38.042  29.730  1.00  0.00     0.173 A 
ATOM     96  C   UNL A   1      44.218  37.292  31.910  1.00  0.00     0.173 A 
ATOM     97  F   UNL A   1      43.271  37.812  28.436  1.00  0.00    -0.203 F 
ATOM     98  C   UNL A   1      43.445  39.346  30.212  1.00  0.00     0.198 A 
ATOM     99  C   UNL A   1      44.088  38.589  32.398  1.00  0.00     0.198 A 
ATOM    100  F   UNL A   1      44.597  36.322  32.756  1.00  0.00    -0.203 F 
ATOM    101  F   UNL A   1      43.111  40.343  29.382  1.00  0.00    -0.200 F 
ATOM    102  C   UNL A   1      43.711  39.616  31.546  1.00  0.00     0.200 A 
ATOM    103  F   UNL A   1      44.326  38.843  33.692  1.00  0.00    -0.200 F 
ATOM    104  F   UNL A   1      43.612  40.869  32.011  1.00  0.00    -0.200 F 
ENDBRANCH  71  94
ENDBRANCH  45  46
ENDBRANCH  38  40
ENDBRANCH  37  38
ENDBRANCH  36  37
ENDBRANCH  35  36
ENDBRANCH  34  35
ENDBRANCH  33  34
ENDBRANCH  32  33
ENDBRANCH   1  32
TORSDOF 23
ENDMDL
MODEL 3
REMARK VINA RESULT:      -9.7      3.610      7.899
REMARK SMILES CC[NH+]1CCC2(CC1)OC[C@H](C(=O)OCCOCCOCCOCCOC(=O)c1ccc(-c3c4nc(c(-c5c(F)c(F)c(F)c(F)c5F)c5ccc([nH]5)c(-c5c(F)c(F)c(F)c(F)c5F)c5nc(c(-c6c(F)c(F)c(F)c(F)c6F)c6ccc3[nH]6)C=C5)C=C4)cc1)N2C(=O)c1ccc(F)cc1
REMARK SMILES IDX 20 1 19 2 18 3 17 4 16 5 15 6 14 7 12 8 13 9 11 10 3 11 4 12
REMARK SMILES IDX 8 13 5 15 7 16 6 17 9 18 92 19 10 20 2 21 1 22 93 23 94 24
REMARK SMILES IDX 95 25 96 26 101 27 97 28 100 29 98 30 99 31 21 32 22 33
REMARK SMILES IDX 23 34 24 35 25 36 26 37 27 38 28 39 29 40 30 41 91 42 31 43
REMARK SMILES IDX 90 44 32 45 33 46 34 47 84 48 35 49 89 50 83 51 85 52 36 53
REMARK SMILES IDX 88 54 82 55 81 56 37 58 69 59 49 60 68 61 50 62 53 63 67 64
REMARK SMILES IDX 86 65 51 66 52 67 66 69 87 70 54 71 38 72 39 73 47 74 40 75
REMARK SMILES IDX 41 76 45 77 48 78 42 79 43 80 46 81 44 82 70 83 71 84 79 85
REMARK SMILES IDX 72 86 73 87 77 88 80 89 74 90 75 91 78 92 76 93 55 94 56 95
REMARK SMILES IDX 64 96 57 97 58 98 62 99 65 100 59 101 60 102 63 103 61 104
REMARK H PARENT 3 14 85 57 53 68
REMARK Flexibility Score: inf
ROOT
ATOM      1  O   UNL A   1      41.189  26.941  28.941  1.00  0.00    -0.377 OA
ENDROOT
BRANCH   1   2
ATOM      2  C   UNL A   1      40.754  25.927  28.047  1.00  0.00     0.188 C 
BRANCH   2   3
ATOM      3  C   UNL A   1      39.402  25.193  28.205  1.00  0.00     0.188 C 
BRANCH   3   4
ATOM      4  O   UNL A   1      39.377  23.910  27.606  1.00  0.00    -0.376 OA
BRANCH   4   5
ATOM      5  C   UNL A   1      38.611  23.733  26.430  1.00  0.00     0.202 C 
BRANCH   5   6
ATOM      6  C   UNL A   1      38.466  22.317  25.845  1.00  0.00     0.261 C 
BRANCH   6   7
ATOM      7  O   UNL A   1      37.187  21.662  25.963  1.00  0.00    -0.462 OA
BRANCH   7   8
ATOM      8  C   UNL A   1      36.385  21.586  24.865  1.00  0.00     0.331 C 
ATOM      9  O   UNL A   1      36.787  21.828  23.734  1.00  0.00    -0.250 OA
BRANCH   8  10
ATOM     10  C   UNL A   1      34.968  21.061  25.245  1.00  0.00     0.224 C 
ATOM     11  N   UNL A   1      31.512  24.146  22.884  1.00  0.00    -0.335 N 
ATOM     12  C   UNL A   1      32.947  24.040  22.638  1.00  0.00     0.267 C 
ATOM     13  C   UNL A   1      30.965  23.389  24.011  1.00  0.00     0.267 C 
ATOM     14  H   UNL A   1      31.120  23.639  22.090  1.00  0.00     0.348 HD
ATOM     15  C   UNL A   1      33.802  23.915  23.876  1.00  0.00     0.120 C 
ATOM     16  C   UNL A   1      31.886  22.992  25.155  1.00  0.00     0.120 C 
ATOM     17  C   UNL A   1      33.347  22.773  24.787  1.00  0.00     0.155 C 
ATOM     18  O   UNL A   1      34.043  23.015  26.059  1.00  0.00    -0.352 OA
ATOM     19  N   UNL A   1      33.788  21.411  24.411  1.00  0.00    -0.293 N 
ATOM     20  C   UNL A   1      34.600  21.775  26.519  1.00  0.00     0.200 C 
BRANCH  11  21
ATOM     21  C   UNL A   1      31.014  25.520  22.803  1.00  0.00     0.258 C 
ATOM     22  C   UNL A   1      29.994  25.831  23.897  1.00  0.00     0.071 C 
ENDBRANCH  11  21
BRANCH  19  23
ATOM     23  C   UNL A   1      33.070  20.339  23.844  1.00  0.00     0.256 C 
ATOM     24  O   UNL A   1      32.307  20.524  22.892  1.00  0.00    -0.269 OA
BRANCH  23  25
ATOM     25  C   UNL A   1      33.149  18.917  24.283  1.00  0.00     0.040 A 
ATOM     26  C   UNL A   1      33.721  17.970  23.413  1.00  0.00     0.017 A 
ATOM     27  C   UNL A   1      32.527  18.448  25.447  1.00  0.00     0.017 A 
ATOM     28  C   UNL A   1      33.794  16.616  23.779  1.00  0.00     0.040 A 
ATOM     29  C   UNL A   1      32.618  17.102  25.827  1.00  0.00     0.040 A 
ATOM     30  C   UNL A   1      33.269  16.201  24.999  1.00  0.00     0.123 A 
ATOM     31  F   UNL A   1      33.383  14.920  25.373  1.00  0.00    -0.207 F 
ENDBRANCH  23  25
ENDBRANCH  19  23
ENDBRANCH   8  10
ENDBRANCH   7   8
ENDBRANCH   6   7
ENDBRANCH   5   6
ENDBRANCH   4   5
ENDBRANCH   3   4
ENDBRANCH   2   3
ENDBRANCH   1   2
BRANCH   1  32
ATOM     32  C   UNL A   1      40.192  27.664  29.628  1.00  0.00     0.188 C 
BRANCH  32  33
ATOM     33  C   UNL A   1      39.641  28.846  28.809  1.00  0.00     0.188 C 
BRANCH  33  34
ATOM     34  O   UNL A   1      38.405  29.351  29.300  1.00  0.00    -0.376 OA
BRANCH  34  35
ATOM     35  C   UNL A   1      37.506  29.976  28.397  1.00  0.00     0.202 C 
BRANCH  35  36
ATOM     36  C   UNL A   1      36.011  30.076  28.746  1.00  0.00     0.261 C 
BRANCH  36  37
ATOM     37  O   UNL A   1      35.674  30.685  29.996  1.00  0.00    -0.460 OA
BRANCH  37  38
ATOM     38  C   UNL A   1      36.096  31.939  30.231  1.00  0.00     0.338 C 
ATOM     39  O   UNL A   1      35.652  32.974  29.765  1.00  0.00    -0.246 OA
BRANCH  38  40
ATOM     40  C   UNL A   1      37.058  31.851  31.346  1.00  0.00     0.060 A 
ATOM     41  C   UNL A   1      38.358  32.340  31.155  1.00  0.00     0.016 A 
ATOM     42  C   UNL A   1      36.657  31.366  32.595  1.00  0.00     0.016 A 
ATOM     43  C   UNL A   1      39.262  32.348  32.212  1.00  0.00     0.010 A 
ATOM     44  C   UNL A   1      37.579  31.324  33.641  1.00  0.00     0.010 A 
ATOM     45  C   UNL A   1      38.890  31.790  33.441  1.00  0.00    -0.014 A 
BRANCH  45  46
ATOM     46  C   UNL A   1      39.950  31.448  34.411  1.00  0.00     0.031 A 
ATOM     47  C   UNL A   1      40.227  32.439  35.503  1.00  0.00     0.074 A 
ATOM     48  C   UNL A   1      40.612  30.281  34.350  1.00  0.00     0.049 A 
ATOM     49  N   UNL A   1      41.113  32.397  36.464  1.00  0.00    -0.248 NA
ATOM     50  C   UNL A   1      39.385  33.648  35.511  1.00  0.00     0.031 C 
ATOM     51  C   UNL A   1      40.383  29.227  33.365  1.00  0.00     0.029 A 
ATOM     52  N   UNL A   1      41.622  29.794  35.141  1.00  0.00    -0.354 N 
ATOM     53  C   UNL A   1      40.935  33.572  37.183  1.00  0.00     0.074 A 
ATOM     54  C   UNL A   1      39.885  34.320  36.534  1.00  0.00     0.031 C 
ATOM     55  C   UNL A   1      41.241  28.218  33.603  1.00  0.00     0.029 A 
ATOM     56  C   UNL A   1      42.097  28.574  34.734  1.00  0.00     0.049 A 
ATOM     57  H   UNL A   1      41.970  30.275  35.926  1.00  0.00     0.167 HD
ATOM     58  C   UNL A   1      41.592  33.984  38.291  1.00  0.00     0.037 A 
ATOM     59  C   UNL A   1      43.125  27.847  35.213  1.00  0.00     0.037 A 
ATOM     60  C   UNL A   1      42.647  33.235  38.919  1.00  0.00     0.049 A 
ATOM     61  C   UNL A   1      43.901  28.370  36.396  1.00  0.00     0.074 A 
ATOM     62  C   UNL A   1      43.374  33.553  40.050  1.00  0.00     0.029 A 
ATOM     63  N   UNL A   1      43.134  32.022  38.453  1.00  0.00    -0.354 N 
ATOM     64  N   UNL A   1      43.717  29.467  37.093  1.00  0.00    -0.248 NA
ATOM     65  C   UNL A   1      45.030  27.551  36.862  1.00  0.00     0.031 C 
ATOM     66  C   UNL A   1      44.347  32.564  40.230  1.00  0.00     0.029 A 
ATOM     67  C   UNL A   1      44.177  31.594  39.256  1.00  0.00     0.049 A 
ATOM     68  H   UNL A   1      42.789  31.539  37.667  1.00  0.00     0.167 HD
ATOM     69  C   UNL A   1      44.679  29.455  38.094  1.00  0.00     0.074 A 
ATOM     70  C   UNL A   1      45.438  28.233  37.924  1.00  0.00     0.031 C 
ATOM     71  C   UNL A   1      44.914  30.368  39.070  1.00  0.00     0.037 A 
BRANCH  58  72
ATOM     72  C   UNL A   1      41.215  35.321  38.859  1.00  0.00     0.064 A 
ATOM     73  C   UNL A   1      42.006  36.463  38.660  1.00  0.00     0.173 A 
ATOM     74  C   UNL A   1      40.039  35.461  39.611  1.00  0.00     0.173 A 
ATOM     75  F   UNL A   1      43.152  36.380  37.968  1.00  0.00    -0.203 F 
ATOM     76  C   UNL A   1      41.649  37.688  39.220  1.00  0.00     0.198 A 
ATOM     77  C   UNL A   1      39.667  36.695  40.139  1.00  0.00     0.198 A 
ATOM     78  F   UNL A   1      39.248  34.401  39.835  1.00  0.00    -0.203 F 
ATOM     79  F   UNL A   1      42.450  38.752  39.066  1.00  0.00    -0.200 F 
ATOM     80  C   UNL A   1      40.476  37.805  39.950  1.00  0.00     0.200 A 
ATOM     81  F   UNL A   1      38.527  36.807  40.835  1.00  0.00    -0.200 F 
ATOM     82  F   UNL A   1      40.130  38.985  40.483  1.00  0.00    -0.200 F 
ENDBRANCH  58  72
BRANCH  59  83
ATOM     83  C   UNL A   1      43.489  26.555  34.571  1.00  0.00     0.064 A 
ATOM     84  C   UNL A   1      44.415  26.504  33.520  1.00  0.00     0.173 A 
ATOM     85  C   UNL A   1      42.902  25.349  34.980  1.00  0.00     0.173 A 
ATOM     86  F   UNL A   1      44.986  27.632  33.075  1.00  0.00    -0.203 F 
ATOM     87  C   UNL A   1      44.725  25.299  32.890  1.00  0.00     0.198 A 
ATOM     88  C   UNL A   1      43.236  24.140  34.371  1.00  0.00     0.198 A 
ATOM     89  F   UNL A   1      42.006  25.341  35.977  1.00  0.00    -0.203 F 
ATOM     90  F   UNL A   1      45.576  25.287  31.855  1.00  0.00    -0.200 F 
ATOM     91  C   UNL A   1      44.141  24.118  33.320  1.00  0.00     0.200 A 
ATOM     92  F   UNL A   1      42.677  23.000  34.799  1.00  0.00    -0.200 F 
ATOM     93  F   UNL A   1      44.442  22.960  32.717  1.00  0.00    -0.200 F 
ENDBRANCH  59  83
BRANCH  71  94
ATOM     94  C   UNL A   1      46.004  30.061  40.058  1.00  0.00     0.064 A 
ATOM     95  C   UNL A   1      45.765  29.305  41.215  1.00  0.00     0.173 A 
ATOM     96  C   UNL A   1      47.319  30.488  39.814  1.00  0.00     0.173 A 
ATOM     97  F   UNL A   1      44.525  28.882  41.501  1.00  0.00    -0.203 F 
ATOM     98  C   UNL A   1      46.796  29.016  42.106  1.00  0.00     0.198 A 
ATOM     99  C   UNL A   1      48.354  30.165  40.687  1.00  0.00     0.198 A 
ATOM    100  F   UNL A   1      47.605  31.204  38.715  1.00  0.00    -0.203 F 
ATOM    101  F   UNL A   1      46.534  28.339  43.233  1.00  0.00    -0.200 F 
ATOM    102  C   UNL A   1      48.089  29.438  41.837  1.00  0.00     0.200 A 
ATOM    103  F   UNL A   1      49.606  30.556  40.414  1.00  0.00    -0.200 F 
ATOM    104  F   UNL A   1      49.081  29.149  42.690  1.00  0.00    -0.200 F 
ENDBRANCH  71  94
ENDBRANCH  45  46
ENDBRANCH  38  40
ENDBRANCH  37  38
ENDBRANCH  36  37
ENDBRANCH  35  36
ENDBRANCH  34  35
ENDBRANCH  33  34
ENDBRANCH  32  33
ENDBRANCH   1  32
TORSDOF 23
ENDMDL
