MODEL 1
REMARK VINA RESULT:      -9.4      0.000      0.000
REMARK SMILES CCCOC(=O)c1c(NC(=O)[C@@H]2CC=CC[C@H]2C(=O)OCCOCCOCCOCCOC(=O)c2ccc(-c3c4nc(c(-c5c(F)c(F)c(F)c(F)c5F)c5ccc([nH]5)c(-c5c(F)c(F)c(F)c(F)c5F)c5nc(c(-c6c(F)c(F)c(F)c(F)c6F)c6ccc3[nH]6)C=C5)C=C4)cc2)sc2c1CCCC2
REMARK SMILES IDX 24 1 23 2 22 3 21 4 20 5 18 6 19 7 17 8 12 9 13 10 14 11
REMARK SMILES IDX 16 12 15 13 10 14 9 15 11 17 8 18 7 19 100 20 98 21 99 22
REMARK SMILES IDX 101 23 104 24 102 25 103 26 5 27 6 28 4 29 3 30 2 31 1 32
REMARK SMILES IDX 25 33 26 34 27 35 28 36 29 37 30 38 31 39 32 40 33 41 34 42
REMARK SMILES IDX 35 43 36 44 97 45 37 46 96 47 38 48 39 49 40 50 90 51 41 52
REMARK SMILES IDX 95 53 89 54 91 55 42 56 94 57 88 58 87 59 43 61 75 62 55 63
REMARK SMILES IDX 74 64 56 65 59 66 73 67 92 68 57 69 58 70 72 72 93 73 60 74
REMARK SMILES IDX 44 75 45 76 53 77 46 78 47 79 51 80 54 81 48 82 49 83 52 84
REMARK SMILES IDX 50 85 76 86 77 87 85 88 78 89 79 90 83 91 86 92 80 93 81 94
REMARK SMILES IDX 84 95 82 96 61 97 62 98 70 99 63 100 64 101 68 102 71 103
REMARK SMILES IDX 65 104 66 105 69 106 67 107
REMARK H PARENT 9 16 91 60 59 71
REMARK Flexibility Score: inf
ROOT
ATOM      1  C   UNL A   1      34.563  31.898  28.505  1.00  0.00     0.188 C 
ENDROOT
BRANCH   1   2
ATOM      2  O   UNL A   1      34.316  31.183  27.294  1.00  0.00    -0.376 OA
BRANCH   2   3
ATOM      3  C   UNL A   1      32.993  30.861  26.902  1.00  0.00     0.202 C 
BRANCH   3   4
ATOM      4  C   UNL A   1      32.357  29.660  27.621  1.00  0.00     0.261 C 
BRANCH   4   5
ATOM      5  O   UNL A   1      32.785  28.345  27.199  1.00  0.00    -0.463 OA
BRANCH   5   6
ATOM      6  C   UNL A   1      31.805  27.531  26.723  1.00  0.00     0.310 C 
ATOM      7  O   UNL A   1      30.898  27.087  27.423  1.00  0.00    -0.252 OA
BRANCH   6   8
ATOM      8  C   UNL A   1      31.913  27.165  25.230  1.00  0.00     0.116 C 
ATOM      9  C   UNL A   1      30.702  27.512  24.302  1.00  0.00     0.097 C 
ATOM     10  C   UNL A   1      31.089  27.678  22.816  1.00  0.00     0.041 C 
ATOM     11  C   UNL A   1      32.378  28.369  22.556  1.00  0.00    -0.030 C 
ATOM     12  C   UNL A   1      33.269  27.787  24.807  1.00  0.00     0.043 C 
ATOM     13  C   UNL A   1      33.365  28.399  23.451  1.00  0.00    -0.030 C 
BRANCH   9  14
ATOM     14  C   UNL A   1      29.677  26.393  24.229  1.00  0.00     0.229 C 
ATOM     15  N   UNL A   1      29.906  25.110  24.606  1.00  0.00    -0.317 N 
ATOM     16  H   UNL A   1      29.070  24.593  24.657  1.00  0.00     0.170 HD
ATOM     17  O   UNL A   1      28.514  26.642  23.877  1.00  0.00    -0.274 OA
BRANCH  15  18
ATOM     18  C   UNL A   1      30.998  24.341  24.934  1.00  0.00     0.110 A 
ATOM     19  C   UNL A   1      32.068  23.684  24.357  1.00  0.00     0.098 A 
ATOM     20  C   UNL A   1      32.804  22.908  25.343  1.00  0.00    -0.017 A 
ATOM     21  S   UNL A   1      30.977  24.117  26.647  1.00  0.00    -0.122 S 
ATOM     22  C   UNL A   1      32.309  23.082  26.614  1.00  0.00     0.011 A 
ATOM     23  C   UNL A   1      34.011  22.045  25.082  1.00  0.00     0.038 C 
ATOM     24  C   UNL A   1      32.832  22.398  27.835  1.00  0.00     0.047 C 
ATOM     25  C   UNL A   1      34.325  21.109  26.259  1.00  0.00     0.005 C 
ATOM     26  C   UNL A   1      34.242  21.845  27.600  1.00  0.00     0.006 C 
BRANCH  19  27
ATOM     27  C   UNL A   1      32.519  23.713  22.980  1.00  0.00     0.341 C 
ATOM     28  O   UNL A   1      32.535  22.721  22.267  1.00  0.00    -0.246 OA
BRANCH  27  29
ATOM     29  O   UNL A   1      32.727  24.992  22.556  1.00  0.00    -0.462 OA
BRANCH  29  30
ATOM     30  C   UNL A   1      33.623  25.148  21.449  1.00  0.00     0.233 C 
BRANCH  30  31
ATOM     31  C   UNL A   1      32.904  25.534  20.165  1.00  0.00     0.038 C 
ATOM     32  C   UNL A   1      31.404  25.667  20.348  1.00  0.00     0.007 C 
ENDBRANCH  30  31
ENDBRANCH  29  30
ENDBRANCH  27  29
ENDBRANCH  19  27
ENDBRANCH  15  18
ENDBRANCH   9  14
ENDBRANCH   6   8
ENDBRANCH   5   6
ENDBRANCH   4   5
ENDBRANCH   3   4
ENDBRANCH   2   3
ENDBRANCH   1   2
BRANCH   1  33
ATOM     33  C   UNL A   1      34.927  33.386  28.483  1.00  0.00     0.188 C 
BRANCH  33  34
ATOM     34  O   UNL A   1      33.832  34.268  28.303  1.00  0.00    -0.377 OA
BRANCH  34  35
ATOM     35  C   UNL A   1      33.246  34.797  29.480  1.00  0.00     0.188 C 
BRANCH  35  36
ATOM     36  C   UNL A   1      34.189  34.905  30.681  1.00  0.00     0.188 C 
BRANCH  36  37
ATOM     37  O   UNL A   1      33.467  35.010  31.907  1.00  0.00    -0.376 OA
BRANCH  37  38
ATOM     38  C   UNL A   1      33.685  33.993  32.881  1.00  0.00     0.202 C 
BRANCH  38  39
ATOM     39  C   UNL A   1      34.587  32.823  32.455  1.00  0.00     0.261 C 
BRANCH  39  40
ATOM     40  O   UNL A   1      35.767  32.606  33.253  1.00  0.00    -0.460 OA
BRANCH  40  41
ATOM     41  C   UNL A   1      36.849  33.378  33.022  1.00  0.00     0.338 C 
ATOM     42  O   UNL A   1      37.111  34.458  33.513  1.00  0.00    -0.246 OA
BRANCH  41  43
ATOM     43  C   UNL A   1      37.781  32.597  32.184  1.00  0.00     0.060 A 
ATOM     44  C   UNL A   1      38.779  31.834  32.803  1.00  0.00     0.016 A 
ATOM     45  C   UNL A   1      37.682  32.636  30.794  1.00  0.00     0.016 A 
ATOM     46  C   UNL A   1      39.696  31.123  32.028  1.00  0.00     0.010 A 
ATOM     47  C   UNL A   1      38.619  31.942  30.022  1.00  0.00     0.010 A 
ATOM     48  C   UNL A   1      39.643  31.197  30.631  1.00  0.00    -0.014 A 
BRANCH  48  49
ATOM     49  C   UNL A   1      40.768  30.665  29.819  1.00  0.00     0.031 A 
ATOM     50  C   UNL A   1      41.941  31.570  29.549  1.00  0.00     0.074 A 
ATOM     51  C   UNL A   1      40.776  29.399  29.361  1.00  0.00     0.049 A 
ATOM     52  N   UNL A   1      43.062  31.317  28.923  1.00  0.00    -0.248 NA
ATOM     53  C   UNL A   1      41.828  32.951  30.044  1.00  0.00     0.031 C 
ATOM     54  C   UNL A   1      39.700  28.425  29.536  1.00  0.00     0.029 A 
ATOM     55  N   UNL A   1      41.739  28.712  28.662  1.00  0.00    -0.354 N 
ATOM     56  C   UNL A   1      43.781  32.505  28.951  1.00  0.00     0.074 A 
ATOM     57  C   UNL A   1      42.949  33.494  29.596  1.00  0.00     0.031 C 
ATOM     58  C   UNL A   1      40.072  27.259  28.978  1.00  0.00     0.029 A 
ATOM     59  C   UNL A   1      41.407  27.405  28.399  1.00  0.00     0.049 A 
ATOM     60  H   UNL A   1      42.589  29.119  28.376  1.00  0.00     0.167 HD
ATOM     61  C   UNL A   1      45.038  32.748  28.511  1.00  0.00     0.037 A 
ATOM     62  C   UNL A   1      42.109  26.439  27.773  1.00  0.00     0.037 A 
ATOM     63  C   UNL A   1      45.881  31.766  27.890  1.00  0.00     0.049 A 
ATOM     64  C   UNL A   1      43.502  26.738  27.276  1.00  0.00     0.074 A 
ATOM     65  C   UNL A   1      47.182  31.905  27.439  1.00  0.00     0.029 A 
ATOM     66  N   UNL A   1      45.503  30.458  27.630  1.00  0.00    -0.354 N 
ATOM     67  N   UNL A   1      44.195  27.848  27.362  1.00  0.00    -0.248 NA
ATOM     68  C   UNL A   1      44.216  25.640  26.603  1.00  0.00     0.031 C 
ATOM     69  C   UNL A   1      47.579  30.689  26.871  1.00  0.00     0.029 A 
ATOM     70  C   UNL A   1      46.540  29.781  27.008  1.00  0.00     0.049 A 
ATOM     71  H   UNL A   1      44.628  30.067  27.856  1.00  0.00     0.167 HD
ATOM     72  C   UNL A   1      45.428  27.577  26.782  1.00  0.00     0.074 A 
ATOM     73  C   UNL A   1      45.398  26.191  26.365  1.00  0.00     0.031 C 
ATOM     74  C   UNL A   1      46.491  28.401  26.604  1.00  0.00     0.037 A 
BRANCH  61  75
ATOM     75  C   UNL A   1      45.566  34.140  28.694  1.00  0.00     0.064 A 
ATOM     76  C   UNL A   1      46.250  34.519  29.860  1.00  0.00     0.173 A 
ATOM     77  C   UNL A   1      45.381  35.108  27.696  1.00  0.00     0.173 A 
ATOM     78  F   UNL A   1      46.431  33.634  30.852  1.00  0.00    -0.203 F 
ATOM     79  C   UNL A   1      46.698  35.825  30.034  1.00  0.00     0.198 A 
ATOM     80  C   UNL A   1      45.856  36.405  27.862  1.00  0.00     0.198 A 
ATOM     81  F   UNL A   1      44.732  34.796  26.564  1.00  0.00    -0.203 F 
ATOM     82  F   UNL A   1      47.294  36.179  31.181  1.00  0.00    -0.200 F 
ATOM     83  C   UNL A   1      46.506  36.766  29.034  1.00  0.00     0.200 A 
ATOM     84  F   UNL A   1      45.676  37.312  26.891  1.00  0.00    -0.200 F 
ATOM     85  F   UNL A   1      46.935  38.023  29.204  1.00  0.00    -0.200 F 
ENDBRANCH  61  75
BRANCH  62  86
ATOM     86  C   UNL A   1      41.528  25.080  27.598  1.00  0.00     0.064 A 
ATOM     87  C   UNL A   1      40.486  24.849  26.687  1.00  0.00     0.173 A 
ATOM     88  C   UNL A   1      41.972  23.995  28.367  1.00  0.00     0.173 A 
ATOM     89  F   UNL A   1      40.007  25.861  25.948  1.00  0.00    -0.203 F 
ATOM     90  C   UNL A   1      39.895  23.592  26.570  1.00  0.00     0.198 A 
ATOM     91  C   UNL A   1      41.399  22.732  28.230  1.00  0.00     0.198 A 
ATOM     92  F   UNL A   1      42.964  24.161  29.254  1.00  0.00    -0.203 F 
ATOM     93  F   UNL A   1      38.866  23.413  25.731  1.00  0.00    -0.200 F 
ATOM     94  C   UNL A   1      40.355  22.534  27.339  1.00  0.00     0.200 A 
ATOM     95  F   UNL A   1      41.852  21.710  28.969  1.00  0.00    -0.200 F 
ATOM     96  F   UNL A   1      39.784  21.326  27.229  1.00  0.00    -0.200 F 
ENDBRANCH  62  86
BRANCH  74  97
ATOM     97  C   UNL A   1      47.712  27.820  25.951  1.00  0.00     0.064 A 
ATOM     98  C   UNL A   1      47.830  27.741  24.556  1.00  0.00     0.173 A 
ATOM     99  C   UNL A   1      48.791  27.374  26.729  1.00  0.00     0.173 A 
ATOM    100  F   UNL A   1      46.821  28.143  23.769  1.00  0.00    -0.203 F 
ATOM    101  C   UNL A   1      48.973  27.208  23.964  1.00  0.00     0.198 A 
ATOM    102  C   UNL A   1      49.944  26.869  26.133  1.00  0.00     0.198 A 
ATOM    103  F   UNL A   1      48.732  27.437  28.068  1.00  0.00    -0.203 F 
ATOM    104  F   UNL A   1      49.043  27.096  22.630  1.00  0.00    -0.200 F 
ATOM    105  C   UNL A   1      50.030  26.779  24.752  1.00  0.00     0.200 A 
ATOM    106  F   UNL A   1      50.970  26.467  26.895  1.00  0.00    -0.200 F 
ATOM    107  F   UNL A   1      51.130  26.270  24.180  1.00  0.00    -0.200 F 
ENDBRANCH  74  97
ENDBRANCH  48  49
ENDBRANCH  41  43
ENDBRANCH  40  41
ENDBRANCH  39  40
ENDBRANCH  38  39
ENDBRANCH  37  38
ENDBRANCH  36  37
ENDBRANCH  35  36
ENDBRANCH  34  35
ENDBRANCH  33  34
ENDBRANCH   1  33
TORSDOF 26
ENDMDL
MODEL 2
REMARK VINA RESULT:      -9.2      1.009      6.898
REMARK SMILES CCCOC(=O)c1c(NC(=O)[C@@H]2CC=CC[C@H]2C(=O)OCCOCCOCCOCCOC(=O)c2ccc(-c3c4nc(c(-c5c(F)c(F)c(F)c(F)c5F)c5ccc([nH]5)c(-c5c(F)c(F)c(F)c(F)c5F)c5nc(c(-c6c(F)c(F)c(F)c(F)c6F)c6ccc3[nH]6)C=C5)C=C4)cc2)sc2c1CCCC2
REMARK SMILES IDX 24 1 23 2 22 3 21 4 20 5 18 6 19 7 17 8 12 9 13 10 14 11
REMARK SMILES IDX 16 12 15 13 10 14 9 15 11 17 8 18 7 19 100 20 98 21 99 22
REMARK SMILES IDX 101 23 104 24 102 25 103 26 5 27 6 28 4 29 3 30 2 31 1 32
REMARK SMILES IDX 25 33 26 34 27 35 28 36 29 37 30 38 31 39 32 40 33 41 34 42
REMARK SMILES IDX 35 43 36 44 97 45 37 46 96 47 38 48 39 49 40 50 90 51 41 52
REMARK SMILES IDX 95 53 89 54 91 55 42 56 94 57 88 58 87 59 43 61 75 62 55 63
REMARK SMILES IDX 74 64 56 65 59 66 73 67 92 68 57 69 58 70 72 72 93 73 60 74
REMARK SMILES IDX 44 75 45 76 53 77 46 78 47 79 51 80 54 81 48 82 49 83 52 84
REMARK SMILES IDX 50 85 76 86 77 87 85 88 78 89 79 90 83 91 86 92 80 93 81 94
REMARK SMILES IDX 84 95 82 96 61 97 62 98 70 99 63 100 64 101 68 102 71 103
REMARK SMILES IDX 65 104 66 105 69 106 67 107
REMARK H PARENT 9 16 91 60 59 71
REMARK Flexibility Score: inf
ROOT
ATOM      1  C   UNL A   1      34.458  32.003  28.278  1.00  0.00     0.188 C 
ENDROOT
BRANCH   1   2
ATOM      2  O   UNL A   1      34.056  31.502  27.002  1.00  0.00    -0.376 OA
BRANCH   2   3
ATOM      3  C   UNL A   1      32.693  31.222  26.733  1.00  0.00     0.202 C 
BRANCH   3   4
ATOM      4  C   UNL A   1      32.172  29.873  27.254  1.00  0.00     0.261 C 
BRANCH   4   5
ATOM      5  O   UNL A   1      32.742  28.682  26.666  1.00  0.00    -0.463 OA
BRANCH   5   6
ATOM      6  C   UNL A   1      32.063  27.527  26.899  1.00  0.00     0.310 C 
ATOM      7  O   UNL A   1      31.778  27.127  28.025  1.00  0.00    -0.252 OA
BRANCH   6   8
ATOM      8  C   UNL A   1      31.686  26.714  25.644  1.00  0.00     0.116 C 
ATOM      9  C   UNL A   1      30.166  26.532  25.320  1.00  0.00     0.097 C 
ATOM     10  C   UNL A   1      29.880  26.262  23.826  1.00  0.00     0.041 C 
ATOM     11  C   UNL A   1      30.705  27.032  22.860  1.00  0.00    -0.030 C 
ATOM     12  C   UNL A   1      32.526  27.377  24.523  1.00  0.00     0.043 C 
ATOM     13  C   UNL A   1      31.906  27.517  23.174  1.00  0.00    -0.030 C 
BRANCH   9  14
ATOM     14  C   UNL A   1      29.568  25.298  25.975  1.00  0.00     0.229 C 
ATOM     15  N   UNL A   1      30.243  24.145  26.211  1.00  0.00    -0.317 N 
ATOM     16  H   UNL A   1      29.737  23.545  26.805  1.00  0.00     0.170 HD
ATOM     17  O   UNL A   1      28.406  25.329  26.407  1.00  0.00    -0.274 OA
BRANCH  15  18
ATOM     18  C   UNL A   1      31.446  23.594  25.838  1.00  0.00     0.110 A 
ATOM     19  C   UNL A   1      32.105  23.086  24.734  1.00  0.00     0.098 A 
ATOM     20  C   UNL A   1      33.390  22.513  25.105  1.00  0.00    -0.017 A 
ATOM     21  S   UNL A   1      32.429  23.488  27.256  1.00  0.00    -0.122 S 
ATOM     22  C   UNL A   1      33.671  22.689  26.439  1.00  0.00     0.011 A 
ATOM     23  C   UNL A   1      34.374  21.847  24.178  1.00  0.00     0.038 C 
ATOM     24  C   UNL A   1      34.899  22.189  27.127  1.00  0.00     0.047 C 
ATOM     25  C   UNL A   1      35.452  21.060  24.937  1.00  0.00     0.005 C 
ATOM     26  C   UNL A   1      36.006  21.864  26.119  1.00  0.00     0.006 C 
BRANCH  19  27
ATOM     27  C   UNL A   1      31.695  23.094  23.345  1.00  0.00     0.341 C 
ATOM     28  O   UNL A   1      30.530  23.229  22.999  1.00  0.00    -0.246 OA
BRANCH  27  29
ATOM     29  O   UNL A   1      32.773  23.128  22.511  1.00  0.00    -0.462 OA
BRANCH  29  30
ATOM     30  C   UNL A   1      33.110  24.412  21.973  1.00  0.00     0.233 C 
BRANCH  30  31
ATOM     31  C   UNL A   1      32.358  24.721  20.687  1.00  0.00     0.038 C 
ATOM     32  C   UNL A   1      32.900  25.941  19.967  1.00  0.00     0.007 C 
ENDBRANCH  30  31
ENDBRANCH  29  30
ENDBRANCH  27  29
ENDBRANCH  19  27
ENDBRANCH  15  18
ENDBRANCH   9  14
ENDBRANCH   6   8
ENDBRANCH   5   6
ENDBRANCH   4   5
ENDBRANCH   3   4
ENDBRANCH   2   3
ENDBRANCH   1   2
BRANCH   1  33
ATOM     33  C   UNL A   1      34.980  33.434  28.436  1.00  0.00     0.188 C 
BRANCH  33  34
ATOM     34  O   UNL A   1      33.985  34.444  28.394  1.00  0.00    -0.377 OA
BRANCH  34  35
ATOM     35  C   UNL A   1      33.387  34.791  29.630  1.00  0.00     0.188 C 
BRANCH  35  36
ATOM     36  C   UNL A   1      34.334  34.784  30.833  1.00  0.00     0.188 C 
BRANCH  36  37
ATOM     37  O   UNL A   1      33.628  34.571  32.055  1.00  0.00    -0.376 OA
BRANCH  37  38
ATOM     38  C   UNL A   1      33.802  33.312  32.698  1.00  0.00     0.202 C 
BRANCH  38  39
ATOM     39  C   UNL A   1      34.805  32.346  32.045  1.00  0.00     0.261 C 
BRANCH  39  40
ATOM     40  O   UNL A   1      35.964  32.005  32.830  1.00  0.00    -0.460 OA
BRANCH  40  41
ATOM     41  C   UNL A   1      37.041  32.815  32.770  1.00  0.00     0.338 C 
ATOM     42  O   UNL A   1      37.213  33.868  33.351  1.00  0.00    -0.246 OA
BRANCH  41  43
ATOM     43  C   UNL A   1      38.085  32.108  32.002  1.00  0.00     0.060 A 
ATOM     44  C   UNL A   1      39.036  31.343  32.686  1.00  0.00     0.016 A 
ATOM     45  C   UNL A   1      38.136  32.221  30.613  1.00  0.00     0.016 A 
ATOM     46  C   UNL A   1      40.057  30.702  31.982  1.00  0.00     0.010 A 
ATOM     47  C   UNL A   1      39.175  31.599  29.914  1.00  0.00     0.010 A 
ATOM     48  C   UNL A   1      40.153  30.851  30.593  1.00  0.00    -0.014 A 
BRANCH  48  49
ATOM     49  C   UNL A   1      41.377  30.398  29.883  1.00  0.00     0.031 A 
ATOM     50  C   UNL A   1      41.374  29.026  29.262  1.00  0.00     0.074 A 
ATOM     51  C   UNL A   1      42.456  31.193  29.752  1.00  0.00     0.049 A 
ATOM     52  N   UNL A   1      42.293  28.434  28.544  1.00  0.00    -0.248 NA
ATOM     53  C   UNL A   1      40.173  28.207  29.495  1.00  0.00     0.031 C 
ATOM     54  C   UNL A   1      42.598  32.534  30.317  1.00  0.00     0.029 A 
ATOM     55  N   UNL A   1      43.639  30.984  29.085  1.00  0.00    -0.354 N 
ATOM     56  C   UNL A   1      41.780  27.179  28.243  1.00  0.00     0.074 A 
ATOM     57  C   UNL A   1      40.502  27.069  28.906  1.00  0.00     0.031 C 
ATOM     58  C   UNL A   1      43.792  33.037  29.954  1.00  0.00     0.029 A 
ATOM     59  C   UNL A   1      44.502  32.051  29.140  1.00  0.00     0.049 A 
ATOM     60  H   UNL A   1      43.848  30.146  28.612  1.00  0.00     0.167 HD
ATOM     61  C   UNL A   1      42.307  26.212  27.455  1.00  0.00     0.037 A 
ATOM     62  C   UNL A   1      45.720  32.213  28.583  1.00  0.00     0.037 A 
ATOM     63  C   UNL A   1      43.566  26.322  26.773  1.00  0.00     0.049 A 
ATOM     64  C   UNL A   1      46.295  31.115  27.722  1.00  0.00     0.074 A 
ATOM     65  C   UNL A   1      44.171  25.411  25.925  1.00  0.00     0.029 A 
ATOM     66  N   UNL A   1      44.415  27.414  26.863  1.00  0.00    -0.354 N 
ATOM     67  N   UNL A   1      45.773  29.958  27.394  1.00  0.00    -0.248 NA
ATOM     68  C   UNL A   1      47.626  31.355  27.142  1.00  0.00     0.031 C 
ATOM     69  C   UNL A   1      45.408  25.937  25.532  1.00  0.00     0.029 A 
ATOM     70  C   UNL A   1      45.550  27.193  26.101  1.00  0.00     0.049 A 
ATOM     71  H   UNL A   1      44.237  28.226  27.391  1.00  0.00     0.167 HD
ATOM     72  C   UNL A   1      46.696  29.344  26.555  1.00  0.00     0.074 A 
ATOM     73  C   UNL A   1      47.801  30.268  26.405  1.00  0.00     0.031 C 
ATOM     74  C   UNL A   1      46.638  28.126  25.963  1.00  0.00     0.037 A 
BRANCH  61  75
ATOM     75  C   UNL A   1      41.508  24.953  27.296  1.00  0.00     0.064 A 
ATOM     76  C   UNL A   1      40.347  24.914  26.508  1.00  0.00     0.173 A 
ATOM     77  C   UNL A   1      41.904  23.774  27.943  1.00  0.00     0.173 A 
ATOM     78  F   UNL A   1      39.916  26.023  25.888  1.00  0.00    -0.203 F 
ATOM     79  C   UNL A   1      39.592  23.749  26.404  1.00  0.00     0.198 A 
ATOM     80  C   UNL A   1      41.162  22.603  27.812  1.00  0.00     0.198 A 
ATOM     81  F   UNL A   1      43.005  23.759  28.710  1.00  0.00    -0.203 F 
ATOM     82  F   UNL A   1      38.454  23.752  25.695  1.00  0.00    -0.200 F 
ATOM     83  C   UNL A   1      40.003  22.594  27.050  1.00  0.00     0.200 A 
ATOM     84  F   UNL A   1      41.563  21.485  28.433  1.00  0.00    -0.200 F 
ATOM     85  F   UNL A   1      39.273  21.474  26.951  1.00  0.00    -0.200 F 
ENDBRANCH  61  75
BRANCH  62  86
ATOM     86  C   UNL A   1      46.480  33.476  28.791  1.00  0.00     0.064 A 
ATOM     87  C   UNL A   1      46.348  34.555  27.905  1.00  0.00     0.173 A 
ATOM     88  C   UNL A   1      47.383  33.614  29.854  1.00  0.00     0.173 A 
ATOM     89  F   UNL A   1      45.517  34.462  26.856  1.00  0.00    -0.203 F 
ATOM     90  C   UNL A   1      47.108  35.713  28.059  1.00  0.00     0.198 A 
ATOM     91  C   UNL A   1      48.124  34.783  30.024  1.00  0.00     0.198 A 
ATOM     92  F   UNL A   1      47.549  32.612  30.730  1.00  0.00    -0.203 F 
ATOM     93  F   UNL A   1      47.001  36.707  27.167  1.00  0.00    -0.200 F 
ATOM     94  C   UNL A   1      47.992  35.827  29.121  1.00  0.00     0.200 A 
ATOM     95  F   UNL A   1      48.971  34.893  31.056  1.00  0.00    -0.200 F 
ATOM     96  F   UNL A   1      48.726  36.939  29.268  1.00  0.00    -0.200 F 
ENDBRANCH  62  86
BRANCH  74  97
ATOM     97  C   UNL A   1      47.790  27.730  25.085  1.00  0.00     0.064 A 
ATOM     98  C   UNL A   1      48.970  27.193  25.621  1.00  0.00     0.173 A 
ATOM     99  C   UNL A   1      47.698  27.854  23.690  1.00  0.00     0.173 A 
ATOM    100  F   UNL A   1      49.112  27.066  26.948  1.00  0.00    -0.203 F 
ATOM    101  C   UNL A   1      50.027  26.822  24.793  1.00  0.00     0.198 A 
ATOM    102  C   UNL A   1      48.746  27.455  22.864  1.00  0.00     0.198 A 
ATOM    103  F   UNL A   1      46.587  28.352  23.127  1.00  0.00    -0.203 F 
ATOM    104  F   UNL A   1      51.164  26.358  25.330  1.00  0.00    -0.200 F 
ATOM    105  C   UNL A   1      49.912  26.948  23.416  1.00  0.00     0.200 A 
ATOM    106  F   UNL A   1      48.627  27.564  21.534  1.00  0.00    -0.200 F 
ATOM    107  F   UNL A   1      50.929  26.587  22.622  1.00  0.00    -0.200 F 
ENDBRANCH  74  97
ENDBRANCH  48  49
ENDBRANCH  41  43
ENDBRANCH  40  41
ENDBRANCH  39  40
ENDBRANCH  38  39
ENDBRANCH  37  38
ENDBRANCH  36  37
ENDBRANCH  35  36
ENDBRANCH  34  35
ENDBRANCH  33  34
ENDBRANCH   1  33
TORSDOF 26
ENDMDL
MODEL 3
REMARK VINA RESULT:      -9.0      4.128      8.617
REMARK SMILES CCCOC(=O)c1c(NC(=O)[C@@H]2CC=CC[C@H]2C(=O)OCCOCCOCCOCCOC(=O)c2ccc(-c3c4nc(c(-c5c(F)c(F)c(F)c(F)c5F)c5ccc([nH]5)c(-c5c(F)c(F)c(F)c(F)c5F)c5nc(c(-c6c(F)c(F)c(F)c(F)c6F)c6ccc3[nH]6)C=C5)C=C4)cc2)sc2c1CCCC2
REMARK SMILES IDX 24 1 23 2 22 3 21 4 20 5 18 6 19 7 17 8 12 9 13 10 14 11
REMARK SMILES IDX 16 12 15 13 10 14 9 15 11 17 8 18 7 19 100 20 98 21 99 22
REMARK SMILES IDX 101 23 104 24 102 25 103 26 5 27 6 28 4 29 3 30 2 31 1 32
REMARK SMILES IDX 25 33 26 34 27 35 28 36 29 37 30 38 31 39 32 40 33 41 34 42
REMARK SMILES IDX 35 43 36 44 97 45 37 46 96 47 38 48 39 49 40 50 90 51 41 52
REMARK SMILES IDX 95 53 89 54 91 55 42 56 94 57 88 58 87 59 43 61 75 62 55 63
REMARK SMILES IDX 74 64 56 65 59 66 73 67 92 68 57 69 58 70 72 72 93 73 60 74
REMARK SMILES IDX 44 75 45 76 53 77 46 78 47 79 51 80 54 81 48 82 49 83 52 84
REMARK SMILES IDX 50 85 76 86 77 87 85 88 78 89 79 90 83 91 86 92 80 93 81 94
REMARK SMILES IDX 84 95 82 96 61 97 62 98 70 99 63 100 64 101 68 102 71 103
REMARK SMILES IDX 65 104 66 105 69 106 67 107
REMARK H PARENT 9 16 91 60 59 71
REMARK Flexibility Score: inf
ROOT
ATOM      1  C   UNL A   1      31.207  26.118  22.278  1.00  0.00     0.188 C 
ENDROOT
BRANCH   1   2
ATOM      2  O   UNL A   1      30.410  27.265  22.578  1.00  0.00    -0.376 OA
BRANCH   2   3
ATOM      3  C   UNL A   1      29.290  27.160  23.439  1.00  0.00     0.202 C 
BRANCH   3   4
ATOM      4  C   UNL A   1      29.525  26.394  24.751  1.00  0.00     0.261 C 
BRANCH   4   5
ATOM      5  O   UNL A   1      30.644  26.818  25.563  1.00  0.00    -0.463 OA
BRANCH   5   6
ATOM      6  C   UNL A   1      31.676  25.936  25.650  1.00  0.00     0.310 C 
ATOM      7  O   UNL A   1      32.843  26.279  25.825  1.00  0.00    -0.252 OA
BRANCH   6   8
ATOM      8  C   UNL A   1      31.296  24.451  25.486  1.00  0.00     0.116 C 
ATOM      9  C   UNL A   1      32.456  23.404  25.405  1.00  0.00     0.097 C 
ATOM     10  C   UNL A   1      32.037  21.982  25.836  1.00  0.00     0.041 C 
ATOM     11  C   UNL A   1      31.115  21.904  26.999  1.00  0.00    -0.030 C 
ATOM     12  C   UNL A   1      30.272  24.216  26.626  1.00  0.00     0.043 C 
ATOM     13  C   UNL A   1      30.308  22.908  27.339  1.00  0.00    -0.030 C 
BRANCH   9  14
ATOM     14  C   UNL A   1      32.935  23.165  23.983  1.00  0.00     0.229 C 
ATOM     15  N   UNL A   1      34.180  22.740  23.649  1.00  0.00    -0.317 N 
ATOM     16  H   UNL A   1      34.229  22.470  22.704  1.00  0.00     0.170 HD
ATOM     17  O   UNL A   1      32.144  23.281  23.035  1.00  0.00    -0.274 OA
BRANCH  15  18
ATOM     18  C   UNL A   1      35.391  22.589  24.283  1.00  0.00     0.110 A 
ATOM     19  C   UNL A   1      36.232  21.614  24.787  1.00  0.00     0.098 A 
ATOM     20  C   UNL A   1      37.361  22.204  25.489  1.00  0.00    -0.017 A 
ATOM     21  S   UNL A   1      36.037  24.169  24.549  1.00  0.00    -0.122 S 
ATOM     22  C   UNL A   1      37.363  23.576  25.409  1.00  0.00     0.011 A 
ATOM     23  C   UNL A   1      38.468  21.458  26.188  1.00  0.00     0.038 C 
ATOM     24  C   UNL A   1      38.374  24.468  26.050  1.00  0.00     0.047 C 
ATOM     25  C   UNL A   1      39.298  22.369  27.105  1.00  0.00     0.005 C 
ATOM     26  C   UNL A   1      39.645  23.693  26.417  1.00  0.00     0.006 C 
BRANCH  19  27
ATOM     27  C   UNL A   1      36.129  20.174  24.669  1.00  0.00     0.341 C 
ATOM     28  O   UNL A   1      37.053  19.420  24.935  1.00  0.00    -0.246 OA
BRANCH  27  29
ATOM     29  O   UNL A   1      34.845  19.789  24.419  1.00  0.00    -0.462 OA
BRANCH  29  30
ATOM     30  C   UNL A   1      34.452  18.524  24.964  1.00  0.00     0.233 C 
BRANCH  30  31
ATOM     31  C   UNL A   1      34.873  17.354  24.086  1.00  0.00     0.038 C 
ATOM     32  C   UNL A   1      33.709  16.723  23.348  1.00  0.00     0.007 C 
ENDBRANCH  30  31
ENDBRANCH  29  30
ENDBRANCH  27  29
ENDBRANCH  19  27
ENDBRANCH  15  18
ENDBRANCH   9  14
ENDBRANCH   6   8
ENDBRANCH   5   6
ENDBRANCH   4   5
ENDBRANCH   3   4
ENDBRANCH   2   3
ENDBRANCH   1   2
BRANCH   1  33
ATOM     33  C   UNL A   1      32.091  26.075  21.028  1.00  0.00     0.188 C 
BRANCH  33  34
ATOM     34  O   UNL A   1      33.436  26.478  21.230  1.00  0.00    -0.377 OA
BRANCH  34  35
ATOM     35  C   UNL A   1      33.729  27.098  22.469  1.00  0.00     0.188 C 
BRANCH  35  36
ATOM     36  C   UNL A   1      34.347  28.495  22.363  1.00  0.00     0.188 C 
BRANCH  36  37
ATOM     37  O   UNL A   1      33.832  29.374  23.362  1.00  0.00    -0.376 OA
BRANCH  37  38
ATOM     38  C   UNL A   1      32.625  28.987  24.012  1.00  0.00     0.202 C 
BRANCH  38  39
ATOM     39  C   UNL A   1      32.149  29.892  25.160  1.00  0.00     0.261 C 
BRANCH  39  40
ATOM     40  O   UNL A   1      32.915  29.831  26.379  1.00  0.00    -0.460 OA
BRANCH  40  41
ATOM     41  C   UNL A   1      33.306  30.988  26.950  1.00  0.00     0.338 C 
ATOM     42  O   UNL A   1      32.661  32.011  27.077  1.00  0.00    -0.246 OA
BRANCH  41  43
ATOM     43  C   UNL A   1      34.622  30.752  27.577  1.00  0.00     0.060 A 
ATOM     44  C   UNL A   1      35.026  29.438  27.841  1.00  0.00     0.016 A 
ATOM     45  C   UNL A   1      35.442  31.825  27.922  1.00  0.00     0.016 A 
ATOM     46  C   UNL A   1      36.247  29.195  28.472  1.00  0.00     0.010 A 
ATOM     47  C   UNL A   1      36.652  31.579  28.576  1.00  0.00     0.010 A 
ATOM     48  C   UNL A   1      37.056  30.266  28.873  1.00  0.00    -0.014 A 
BRANCH  48  49
ATOM     49  C   UNL A   1      38.213  30.022  29.773  1.00  0.00     0.031 A 
ATOM     50  C   UNL A   1      39.367  29.211  29.245  1.00  0.00     0.074 A 
ATOM     51  C   UNL A   1      38.266  30.537  31.016  1.00  0.00     0.049 A 
ATOM     52  N   UNL A   1      40.508  28.916  29.813  1.00  0.00    -0.248 NA
ATOM     53  C   UNL A   1      39.205  28.646  27.896  1.00  0.00     0.031 C 
ATOM     54  C   UNL A   1      37.213  31.325  31.655  1.00  0.00     0.029 A 
ATOM     55  N   UNL A   1      39.263  30.481  31.960  1.00  0.00    -0.354 N 
ATOM     56  C   UNL A   1      41.193  28.135  28.892  1.00  0.00     0.074 A 
ATOM     57  C   UNL A   1      40.320  27.946  27.758  1.00  0.00     0.031 C 
ATOM     58  C   UNL A   1      37.629  31.698  32.879  1.00  0.00     0.029 A 
ATOM     59  C   UNL A   1      38.972  31.168  33.113  1.00  0.00     0.049 A 
ATOM     60  H   UNL A   1      40.107  29.994  31.822  1.00  0.00     0.167 HD
ATOM     61  C   UNL A   1      42.452  27.643  28.965  1.00  0.00     0.037 A 
ATOM     62  C   UNL A   1      39.714  31.355  34.224  1.00  0.00     0.037 A 
ATOM     63  C   UNL A   1      43.336  27.844  30.078  1.00  0.00     0.049 A 
ATOM     64  C   UNL A   1      41.110  30.784  34.289  1.00  0.00     0.074 A 
ATOM     65  C   UNL A   1      44.642  27.415  30.234  1.00  0.00     0.029 A 
ATOM     66  N   UNL A   1      43.000  28.535  31.233  1.00  0.00    -0.354 N 
ATOM     67  N   UNL A   1      41.770  30.098  33.386  1.00  0.00    -0.248 NA
ATOM     68  C   UNL A   1      41.868  31.025  35.527  1.00  0.00     0.031 C 
ATOM     69  C   UNL A   1      45.084  27.814  31.500  1.00  0.00     0.029 A 
ATOM     70  C   UNL A   1      44.068  28.529  32.115  1.00  0.00     0.049 A 
ATOM     71  H   UNL A   1      42.131  28.966  31.400  1.00  0.00     0.167 HD
ATOM     72  C   UNL A   1      43.023  29.849  33.934  1.00  0.00     0.074 A 
ATOM     73  C   UNL A   1      43.040  30.475  35.239  1.00  0.00     0.031 C 
ATOM     74  C   UNL A   1      44.066  29.161  33.408  1.00  0.00     0.037 A 
BRANCH  61  75
ATOM     75  C   UNL A   1      42.938  26.839  27.795  1.00  0.00     0.064 A 
ATOM     76  C   UNL A   1      42.701  25.458  27.704  1.00  0.00     0.173 A 
ATOM     77  C   UNL A   1      43.653  27.454  26.758  1.00  0.00     0.173 A 
ATOM     78  F   UNL A   1      42.041  24.821  28.683  1.00  0.00    -0.203 F 
ATOM     79  C   UNL A   1      43.193  24.718  26.634  1.00  0.00     0.198 A 
ATOM     80  C   UNL A   1      44.119  26.715  25.675  1.00  0.00     0.198 A 
ATOM     81  F   UNL A   1      43.907  28.771  26.799  1.00  0.00    -0.203 F 
ATOM     82  F   UNL A   1      43.008  23.390  26.599  1.00  0.00    -0.200 F 
ATOM     83  C   UNL A   1      43.897  25.346  25.617  1.00  0.00     0.200 A 
ATOM     84  F   UNL A   1      44.793  27.324  24.689  1.00  0.00    -0.200 F 
ATOM     85  F   UNL A   1      44.373  24.631  24.589  1.00  0.00    -0.200 F 
ENDBRANCH  61  75
BRANCH  62  86
ATOM     86  C   UNL A   1      39.175  32.143  35.365  1.00  0.00     0.064 A 
ATOM     87  C   UNL A   1      39.440  33.515  35.488  1.00  0.00     0.173 A 
ATOM     88  C   UNL A   1      38.419  31.534  36.377  1.00  0.00     0.173 A 
ATOM     89  F   UNL A   1      40.182  34.139  34.560  1.00  0.00    -0.203 F 
ATOM     90  C   UNL A   1      38.993  34.241  36.590  1.00  0.00     0.198 A 
ATOM     91  C   UNL A   1      37.949  32.266  37.466  1.00  0.00     0.198 A 
ATOM     92  F   UNL A   1      38.138  30.225  36.310  1.00  0.00    -0.203 F 
ATOM     93  F   UNL A   1      39.307  35.538  36.708  1.00  0.00    -0.200 F 
ATOM     94  C   UNL A   1      38.245  33.617  37.576  1.00  0.00     0.200 A 
ATOM     95  F   UNL A   1      37.219  31.661  38.412  1.00  0.00    -0.200 F 
ATOM     96  F   UNL A   1      37.817  34.314  38.638  1.00  0.00    -0.200 F 
ENDBRANCH  62  86
BRANCH  74  97
ATOM     97  C   UNL A   1      45.317  29.067  34.233  1.00  0.00     0.064 A 
ATOM     98  C   UNL A   1      45.532  28.002  35.121  1.00  0.00     0.173 A 
ATOM     99  C   UNL A   1      46.328  30.032  34.106  1.00  0.00     0.173 A 
ATOM    100  F   UNL A   1      44.591  27.061  35.287  1.00  0.00    -0.203 F 
ATOM    101  C   UNL A   1      46.701  27.924  35.873  1.00  0.00     0.198 A 
ATOM    102  C   UNL A   1      47.508  29.934  34.839  1.00  0.00     0.198 A 
ATOM    103  F   UNL A   1      46.176  31.064  33.263  1.00  0.00    -0.203 F 
ATOM    104  F   UNL A   1      46.863  26.925  36.752  1.00  0.00    -0.200 F 
ATOM    105  C   UNL A   1      47.690  28.885  35.727  1.00  0.00     0.200 A 
ATOM    106  F   UNL A   1      48.468  30.856  34.686  1.00  0.00    -0.200 F 
ATOM    107  F   UNL A   1      48.816  28.806  36.450  1.00  0.00    -0.200 F 
ENDBRANCH  74  97
ENDBRANCH  48  49
ENDBRANCH  41  43
ENDBRANCH  40  41
ENDBRANCH  39  40
ENDBRANCH  38  39
ENDBRANCH  37  38
ENDBRANCH  36  37
ENDBRANCH  35  36
ENDBRANCH  34  35
ENDBRANCH  33  34
ENDBRANCH   1  33
TORSDOF 26
ENDMDL
