MODEL 1
REMARK VINA RESULT:     -11.3      0.000      0.000
REMARK SMILES CC(C)c1cc(N2CCC(C(=O)OCCOCCOCCOCCOC(=O)c3ccc(-c4c5nc(c(-c6c(F)c(F)c(F)c(F)c6F)c6ccc([nH]6)c(-c6c(F)c(F)c(F)c(F)c6F)c6nc(c(-c7c(F)c(F)c(F)c(F)c7F)c7ccc4[nH]7)C=C6)C=C5)cc3)CC2)nc(-c2ccc(F)cc2)n1
REMARK SMILES IDX 19 1 18 2 17 3 16 4 15 5 14 6 13 7 11 8 12 9 10 10 7 11 8 12
REMARK SMILES IDX 92 13 9 14 91 15 6 16 4 17 5 18 102 19 94 20 93 21 2 22 1 23
REMARK SMILES IDX 3 24 95 25 96 26 101 27 97 28 100 29 98 30 99 31 20 32 21 33
REMARK SMILES IDX 22 34 23 35 24 36 25 37 26 38 27 39 28 40 29 41 90 42 30 43
REMARK SMILES IDX 89 44 31 45 32 46 33 47 83 48 34 49 88 50 82 51 84 52 35 53
REMARK SMILES IDX 87 54 81 55 80 56 36 58 68 59 48 60 67 61 49 62 52 63 66 64
REMARK SMILES IDX 85 65 50 66 51 67 65 69 86 70 53 71 37 72 38 73 46 74 39 75
REMARK SMILES IDX 40 76 44 77 47 78 41 79 42 80 45 81 43 82 69 83 70 84 78 85
REMARK SMILES IDX 71 86 72 87 76 88 79 89 73 90 74 91 77 92 75 93 54 94 55 95
REMARK SMILES IDX 63 96 56 97 57 98 61 99 64 100 58 101 59 102 62 103 60 104
REMARK H PARENT 84 57 52 68
REMARK Flexibility Score: inf
ROOT
ATOM      1  O   UNL A   1      36.125  23.381  26.245  1.00  0.00    -0.377 OA
ENDROOT
BRANCH   1   2
ATOM      2  C   UNL A   1      34.900  24.050  26.045  1.00  0.00     0.188 C 
BRANCH   2   3
ATOM      3  C   UNL A   1      34.797  24.907  24.776  1.00  0.00     0.188 C 
BRANCH   3   4
ATOM      4  O   UNL A   1      33.998  24.486  23.681  1.00  0.00    -0.376 OA
BRANCH   4   5
ATOM      5  C   UNL A   1      34.328  23.301  22.972  1.00  0.00     0.202 C 
BRANCH   5   6
ATOM      6  C   UNL A   1      33.696  21.950  23.355  1.00  0.00     0.261 C 
BRANCH   6   7
ATOM      7  O   UNL A   1      32.257  21.860  23.311  1.00  0.00    -0.463 OA
BRANCH   7   8
ATOM      8  C   UNL A   1      31.619  21.825  24.507  1.00  0.00     0.309 C 
ATOM      9  O   UNL A   1      31.568  20.837  25.233  1.00  0.00    -0.252 OA
BRANCH   8  10
ATOM     10  C   UNL A   1      30.887  23.112  24.872  1.00  0.00     0.103 C 
ATOM     11  N   UNL A   1      30.824  25.946  24.959  1.00  0.00    -0.356 N 
ATOM     12  C   UNL A   1      30.824  25.282  26.241  1.00  0.00     0.119 C 
ATOM     13  C   UNL A   1      30.114  25.301  23.877  1.00  0.00     0.119 C 
ATOM     14  C   UNL A   1      31.416  23.895  26.081  1.00  0.00     0.037 C 
ATOM     15  C   UNL A   1      30.817  23.975  23.607  1.00  0.00     0.037 C 
BRANCH  11  16
ATOM     16  C   UNL A   1      31.047  27.298  25.016  1.00  0.00     0.132 A 
ATOM     17  C   UNL A   1      32.289  29.185  25.669  1.00  0.00     0.049 A 
ATOM     18  C   UNL A   1      32.037  27.833  25.807  1.00  0.00     0.071 A 
ATOM     19  N   UNL A   1      31.593  29.960  24.814  1.00  0.00    -0.233 NA
ATOM     20  C   UNL A   1      30.604  29.361  24.131  1.00  0.00     0.161 A 
ATOM     21  N   UNL A   1      30.317  28.055  24.184  1.00  0.00    -0.211 NA
BRANCH  17  22
ATOM     22  C   UNL A   1      33.425  29.814  26.449  1.00  0.00     0.032 C 
ATOM     23  C   UNL A   1      32.913  31.009  27.252  1.00  0.00     0.014 C 
ATOM     24  C   UNL A   1      34.120  28.799  27.358  1.00  0.00     0.014 C 
ENDBRANCH  17  22
BRANCH  20  25
ATOM     25  C   UNL A   1      29.731  30.205  23.309  1.00  0.00     0.019 A 
ATOM     26  C   UNL A   1      29.594  29.990  21.927  1.00  0.00     0.015 A 
ATOM     27  C   UNL A   1      29.022  31.278  23.889  1.00  0.00     0.015 A 
ATOM     28  C   UNL A   1      28.787  30.824  21.148  1.00  0.00     0.040 A 
ATOM     29  C   UNL A   1      28.231  32.123  23.108  1.00  0.00     0.040 A 
ATOM     30  C   UNL A   1      28.123  31.889  21.745  1.00  0.00     0.123 A 
ATOM     31  F   UNL A   1      27.370  32.703  20.993  1.00  0.00    -0.207 F 
ENDBRANCH  20  25
ENDBRANCH  11  16
ENDBRANCH   8  10
ENDBRANCH   7   8
ENDBRANCH   6   7
ENDBRANCH   5   6
ENDBRANCH   4   5
ENDBRANCH   3   4
ENDBRANCH   2   3
ENDBRANCH   1   2
BRANCH   1  32
ATOM     32  C   UNL A   1      37.067  23.468  25.188  1.00  0.00     0.188 C 
BRANCH  32  33
ATOM     33  C   UNL A   1      37.484  22.144  24.524  1.00  0.00     0.188 C 
BRANCH  33  34
ATOM     34  O   UNL A   1      37.145  20.983  25.274  1.00  0.00    -0.376 OA
BRANCH  34  35
ATOM     35  C   UNL A   1      37.775  19.749  24.952  1.00  0.00     0.202 C 
BRANCH  35  36
ATOM     36  C   UNL A   1      39.158  19.463  25.567  1.00  0.00     0.261 C 
BRANCH  36  37
ATOM     37  O   UNL A   1      39.573  20.326  26.640  1.00  0.00    -0.460 OA
BRANCH  37  38
ATOM     38  C   UNL A   1      40.898  20.481  26.846  1.00  0.00     0.338 C 
ATOM     39  O   UNL A   1      41.783  19.710  26.541  1.00  0.00    -0.246 OA
BRANCH  38  40
ATOM     40  C   UNL A   1      41.129  21.865  27.318  1.00  0.00     0.060 A 
ATOM     41  C   UNL A   1      40.509  22.910  26.622  1.00  0.00     0.016 A 
ATOM     42  C   UNL A   1      41.954  22.136  28.412  1.00  0.00     0.016 A 
ATOM     43  C   UNL A   1      40.746  24.232  26.991  1.00  0.00     0.010 A 
ATOM     44  C   UNL A   1      42.213  23.466  28.766  1.00  0.00     0.010 A 
ATOM     45  C   UNL A   1      41.640  24.519  28.032  1.00  0.00    -0.014 A 
BRANCH  45  46
ATOM     46  C   UNL A   1      42.103  25.919  28.203  1.00  0.00     0.031 A 
ATOM     47  C   UNL A   1      43.438  26.310  27.627  1.00  0.00     0.074 A 
ATOM     48  C   UNL A   1      41.317  26.845  28.780  1.00  0.00     0.049 A 
ATOM     49  N   UNL A   1      44.033  27.476  27.618  1.00  0.00    -0.248 NA
ATOM     50  C   UNL A   1      44.202  25.241  26.964  1.00  0.00     0.031 C 
ATOM     51  C   UNL A   1      39.986  26.600  29.332  1.00  0.00     0.029 A 
ATOM     52  N   UNL A   1      41.527  28.186  28.989  1.00  0.00    -0.354 N 
ATOM     53  C   UNL A   1      45.232  27.283  26.944  1.00  0.00     0.074 A 
ATOM     54  C   UNL A   1      45.301  25.882  26.593  1.00  0.00     0.031 C 
ATOM     55  C   UNL A   1      39.498  27.753  29.821  1.00  0.00     0.029 A 
ATOM     56  C   UNL A   1      40.493  28.811  29.643  1.00  0.00     0.049 A 
ATOM     57  H   UNL A   1      42.342  28.656  28.699  1.00  0.00     0.167 HD
ATOM     58  C   UNL A   1      46.182  28.195  26.632  1.00  0.00     0.037 A 
ATOM     59  C   UNL A   1      40.377  30.084  30.064  1.00  0.00     0.037 A 
ATOM     60  C   UNL A   1      46.116  29.589  26.989  1.00  0.00     0.049 A 
ATOM     61  C   UNL A   1      41.494  31.059  29.779  1.00  0.00     0.074 A 
ATOM     62  C   UNL A   1      47.031  30.592  26.721  1.00  0.00     0.029 A 
ATOM     63  N   UNL A   1      45.077  30.174  27.697  1.00  0.00    -0.354 N 
ATOM     64  N   UNL A   1      42.612  30.875  29.119  1.00  0.00    -0.248 NA
ATOM     65  C   UNL A   1      41.324  32.426  30.292  1.00  0.00     0.031 C 
ATOM     66  C   UNL A   1      46.571  31.773  27.315  1.00  0.00     0.029 A 
ATOM     67  C   UNL A   1      45.340  31.519  27.897  1.00  0.00     0.049 A 
ATOM     68  H   UNL A   1      44.271  29.703  28.010  1.00  0.00     0.167 HD
ATOM     69  C   UNL A   1      43.261  32.104  29.112  1.00  0.00     0.074 A 
ATOM     70  C   UNL A   1      42.397  33.034  29.808  1.00  0.00     0.031 C 
ATOM     71  C   UNL A   1      44.467  32.435  28.586  1.00  0.00     0.037 A 
BRANCH  58  72
ATOM     72  C   UNL A   1      47.390  27.716  25.882  1.00  0.00     0.064 A 
ATOM     73  C   UNL A   1      47.435  27.718  24.479  1.00  0.00     0.173 A 
ATOM     74  C   UNL A   1      48.539  27.303  26.574  1.00  0.00     0.173 A 
ATOM     75  F   UNL A   1      46.358  28.088  23.770  1.00  0.00    -0.203 F 
ATOM     76  C   UNL A   1      48.580  27.312  23.797  1.00  0.00     0.198 A 
ATOM     77  C   UNL A   1      49.692  26.925  25.890  1.00  0.00     0.198 A 
ATOM     78  F   UNL A   1      48.550  27.282  27.914  1.00  0.00    -0.203 F 
ATOM     79  F   UNL A   1      48.587  27.287  22.458  1.00  0.00    -0.200 F 
ATOM     80  C   UNL A   1      49.709  26.926  24.503  1.00  0.00     0.200 A 
ATOM     81  F   UNL A   1      50.787  26.566  26.573  1.00  0.00    -0.200 F 
ATOM     82  F   UNL A   1      50.816  26.552  23.846  1.00  0.00    -0.200 F 
ENDBRANCH  58  72
BRANCH  59  83
ATOM     83  C   UNL A   1      39.172  30.523  30.823  1.00  0.00     0.064 A 
ATOM     84  C   UNL A   1      39.118  30.431  32.222  1.00  0.00     0.173 A 
ATOM     85  C   UNL A   1      38.025  30.981  30.157  1.00  0.00     0.173 A 
ATOM     86  F   UNL A   1      40.178  29.974  32.904  1.00  0.00    -0.203 F 
ATOM     87  C   UNL A   1      37.952  30.742  32.919  1.00  0.00     0.198 A 
ATOM     88  C   UNL A   1      36.872  31.326  30.860  1.00  0.00     0.198 A 
ATOM     89  F   UNL A   1      38.019  31.084  28.821  1.00  0.00    -0.203 F 
ATOM     90  F   UNL A   1      37.906  30.574  34.248  1.00  0.00    -0.200 F 
ATOM     91  C   UNL A   1      36.832  31.193  32.239  1.00  0.00     0.200 A 
ATOM     92  F   UNL A   1      35.797  31.774  30.199  1.00  0.00    -0.200 F 
ATOM     93  F   UNL A   1      35.709  31.484  32.910  1.00  0.00    -0.200 F 
ENDBRANCH  59  83
BRANCH  71  94
ATOM     94  C   UNL A   1      44.899  33.870  28.708  1.00  0.00     0.064 A 
ATOM     95  C   UNL A   1      45.646  34.327  29.805  1.00  0.00     0.173 A 
ATOM     96  C   UNL A   1      44.567  34.800  27.711  1.00  0.00     0.173 A 
ATOM     97  F   UNL A   1      45.980  33.484  30.793  1.00  0.00    -0.203 F 
ATOM     98  C   UNL A   1      46.000  35.669  29.922  1.00  0.00     0.198 A 
ATOM     99  C   UNL A   1      44.957  36.133  27.811  1.00  0.00     0.198 A 
ATOM    100  F   UNL A   1      43.866  34.417  26.633  1.00  0.00    -0.203 F 
ATOM    101  F   UNL A   1      46.648  36.095  31.015  1.00  0.00    -0.200 F 
ATOM    102  C   UNL A   1      45.659  36.569  28.924  1.00  0.00     0.200 A 
ATOM    103  F   UNL A   1      44.645  36.997  26.836  1.00  0.00    -0.200 F 
ATOM    104  F   UNL A   1      45.999  37.860  29.039  1.00  0.00    -0.200 F 
ENDBRANCH  71  94
ENDBRANCH  45  46
ENDBRANCH  38  40
ENDBRANCH  37  38
ENDBRANCH  36  37
ENDBRANCH  35  36
ENDBRANCH  34  35
ENDBRANCH  33  34
ENDBRANCH  32  33
ENDBRANCH   1  32
TORSDOF 23
ENDMDL
MODEL 2
REMARK VINA RESULT:     -11.1      1.134      2.328
REMARK SMILES CC(C)c1cc(N2CCC(C(=O)OCCOCCOCCOCCOC(=O)c3ccc(-c4c5nc(c(-c6c(F)c(F)c(F)c(F)c6F)c6ccc([nH]6)c(-c6c(F)c(F)c(F)c(F)c6F)c6nc(c(-c7c(F)c(F)c(F)c(F)c7F)c7ccc4[nH]7)C=C6)C=C5)cc3)CC2)nc(-c2ccc(F)cc2)n1
REMARK SMILES IDX 19 1 18 2 17 3 16 4 15 5 14 6 13 7 11 8 12 9 10 10 7 11 8 12
REMARK SMILES IDX 92 13 9 14 91 15 6 16 4 17 5 18 102 19 94 20 93 21 2 22 1 23
REMARK SMILES IDX 3 24 95 25 96 26 101 27 97 28 100 29 98 30 99 31 20 32 21 33
REMARK SMILES IDX 22 34 23 35 24 36 25 37 26 38 27 39 28 40 29 41 90 42 30 43
REMARK SMILES IDX 89 44 31 45 32 46 33 47 83 48 34 49 88 50 82 51 84 52 35 53
REMARK SMILES IDX 87 54 81 55 80 56 36 58 68 59 48 60 67 61 49 62 52 63 66 64
REMARK SMILES IDX 85 65 50 66 51 67 65 69 86 70 53 71 37 72 38 73 46 74 39 75
REMARK SMILES IDX 40 76 44 77 47 78 41 79 42 80 45 81 43 82 69 83 70 84 78 85
REMARK SMILES IDX 71 86 72 87 76 88 79 89 73 90 74 91 77 92 75 93 54 94 55 95
REMARK SMILES IDX 63 96 56 97 57 98 61 99 64 100 58 101 59 102 62 103 60 104
REMARK H PARENT 84 57 52 68
REMARK Flexibility Score: inf
ROOT
ATOM      1  O   UNL A   1      35.668  23.218  26.436  1.00  0.00    -0.377 OA
ENDROOT
BRANCH   1   2
ATOM      2  C   UNL A   1      34.652  24.182  26.274  1.00  0.00     0.188 C 
BRANCH   2   3
ATOM      3  C   UNL A   1      34.765  25.082  25.035  1.00  0.00     0.188 C 
BRANCH   3   4
ATOM      4  O   UNL A   1      34.266  24.648  23.779  1.00  0.00    -0.376 OA
BRANCH   4   5
ATOM      5  C   UNL A   1      34.761  23.455  23.189  1.00  0.00     0.202 C 
BRANCH   5   6
ATOM      6  C   UNL A   1      34.136  22.089  23.528  1.00  0.00     0.261 C 
BRANCH   6   7
ATOM      7  O   UNL A   1      32.735  21.915  23.235  1.00  0.00    -0.463 OA
BRANCH   7   8
ATOM      8  C   UNL A   1      31.911  21.762  24.302  1.00  0.00     0.309 C 
ATOM      9  O   UNL A   1      31.832  20.737  24.971  1.00  0.00    -0.252 OA
BRANCH   8  10
ATOM     10  C   UNL A   1      31.012  22.961  24.584  1.00  0.00     0.103 C 
ATOM     11  N   UNL A   1      30.696  25.765  24.869  1.00  0.00    -0.356 N 
ATOM     12  C   UNL A   1      30.462  24.986  26.062  1.00  0.00     0.119 C 
ATOM     13  C   UNL A   1      30.305  25.181  23.607  1.00  0.00     0.119 C 
ATOM     14  C   UNL A   1      31.188  23.661  25.939  1.00  0.00     0.037 C 
ATOM     15  C   UNL A   1      31.157  23.932  23.406  1.00  0.00     0.037 C 
BRANCH  11  16
ATOM     16  C   UNL A   1      30.788  27.117  25.078  1.00  0.00     0.132 A 
ATOM     17  C   UNL A   1      31.717  29.012  26.116  1.00  0.00     0.049 A 
ATOM     18  C   UNL A   1      31.559  27.640  26.091  1.00  0.00     0.071 A 
ATOM     19  N   UNL A   1      31.133  29.817  25.205  1.00  0.00    -0.233 NA
ATOM     20  C   UNL A   1      30.347  29.221  24.294  1.00  0.00     0.161 A 
ATOM     21  N   UNL A   1      30.168  27.900  24.183  1.00  0.00    -0.211 NA
BRANCH  17  22
ATOM     22  C   UNL A   1      32.625  29.639  27.153  1.00  0.00     0.032 C 
ATOM     23  C   UNL A   1      33.999  28.972  27.121  1.00  0.00     0.014 C 
ATOM     24  C   UNL A   1      32.745  31.152  26.962  1.00  0.00     0.014 C 
ENDBRANCH  17  22
BRANCH  20  25
ATOM     25  C   UNL A   1      29.578  30.080  23.388  1.00  0.00     0.019 A 
ATOM     26  C   UNL A   1      29.147  29.618  22.132  1.00  0.00     0.015 A 
ATOM     27  C   UNL A   1      29.273  31.408  23.748  1.00  0.00     0.015 A 
ATOM     28  C   UNL A   1      28.446  30.457  21.261  1.00  0.00     0.040 A 
ATOM     29  C   UNL A   1      28.589  32.253  22.872  1.00  0.00     0.040 A 
ATOM     30  C   UNL A   1      28.184  31.769  21.636  1.00  0.00     0.123 A 
ATOM     31  F   UNL A   1      27.534  32.580  20.790  1.00  0.00    -0.207 F 
ENDBRANCH  20  25
ENDBRANCH  11  16
ENDBRANCH   8  10
ENDBRANCH   7   8
ENDBRANCH   6   7
ENDBRANCH   5   6
ENDBRANCH   4   5
ENDBRANCH   3   4
ENDBRANCH   2   3
ENDBRANCH   1   2
BRANCH   1  32
ATOM     32  C   UNL A   1      36.949  23.567  25.936  1.00  0.00     0.188 C 
BRANCH  32  33
ATOM     33  C   UNL A   1      37.967  22.423  25.785  1.00  0.00     0.188 C 
BRANCH  33  34
ATOM     34  O   UNL A   1      37.397  21.121  25.871  1.00  0.00    -0.376 OA
BRANCH  34  35
ATOM     35  C   UNL A   1      37.820  20.123  24.950  1.00  0.00     0.202 C 
BRANCH  35  36
ATOM     36  C   UNL A   1      38.981  19.201  25.369  1.00  0.00     0.261 C 
BRANCH  36  37
ATOM     37  O   UNL A   1      39.866  19.706  26.385  1.00  0.00    -0.460 OA
BRANCH  37  38
ATOM     38  C   UNL A   1      41.193  19.546  26.199  1.00  0.00     0.338 C 
ATOM     39  O   UNL A   1      41.759  18.570  25.752  1.00  0.00    -0.246 OA
BRANCH  38  40
ATOM     40  C   UNL A   1      41.848  20.853  26.427  1.00  0.00     0.060 A 
ATOM     41  C   UNL A   1      42.189  21.198  27.740  1.00  0.00     0.016 A 
ATOM     42  C   UNL A   1      42.109  21.734  25.375  1.00  0.00     0.016 A 
ATOM     43  C   UNL A   1      42.751  22.443  28.012  1.00  0.00     0.010 A 
ATOM     44  C   UNL A   1      42.650  22.995  25.651  1.00  0.00     0.010 A 
ATOM     45  C   UNL A   1      42.937  23.369  26.976  1.00  0.00    -0.014 A 
BRANCH  45  46
ATOM     46  C   UNL A   1      43.248  24.776  27.330  1.00  0.00     0.031 A 
ATOM     47  C   UNL A   1      44.628  25.303  27.038  1.00  0.00     0.074 A 
ATOM     48  C   UNL A   1      42.299  25.596  27.817  1.00  0.00     0.049 A 
ATOM     49  N   UNL A   1      45.119  26.502  27.223  1.00  0.00    -0.248 NA
ATOM     50  C   UNL A   1      45.582  24.347  26.453  1.00  0.00     0.031 C 
ATOM     51  C   UNL A   1      40.916  25.217  28.096  1.00  0.00     0.029 A 
ATOM     52  N   UNL A   1      42.360  26.926  28.157  1.00  0.00    -0.354 N 
ATOM     53  C   UNL A   1      46.431  26.447  26.769  1.00  0.00     0.074 A 
ATOM     54  C   UNL A   1      46.674  25.088  26.337  1.00  0.00     0.031 C 
ATOM     55  C   UNL A   1      40.257  26.290  28.568  1.00  0.00     0.029 A 
ATOM     56  C   UNL A   1      41.180  27.422  28.652  1.00  0.00     0.049 A 
ATOM     57  H   UNL A   1      43.173  27.471  28.056  1.00  0.00     0.167 HD
ATOM     58  C   UNL A   1      47.345  27.443  26.703  1.00  0.00     0.037 A 
ATOM     59  C   UNL A   1      40.888  28.645  29.135  1.00  0.00     0.037 A 
ATOM     60  C   UNL A   1      47.104  28.794  27.141  1.00  0.00     0.049 A 
ATOM     61  C   UNL A   1      41.956  29.712  29.131  1.00  0.00     0.074 A 
ATOM     62  C   UNL A   1      47.968  29.875  27.118  1.00  0.00     0.029 A 
ATOM     63  N   UNL A   1      45.912  29.246  27.686  1.00  0.00    -0.354 N 
ATOM     64  N   UNL A   1      43.184  29.659  28.677  1.00  0.00    -0.248 NA
ATOM     65  C   UNL A   1      41.588  31.016  29.701  1.00  0.00     0.031 C 
ATOM     66  C   UNL A   1      47.317  30.967  27.701  1.00  0.00     0.029 A 
ATOM     67  C   UNL A   1      46.026  30.584  28.026  1.00  0.00     0.049 A 
ATOM     68  H   UNL A   1      45.104  28.698  27.811  1.00  0.00     0.167 HD
ATOM     69  C   UNL A   1      43.723  30.924  28.877  1.00  0.00     0.074 A 
ATOM     70  C   UNL A   1      42.677  31.732  29.467  1.00  0.00     0.031 C 
ATOM     71  C   UNL A   1      44.973  31.378  28.607  1.00  0.00     0.037 A 
BRANCH  58  72
ATOM     72  C   UNL A   1      48.702  27.110  26.155  1.00  0.00     0.064 A 
ATOM     73  C   UNL A   1      49.736  26.645  26.982  1.00  0.00     0.173 A 
ATOM     74  C   UNL A   1      48.955  27.202  24.778  1.00  0.00     0.173 A 
ATOM     75  F   UNL A   1      49.551  26.554  28.308  1.00  0.00    -0.203 F 
ATOM     76  C   UNL A   1      50.977  26.297  26.452  1.00  0.00     0.198 A 
ATOM     77  C   UNL A   1      50.186  26.826  24.248  1.00  0.00     0.198 A 
ATOM     78  F   UNL A   1      48.001  27.640  23.943  1.00  0.00    -0.203 F 
ATOM     79  F   UNL A   1      51.961  25.891  27.265  1.00  0.00    -0.200 F 
ATOM     80  C   UNL A   1      51.196  26.378  25.085  1.00  0.00     0.200 A 
ATOM     81  F   UNL A   1      50.393  26.891  22.925  1.00  0.00    -0.200 F 
ATOM     82  F   UNL A   1      52.385  26.028  24.575  1.00  0.00    -0.200 F 
ENDBRANCH  58  72
BRANCH  59  83
ATOM     83  C   UNL A   1      39.536  28.937  29.689  1.00  0.00     0.064 A 
ATOM     84  C   UNL A   1      38.547  29.555  28.909  1.00  0.00     0.173 A 
ATOM     85  C   UNL A   1      39.229  28.665  31.031  1.00  0.00     0.173 A 
ATOM     86  F   UNL A   1      38.799  29.862  27.628  1.00  0.00    -0.203 F 
ATOM     87  C   UNL A   1      37.321  29.923  29.460  1.00  0.00     0.198 A 
ATOM     88  C   UNL A   1      37.989  29.001  31.570  1.00  0.00     0.198 A 
ATOM     89  F   UNL A   1      40.138  28.080  31.824  1.00  0.00    -0.203 F 
ATOM     90  F   UNL A   1      36.424  30.579  28.711  1.00  0.00    -0.200 F 
ATOM     91  C   UNL A   1      37.041  29.643  30.789  1.00  0.00     0.200 A 
ATOM     92  F   UNL A   1      37.720  28.716  32.850  1.00  0.00    -0.200 F 
ATOM     93  F   UNL A   1      35.866  30.005  31.319  1.00  0.00    -0.200 F 
ENDBRANCH  59  83
BRANCH  71  94
ATOM     94  C   UNL A   1      45.259  32.823  28.909  1.00  0.00     0.064 A 
ATOM     95  C   UNL A   1      44.977  33.842  27.987  1.00  0.00     0.173 A 
ATOM     96  C   UNL A   1      45.819  33.195  30.142  1.00  0.00     0.173 A 
ATOM     97  F   UNL A   1      44.452  33.542  26.789  1.00  0.00    -0.203 F 
ATOM     98  C   UNL A   1      45.289  35.170  28.267  1.00  0.00     0.198 A 
ATOM     99  C   UNL A   1      46.093  34.528  30.434  1.00  0.00     0.198 A 
ATOM    100  F   UNL A   1      46.098  32.265  31.068  1.00  0.00    -0.203 F 
ATOM    101  F   UNL A   1      45.078  36.115  27.340  1.00  0.00    -0.200 F 
ATOM    102  C   UNL A   1      45.842  35.513  29.491  1.00  0.00     0.200 A 
ATOM    103  F   UNL A   1      46.609  34.859  31.626  1.00  0.00    -0.200 F 
ATOM    104  F   UNL A   1      46.144  36.791  29.758  1.00  0.00    -0.200 F 
ENDBRANCH  71  94
ENDBRANCH  45  46
ENDBRANCH  38  40
ENDBRANCH  37  38
ENDBRANCH  36  37
ENDBRANCH  35  36
ENDBRANCH  34  35
ENDBRANCH  33  34
ENDBRANCH  32  33
ENDBRANCH   1  32
TORSDOF 23
ENDMDL
MODEL 3
REMARK VINA RESULT:     -11.0      1.334      2.690
REMARK SMILES CC(C)c1cc(N2CCC(C(=O)OCCOCCOCCOCCOC(=O)c3ccc(-c4c5nc(c(-c6c(F)c(F)c(F)c(F)c6F)c6ccc([nH]6)c(-c6c(F)c(F)c(F)c(F)c6F)c6nc(c(-c7c(F)c(F)c(F)c(F)c7F)c7ccc4[nH]7)C=C6)C=C5)cc3)CC2)nc(-c2ccc(F)cc2)n1
REMARK SMILES IDX 19 1 18 2 17 3 16 4 15 5 14 6 13 7 11 8 12 9 10 10 7 11 8 12
REMARK SMILES IDX 92 13 9 14 91 15 6 16 4 17 5 18 102 19 94 20 93 21 2 22 1 23
REMARK SMILES IDX 3 24 95 25 96 26 101 27 97 28 100 29 98 30 99 31 20 32 21 33
REMARK SMILES IDX 22 34 23 35 24 36 25 37 26 38 27 39 28 40 29 41 90 42 30 43
REMARK SMILES IDX 89 44 31 45 32 46 33 47 83 48 34 49 88 50 82 51 84 52 35 53
REMARK SMILES IDX 87 54 81 55 80 56 36 58 68 59 48 60 67 61 49 62 52 63 66 64
REMARK SMILES IDX 85 65 50 66 51 67 65 69 86 70 53 71 37 72 38 73 46 74 39 75
REMARK SMILES IDX 40 76 44 77 47 78 41 79 42 80 45 81 43 82 69 83 70 84 78 85
REMARK SMILES IDX 71 86 72 87 76 88 79 89 73 90 74 91 77 92 75 93 54 94 55 95
REMARK SMILES IDX 63 96 56 97 57 98 61 99 64 100 58 101 59 102 62 103 60 104
REMARK H PARENT 84 57 52 68
REMARK Flexibility Score: inf
ROOT
ATOM      1  O   UNL A   1      34.468  22.922  23.593  1.00  0.00    -0.377 OA
ENDROOT
BRANCH   1   2
ATOM      2  C   UNL A   1      33.325  23.433  22.944  1.00  0.00     0.188 C 
BRANCH   2   3
ATOM      3  C   UNL A   1      32.637  22.491  21.945  1.00  0.00     0.188 C 
BRANCH   3   4
ATOM      4  O   UNL A   1      31.747  21.482  22.397  1.00  0.00    -0.376 OA
BRANCH   4   5
ATOM      5  C   UNL A   1      32.253  20.233  22.843  1.00  0.00     0.202 C 
BRANCH   5   6
ATOM      6  C   UNL A   1      32.334  19.906  24.346  1.00  0.00     0.261 C 
BRANCH   6   7
ATOM      7  O   UNL A   1      31.751  20.856  25.260  1.00  0.00    -0.463 OA
BRANCH   7   8
ATOM      8  C   UNL A   1      32.612  21.518  26.072  1.00  0.00     0.309 C 
ATOM      9  O   UNL A   1      33.665  21.048  26.491  1.00  0.00    -0.252 OA
BRANCH   8  10
ATOM     10  C   UNL A   1      32.139  22.903  26.501  1.00  0.00     0.103 C 
ATOM     11  N   UNL A   1      31.459  25.571  25.823  1.00  0.00    -0.356 N 
ATOM     12  C   UNL A   1      32.612  25.419  26.679  1.00  0.00     0.119 C 
ATOM     13  C   UNL A   1      30.372  24.636  26.000  1.00  0.00     0.119 C 
ATOM     14  C   UNL A   1      33.184  24.027  26.498  1.00  0.00     0.037 C 
ATOM     15  C   UNL A   1      30.910  23.251  25.655  1.00  0.00     0.037 C 
BRANCH  11  16
ATOM     16  C   UNL A   1      31.295  26.830  25.303  1.00  0.00     0.132 A 
ATOM     17  C   UNL A   1      30.322  28.362  23.808  1.00  0.00     0.049 A 
ATOM     18  C   UNL A   1      30.566  27.047  24.157  1.00  0.00     0.071 A 
ATOM     19  N   UNL A   1      30.787  29.395  24.538  1.00  0.00    -0.233 NA
ATOM     20  C   UNL A   1      31.543  29.085  25.604  1.00  0.00     0.161 A 
ATOM     21  N   UNL A   1      31.798  27.840  26.025  1.00  0.00    -0.211 NA
BRANCH  17  22
ATOM     22  C   UNL A   1      29.451  28.664  22.607  1.00  0.00     0.032 C 
ATOM     23  C   UNL A   1      27.978  28.457  22.959  1.00  0.00     0.014 C 
ATOM     24  C   UNL A   1      29.692  30.077  22.071  1.00  0.00     0.014 C 
ENDBRANCH  17  22
BRANCH  20  25
ATOM     25  C   UNL A   1      32.188  30.183  26.328  1.00  0.00     0.019 A 
ATOM     26  C   UNL A   1      31.568  31.438  26.459  1.00  0.00     0.015 A 
ATOM     27  C   UNL A   1      33.469  30.013  26.894  1.00  0.00     0.015 A 
ATOM     28  C   UNL A   1      32.209  32.489  27.121  1.00  0.00     0.040 A 
ATOM     29  C   UNL A   1      34.118  31.068  27.538  1.00  0.00     0.040 A 
ATOM     30  C   UNL A   1      33.482  32.296  27.644  1.00  0.00     0.123 A 
ATOM     31  F   UNL A   1      34.106  33.312  28.255  1.00  0.00    -0.207 F 
ENDBRANCH  20  25
ENDBRANCH  11  16
ENDBRANCH   8  10
ENDBRANCH   7   8
ENDBRANCH   6   7
ENDBRANCH   5   6
ENDBRANCH   4   5
ENDBRANCH   3   4
ENDBRANCH   2   3
ENDBRANCH   1   2
BRANCH   1  32
ATOM     32  C   UNL A   1      35.721  23.310  23.054  1.00  0.00     0.188 C 
BRANCH  32  33
ATOM     33  C   UNL A   1      36.970  22.651  23.664  1.00  0.00     0.188 C 
BRANCH  33  34
ATOM     34  O   UNL A   1      36.731  21.976  24.894  1.00  0.00    -0.376 OA
BRANCH  34  35
ATOM     35  C   UNL A   1      36.993  20.581  24.975  1.00  0.00     0.202 C 
BRANCH  35  36
ATOM     36  C   UNL A   1      38.448  20.132  25.209  1.00  0.00     0.261 C 
BRANCH  36  37
ATOM     37  O   UNL A   1      39.041  20.510  26.464  1.00  0.00    -0.460 OA
BRANCH  37  38
ATOM     38  C   UNL A   1      40.383  20.645  26.509  1.00  0.00     0.338 C 
ATOM     39  O   UNL A   1      41.213  19.893  26.042  1.00  0.00    -0.246 OA
BRANCH  38  40
ATOM     40  C   UNL A   1      40.691  21.991  27.042  1.00  0.00     0.060 A 
ATOM     41  C   UNL A   1      40.069  23.093  26.444  1.00  0.00     0.016 A 
ATOM     42  C   UNL A   1      41.586  22.172  28.099  1.00  0.00     0.016 A 
ATOM     43  C   UNL A   1      40.375  24.384  26.870  1.00  0.00     0.010 A 
ATOM     44  C   UNL A   1      41.912  23.470  28.510  1.00  0.00     0.010 A 
ATOM     45  C   UNL A   1      41.336  24.582  27.870  1.00  0.00    -0.014 A 
BRANCH  45  46
ATOM     46  C   UNL A   1      41.859  25.954  28.091  1.00  0.00     0.031 A 
ATOM     47  C   UNL A   1      43.213  26.305  27.535  1.00  0.00     0.074 A 
ATOM     48  C   UNL A   1      41.109  26.894  28.694  1.00  0.00     0.049 A 
ATOM     49  N   UNL A   1      43.858  27.444  27.569  1.00  0.00    -0.248 NA
ATOM     50  C   UNL A   1      43.935  25.227  26.841  1.00  0.00     0.031 C 
ATOM     51  C   UNL A   1      39.766  26.688  29.230  1.00  0.00     0.029 A 
ATOM     52  N   UNL A   1      41.376  28.217  28.949  1.00  0.00    -0.354 N 
ATOM     53  C   UNL A   1      45.052  27.221  26.895  1.00  0.00     0.074 A 
ATOM     54  C   UNL A   1      45.063  25.831  26.498  1.00  0.00     0.031 C 
ATOM     55  C   UNL A   1      39.325  27.845  29.755  1.00  0.00     0.029 A 
ATOM     56  C   UNL A   1      40.366  28.863  29.618  1.00  0.00     0.049 A 
ATOM     57  H   UNL A   1      42.213  28.660  28.679  1.00  0.00     0.167 HD
ATOM     58  C   UNL A   1      46.043  28.101  26.619  1.00  0.00     0.037 A 
ATOM     59  C   UNL A   1      40.302  30.126  30.081  1.00  0.00     0.037 A 
ATOM     60  C   UNL A   1      46.035  29.483  27.022  1.00  0.00     0.049 A 
ATOM     61  C   UNL A   1      41.462  31.060  29.835  1.00  0.00     0.074 A 
ATOM     62  C   UNL A   1      46.995  30.455  26.793  1.00  0.00     0.029 A 
ATOM     63  N   UNL A   1      45.018  30.089  27.744  1.00  0.00    -0.354 N 
ATOM     64  N   UNL A   1      42.576  30.849  29.175  1.00  0.00    -0.248 NA
ATOM     65  C   UNL A   1      41.349  32.415  30.393  1.00  0.00     0.031 C 
ATOM     66  C   UNL A   1      46.583  31.634  27.424  1.00  0.00     0.029 A 
ATOM     67  C   UNL A   1      45.337  31.415  27.990  1.00  0.00     0.049 A 
ATOM     68  H   UNL A   1      44.190  29.643  28.037  1.00  0.00     0.167 HD
ATOM     69  C   UNL A   1      43.277  32.048  29.213  1.00  0.00     0.074 A 
ATOM     70  C   UNL A   1      42.450  32.992  29.935  1.00  0.00     0.031 C 
ATOM     71  C   UNL A   1      44.500  32.344  28.705  1.00  0.00     0.037 A 
BRANCH  58  72
ATOM     72  C   UNL A   1      47.234  27.594  25.859  1.00  0.00     0.064 A 
ATOM     73  C   UNL A   1      47.309  27.684  24.461  1.00  0.00     0.173 A 
ATOM     74  C   UNL A   1      48.340  27.065  26.543  1.00  0.00     0.173 A 
ATOM     75  F   UNL A   1      46.273  28.167  23.759  1.00  0.00    -0.203 F 
ATOM     76  C   UNL A   1      48.440  27.250  23.774  1.00  0.00     0.198 A 
ATOM     77  C   UNL A   1      49.482  26.660  25.855  1.00  0.00     0.198 A 
ATOM     78  F   UNL A   1      48.321  26.958  27.879  1.00  0.00    -0.203 F 
ATOM     79  F   UNL A   1      48.475  27.311  22.436  1.00  0.00    -0.200 F 
ATOM     80  C   UNL A   1      49.528  26.749  24.472  1.00  0.00     0.200 A 
ATOM     81  F   UNL A   1      50.538  26.188  26.532  1.00  0.00    -0.200 F 
ATOM     82  F   UNL A   1      50.623  26.347  23.811  1.00  0.00    -0.200 F 
ENDBRANCH  58  72
BRANCH  59  83
ATOM     83  C   UNL A   1      39.113  30.592  30.848  1.00  0.00     0.064 A 
ATOM     84  C   UNL A   1      39.023  30.411  32.236  1.00  0.00     0.173 A 
ATOM     85  C   UNL A   1      38.011  31.166  30.195  1.00  0.00     0.173 A 
ATOM     86  F   UNL A   1      40.037  29.841  32.904  1.00  0.00    -0.203 F 
ATOM     87  C   UNL A   1      37.865  30.751  32.933  1.00  0.00     0.198 A 
ATOM     88  C   UNL A   1      36.869  31.539  30.901  1.00  0.00     0.198 A 
ATOM     89  F   UNL A   1      38.040  31.359  28.869  1.00  0.00    -0.203 F 
ATOM     90  F   UNL A   1      37.780  30.498  34.247  1.00  0.00    -0.200 F 
ATOM     91  C   UNL A   1      36.790  31.318  32.267  1.00  0.00     0.200 A 
ATOM     92  F   UNL A   1      35.838  32.099  30.253  1.00  0.00    -0.200 F 
ATOM     93  F   UNL A   1      35.675  31.636  32.936  1.00  0.00    -0.200 F 
ENDBRANCH  59  83
BRANCH  71  94
ATOM     94  C   UNL A   1      44.993  33.754  28.877  1.00  0.00     0.064 A 
ATOM     95  C   UNL A   1      44.718  34.755  27.933  1.00  0.00     0.173 A 
ATOM     96  C   UNL A   1      45.747  34.111  30.007  1.00  0.00     0.173 A 
ATOM     97  F   UNL A   1      44.012  34.466  26.829  1.00  0.00    -0.203 F 
ATOM     98  C   UNL A   1      45.220  36.045  28.088  1.00  0.00     0.198 A 
ATOM     99  C   UNL A   1      46.213  35.411  30.178  1.00  0.00     0.198 A 
ATOM    100  F   UNL A   1      46.029  33.199  30.949  1.00  0.00    -0.203 F 
ATOM    101  F   UNL A   1      45.007  36.963  27.135  1.00  0.00    -0.200 F 
ATOM    102  C   UNL A   1      45.963  36.373  29.212  1.00  0.00     0.200 A 
ATOM    103  F   UNL A   1      46.913  35.732  31.275  1.00  0.00    -0.200 F 
ATOM    104  F   UNL A   1      46.447  37.614  29.358  1.00  0.00    -0.200 F 
ENDBRANCH  71  94
ENDBRANCH  45  46
ENDBRANCH  38  40
ENDBRANCH  37  38
ENDBRANCH  36  37
ENDBRANCH  35  36
ENDBRANCH  34  35
ENDBRANCH  33  34
ENDBRANCH  32  33
ENDBRANCH   1  32
TORSDOF 23
ENDMDL
