MODEL 1
REMARK VINA RESULT:     -11.7      0.000      0.000
REMARK SMILES Cc1ccccc1S(=O)(=O)Nc1ccc(N2CCOCC2)cc1C(=O)OCCOCCOCCOCCOC(=O)c1ccc(-c2c3nc(c(-c4c(F)c(F)c(F)c(F)c4F)c4ccc([nH]4)c(-c4c(F)c(F)c(F)c(F)c4F)c4nc(c(-c5c(F)c(F)c(F)c(F)c5F)c5ccc2[nH]5)C=C4)C=C3)cc1
REMARK SMILES IDX 31 1 30 2 29 3 28 4 27 5 26 6 24 7 25 8 23 9 12 10 13 11
REMARK SMILES IDX 14 12 22 13 15 14 11 15 8 17 9 18 10 19 7 20 1 21 2 22 3 23
REMARK SMILES IDX 4 24 6 25 5 26 16 27 17 28 21 29 18 30 20 31 19 32 32 33
REMARK SMILES IDX 33 34 34 35 35 36 36 37 37 38 38 39 39 40 40 41 41 42 42 43
REMARK SMILES IDX 103 44 43 45 102 46 44 47 45 48 46 49 96 50 47 51 101 52
REMARK SMILES IDX 95 53 97 54 48 55 100 56 94 57 93 58 49 60 81 61 61 62 80 63
REMARK SMILES IDX 62 64 65 65 79 66 98 67 63 68 64 69 78 71 99 72 66 73 50 74
REMARK SMILES IDX 51 75 59 76 52 77 53 78 57 79 60 80 54 81 55 82 58 83 56 84
REMARK SMILES IDX 82 85 83 86 91 87 84 88 85 89 89 90 92 91 86 92 87 93 90 94
REMARK SMILES IDX 88 95 67 96 68 97 76 98 69 99 70 100 74 101 77 102 71 103
REMARK SMILES IDX 72 104 75 105 73 106
REMARK H PARENT 11 16 97 59 65 70
REMARK Flexibility Score: inf
ROOT
ATOM      1  C   UNL A   1      41.044  21.191  27.667  1.00  0.00     0.188 C 
ENDROOT
BRANCH   1   2
ATOM      2  C   UNL A   1      40.302  21.495  26.366  1.00  0.00     0.188 C 
BRANCH   2   3
ATOM      3  O   UNL A   1      38.965  21.956  26.515  1.00  0.00    -0.376 OA
BRANCH   3   4
ATOM      4  C   UNL A   1      38.710  23.216  25.877  1.00  0.00     0.202 C 
BRANCH   4   5
ATOM      5  C   UNL A   1      37.265  23.702  25.766  1.00  0.00     0.261 C 
BRANCH   5   6
ATOM      6  O   UNL A   1      36.329  22.671  25.477  1.00  0.00    -0.460 OA
BRANCH   6   7
ATOM      7  C   UNL A   1      35.727  22.809  24.292  1.00  0.00     0.340 C 
ATOM      8  O   UNL A   1      36.219  23.240  23.260  1.00  0.00    -0.246 OA
BRANCH   7   9
ATOM      9  C   UNL A   1      34.531  21.968  24.303  1.00  0.00     0.086 A 
ATOM     10  C   UNL A   1      33.398  22.549  23.717  1.00  0.00     0.064 A 
ATOM     11  C   UNL A   1      32.175  21.999  24.024  1.00  0.00     0.030 A 
ATOM     12  C   UNL A   1      32.147  20.694  24.559  1.00  0.00     0.028 A 
ATOM     13  C   UNL A   1      34.525  20.631  24.733  1.00  0.00     0.043 A 
ATOM     14  C   UNL A   1      33.321  19.916  24.712  1.00  0.00     0.038 A 
BRANCH  10  15
ATOM     15  N   UNL A   1      33.608  23.554  22.728  1.00  0.00    -0.279 N 
ATOM     16  H   UNL A   1      34.264  23.302  22.038  1.00  0.00     0.180 HD
BRANCH  15  17
ATOM     17  S   UNL A   1      32.955  25.079  22.517  1.00  0.00     0.262 S 
ATOM     18  O   UNL A   1      31.554  24.730  22.321  1.00  0.00    -0.201 OA
ATOM     19  O   UNL A   1      33.681  25.731  21.451  1.00  0.00    -0.201 OA
BRANCH  17  20
ATOM     20  C   UNL A   1      32.904  26.276  23.887  1.00  0.00     0.090 A 
ATOM     21  C   UNL A   1      31.238  28.000  23.008  1.00  0.00     0.046 C 
ATOM     22  C   UNL A   1      32.031  27.360  24.071  1.00  0.00    -0.031 A 
ATOM     23  C   UNL A   1      31.961  28.048  25.306  1.00  0.00     0.005 A 
ATOM     24  C   UNL A   1      32.817  27.743  26.342  1.00  0.00     0.000 A 
ATOM     25  C   UNL A   1      33.780  25.996  24.957  1.00  0.00     0.022 A 
ATOM     26  C   UNL A   1      33.732  26.718  26.161  1.00  0.00     0.001 A 
ENDBRANCH  17  20
ENDBRANCH  15  17
ENDBRANCH  10  15
BRANCH  14  27
ATOM     27  N   UNL A   1      33.284  18.525  24.634  1.00  0.00    -0.367 N 
ATOM     28  C   UNL A   1      32.624  17.689  25.657  1.00  0.00     0.145 C 
ATOM     29  C   UNL A   1      33.538  17.844  23.343  1.00  0.00     0.145 C 
ATOM     30  C   UNL A   1      33.193  16.253  25.687  1.00  0.00     0.181 C 
ATOM     31  C   UNL A   1      34.080  16.420  23.534  1.00  0.00     0.181 C 
ATOM     32  O   UNL A   1      33.226  15.652  24.385  1.00  0.00    -0.378 OA
ENDBRANCH  14  27
ENDBRANCH   7   9
ENDBRANCH   6   7
ENDBRANCH   5   6
ENDBRANCH   4   5
ENDBRANCH   3   4
ENDBRANCH   2   3
ENDBRANCH   1   2
BRANCH   1  33
ATOM     33  O   UNL A   1      41.807  20.000  27.786  1.00  0.00    -0.377 OA
BRANCH  33  34
ATOM     34  C   UNL A   1      42.076  19.386  26.532  1.00  0.00     0.188 C 
BRANCH  34  35
ATOM     35  C   UNL A   1      42.957  18.137  26.521  1.00  0.00     0.188 C 
BRANCH  35  36
ATOM     36  O   UNL A   1      43.846  18.255  25.408  1.00  0.00    -0.376 OA
BRANCH  36  37
ATOM     37  C   UNL A   1      45.245  18.185  25.663  1.00  0.00     0.202 C 
BRANCH  37  38
ATOM     38  C   UNL A   1      46.090  19.361  25.153  1.00  0.00     0.261 C 
BRANCH  38  39
ATOM     39  O   UNL A   1      45.498  20.590  25.613  1.00  0.00    -0.460 OA
BRANCH  39  40
ATOM     40  C   UNL A   1      44.639  21.184  24.735  1.00  0.00     0.338 C 
ATOM     41  O   UNL A   1      44.544  20.920  23.563  1.00  0.00    -0.246 OA
BRANCH  40  42
ATOM     42  C   UNL A   1      44.016  22.383  25.385  1.00  0.00     0.060 A 
ATOM     43  C   UNL A   1      43.426  23.379  24.589  1.00  0.00     0.016 A 
ATOM     44  C   UNL A   1      44.278  22.650  26.725  1.00  0.00     0.016 A 
ATOM     45  C   UNL A   1      43.204  24.672  25.102  1.00  0.00     0.010 A 
ATOM     46  C   UNL A   1      44.146  23.947  27.195  1.00  0.00     0.010 A 
ATOM     47  C   UNL A   1      43.619  24.986  26.399  1.00  0.00    -0.014 A 
BRANCH  47  48
ATOM     48  C   UNL A   1      43.768  26.355  26.962  1.00  0.00     0.031 A 
ATOM     49  C   UNL A   1      42.514  27.191  27.222  1.00  0.00     0.074 A 
ATOM     50  C   UNL A   1      44.935  26.669  27.586  1.00  0.00     0.049 A 
ATOM     51  N   UNL A   1      42.442  28.331  27.843  1.00  0.00    -0.248 NA
ATOM     52  C   UNL A   1      41.192  26.783  26.738  1.00  0.00     0.031 C 
ATOM     53  C   UNL A   1      44.987  27.456  28.797  1.00  0.00     0.029 A 
ATOM     54  N   UNL A   1      46.262  26.226  27.487  1.00  0.00    -0.354 N 
ATOM     55  C   UNL A   1      41.107  28.632  28.109  1.00  0.00     0.074 A 
ATOM     56  C   UNL A   1      40.382  27.691  27.294  1.00  0.00     0.031 C 
ATOM     57  C   UNL A   1      46.198  27.479  29.350  1.00  0.00     0.029 A 
ATOM     58  C   UNL A   1      47.076  27.045  28.324  1.00  0.00     0.049 A 
ATOM     59  H   UNL A   1      46.579  25.475  26.933  1.00  0.00     0.167 HD
ATOM     60  C   UNL A   1      40.759  29.560  29.071  1.00  0.00     0.037 A 
ATOM     61  C   UNL A   1      47.987  27.914  27.801  1.00  0.00     0.037 A 
ATOM     62  C   UNL A   1      41.931  30.342  29.575  1.00  0.00     0.049 A 
ATOM     63  C   UNL A   1      47.509  29.379  27.804  1.00  0.00     0.074 A 
ATOM     64  C   UNL A   1      42.353  30.848  30.801  1.00  0.00     0.029 A 
ATOM     65  N   UNL A   1      43.013  30.581  28.726  1.00  0.00    -0.354 N 
ATOM     66  N   UNL A   1      46.474  29.842  28.480  1.00  0.00    -0.248 NA
ATOM     67  C   UNL A   1      48.120  30.431  27.000  1.00  0.00     0.031 C 
ATOM     68  C   UNL A   1      43.677  31.373  30.662  1.00  0.00     0.029 A 
ATOM     69  C   UNL A   1      44.056  31.238  29.341  1.00  0.00     0.049 A 
ATOM     70  H   UNL A   1      43.028  30.307  27.781  1.00  0.00     0.167 HD
ATOM     71  C   UNL A   1      46.188  31.132  28.111  1.00  0.00     0.074 A 
ATOM     72  C   UNL A   1      47.280  31.463  27.206  1.00  0.00     0.031 C 
ATOM     73  C   UNL A   1      45.077  31.842  28.499  1.00  0.00     0.037 A 
BRANCH  60  74
ATOM     74  C   UNL A   1      39.350  29.679  29.738  1.00  0.00     0.064 A 
ATOM     75  C   UNL A   1      38.247  30.225  29.030  1.00  0.00     0.173 A 
ATOM     76  C   UNL A   1      39.039  29.398  31.092  1.00  0.00     0.173 A 
ATOM     77  F   UNL A   1      38.308  30.450  27.712  1.00  0.00    -0.203 F 
ATOM     78  C   UNL A   1      37.015  30.547  29.632  1.00  0.00     0.198 A 
ATOM     79  C   UNL A   1      37.777  29.636  31.671  1.00  0.00     0.198 A 
ATOM     80  F   UNL A   1      39.945  28.924  31.951  1.00  0.00    -0.203 F 
ATOM     81  F   UNL A   1      36.061  31.158  28.913  1.00  0.00    -0.200 F 
ATOM     82  C   UNL A   1      36.776  30.245  30.951  1.00  0.00     0.200 A 
ATOM     83  F   UNL A   1      37.556  29.287  32.948  1.00  0.00    -0.200 F 
ATOM     84  F   UNL A   1      35.597  30.530  31.523  1.00  0.00    -0.200 F 
ENDBRANCH  60  74
BRANCH  61  85
ATOM     85  C   UNL A   1      48.942  27.114  26.960  1.00  0.00     0.064 A 
ATOM     86  C   UNL A   1      48.744  27.335  25.570  1.00  0.00     0.173 A 
ATOM     87  C   UNL A   1      50.273  27.003  27.396  1.00  0.00     0.173 A 
ATOM     88  F   UNL A   1      47.494  27.408  25.082  1.00  0.00    -0.203 F 
ATOM     89  C   UNL A   1      49.792  27.765  24.753  1.00  0.00     0.198 A 
ATOM     90  C   UNL A   1      51.323  27.423  26.567  1.00  0.00     0.198 A 
ATOM     91  F   UNL A   1      50.532  26.747  28.687  1.00  0.00    -0.203 F 
ATOM     92  F   UNL A   1      49.537  28.219  23.516  1.00  0.00    -0.200 F 
ATOM     93  C   UNL A   1      51.071  27.867  25.274  1.00  0.00     0.200 A 
ATOM     94  F   UNL A   1      52.560  27.551  27.072  1.00  0.00    -0.200 F 
ATOM     95  F   UNL A   1      52.040  28.462  24.562  1.00  0.00    -0.200 F 
ENDBRANCH  61  85
BRANCH  73  96
ATOM     96  C   UNL A   1      44.769  33.248  28.035  1.00  0.00     0.064 A 
ATOM     97  C   UNL A   1      44.995  34.372  28.834  1.00  0.00     0.173 A 
ATOM     98  C   UNL A   1      44.125  33.495  26.793  1.00  0.00     0.173 A 
ATOM     99  F   UNL A   1      45.462  34.240  30.084  1.00  0.00    -0.203 F 
ATOM    100  C   UNL A   1      44.724  35.663  28.372  1.00  0.00     0.198 A 
ATOM    101  C   UNL A   1      43.795  34.776  26.364  1.00  0.00     0.198 A 
ATOM    102  F   UNL A   1      43.806  32.508  25.944  1.00  0.00    -0.203 F 
ATOM    103  F   UNL A   1      45.043  36.717  29.133  1.00  0.00    -0.200 F 
ATOM    104  C   UNL A   1      44.131  35.864  27.137  1.00  0.00     0.200 A 
ATOM    105  F   UNL A   1      43.167  34.944  25.191  1.00  0.00    -0.200 F 
ATOM    106  F   UNL A   1      43.880  37.104  26.695  1.00  0.00    -0.200 F 
ENDBRANCH  73  96
ENDBRANCH  47  48
ENDBRANCH  40  42
ENDBRANCH  39  40
ENDBRANCH  38  39
ENDBRANCH  37  38
ENDBRANCH  36  37
ENDBRANCH  35  36
ENDBRANCH  34  35
ENDBRANCH  33  34
ENDBRANCH   1  33
TORSDOF 24
ENDMDL
MODEL 2
REMARK VINA RESULT:     -11.6      1.250      2.176
REMARK SMILES Cc1ccccc1S(=O)(=O)Nc1ccc(N2CCOCC2)cc1C(=O)OCCOCCOCCOCCOC(=O)c1ccc(-c2c3nc(c(-c4c(F)c(F)c(F)c(F)c4F)c4ccc([nH]4)c(-c4c(F)c(F)c(F)c(F)c4F)c4nc(c(-c5c(F)c(F)c(F)c(F)c5F)c5ccc2[nH]5)C=C4)C=C3)cc1
REMARK SMILES IDX 31 1 30 2 29 3 28 4 27 5 26 6 24 7 25 8 23 9 12 10 13 11
REMARK SMILES IDX 14 12 22 13 15 14 11 15 8 17 9 18 10 19 7 20 1 21 2 22 3 23
REMARK SMILES IDX 4 24 6 25 5 26 16 27 17 28 21 29 18 30 20 31 19 32 32 33
REMARK SMILES IDX 33 34 34 35 35 36 36 37 37 38 38 39 39 40 40 41 41 42 42 43
REMARK SMILES IDX 103 44 43 45 102 46 44 47 45 48 46 49 96 50 47 51 101 52
REMARK SMILES IDX 95 53 97 54 48 55 100 56 94 57 93 58 49 60 81 61 61 62 80 63
REMARK SMILES IDX 62 64 65 65 79 66 98 67 63 68 64 69 78 71 99 72 66 73 50 74
REMARK SMILES IDX 51 75 59 76 52 77 53 78 57 79 60 80 54 81 55 82 58 83 56 84
REMARK SMILES IDX 82 85 83 86 91 87 84 88 85 89 89 90 92 91 86 92 87 93 90 94
REMARK SMILES IDX 88 95 67 96 68 97 76 98 69 99 70 100 74 101 77 102 71 103
REMARK SMILES IDX 72 104 75 105 73 106
REMARK H PARENT 11 16 97 59 65 70
REMARK Flexibility Score: inf
ROOT
ATOM      1  C   UNL A   1      40.982  20.988  26.568  1.00  0.00     0.188 C 
ENDROOT
BRANCH   1   2
ATOM      2  C   UNL A   1      39.825  20.308  25.837  1.00  0.00     0.188 C 
BRANCH   2   3
ATOM      3  O   UNL A   1      38.670  21.114  25.636  1.00  0.00    -0.376 OA
BRANCH   3   4
ATOM      4  C   UNL A   1      38.873  22.504  25.930  1.00  0.00     0.202 C 
BRANCH   4   5
ATOM      5  C   UNL A   1      37.702  23.470  25.749  1.00  0.00     0.261 C 
BRANCH   5   6
ATOM      6  O   UNL A   1      36.643  22.951  24.953  1.00  0.00    -0.460 OA
BRANCH   6   7
ATOM      7  C   UNL A   1      35.427  23.291  25.390  1.00  0.00     0.340 C 
ATOM      8  O   UNL A   1      35.077  24.376  25.829  1.00  0.00    -0.246 OA
BRANCH   7   9
ATOM      9  C   UNL A   1      34.478  22.312  24.863  1.00  0.00     0.086 A 
ATOM     10  C   UNL A   1      33.571  22.819  23.921  1.00  0.00     0.064 A 
ATOM     11  C   UNL A   1      32.436  22.083  23.676  1.00  0.00     0.030 A 
ATOM     12  C   UNL A   1      32.428  20.724  24.055  1.00  0.00     0.028 A 
ATOM     13  C   UNL A   1      34.535  20.939  25.152  1.00  0.00     0.043 A 
ATOM     14  C   UNL A   1      33.570  20.087  24.601  1.00  0.00     0.038 A 
BRANCH  10  15
ATOM     15  N   UNL A   1      33.968  23.968  23.177  1.00  0.00    -0.279 N 
ATOM     16  H   UNL A   1      34.880  23.910  22.810  1.00  0.00     0.180 HD
BRANCH  15  17
ATOM     17  S   UNL A   1      33.181  25.397  22.808  1.00  0.00     0.262 S 
ATOM     18  O   UNL A   1      31.853  24.883  22.501  1.00  0.00    -0.201 OA
ATOM     19  O   UNL A   1      33.938  26.070  21.777  1.00  0.00    -0.201 OA
BRANCH  17  20
ATOM     20  C   UNL A   1      32.862  26.650  24.088  1.00  0.00     0.090 A 
ATOM     21  C   UNL A   1      31.914  25.225  25.984  1.00  0.00     0.046 C 
ATOM     22  C   UNL A   1      32.502  26.458  25.432  1.00  0.00    -0.031 A 
ATOM     23  C   UNL A   1      32.529  27.524  26.362  1.00  0.00     0.005 A 
ATOM     24  C   UNL A   1      32.816  28.812  25.963  1.00  0.00     0.000 A 
ATOM     25  C   UNL A   1      33.134  27.980  23.703  1.00  0.00     0.022 A 
ATOM     26  C   UNL A   1      33.112  29.037  24.628  1.00  0.00     0.001 A 
ENDBRANCH  17  20
ENDBRANCH  15  17
ENDBRANCH  10  15
BRANCH  14  27
ATOM     27  N   UNL A   1      33.801  18.727  24.409  1.00  0.00    -0.367 N 
ATOM     28  C   UNL A   1      32.857  17.854  23.683  1.00  0.00     0.145 C 
ATOM     29  C   UNL A   1      35.169  18.175  24.559  1.00  0.00     0.145 C 
ATOM     30  C   UNL A   1      33.007  16.372  24.091  1.00  0.00     0.181 C 
ATOM     31  C   UNL A   1      35.156  16.689  24.945  1.00  0.00     0.181 C 
ATOM     32  O   UNL A   1      34.368  15.924  24.029  1.00  0.00    -0.378 OA
ENDBRANCH  14  27
ENDBRANCH   7   9
ENDBRANCH   6   7
ENDBRANCH   5   6
ENDBRANCH   4   5
ENDBRANCH   3   4
ENDBRANCH   2   3
ENDBRANCH   1   2
BRANCH   1  33
ATOM     33  O   UNL A   1      42.151  20.247  26.886  1.00  0.00    -0.377 OA
BRANCH  33  34
ATOM     34  C   UNL A   1      42.190  18.974  26.255  1.00  0.00     0.188 C 
BRANCH  34  35
ATOM     35  C   UNL A   1      43.405  18.082  26.515  1.00  0.00     0.188 C 
BRANCH  35  36
ATOM     36  O   UNL A   1      44.202  18.097  25.329  1.00  0.00    -0.376 OA
BRANCH  36  37
ATOM     37  C   UNL A   1      45.469  18.745  25.387  1.00  0.00     0.202 C 
BRANCH  37  38
ATOM     38  C   UNL A   1      45.903  19.503  24.124  1.00  0.00     0.261 C 
BRANCH  38  39
ATOM     39  O   UNL A   1      46.260  20.849  24.491  1.00  0.00    -0.460 OA
BRANCH  39  40
ATOM     40  C   UNL A   1      45.212  21.716  24.604  1.00  0.00     0.338 C 
ATOM     41  O   UNL A   1      44.189  21.661  23.971  1.00  0.00    -0.246 OA
BRANCH  40  42
ATOM     42  C   UNL A   1      45.626  22.887  25.444  1.00  0.00     0.060 A 
ATOM     43  C   UNL A   1      45.225  22.956  26.788  1.00  0.00     0.016 A 
ATOM     44  C   UNL A   1      46.143  24.023  24.829  1.00  0.00     0.016 A 
ATOM     45  C   UNL A   1      45.235  24.184  27.480  1.00  0.00     0.010 A 
ATOM     46  C   UNL A   1      46.060  25.242  25.482  1.00  0.00     0.010 A 
ATOM     47  C   UNL A   1      45.599  25.355  26.810  1.00  0.00    -0.014 A 
BRANCH  47  48
ATOM     48  C   UNL A   1      45.345  26.744  27.279  1.00  0.00     0.031 A 
ATOM     49  C   UNL A   1      43.911  27.276  27.279  1.00  0.00     0.074 A 
ATOM     50  C   UNL A   1      46.293  27.347  28.045  1.00  0.00     0.049 A 
ATOM     51  N   UNL A   1      43.486  28.394  27.790  1.00  0.00    -0.248 NA
ATOM     52  C   UNL A   1      42.812  26.552  26.635  1.00  0.00     0.031 C 
ATOM     53  C   UNL A   1      45.968  28.175  29.184  1.00  0.00     0.029 A 
ATOM     54  N   UNL A   1      47.683  27.221  28.184  1.00  0.00    -0.354 N 
ATOM     55  C   UNL A   1      42.092  28.387  27.826  1.00  0.00     0.074 A 
ATOM     56  C   UNL A   1      41.740  27.269  26.988  1.00  0.00     0.031 C 
ATOM     57  C   UNL A   1      47.034  28.502  29.910  1.00  0.00     0.029 A 
ATOM     58  C   UNL A   1      48.144  28.241  29.067  1.00  0.00     0.049 A 
ATOM     59  H   UNL A   1      48.246  26.541  27.745  1.00  0.00     0.167 HD
ATOM     60  C   UNL A   1      41.392  29.249  28.647  1.00  0.00     0.037 A 
ATOM     61  C   UNL A   1      48.913  29.275  28.620  1.00  0.00     0.037 A 
ATOM     62  C   UNL A   1      42.260  30.303  29.259  1.00  0.00     0.049 A 
ATOM     63  C   UNL A   1      48.126  30.588  28.434  1.00  0.00     0.074 A 
ATOM     64  C   UNL A   1      42.350  30.944  30.491  1.00  0.00     0.029 A 
ATOM     65  N   UNL A   1      43.387  30.750  28.567  1.00  0.00    -0.354 N 
ATOM     66  N   UNL A   1      46.917  30.826  28.907  1.00  0.00    -0.248 NA
ATOM     67  C   UNL A   1      48.612  31.718  27.651  1.00  0.00     0.031 C 
ATOM     68  C   UNL A   1      43.528  31.756  30.513  1.00  0.00     0.029 A 
ATOM     69  C   UNL A   1      44.141  31.657  29.279  1.00  0.00     0.049 A 
ATOM     70  H   UNL A   1      43.619  30.447  27.660  1.00  0.00     0.167 HD
ATOM     71  C   UNL A   1      46.417  31.997  28.398  1.00  0.00     0.074 A 
ATOM     72  C   UNL A   1      47.542  32.535  27.646  1.00  0.00     0.031 C 
ATOM     73  C   UNL A   1      45.128  32.445  28.556  1.00  0.00     0.037 A 
BRANCH  60  74
ATOM     74  C   UNL A   1      39.901  29.065  29.082  1.00  0.00     0.064 A 
ATOM     75  C   UNL A   1      38.836  29.391  28.203  1.00  0.00     0.173 A 
ATOM     76  C   UNL A   1      39.446  28.698  30.373  1.00  0.00     0.173 A 
ATOM     77  F   UNL A   1      39.056  29.652  26.908  1.00  0.00    -0.203 F 
ATOM     78  C   UNL A   1      37.485  29.444  28.598  1.00  0.00     0.198 A 
ATOM     79  C   UNL A   1      38.087  28.663  30.742  1.00  0.00     0.198 A 
ATOM     80  F   UNL A   1      40.282  28.400  31.369  1.00  0.00    -0.203 F 
ATOM     81  F   UNL A   1      36.551  29.864  27.731  1.00  0.00    -0.200 F 
ATOM     82  C   UNL A   1      37.108  29.071  29.867  1.00  0.00     0.200 A 
ATOM     83  F   UNL A   1      37.744  28.250  31.972  1.00  0.00    -0.200 F 
ATOM     84  F   UNL A   1      35.821  29.100  30.242  1.00  0.00    -0.200 F 
ENDBRANCH  60  74
BRANCH  61  85
ATOM     85  C   UNL A   1      50.147  28.684  28.000  1.00  0.00     0.064 A 
ATOM     86  C   UNL A   1      50.920  27.951  28.942  1.00  0.00     0.173 A 
ATOM     87  C   UNL A   1      50.040  28.134  26.711  1.00  0.00     0.173 A 
ATOM     88  F   UNL A   1      51.096  28.445  30.179  1.00  0.00    -0.203 F 
ATOM     89  C   UNL A   1      51.253  26.614  28.715  1.00  0.00     0.198 A 
ATOM     90  C   UNL A   1      50.389  26.794  26.486  1.00  0.00     0.198 A 
ATOM     91  F   UNL A   1      49.365  28.794  25.759  1.00  0.00    -0.203 F 
ATOM     92  F   UNL A   1      51.748  25.867  29.715  1.00  0.00    -0.200 F 
ATOM     93  C   UNL A   1      50.930  26.021  27.507  1.00  0.00     0.200 A 
ATOM     94  F   UNL A   1      50.054  26.204  25.328  1.00  0.00    -0.200 F 
ATOM     95  F   UNL A   1      51.066  24.695  27.353  1.00  0.00    -0.200 F 
ENDBRANCH  61  85
BRANCH  73  96
ATOM     96  C   UNL A   1      44.595  33.720  27.941  1.00  0.00     0.064 A 
ATOM     97  C   UNL A   1      44.015  33.760  26.670  1.00  0.00     0.173 A 
ATOM     98  C   UNL A   1      44.757  34.978  28.583  1.00  0.00     0.173 A 
ATOM     99  F   UNL A   1      43.948  32.653  25.915  1.00  0.00    -0.203 F 
ATOM    100  C   UNL A   1      43.509  34.947  26.135  1.00  0.00     0.198 A 
ATOM    101  C   UNL A   1      44.312  36.168  28.018  1.00  0.00     0.198 A 
ATOM    102  F   UNL A   1      45.336  35.097  29.785  1.00  0.00    -0.203 F 
ATOM    103  F   UNL A   1      42.878  34.922  24.954  1.00  0.00    -0.200 F 
ATOM    104  C   UNL A   1      43.653  36.147  26.810  1.00  0.00     0.200 A 
ATOM    105  F   UNL A   1      44.513  37.327  28.662  1.00  0.00    -0.200 F 
ATOM    106  F   UNL A   1      43.158  37.282  26.296  1.00  0.00    -0.200 F 
ENDBRANCH  73  96
ENDBRANCH  47  48
ENDBRANCH  40  42
ENDBRANCH  39  40
ENDBRANCH  38  39
ENDBRANCH  37  38
ENDBRANCH  36  37
ENDBRANCH  35  36
ENDBRANCH  34  35
ENDBRANCH  33  34
ENDBRANCH   1  33
TORSDOF 24
ENDMDL
MODEL 3
REMARK VINA RESULT:     -10.8      4.104      6.325
REMARK SMILES Cc1ccccc1S(=O)(=O)Nc1ccc(N2CCOCC2)cc1C(=O)OCCOCCOCCOCCOC(=O)c1ccc(-c2c3nc(c(-c4c(F)c(F)c(F)c(F)c4F)c4ccc([nH]4)c(-c4c(F)c(F)c(F)c(F)c4F)c4nc(c(-c5c(F)c(F)c(F)c(F)c5F)c5ccc2[nH]5)C=C4)C=C3)cc1
REMARK SMILES IDX 31 1 30 2 29 3 28 4 27 5 26 6 24 7 25 8 23 9 12 10 13 11
REMARK SMILES IDX 14 12 22 13 15 14 11 15 8 17 9 18 10 19 7 20 1 21 2 22 3 23
REMARK SMILES IDX 4 24 6 25 5 26 16 27 17 28 21 29 18 30 20 31 19 32 32 33
REMARK SMILES IDX 33 34 34 35 35 36 36 37 37 38 38 39 39 40 40 41 41 42 42 43
REMARK SMILES IDX 103 44 43 45 102 46 44 47 45 48 46 49 96 50 47 51 101 52
REMARK SMILES IDX 95 53 97 54 48 55 100 56 94 57 93 58 49 60 81 61 61 62 80 63
REMARK SMILES IDX 62 64 65 65 79 66 98 67 63 68 64 69 78 71 99 72 66 73 50 74
REMARK SMILES IDX 51 75 59 76 52 77 53 78 57 79 60 80 54 81 55 82 58 83 56 84
REMARK SMILES IDX 82 85 83 86 91 87 84 88 85 89 89 90 92 91 86 92 87 93 90 94
REMARK SMILES IDX 88 95 67 96 68 97 76 98 69 99 70 100 74 101 77 102 71 103
REMARK SMILES IDX 72 104 75 105 73 106
REMARK H PARENT 11 16 97 59 65 70
REMARK Flexibility Score: inf
ROOT
ATOM      1  C   UNL A   1      41.273  24.018  26.976  1.00  0.00     0.188 C 
ENDROOT
BRANCH   1   2
ATOM      2  C   UNL A   1      39.918  24.260  27.639  1.00  0.00     0.188 C 
BRANCH   2   3
ATOM      3  O   UNL A   1      38.854  24.592  26.754  1.00  0.00    -0.376 OA
BRANCH   3   4
ATOM      4  C   UNL A   1      38.178  23.450  26.205  1.00  0.00     0.202 C 
BRANCH   4   5
ATOM      5  C   UNL A   1      37.247  23.655  25.010  1.00  0.00     0.261 C 
BRANCH   5   6
ATOM      6  O   UNL A   1      36.263  22.638  24.863  1.00  0.00    -0.460 OA
BRANCH   6   7
ATOM      7  C   UNL A   1      35.099  22.928  25.451  1.00  0.00     0.340 C 
ATOM      8  O   UNL A   1      34.798  23.966  26.019  1.00  0.00    -0.246 OA
BRANCH   7   9
ATOM      9  C   UNL A   1      34.100  21.992  24.938  1.00  0.00     0.086 A 
ATOM     10  C   UNL A   1      33.263  22.512  23.942  1.00  0.00     0.064 A 
ATOM     11  C   UNL A   1      32.086  21.845  23.692  1.00  0.00     0.030 A 
ATOM     12  C   UNL A   1      31.969  20.511  24.137  1.00  0.00     0.028 A 
ATOM     13  C   UNL A   1      34.050  20.635  25.297  1.00  0.00     0.043 A 
ATOM     14  C   UNL A   1      33.044  19.825  24.754  1.00  0.00     0.038 A 
BRANCH  10  15
ATOM     15  N   UNL A   1      33.764  23.591  23.156  1.00  0.00    -0.279 N 
ATOM     16  H   UNL A   1      34.592  23.377  22.668  1.00  0.00     0.180 HD
BRANCH  15  17
ATOM     17  S   UNL A   1      33.217  25.151  22.907  1.00  0.00     0.262 S 
ATOM     18  O   UNL A   1      31.896  24.871  22.359  1.00  0.00    -0.201 OA
ATOM     19  O   UNL A   1      34.191  25.841  22.092  1.00  0.00    -0.201 OA
BRANCH  17  20
ATOM     20  C   UNL A   1      32.867  26.258  24.308  1.00  0.00     0.090 A 
ATOM     21  C   UNL A   1      30.945  25.038  25.466  1.00  0.00     0.046 C 
ATOM     22  C   UNL A   1      32.026  26.037  25.411  1.00  0.00    -0.031 A 
ATOM     23  C   UNL A   1      32.048  26.892  26.538  1.00  0.00     0.005 A 
ATOM     24  C   UNL A   1      32.826  28.031  26.554  1.00  0.00     0.000 A 
ATOM     25  C   UNL A   1      33.638  27.438  24.343  1.00  0.00     0.022 A 
ATOM     26  C   UNL A   1      33.616  28.304  25.449  1.00  0.00     0.001 A 
ENDBRANCH  17  20
ENDBRANCH  15  17
ENDBRANCH  10  15
BRANCH  14  27
ATOM     27  N   UNL A   1      33.183  18.444  24.637  1.00  0.00    -0.367 N 
ATOM     28  C   UNL A   1      32.799  17.512  25.716  1.00  0.00     0.145 C 
ATOM     29  C   UNL A   1      33.335  17.821  23.301  1.00  0.00     0.145 C 
ATOM     30  C   UNL A   1      33.554  16.168  25.617  1.00  0.00     0.181 C 
ATOM     31  C   UNL A   1      34.087  16.483  23.366  1.00  0.00     0.181 C 
ATOM     32  O   UNL A   1      33.477  15.594  24.306  1.00  0.00    -0.378 OA
ENDBRANCH  14  27
ENDBRANCH   7   9
ENDBRANCH   6   7
ENDBRANCH   5   6
ENDBRANCH   4   5
ENDBRANCH   3   4
ENDBRANCH   2   3
ENDBRANCH   1   2
BRANCH   1  33
ATOM     33  O   UNL A   1      41.544  24.568  25.695  1.00  0.00    -0.377 OA
BRANCH  33  34
ATOM     34  C   UNL A   1      42.931  24.758  25.454  1.00  0.00     0.188 C 
BRANCH  34  35
ATOM     35  C   UNL A   1      43.745  23.556  24.973  1.00  0.00     0.188 C 
BRANCH  35  36
ATOM     36  O   UNL A   1      44.347  22.963  26.126  1.00  0.00    -0.376 OA
BRANCH  36  37
ATOM     37  C   UNL A   1      45.760  22.785  26.123  1.00  0.00     0.202 C 
BRANCH  37  38
ATOM     38  C   UNL A   1      46.602  24.036  25.833  1.00  0.00     0.261 C 
BRANCH  38  39
ATOM     39  O   UNL A   1      46.759  24.782  27.054  1.00  0.00    -0.460 OA
BRANCH  39  40
ATOM     40  C   UNL A   1      46.102  25.978  27.092  1.00  0.00     0.338 C 
ATOM     41  O   UNL A   1      46.170  26.839  26.252  1.00  0.00    -0.246 OA
BRANCH  40  42
ATOM     42  C   UNL A   1      45.488  26.164  28.447  1.00  0.00     0.060 A 
ATOM     43  C   UNL A   1      44.228  25.608  28.722  1.00  0.00     0.016 A 
ATOM     44  C   UNL A   1      46.018  27.113  29.315  1.00  0.00     0.016 A 
ATOM     45  C   UNL A   1      43.452  26.083  29.799  1.00  0.00     0.010 A 
ATOM     46  C   UNL A   1      45.213  27.642  30.311  1.00  0.00     0.010 A 
ATOM     47  C   UNL A   1      43.916  27.152  30.570  1.00  0.00    -0.014 A 
BRANCH  47  48
ATOM     48  C   UNL A   1      43.099  27.977  31.500  1.00  0.00     0.031 A 
ATOM     49  C   UNL A   1      42.099  28.978  30.919  1.00  0.00     0.074 A 
ATOM     50  C   UNL A   1      42.969  27.558  32.787  1.00  0.00     0.049 A 
ATOM     51  N   UNL A   1      41.204  29.664  31.567  1.00  0.00    -0.248 NA
ATOM     52  C   UNL A   1      42.069  29.311  29.492  1.00  0.00     0.031 C 
ATOM     53  C   UNL A   1      41.724  27.644  33.516  1.00  0.00     0.029 A 
ATOM     54  N   UNL A   1      43.747  26.783  33.660  1.00  0.00    -0.354 N 
ATOM     55  C   UNL A   1      40.320  30.249  30.661  1.00  0.00     0.074 A 
ATOM     56  C   UNL A   1      40.985  30.087  29.393  1.00  0.00     0.031 C 
ATOM     57  C   UNL A   1      41.759  27.000  34.681  1.00  0.00     0.029 A 
ATOM     58  C   UNL A   1      43.138  26.804  34.949  1.00  0.00     0.049 A 
ATOM     59  H   UNL A   1      44.575  26.305  33.423  1.00  0.00     0.167 HD
ATOM     60  C   UNL A   1      39.078  30.701  31.060  1.00  0.00     0.037 A 
ATOM     61  C   UNL A   1      43.721  27.445  36.002  1.00  0.00     0.037 A 
ATOM     62  C   UNL A   1      38.917  30.719  32.548  1.00  0.00     0.049 A 
ATOM     63  C   UNL A   1      43.088  28.817  36.311  1.00  0.00     0.074 A 
ATOM     64  C   UNL A   1      37.899  30.440  33.455  1.00  0.00     0.029 A 
ATOM     65  N   UNL A   1      40.035  30.929  33.357  1.00  0.00    -0.354 N 
ATOM     66  N   UNL A   1      41.934  29.248  35.837  1.00  0.00    -0.248 NA
ATOM     67  C   UNL A   1      43.730  29.838  37.129  1.00  0.00     0.031 C 
ATOM     68  C   UNL A   1      38.428  30.484  34.783  1.00  0.00     0.029 A 
ATOM     69  C   UNL A   1      39.761  30.838  34.704  1.00  0.00     0.049 A 
ATOM     70  H   UNL A   1      40.932  31.122  32.999  1.00  0.00     0.167 HD
ATOM     71  C   UNL A   1      41.753  30.576  36.130  1.00  0.00     0.074 A 
ATOM     72  C   UNL A   1      42.896  30.883  36.978  1.00  0.00     0.031 C 
ATOM     73  C   UNL A   1      40.741  31.366  35.640  1.00  0.00     0.037 A 
BRANCH  60  74
ATOM     74  C   UNL A   1      37.872  30.979  30.105  1.00  0.00     0.064 A 
ATOM     75  C   UNL A   1      37.005  29.933  29.695  1.00  0.00     0.173 A 
ATOM     76  C   UNL A   1      37.583  32.207  29.459  1.00  0.00     0.173 A 
ATOM     77  F   UNL A   1      37.046  28.727  30.274  1.00  0.00    -0.203 F 
ATOM     78  C   UNL A   1      36.034  30.074  28.684  1.00  0.00     0.198 A 
ATOM     79  C   UNL A   1      36.551  32.370  28.515  1.00  0.00     0.198 A 
ATOM     80  F   UNL A   1      38.307  33.310  29.661  1.00  0.00    -0.203 F 
ATOM     81  F   UNL A   1      35.328  29.006  28.284  1.00  0.00    -0.200 F 
ATOM     82  C   UNL A   1      35.799  31.296  28.099  1.00  0.00     0.200 A 
ATOM     83  F   UNL A   1      36.313  33.584  27.994  1.00  0.00    -0.200 F 
ATOM     84  F   UNL A   1      34.862  31.440  27.151  1.00  0.00    -0.200 F 
ENDBRANCH  60  74
BRANCH  61  85
ATOM     85  C   UNL A   1      45.080  26.837  36.203  1.00  0.00     0.064 A 
ATOM     86  C   UNL A   1      45.003  25.466  36.570  1.00  0.00     0.173 A 
ATOM     87  C   UNL A   1      46.101  27.191  35.305  1.00  0.00     0.173 A 
ATOM     88  F   UNL A   1      44.075  25.070  37.458  1.00  0.00    -0.203 F 
ATOM     89  C   UNL A   1      45.661  24.484  35.827  1.00  0.00     0.198 A 
ATOM     90  C   UNL A   1      46.768  26.200  34.571  1.00  0.00     0.198 A 
ATOM     91  F   UNL A   1      46.262  28.475  34.951  1.00  0.00    -0.203 F 
ATOM     92  F   UNL A   1      45.371  23.188  36.022  1.00  0.00    -0.200 F 
ATOM     93  C   UNL A   1      46.496  24.854  34.787  1.00  0.00     0.200 A 
ATOM     94  F   UNL A   1      47.558  26.549  33.544  1.00  0.00    -0.200 F 
ATOM     95  F   UNL A   1      46.975  23.923  33.947  1.00  0.00    -0.200 F 
ENDBRANCH  61  85
BRANCH  73  96
ATOM     96  C   UNL A   1      40.598  32.841  35.946  1.00  0.00     0.064 A 
ATOM     97  C   UNL A   1      39.709  33.329  36.908  1.00  0.00     0.173 A 
ATOM     98  C   UNL A   1      41.285  33.826  35.187  1.00  0.00     0.173 A 
ATOM     99  F   UNL A   1      38.902  32.494  37.578  1.00  0.00    -0.203 F 
ATOM    100  C   UNL A   1      39.614  34.694  37.187  1.00  0.00     0.198 A 
ATOM    101  C   UNL A   1      41.139  35.188  35.423  1.00  0.00     0.198 A 
ATOM    102  F   UNL A   1      42.135  33.505  34.202  1.00  0.00    -0.203 F 
ATOM    103  F   UNL A   1      38.819  35.110  38.182  1.00  0.00    -0.200 F 
ATOM    104  C   UNL A   1      40.331  35.621  36.451  1.00  0.00     0.200 A 
ATOM    105  F   UNL A   1      41.798  36.071  34.659  1.00  0.00    -0.200 F 
ATOM    106  F   UNL A   1      40.243  36.929  36.728  1.00  0.00    -0.200 F 
ENDBRANCH  73  96
ENDBRANCH  47  48
ENDBRANCH  40  42
ENDBRANCH  39  40
ENDBRANCH  38  39
ENDBRANCH  37  38
ENDBRANCH  36  37
ENDBRANCH  35  36
ENDBRANCH  34  35
ENDBRANCH  33  34
ENDBRANCH   1  33
TORSDOF 24
ENDMDL
