MODEL 1
REMARK VINA RESULT:     -12.8      0.000      0.000
REMARK SMILES Cc1cc(/C=C2/C(=O)NC(=S)N=C2OCCOCCOCCOCCOC(=O)c2ccc(-c3c4nc(c(-c5c(F)c(F)c(F)c(F)c5F)c5ccc([nH]5)c(-c5c(F)c(F)c(F)c(F)c5F)c5nc(c(-c6c(F)c(F)c(F)c(F)c6F)c6ccc3[nH]6)C=C5)C=C4)cc2)c(C)n1-c1cccc(C(=O)[O-])c1
REMARK SMILES IDX 20 1 19 2 18 3 17 4 16 5 15 6 14 7 13 8 5 9 6 10 7 11 8 12
REMARK SMILES IDX 9 13 12 14 10 15 11 17 4 18 1 19 2 20 3 21 94 22 92 23 93 24
REMARK SMILES IDX 95 25 96 26 103 27 97 28 99 29 98 30 100 31 101 32 102 33
REMARK SMILES IDX 21 34 22 35 23 36 24 37 25 38 26 39 27 40 28 41 29 42 30 43
REMARK SMILES IDX 91 44 31 45 90 46 32 47 33 48 34 49 84 50 35 51 89 52 83 53
REMARK SMILES IDX 85 54 36 55 88 56 82 57 81 58 37 60 69 61 49 62 68 63 50 64
REMARK SMILES IDX 53 65 67 66 86 67 51 68 52 69 66 71 87 72 54 73 38 74 39 75
REMARK SMILES IDX 47 76 40 77 41 78 45 79 48 80 42 81 43 82 46 83 44 84 70 85
REMARK SMILES IDX 71 86 79 87 72 88 73 89 77 90 80 91 74 92 75 93 78 94 76 95
REMARK SMILES IDX 55 96 56 97 64 98 57 99 58 100 62 101 65 102 59 103 60 104
REMARK SMILES IDX 63 105 61 106
REMARK H PARENT 9 16 85 59 53 70
REMARK Flexibility Score: inf
ROOT
ATOM      1  O   UNL A   1      33.064  32.596  27.614  1.00  0.00    -0.377 OA
ENDROOT
BRANCH   1   2
ATOM      2  C   UNL A   1      31.970  31.882  27.086  1.00  0.00     0.188 C 
BRANCH   2   3
ATOM      3  C   UNL A   1      32.220  30.473  26.500  1.00  0.00     0.188 C 
BRANCH   3   4
ATOM      4  O   UNL A   1      31.793  30.066  25.212  1.00  0.00    -0.376 OA
BRANCH   4   5
ATOM      5  C   UNL A   1      32.365  29.060  24.388  1.00  0.00     0.201 C 
BRANCH   5   6
ATOM      6  C   UNL A   1      32.442  29.108  22.842  1.00  0.00     0.260 C 
BRANCH   6   7
ATOM      7  O   UNL A   1      31.335  28.479  22.142  1.00  0.00    -0.475 OA
BRANCH   7   8
ATOM      8  C   UNL A   1      30.112  28.957  22.401  1.00  0.00     0.229 C 
ATOM      9  C   UNL A   1      29.246  26.741  23.547  1.00  0.00     0.029 C 
ATOM     10  C   UNL A   1      29.171  28.007  23.059  1.00  0.00     0.103 C 
ATOM     11  C   UNL A   1      27.771  28.579  23.120  1.00  0.00     0.262 C 
ATOM     12  O   UNL A   1      26.806  27.999  23.608  1.00  0.00    -0.269 OA
ATOM     13  N   UNL A   1      27.594  29.801  22.530  1.00  0.00    -0.297 N 
ATOM     14  N   UNL A   1      29.831  30.136  21.971  1.00  0.00    -0.184 NA
ATOM     15  C   UNL A   1      28.555  30.587  21.970  1.00  0.00     0.203 C 
ATOM     16  H   UNL A   1      26.674  30.150  22.508  1.00  0.00     0.172 HD
ATOM     17  S   UNL A   1      28.095  32.017  21.232  1.00  0.00    -0.038 S 
BRANCH   9  18
ATOM     18  C   UNL A   1      30.217  25.672  23.662  1.00  0.00    -0.003 A 
ATOM     19  C   UNL A   1      33.361  23.931  22.536  1.00  0.00     0.065 C 
ATOM     20  C   UNL A   1      32.129  24.472  23.166  1.00  0.00     0.020 A 
ATOM     21  C   UNL A   1      31.260  25.453  22.701  1.00  0.00     0.031 A 
ATOM     22  N   UNL A   1      31.593  23.995  24.339  1.00  0.00    -0.318 N 
ATOM     23  C   UNL A   1      30.542  24.830  24.704  1.00  0.00     0.027 A 
ATOM     24  C   UNL A   1      30.092  24.771  26.098  1.00  0.00     0.065 C 
BRANCH  22  25
ATOM     25  C   UNL A   1      32.069  22.973  25.215  1.00  0.00     0.046 A 
ATOM     26  C   UNL A   1      33.085  23.337  26.118  1.00  0.00     0.026 A 
ATOM     27  C   UNL A   1      31.867  21.626  24.881  1.00  0.00     0.036 A 
ATOM     28  C   UNL A   1      33.943  22.373  26.637  1.00  0.00     0.003 A 
ATOM     29  C   UNL A   1      32.727  20.656  25.422  1.00  0.00    -0.001 A 
ATOM     30  C   UNL A   1      33.772  21.035  26.280  1.00  0.00     0.010 A 
BRANCH  29  31
ATOM     31  C   UNL A   1      32.646  19.205  25.065  1.00  0.00     0.072 C 
ATOM     32  O   UNL A   1      32.656  18.753  23.966  1.00  0.00    -0.545 OA
ATOM     33  O   UNL A   1      32.560  18.422  26.166  1.00  0.00    -0.545 OA
ENDBRANCH  29  31
ENDBRANCH  22  25
ENDBRANCH   9  18
ENDBRANCH   7   8
ENDBRANCH   6   7
ENDBRANCH   5   6
ENDBRANCH   4   5
ENDBRANCH   3   4
ENDBRANCH   2   3
ENDBRANCH   1   2
BRANCH   1  34
ATOM     34  C   UNL A   1      32.919  33.973  27.887  1.00  0.00     0.188 C 
BRANCH  34  35
ATOM     35  C   UNL A   1      34.137  34.593  28.586  1.00  0.00     0.188 C 
BRANCH  35  36
ATOM     36  O   UNL A   1      35.275  33.788  28.824  1.00  0.00    -0.376 OA
BRANCH  36  37
ATOM     37  C   UNL A   1      35.599  33.509  30.168  1.00  0.00     0.202 C 
BRANCH  37  38
ATOM     38  C   UNL A   1      35.495  32.073  30.803  1.00  0.00     0.261 C 
BRANCH  38  39
ATOM     39  O   UNL A   1      36.158  30.779  30.431  1.00  0.00    -0.460 OA
BRANCH  39  40
ATOM     40  C   UNL A   1      36.430  30.399  29.115  1.00  0.00     0.338 C 
ATOM     41  O   UNL A   1      35.534  30.256  28.296  1.00  0.00    -0.246 OA
BRANCH  40  42
ATOM     42  C   UNL A   1      37.949  30.076  28.721  1.00  0.00     0.060 A 
ATOM     43  C   UNL A   1      38.513  29.349  27.615  1.00  0.00     0.016 A 
ATOM     44  C   UNL A   1      38.958  30.449  29.544  1.00  0.00     0.016 A 
ATOM     45  C   UNL A   1      40.064  29.026  27.325  1.00  0.00     0.010 A 
ATOM     46  C   UNL A   1      40.374  30.145  29.193  1.00  0.00     0.010 A 
ATOM     47  C   UNL A   1      41.163  29.374  28.154  1.00  0.00    -0.014 A 
BRANCH  47  48
ATOM     48  C   UNL A   1      42.964  29.723  27.681  1.00  0.00     0.031 A 
ATOM     49  C   UNL A   1      43.330  30.408  28.974  1.00  0.00     0.074 A 
ATOM     50  C   UNL A   1      44.243  29.259  26.891  1.00  0.00     0.049 A 
ATOM     51  N   UNL A   1      42.667  29.870  29.980  1.00  0.00    -0.248 NA
ATOM     52  C   UNL A   1      44.681  30.718  29.415  1.00  0.00     0.031 C 
ATOM     53  C   UNL A   1      44.404  28.338  25.694  1.00  0.00     0.029 A 
ATOM     54  N   UNL A   1      45.834  29.432  27.051  1.00  0.00    -0.354 N 
ATOM     55  C   UNL A   1      43.560  28.862  30.199  1.00  0.00     0.074 A 
ATOM     56  C   UNL A   1      44.757  29.737  30.336  1.00  0.00     0.031 C 
ATOM     57  C   UNL A   1      45.687  27.975  25.370  1.00  0.00     0.029 A 
ATOM     58  C   UNL A   1      46.760  28.569  26.214  1.00  0.00     0.049 A 
ATOM     59  H   UNL A   1      46.202  30.089  27.685  1.00  0.00     0.167 HD
ATOM     60  C   UNL A   1      43.582  27.581  29.610  1.00  0.00     0.037 A 
ATOM     61  C   UNL A   1      48.161  28.178  25.925  1.00  0.00     0.037 A 
ATOM     62  C   UNL A   1      44.762  26.968  30.017  1.00  0.00     0.049 A 
ATOM     63  C   UNL A   1      48.071  27.117  26.987  1.00  0.00     0.074 A 
ATOM     64  C   UNL A   1      45.601  26.940  31.096  1.00  0.00     0.029 A 
ATOM     65  N   UNL A   1      45.398  26.398  28.996  1.00  0.00    -0.354 N 
ATOM     66  N   UNL A   1      47.883  25.854  26.731  1.00  0.00    -0.248 NA
ATOM     67  C   UNL A   1      48.582  27.460  28.346  1.00  0.00     0.031 C 
ATOM     68  C   UNL A   1      46.633  26.062  30.716  1.00  0.00     0.029 A 
ATOM     69  C   UNL A   1      46.279  25.496  29.485  1.00  0.00     0.049 A 
ATOM     70  H   UNL A   1      45.251  26.599  28.043  1.00  0.00     0.167 HD
ATOM     71  C   UNL A   1      47.975  25.283  27.987  1.00  0.00     0.074 A 
ATOM     72  C   UNL A   1      48.721  26.222  28.823  1.00  0.00     0.031 C 
ATOM     73  C   UNL A   1      46.835  24.698  28.434  1.00  0.00     0.037 A 
BRANCH  60  74
ATOM     74  C   UNL A   1      42.609  26.564  28.581  1.00  0.00     0.064 A 
ATOM     75  C   UNL A   1      42.837  25.995  27.263  1.00  0.00     0.173 A 
ATOM     76  C   UNL A   1      41.277  26.340  28.979  1.00  0.00     0.173 A 
ATOM     77  F   UNL A   1      44.000  25.993  26.631  1.00  0.00    -0.203 F 
ATOM     78  C   UNL A   1      41.851  25.505  26.390  1.00  0.00     0.198 A 
ATOM     79  C   UNL A   1      40.287  25.799  28.112  1.00  0.00     0.198 A 
ATOM     80  F   UNL A   1      40.884  26.695  30.207  1.00  0.00    -0.203 F 
ATOM     81  F   UNL A   1      42.181  25.179  25.127  1.00  0.00    -0.200 F 
ATOM     82  C   UNL A   1      40.559  25.443  26.803  1.00  0.00     0.200 A 
ATOM     83  F   UNL A   1      39.030  25.660  28.555  1.00  0.00    -0.200 F 
ATOM     84  F   UNL A   1      39.597  25.059  25.954  1.00  0.00    -0.200 F 
ENDBRANCH  60  74
BRANCH  61  85
ATOM     85  C   UNL A   1      49.920  27.972  25.790  1.00  0.00     0.064 A 
ATOM     86  C   UNL A   1      50.872  28.894  26.285  1.00  0.00     0.173 A 
ATOM     87  C   UNL A   1      50.679  27.054  24.917  1.00  0.00     0.173 A 
ATOM     88  F   UNL A   1      50.456  30.037  26.842  1.00  0.00    -0.203 F 
ATOM     89  C   UNL A   1      52.319  28.759  26.108  1.00  0.00     0.198 A 
ATOM     90  C   UNL A   1      52.071  26.803  24.877  1.00  0.00     0.198 A 
ATOM     91  F   UNL A   1      50.178  26.577  23.778  1.00  0.00    -0.203 F 
ATOM     92  F   UNL A   1      53.140  29.745  26.504  1.00  0.00    -0.200 F 
ATOM     93  C   UNL A   1      52.911  27.673  25.481  1.00  0.00     0.200 A 
ATOM     94  F   UNL A   1      52.555  25.827  24.084  1.00  0.00    -0.200 F 
ATOM     95  F   UNL A   1      54.240  27.547  25.325  1.00  0.00    -0.200 F 
ENDBRANCH  61  85
BRANCH  73  96
ATOM     96  C   UNL A   1      46.068  24.020  27.306  1.00  0.00     0.064 A 
ATOM     97  C   UNL A   1      44.890  23.350  27.635  1.00  0.00     0.173 A 
ATOM     98  C   UNL A   1      46.544  23.798  25.996  1.00  0.00     0.173 A 
ATOM     99  F   UNL A   1      44.388  23.465  28.873  1.00  0.00    -0.203 F 
ATOM    100  C   UNL A   1      44.245  22.513  26.720  1.00  0.00     0.198 A 
ATOM    101  C   UNL A   1      45.898  22.983  25.074  1.00  0.00     0.198 A 
ATOM    102  F   UNL A   1      47.708  24.295  25.583  1.00  0.00    -0.203 F 
ATOM    103  F   UNL A   1      43.138  21.858  27.091  1.00  0.00    -0.200 F 
ATOM    104  C   UNL A   1      44.748  22.328  25.441  1.00  0.00     0.200 A 
ATOM    105  F   UNL A   1      46.428  22.814  23.851  1.00  0.00    -0.200 F 
ATOM    106  F   UNL A   1      44.141  21.507  24.574  1.00  0.00    -0.200 F 
ENDBRANCH  73  96
ENDBRANCH  47  48
ENDBRANCH  40  42
ENDBRANCH  39  40
ENDBRANCH  38  39
ENDBRANCH  37  38
ENDBRANCH  36  37
ENDBRANCH  35  36
ENDBRANCH  34  35
ENDBRANCH   1  34
TORSDOF 22
ENDMDL
MODEL 2
REMARK VINA RESULT:     -12.4      2.853      6.126
REMARK SMILES Cc1cc(/C=C2/C(=O)NC(=S)N=C2OCCOCCOCCOCCOC(=O)c2ccc(-c3c4nc(c(-c5c(F)c(F)c(F)c(F)c5F)c5ccc([nH]5)c(-c5c(F)c(F)c(F)c(F)c5F)c5nc(c(-c6c(F)c(F)c(F)c(F)c6F)c6ccc3[nH]6)C=C5)C=C4)cc2)c(C)n1-c1cccc(C(=O)[O-])c1
REMARK SMILES IDX 20 1 19 2 18 3 17 4 16 5 15 6 14 7 13 8 5 9 6 10 7 11 8 12
REMARK SMILES IDX 9 13 12 14 10 15 11 17 4 18 1 19 2 20 3 21 94 22 92 23 93 24
REMARK SMILES IDX 95 25 96 26 103 27 97 28 99 29 98 30 100 31 101 32 102 33
REMARK SMILES IDX 21 34 22 35 23 36 24 37 25 38 26 39 27 40 28 41 29 42 30 43
REMARK SMILES IDX 91 44 31 45 90 46 32 47 33 48 34 49 84 50 35 51 89 52 83 53
REMARK SMILES IDX 85 54 36 55 88 56 82 57 81 58 37 60 69 61 49 62 68 63 50 64
REMARK SMILES IDX 53 65 67 66 86 67 51 68 52 69 66 71 87 72 54 73 38 74 39 75
REMARK SMILES IDX 47 76 40 77 41 78 45 79 48 80 42 81 43 82 46 83 44 84 70 85
REMARK SMILES IDX 71 86 79 87 72 88 73 89 77 90 80 91 74 92 75 93 78 94 76 95
REMARK SMILES IDX 55 96 56 97 64 98 57 99 58 100 62 101 65 102 59 103 60 104
REMARK SMILES IDX 63 105 61 106
REMARK H PARENT 9 16 85 59 53 70
REMARK Flexibility Score: inf
ROOT
ATOM      1  O   UNL A   1      34.866  32.465  28.977  1.00  0.00    -0.377 OA
ENDROOT
BRANCH   1   2
ATOM      2  C   UNL A   1      33.902  32.088  28.021  1.00  0.00     0.188 C 
BRANCH   2   3
ATOM      3  C   UNL A   1      33.901  30.631  27.505  1.00  0.00     0.188 C 
BRANCH   3   4
ATOM      4  O   UNL A   1      32.725  29.894  27.222  1.00  0.00    -0.376 OA
BRANCH   4   5
ATOM      5  C   UNL A   1      32.543  28.906  26.218  1.00  0.00     0.201 C 
BRANCH   5   6
ATOM      6  C   UNL A   1      33.084  28.994  24.769  1.00  0.00     0.260 C 
BRANCH   6   7
ATOM      7  O   UNL A   1      32.457  28.098  23.813  1.00  0.00    -0.475 OA
BRANCH   7   8
ATOM      8  C   UNL A   1      31.133  28.218  23.656  1.00  0.00     0.229 C 
ATOM      9  C   UNL A   1      30.574  25.839  24.656  1.00  0.00     0.029 C 
ATOM     10  C   UNL A   1      30.322  27.041  24.073  1.00  0.00     0.103 C 
ATOM     11  C   UNL A   1      28.873  27.205  23.667  1.00  0.00     0.262 C 
ATOM     12  O   UNL A   1      27.993  26.377  23.887  1.00  0.00    -0.269 OA
ATOM     13  N   UNL A   1      28.570  28.336  22.960  1.00  0.00    -0.297 N 
ATOM     14  N   UNL A   1      30.697  29.279  23.073  1.00  0.00    -0.184 NA
ATOM     15  C   UNL A   1      29.413  29.362  22.656  1.00  0.00     0.203 C 
ATOM     16  H   UNL A   1      27.644  28.418  22.638  1.00  0.00     0.172 HD
ATOM     17  S   UNL A   1      28.843  30.617  21.707  1.00  0.00    -0.038 S 
BRANCH   9  18
ATOM     18  C   UNL A   1      31.709  25.077  25.137  1.00  0.00    -0.003 A 
ATOM     19  C   UNL A   1      33.245  22.562  27.482  1.00  0.00     0.065 C 
ATOM     20  C   UNL A   1      32.844  23.541  26.438  1.00  0.00     0.020 A 
ATOM     21  C   UNL A   1      31.671  24.281  26.330  1.00  0.00     0.031 A 
ATOM     22  N   UNL A   1      33.657  23.939  25.403  1.00  0.00    -0.318 N 
ATOM     23  C   UNL A   1      32.905  24.734  24.545  1.00  0.00     0.027 A 
ATOM     24  C   UNL A   1      33.425  24.932  23.188  1.00  0.00     0.065 C 
BRANCH  22  25
ATOM     25  C   UNL A   1      34.975  23.512  25.058  1.00  0.00     0.046 A 
ATOM     26  C   UNL A   1      35.090  22.257  24.433  1.00  0.00     0.026 A 
ATOM     27  C   UNL A   1      36.079  24.085  25.706  1.00  0.00     0.036 A 
ATOM     28  C   UNL A   1      36.280  21.540  24.508  1.00  0.00     0.003 A 
ATOM     29  C   UNL A   1      37.283  23.363  25.763  1.00  0.00    -0.001 A 
ATOM     30  C   UNL A   1      37.372  22.088  25.183  1.00  0.00     0.010 A 
BRANCH  29  31
ATOM     31  C   UNL A   1      38.491  23.851  26.499  1.00  0.00     0.072 C 
ATOM     32  O   UNL A   1      38.588  24.883  27.080  1.00  0.00    -0.545 OA
ATOM     33  O   UNL A   1      39.508  22.959  26.439  1.00  0.00    -0.545 OA
ENDBRANCH  29  31
ENDBRANCH  22  25
ENDBRANCH   9  18
ENDBRANCH   7   8
ENDBRANCH   6   7
ENDBRANCH   5   6
ENDBRANCH   4   5
ENDBRANCH   3   4
ENDBRANCH   2   3
ENDBRANCH   1   2
BRANCH   1  34
ATOM     34  C   UNL A   1      34.480  33.285  30.058  1.00  0.00     0.188 C 
BRANCH  34  35
ATOM     35  C   UNL A   1      34.884  32.726  31.430  1.00  0.00     0.188 C 
BRANCH  35  36
ATOM     36  O   UNL A   1      36.210  32.914  31.884  1.00  0.00    -0.376 OA
BRANCH  36  37
ATOM     37  C   UNL A   1      36.539  34.182  32.407  1.00  0.00     0.202 C 
BRANCH  37  38
ATOM     38  C   UNL A   1      37.990  34.578  32.869  1.00  0.00     0.261 C 
BRANCH  38  39
ATOM     39  O   UNL A   1      38.746  34.262  34.126  1.00  0.00    -0.460 OA
BRANCH  39  40
ATOM     40  C   UNL A   1      40.104  33.935  34.152  1.00  0.00     0.338 C 
ATOM     41  O   UNL A   1      40.924  34.668  34.685  1.00  0.00    -0.246 OA
BRANCH  40  42
ATOM     42  C   UNL A   1      40.576  32.607  33.392  1.00  0.00     0.060 A 
ATOM     43  C   UNL A   1      41.711  31.746  33.592  1.00  0.00     0.016 A 
ATOM     44  C   UNL A   1      39.893  32.166  32.309  1.00  0.00     0.016 A 
ATOM     45  C   UNL A   1      42.139  30.450  32.737  1.00  0.00     0.010 A 
ATOM     46  C   UNL A   1      40.328  30.937  31.587  1.00  0.00     0.010 A 
ATOM     47  C   UNL A   1      41.477  29.947  31.586  1.00  0.00    -0.014 A 
BRANCH  47  48
ATOM     48  C   UNL A   1      41.378  28.172  30.933  1.00  0.00     0.031 A 
ATOM     49  C   UNL A   1      40.032  28.329  30.271  1.00  0.00     0.074 A 
ATOM     50  C   UNL A   1      42.148  26.913  30.386  1.00  0.00     0.049 A 
ATOM     51  N   UNL A   1      39.893  29.555  29.802  1.00  0.00    -0.248 NA
ATOM     52  C   UNL A   1      39.440  27.396  29.324  1.00  0.00     0.031 C 
ATOM     53  C   UNL A   1      43.592  26.473  30.547  1.00  0.00     0.029 A 
ATOM     54  N   UNL A   1      41.820  25.692  29.393  1.00  0.00    -0.354 N 
ATOM     55  C   UNL A   1      40.512  29.309  28.611  1.00  0.00     0.074 A 
ATOM     56  C   UNL A   1      39.662  28.147  28.228  1.00  0.00     0.031 C 
ATOM     57  C   UNL A   1      44.001  25.421  29.767  1.00  0.00     0.029 A 
ATOM     58  C   UNL A   1      42.957  24.820  28.892  1.00  0.00     0.049 A 
ATOM     59  H   UNL A   1      40.894  25.513  29.113  1.00  0.00     0.167 HD
ATOM     60  C   UNL A   1      41.885  29.416  28.310  1.00  0.00     0.037 A 
ATOM     61  C   UNL A   1      43.360  23.704  28.004  1.00  0.00     0.037 A 
ATOM     62  C   UNL A   1      42.058  28.910  27.025  1.00  0.00     0.049 A 
ATOM     63  C   UNL A   1      43.570  24.685  26.885  1.00  0.00     0.074 A 
ATOM     64  C   UNL A   1      41.381  28.825  25.840  1.00  0.00     0.029 A 
ATOM     65  N   UNL A   1      43.090  28.071  26.963  1.00  0.00    -0.354 N 
ATOM     66  N   UNL A   1      44.741  25.125  26.520  1.00  0.00    -0.248 NA
ATOM     67  C   UNL A   1      42.449  24.879  25.920  1.00  0.00     0.031 C 
ATOM     68  C   UNL A   1      42.249  28.114  24.991  1.00  0.00     0.029 A 
ATOM     69  C   UNL A   1      43.462  27.940  25.669  1.00  0.00     0.049 A 
ATOM     70  H   UNL A   1      43.512  27.621  27.730  1.00  0.00     0.167 HD
ATOM     71  C   UNL A   1      44.433  25.901  25.418  1.00  0.00     0.074 A 
ATOM     72  C   UNL A   1      43.139  25.436  24.924  1.00  0.00     0.031 C 
ATOM     73  C   UNL A   1      44.697  27.225  25.559  1.00  0.00     0.037 A 
BRANCH  60  74
ATOM     74  C   UNL A   1      43.372  29.984  29.021  1.00  0.00     0.064 A 
ATOM     75  C   UNL A   1      44.597  29.306  29.410  1.00  0.00     0.173 A 
ATOM     76  C   UNL A   1      43.396  31.319  29.469  1.00  0.00     0.173 A 
ATOM     77  F   UNL A   1      44.904  28.058  29.094  1.00  0.00    -0.203 F 
ATOM     78  C   UNL A   1      45.569  29.795  30.298  1.00  0.00     0.198 A 
ATOM     79  C   UNL A   1      44.405  31.831  30.332  1.00  0.00     0.198 A 
ATOM     80  F   UNL A   1      42.406  32.150  29.129  1.00  0.00    -0.203 F 
ATOM     81  F   UNL A   1      46.561  28.986  30.714  1.00  0.00    -0.200 F 
ATOM     82  C   UNL A   1      45.452  31.054  30.795  1.00  0.00     0.200 A 
ATOM     83  F   UNL A   1      44.331  33.102  30.750  1.00  0.00    -0.200 F 
ATOM     84  F   UNL A   1      46.324  31.503  31.708  1.00  0.00    -0.200 F 
ENDBRANCH  60  74
BRANCH  61  85
ATOM     85  C   UNL A   1      43.502  22.324  26.894  1.00  0.00     0.064 A 
ATOM     86  C   UNL A   1      42.630  21.210  26.890  1.00  0.00     0.173 A 
ATOM     87  C   UNL A   1      44.650  21.927  26.055  1.00  0.00     0.173 A 
ATOM     88  F   UNL A   1      41.660  21.127  27.808  1.00  0.00    -0.203 F 
ATOM     89  C   UNL A   1      42.791  20.041  26.024  1.00  0.00     0.198 A 
ATOM     90  C   UNL A   1      44.739  20.898  25.088  1.00  0.00     0.198 A 
ATOM     91  F   UNL A   1      45.902  22.274  26.350  1.00  0.00    -0.203 F 
ATOM     92  F   UNL A   1      41.987  18.976  26.174  1.00  0.00    -0.200 F 
ATOM     93  C   UNL A   1      43.794  19.930  25.072  1.00  0.00     0.200 A 
ATOM     94  F   UNL A   1      45.849  20.778  24.335  1.00  0.00    -0.200 F 
ATOM     95  F   UNL A   1      43.937  18.860  24.274  1.00  0.00    -0.200 F 
ENDBRANCH  61  85
BRANCH  73  96
ATOM     96  C   UNL A   1      45.961  27.466  26.374  1.00  0.00     0.064 A 
ATOM     97  C   UNL A   1      46.353  28.787  26.587  1.00  0.00     0.173 A 
ATOM     98  C   UNL A   1      46.911  26.487  26.740  1.00  0.00     0.173 A 
ATOM     99  F   UNL A   1      45.533  29.785  26.227  1.00  0.00    -0.203 F 
ATOM    100  C   UNL A   1      47.606  29.102  27.119  1.00  0.00     0.198 A 
ATOM    101  C   UNL A   1      48.151  26.791  27.288  1.00  0.00     0.198 A 
ATOM    102  F   UNL A   1      46.709  25.194  26.499  1.00  0.00    -0.203 F 
ATOM    103  F   UNL A   1      47.956  30.385  27.270  1.00  0.00    -0.200 F 
ATOM    104  C   UNL A   1      48.506  28.106  27.469  1.00  0.00     0.200 A 
ATOM    105  F   UNL A   1      49.003  25.799  27.595  1.00  0.00    -0.200 F 
ATOM    106  F   UNL A   1      49.716  28.410  27.956  1.00  0.00    -0.200 F 
ENDBRANCH  73  96
ENDBRANCH  47  48
ENDBRANCH  40  42
ENDBRANCH  39  40
ENDBRANCH  38  39
ENDBRANCH  37  38
ENDBRANCH  36  37
ENDBRANCH  35  36
ENDBRANCH  34  35
ENDBRANCH   1  34
TORSDOF 22
ENDMDL
MODEL 3
REMARK VINA RESULT:     -12.4      5.192      8.714
REMARK SMILES Cc1cc(/C=C2/C(=O)NC(=S)N=C2OCCOCCOCCOCCOC(=O)c2ccc(-c3c4nc(c(-c5c(F)c(F)c(F)c(F)c5F)c5ccc([nH]5)c(-c5c(F)c(F)c(F)c(F)c5F)c5nc(c(-c6c(F)c(F)c(F)c(F)c6F)c6ccc3[nH]6)C=C5)C=C4)cc2)c(C)n1-c1cccc(C(=O)[O-])c1
REMARK SMILES IDX 20 1 19 2 18 3 17 4 16 5 15 6 14 7 13 8 5 9 6 10 7 11 8 12
REMARK SMILES IDX 9 13 12 14 10 15 11 17 4 18 1 19 2 20 3 21 94 22 92 23 93 24
REMARK SMILES IDX 95 25 96 26 103 27 97 28 99 29 98 30 100 31 101 32 102 33
REMARK SMILES IDX 21 34 22 35 23 36 24 37 25 38 26 39 27 40 28 41 29 42 30 43
REMARK SMILES IDX 91 44 31 45 90 46 32 47 33 48 34 49 84 50 35 51 89 52 83 53
REMARK SMILES IDX 85 54 36 55 88 56 82 57 81 58 37 60 69 61 49 62 68 63 50 64
REMARK SMILES IDX 53 65 67 66 86 67 51 68 52 69 66 71 87 72 54 73 38 74 39 75
REMARK SMILES IDX 47 76 40 77 41 78 45 79 48 80 42 81 43 82 46 83 44 84 70 85
REMARK SMILES IDX 71 86 79 87 72 88 73 89 77 90 80 91 74 92 75 93 78 94 76 95
REMARK SMILES IDX 55 96 56 97 64 98 57 99 58 100 62 101 65 102 59 103 60 104
REMARK SMILES IDX 63 105 61 106
REMARK H PARENT 9 16 85 59 53 70
REMARK Flexibility Score: inf
ROOT
ATOM      1  O   UNL A   1      33.158  30.245  27.010  1.00  0.00    -0.377 OA
ENDROOT
BRANCH   1   2
ATOM      2  C   UNL A   1      32.957  28.885  27.320  1.00  0.00     0.188 C 
BRANCH   2   3
ATOM      3  C   UNL A   1      31.869  28.103  26.549  1.00  0.00     0.188 C 
BRANCH   3   4
ATOM      4  O   UNL A   1      32.093  26.862  25.905  1.00  0.00    -0.376 OA
BRANCH   4   5
ATOM      5  C   UNL A   1      32.009  25.564  26.475  1.00  0.00     0.201 C 
BRANCH   5   6
ATOM      6  C   UNL A   1      30.771  24.635  26.402  1.00  0.00     0.260 C 
BRANCH   6   7
ATOM      7  O   UNL A   1      30.567  23.966  25.128  1.00  0.00    -0.475 OA
BRANCH   7   8
ATOM      8  C   UNL A   1      31.647  23.416  24.559  1.00  0.00     0.229 C 
ATOM      9  C   UNL A   1      31.883  25.267  22.691  1.00  0.00     0.029 C 
ATOM     10  C   UNL A   1      32.179  24.121  23.361  1.00  0.00     0.103 C 
ATOM     11  C   UNL A   1      33.264  23.310  22.686  1.00  0.00     0.262 C 
ATOM     12  O   UNL A   1      33.865  23.661  21.675  1.00  0.00    -0.269 OA
ATOM     13  N   UNL A   1      33.526  22.083  23.232  1.00  0.00    -0.297 N 
ATOM     14  N   UNL A   1      32.056  22.290  25.028  1.00  0.00    -0.184 NA
ATOM     15  C   UNL A   1      32.973  21.554  24.359  1.00  0.00     0.203 C 
ATOM     16  H   UNL A   1      34.183  21.523  22.760  1.00  0.00     0.172 HD
ATOM     17  S   UNL A   1      33.387  19.993  24.800  1.00  0.00    -0.038 S 
BRANCH   9  18
ATOM     18  C   UNL A   1      30.925  26.352  22.758  1.00  0.00    -0.003 A 
ATOM     19  C   UNL A   1      27.555  27.729  23.724  1.00  0.00     0.065 C 
ATOM     20  C   UNL A   1      28.943  27.411  23.298  1.00  0.00     0.020 A 
ATOM     21  C   UNL A   1      29.563  26.172  23.173  1.00  0.00     0.031 A 
ATOM     22  N   UNL A   1      29.848  28.350  22.863  1.00  0.00    -0.318 N 
ATOM     23  C   UNL A   1      31.077  27.721  22.699  1.00  0.00     0.027 A 
ATOM     24  C   UNL A   1      32.266  28.577  22.643  1.00  0.00     0.065 C 
BRANCH  22  25
ATOM     25  C   UNL A   1      29.720  29.769  22.766  1.00  0.00     0.046 A 
ATOM     26  C   UNL A   1      29.791  30.495  23.968  1.00  0.00     0.026 A 
ATOM     27  C   UNL A   1      29.114  30.331  21.633  1.00  0.00     0.036 A 
ATOM     28  C   UNL A   1      29.203  31.752  24.066  1.00  0.00     0.003 A 
ATOM     29  C   UNL A   1      28.537  31.608  21.735  1.00  0.00    -0.001 A 
ATOM     30  C   UNL A   1      28.566  32.303  22.955  1.00  0.00     0.010 A 
BRANCH  29  31
ATOM     31  C   UNL A   1      27.797  32.260  20.609  1.00  0.00     0.072 C 
ATOM     32  O   UNL A   1      27.450  31.734  19.601  1.00  0.00    -0.545 OA
ATOM     33  O   UNL A   1      27.548  33.566  20.863  1.00  0.00    -0.545 OA
ENDBRANCH  29  31
ENDBRANCH  22  25
ENDBRANCH   9  18
ENDBRANCH   7   8
ENDBRANCH   6   7
ENDBRANCH   5   6
ENDBRANCH   4   5
ENDBRANCH   3   4
ENDBRANCH   2   3
ENDBRANCH   1   2
BRANCH   1  34
ATOM     34  C   UNL A   1      34.342  30.881  27.440  1.00  0.00     0.188 C 
BRANCH  34  35
ATOM     35  C   UNL A   1      34.108  32.273  28.046  1.00  0.00     0.188 C 
BRANCH  35  36
ATOM     36  O   UNL A   1      34.922  33.350  27.624  1.00  0.00    -0.376 OA
BRANCH  36  37
ATOM     37  C   UNL A   1      34.787  34.570  28.317  1.00  0.00     0.202 C 
BRANCH  37  38
ATOM     38  C   UNL A   1      33.733  34.803  29.462  1.00  0.00     0.261 C 
BRANCH  38  39
ATOM     39  O   UNL A   1      33.902  35.262  30.881  1.00  0.00    -0.460 OA
BRANCH  39  40
ATOM     40  C   UNL A   1      33.853  34.406  31.983  1.00  0.00     0.338 C 
ATOM     41  O   UNL A   1      32.932  34.454  32.785  1.00  0.00    -0.246 OA
BRANCH  40  42
ATOM     42  C   UNL A   1      35.082  33.406  32.218  1.00  0.00     0.060 A 
ATOM     43  C   UNL A   1      36.283  33.539  32.996  1.00  0.00     0.016 A 
ATOM     44  C   UNL A   1      35.130  32.224  31.559  1.00  0.00     0.016 A 
ATOM     45  C   UNL A   1      37.501  32.493  33.132  1.00  0.00     0.010 A 
ATOM     46  C   UNL A   1      36.273  31.289  31.761  1.00  0.00     0.010 A 
ATOM     47  C   UNL A   1      37.618  31.249  32.459  1.00  0.00    -0.014 A 
BRANCH  47  48
ATOM     48  C   UNL A   1      38.514  29.669  32.995  1.00  0.00     0.031 A 
ATOM     49  C   UNL A   1      37.938  28.792  31.912  1.00  0.00     0.074 A 
ATOM     50  C   UNL A   1      39.797  29.023  33.639  1.00  0.00     0.049 A 
ATOM     51  N   UNL A   1      37.758  29.490  30.806  1.00  0.00    -0.248 NA
ATOM     52  C   UNL A   1      38.412  27.464  31.554  1.00  0.00     0.031 C 
ATOM     53  C   UNL A   1      40.851  29.598  34.568  1.00  0.00     0.029 A 
ATOM     54  N   UNL A   1      40.576  27.621  33.520  1.00  0.00    -0.354 N 
ATOM     55  C   UNL A   1      39.030  29.323  30.339  1.00  0.00     0.074 A 
ATOM     56  C   UNL A   1      39.034  27.836  30.419  1.00  0.00     0.031 C 
ATOM     57  C   UNL A   1      41.962  28.824  34.786  1.00  0.00     0.029 A 
ATOM     58  C   UNL A   1      41.968  27.497  34.112  1.00  0.00     0.049 A 
ATOM     59  H   UNL A   1      40.156  26.854  33.068  1.00  0.00     0.167 HD
ATOM     60  C   UNL A   1      40.157  30.131  30.591  1.00  0.00     0.037 A 
ATOM     61  C   UNL A   1      43.165  26.639  34.288  1.00  0.00     0.037 A 
ATOM     62  C   UNL A   1      41.254  29.477  30.039  1.00  0.00     0.049 A 
ATOM     63  C   UNL A   1      43.721  27.170  32.996  1.00  0.00     0.074 A 
ATOM     64  C   UNL A   1      41.557  28.663  28.983  1.00  0.00     0.029 A 
ATOM     65  N   UNL A   1      42.283  29.443  30.884  1.00  0.00    -0.354 N 
ATOM     66  N   UNL A   1      44.644  28.087  32.931  1.00  0.00    -0.248 NA
ATOM     67  C   UNL A   1      43.484  26.365  31.763  1.00  0.00     0.031 C 
ATOM     68  C   UNL A   1      42.932  28.397  29.129  1.00  0.00     0.029 A 
ATOM     69  C   UNL A   1      43.409  29.186  30.182  1.00  0.00     0.049 A 
ATOM     70  H   UNL A   1      42.232  29.583  31.857  1.00  0.00     0.167 HD
ATOM     71  C   UNL A   1      44.887  28.162  31.572  1.00  0.00     0.074 A 
ATOM     72  C   UNL A   1      44.433  26.900  30.992  1.00  0.00     0.031 C 
ATOM     73  C   UNL A   1      44.574  29.351  30.999  1.00  0.00     0.037 A 
BRANCH  60  74
ATOM     74  C   UNL A   1      40.578  31.648  31.340  1.00  0.00     0.064 A 
ATOM     75  C   UNL A   1      41.362  31.979  32.518  1.00  0.00     0.173 A 
ATOM     76  C   UNL A   1      39.941  32.803  30.844  1.00  0.00     0.173 A 
ATOM     77  F   UNL A   1      42.119  31.124  33.187  1.00  0.00    -0.203 F 
ATOM     78  C   UNL A   1      41.325  33.193  33.223  1.00  0.00     0.198 A 
ATOM     79  C   UNL A   1      39.942  34.047  31.533  1.00  0.00     0.198 A 
ATOM     80  F   UNL A   1      39.249  32.739  29.701  1.00  0.00    -0.203 F 
ATOM     81  F   UNL A   1      41.963  33.298  34.404  1.00  0.00    -0.200 F 
ATOM     82  C   UNL A   1      40.578  34.224  32.749  1.00  0.00     0.200 A 
ATOM     83  F   UNL A   1      39.273  35.087  31.016  1.00  0.00    -0.200 F 
ATOM     84  F   UNL A   1      40.466  35.357  33.455  1.00  0.00    -0.200 F 
ENDBRANCH  60  74
BRANCH  61  85
ATOM     85  C   UNL A   1      44.399  25.364  34.360  1.00  0.00     0.064 A 
ATOM     86  C   UNL A   1      44.120  23.978  34.307  1.00  0.00     0.173 A 
ATOM     87  C   UNL A   1      45.808  25.463  34.792  1.00  0.00     0.173 A 
ATOM     88  F   UNL A   1      42.848  23.562  34.261  1.00  0.00    -0.203 F 
ATOM     89  C   UNL A   1      45.131  22.928  34.439  1.00  0.00     0.198 A 
ATOM     90  C   UNL A   1      46.829  24.485  34.751  1.00  0.00     0.198 A 
ATOM     91  F   UNL A   1      46.231  26.414  35.624  1.00  0.00    -0.203 F 
ATOM     92  F   UNL A   1      44.758  21.639  34.499  1.00  0.00    -0.200 F 
ATOM     93  C   UNL A   1      46.486  23.189  34.576  1.00  0.00     0.200 A 
ATOM     94  F   UNL A   1      48.091  24.817  35.081  1.00  0.00    -0.200 F 
ATOM     95  F   UNL A   1      47.414  22.224  34.690  1.00  0.00    -0.200 F 
ENDBRANCH  61  85
BRANCH  73  96
ATOM     96  C   UNL A   1      44.873  30.522  31.926  1.00  0.00     0.064 A 
ATOM     97  C   UNL A   1      44.514  31.799  31.495  1.00  0.00     0.173 A 
ATOM     98  C   UNL A   1      45.687  30.480  33.079  1.00  0.00     0.173 A 
ATOM     99  F   UNL A   1      43.779  31.937  30.382  1.00  0.00    -0.203 F 
ATOM    100  C   UNL A   1      44.948  32.947  32.164  1.00  0.00     0.198 A 
ATOM    101  C   UNL A   1      46.107  31.616  33.762  1.00  0.00     0.198 A 
ATOM    102  F   UNL A   1      46.184  29.335  33.541  1.00  0.00    -0.203 F 
ATOM    103  F   UNL A   1      44.613  34.153  31.691  1.00  0.00    -0.200 F 
ATOM    104  C   UNL A   1      45.746  32.856  33.296  1.00  0.00     0.200 A 
ATOM    105  F   UNL A   1      46.895  31.487  34.842  1.00  0.00    -0.200 F 
ATOM    106  F   UNL A   1      46.180  33.958  33.921  1.00  0.00    -0.200 F 
ENDBRANCH  73  96
ENDBRANCH  47  48
ENDBRANCH  40  42
ENDBRANCH  39  40
ENDBRANCH  38  39
ENDBRANCH  37  38
ENDBRANCH  36  37
ENDBRANCH  35  36
ENDBRANCH  34  35
ENDBRANCH   1  34
TORSDOF 22
ENDMDL
