MODEL 1
REMARK VINA RESULT:     -10.8      0.000      0.000
REMARK SMILES CC1=C(C)C[C@@H](C(=O)N[C@H](C)C(C)(C)C)[C@@H](C(=O)OCCOCCOCCOCCOC(=O)c2ccc(-c3c4nc(c(-c5c(F)c(F)c(F)c(F)c5F)c5ccc([nH]5)c(-c5c(F)c(F)c(F)c(F)c5F)c5nc(c(-c6c(F)c(F)c(F)c(F)c6F)c6ccc3[nH]6)C=C5)C=C4)cc2)C1
REMARK SMILES IDX 24 1 23 2 22 3 21 4 20 5 19 6 17 7 18 8 16 9 1 10 2 11 3 12
REMARK SMILES IDX 97 13 4 14 5 15 6 16 7 17 8 18 9 19 10 21 11 22 12 23 13 24
REMARK SMILES IDX 14 25 15 26 25 27 26 28 27 29 28 30 29 31 30 32 31 33 32 34
REMARK SMILES IDX 33 35 34 36 35 37 96 38 36 39 95 40 37 41 38 42 39 43 89 44
REMARK SMILES IDX 40 45 94 46 88 47 90 48 41 49 93 50 87 51 86 52 42 54 74 55
REMARK SMILES IDX 54 56 73 57 55 58 58 59 72 60 91 61 56 62 57 63 71 65 92 66
REMARK SMILES IDX 59 67 43 68 44 69 52 70 45 71 46 72 50 73 53 74 47 75 48 76
REMARK SMILES IDX 51 77 49 78 75 79 76 80 84 81 77 82 78 83 82 84 85 85 79 86
REMARK SMILES IDX 80 87 83 88 81 89 60 90 61 91 69 92 62 93 63 94 67 95 70 96
REMARK SMILES IDX 64 97 65 98 68 99 66 100
REMARK H PARENT 9 20 90 53 58 64
REMARK Flexibility Score: inf
ROOT
ATOM      1  C   UNL A   1      37.785  21.248  25.248  1.00  0.00     0.188 C 
ENDROOT
BRANCH   1   2
ATOM      2  C   UNL A   1      36.502  21.949  25.728  1.00  0.00     0.188 C 
BRANCH   2   3
ATOM      3  O   UNL A   1      35.343  21.450  25.054  1.00  0.00    -0.376 OA
BRANCH   3   4
ATOM      4  C   UNL A   1      34.469  20.661  25.856  1.00  0.00     0.202 C 
BRANCH   4   5
ATOM      5  C   UNL A   1      33.039  21.199  25.970  1.00  0.00     0.261 C 
BRANCH   5   6
ATOM      6  O   UNL A   1      32.883  22.326  26.862  1.00  0.00    -0.463 OA
BRANCH   6   7
ATOM      7  C   UNL A   1      32.129  23.377  26.448  1.00  0.00     0.310 C 
ATOM      8  O   UNL A   1      31.520  24.119  27.203  1.00  0.00    -0.252 OA
BRANCH   7   9
ATOM      9  C   UNL A   1      32.055  23.410  24.932  1.00  0.00     0.116 C 
ATOM     10  C   UNL A   1      29.281  25.847  23.837  1.00  0.00     0.039 C 
ATOM     11  C   UNL A   1      30.537  25.050  23.628  1.00  0.00    -0.073 C 
ATOM     12  C   UNL A   1      31.496  25.300  22.713  1.00  0.00    -0.074 C 
ATOM     13  C   UNL A   1      30.638  23.840  24.522  1.00  0.00     0.046 C 
ATOM     14  C   UNL A   1      31.438  26.343  21.630  1.00  0.00     0.039 C 
ATOM     15  C   UNL A   1      32.757  24.473  22.711  1.00  0.00     0.045 C 
ATOM     16  C   UNL A   1      33.198  24.055  24.124  1.00  0.00     0.097 C 
BRANCH  16  17
ATOM     17  C   UNL A   1      34.237  25.054  24.662  1.00  0.00     0.224 C 
ATOM     18  O   UNL A   1      35.409  24.660  24.790  1.00  0.00    -0.275 OA
ATOM     19  N   UNL A   1      34.061  26.351  24.989  1.00  0.00    -0.353 N 
ATOM     20  H   UNL A   1      34.777  26.717  25.556  1.00  0.00     0.163 HD
BRANCH  19  21
ATOM     21  C   UNL A   1      33.019  27.319  24.668  1.00  0.00     0.084 C 
ATOM     22  C   UNL A   1      33.593  28.325  23.659  1.00  0.00     0.031 C 
BRANCH  21  23
ATOM     23  C   UNL A   1      32.432  28.031  25.948  1.00  0.00    -0.018 C 
ATOM     24  C   UNL A   1      31.892  29.416  25.539  1.00  0.00     0.013 C 
ATOM     25  C   UNL A   1      31.255  27.251  26.556  1.00  0.00     0.013 C 
ATOM     26  C   UNL A   1      33.460  28.205  27.088  1.00  0.00     0.013 C 
ENDBRANCH  21  23
ENDBRANCH  19  21
ENDBRANCH  16  17
ENDBRANCH   7   9
ENDBRANCH   6   7
ENDBRANCH   5   6
ENDBRANCH   4   5
ENDBRANCH   3   4
ENDBRANCH   2   3
ENDBRANCH   1   2
BRANCH   1  27
ATOM     27  O   UNL A   1      39.009  21.710  25.799  1.00  0.00    -0.377 OA
BRANCH  27  28
ATOM     28  C   UNL A   1      39.928  20.694  26.127  1.00  0.00     0.188 C 
BRANCH  28  29
ATOM     29  C   UNL A   1      40.863  21.021  27.308  1.00  0.00     0.188 C 
BRANCH  29  30
ATOM     30  O   UNL A   1      42.195  21.497  27.137  1.00  0.00    -0.376 OA
BRANCH  30  31
ATOM     31  C   UNL A   1      43.000  21.118  26.029  1.00  0.00     0.202 C 
BRANCH  31  32
ATOM     32  C   UNL A   1      43.654  22.187  25.146  1.00  0.00     0.261 C 
BRANCH  32  33
ATOM     33  O   UNL A   1      42.909  23.405  25.055  1.00  0.00    -0.460 OA
BRANCH  33  34
ATOM     34  C   UNL A   1      43.621  24.542  25.203  1.00  0.00     0.338 C 
ATOM     35  O   UNL A   1      44.602  24.901  24.572  1.00  0.00    -0.246 OA
BRANCH  34  36
ATOM     36  C   UNL A   1      42.891  25.428  26.129  1.00  0.00     0.060 A 
ATOM     37  C   UNL A   1      43.343  26.751  26.253  1.00  0.00     0.016 A 
ATOM     38  C   UNL A   1      41.745  24.997  26.804  1.00  0.00     0.016 A 
ATOM     39  C   UNL A   1      42.646  27.651  27.049  1.00  0.00     0.010 A 
ATOM     40  C   UNL A   1      41.084  25.883  27.655  1.00  0.00     0.010 A 
ATOM     41  C   UNL A   1      41.551  27.201  27.799  1.00  0.00    -0.014 A 
BRANCH  41  42
ATOM     42  C   UNL A   1      41.118  28.013  28.953  1.00  0.00     0.031 A 
ATOM     43  C   UNL A   1      41.908  27.861  30.220  1.00  0.00     0.074 A 
ATOM     44  C   UNL A   1      40.091  28.873  28.871  1.00  0.00     0.049 A 
ATOM     45  N   UNL A   1      41.766  28.461  31.371  1.00  0.00    -0.248 NA
ATOM     46  C   UNL A   1      43.027  26.901  30.176  1.00  0.00     0.031 C 
ATOM     47  C   UNL A   1      39.294  29.135  27.675  1.00  0.00     0.029 A 
ATOM     48  N   UNL A   1      39.546  29.691  29.828  1.00  0.00    -0.354 N 
ATOM     49  C   UNL A   1      42.785  27.970  32.175  1.00  0.00     0.074 A 
ATOM     50  C   UNL A   1      43.522  27.000  31.398  1.00  0.00     0.031 C 
ATOM     51  C   UNL A   1      38.351  30.047  27.974  1.00  0.00     0.029 A 
ATOM     52  C   UNL A   1      38.467  30.411  29.386  1.00  0.00     0.049 A 
ATOM     53  H   UNL A   1      39.898  29.753  30.746  1.00  0.00     0.167 HD
ATOM     54  C   UNL A   1      43.085  28.301  33.450  1.00  0.00     0.037 A 
ATOM     55  C   UNL A   1      37.663  31.255  30.062  1.00  0.00     0.037 A 
ATOM     56  C   UNL A   1      42.313  29.222  34.234  1.00  0.00     0.049 A 
ATOM     57  C   UNL A   1      37.943  31.517  31.521  1.00  0.00     0.074 A 
ATOM     58  C   UNL A   1      42.497  29.606  35.549  1.00  0.00     0.029 A 
ATOM     59  N   UNL A   1      41.188  29.888  33.771  1.00  0.00    -0.354 N 
ATOM     60  N   UNL A   1      38.921  31.068  32.273  1.00  0.00    -0.248 NA
ATOM     61  C   UNL A   1      37.005  32.400  32.227  1.00  0.00     0.031 C 
ATOM     62  C   UNL A   1      41.453  30.470  35.896  1.00  0.00     0.029 A 
ATOM     63  C   UNL A   1      40.650  30.665  34.782  1.00  0.00     0.049 A 
ATOM     64  H   UNL A   1      40.826  29.819  32.858  1.00  0.00     0.167 HD
ATOM     65  C   UNL A   1      38.737  31.639  33.525  1.00  0.00     0.074 A 
ATOM     66  C   UNL A   1      37.556  32.471  33.431  1.00  0.00     0.031 C 
ATOM     67  C   UNL A   1      39.479  31.494  34.652  1.00  0.00     0.037 A 
BRANCH  54  68
ATOM     68  C   UNL A   1      44.268  27.618  34.066  1.00  0.00     0.064 A 
ATOM     69  C   UNL A   1      44.144  26.379  34.715  1.00  0.00     0.173 A 
ATOM     70  C   UNL A   1      45.533  28.222  34.039  1.00  0.00     0.173 A 
ATOM     71  F   UNL A   1      42.948  25.775  34.793  1.00  0.00    -0.203 F 
ATOM     72  C   UNL A   1      45.237  25.787  35.342  1.00  0.00     0.198 A 
ATOM     73  C   UNL A   1      46.629  27.614  34.644  1.00  0.00     0.198 A 
ATOM     74  F   UNL A   1      45.702  29.411  33.440  1.00  0.00    -0.203 F 
ATOM     75  F   UNL A   1      45.081  24.634  36.008  1.00  0.00    -0.200 F 
ATOM     76  C   UNL A   1      46.479  26.403  35.302  1.00  0.00     0.200 A 
ATOM     77  F   UNL A   1      47.830  28.208  34.602  1.00  0.00    -0.200 F 
ATOM     78  F   UNL A   1      47.529  25.835  35.911  1.00  0.00    -0.200 F 
ENDBRANCH  54  68
BRANCH  55  79
ATOM     79  C   UNL A   1      36.522  31.915  29.376  1.00  0.00     0.064 A 
ATOM     80  C   UNL A   1      36.533  33.294  29.120  1.00  0.00     0.173 A 
ATOM     81  C   UNL A   1      35.388  31.189  28.983  1.00  0.00     0.173 A 
ATOM     82  F   UNL A   1      37.582  34.037  29.501  1.00  0.00    -0.203 F 
ATOM     83  C   UNL A   1      35.448  33.922  28.510  1.00  0.00     0.198 A 
ATOM     84  C   UNL A   1      34.314  31.815  28.351  1.00  0.00     0.198 A 
ATOM     85  F   UNL A   1      35.323  29.869  29.210  1.00  0.00    -0.203 F 
ATOM     86  F   UNL A   1      35.468  35.247  28.314  1.00  0.00    -0.200 F 
ATOM     87  C   UNL A   1      34.343  33.181  28.121  1.00  0.00     0.200 A 
ATOM     88  F   UNL A   1      33.252  31.093  27.970  1.00  0.00    -0.200 F 
ATOM     89  F   UNL A   1      33.301  33.786  27.534  1.00  0.00    -0.200 F 
ENDBRANCH  55  79
BRANCH  67  90
ATOM     90  C   UNL A   1      39.064  32.283  35.857  1.00  0.00     0.064 A 
ATOM     91  C   UNL A   1      38.241  31.734  36.851  1.00  0.00     0.173 A 
ATOM     92  C   UNL A   1      39.548  33.586  36.048  1.00  0.00     0.173 A 
ATOM     93  F   UNL A   1      37.743  30.496  36.706  1.00  0.00    -0.203 F 
ATOM     94  C   UNL A   1      37.902  32.469  37.984  1.00  0.00     0.198 A 
ATOM     95  C   UNL A   1      39.232  34.307  37.194  1.00  0.00     0.198 A 
ATOM     96  F   UNL A   1      40.346  34.152  35.130  1.00  0.00    -0.203 F 
ATOM     97  F   UNL A   1      37.082  31.940  38.902  1.00  0.00    -0.200 F 
ATOM     98  C   UNL A   1      38.405  33.750  38.158  1.00  0.00     0.200 A 
ATOM     99  F   UNL A   1      39.730  35.538  37.369  1.00  0.00    -0.200 F 
ATOM    100  F   UNL A   1      38.086  34.451  39.255  1.00  0.00    -0.200 F 
ENDBRANCH  67  90
ENDBRANCH  41  42
ENDBRANCH  34  36
ENDBRANCH  33  34
ENDBRANCH  32  33
ENDBRANCH  31  32
ENDBRANCH  30  31
ENDBRANCH  29  30
ENDBRANCH  28  29
ENDBRANCH  27  28
ENDBRANCH   1  27
TORSDOF 23
ENDMDL
MODEL 2
REMARK VINA RESULT:     -10.5      0.980      2.012
REMARK SMILES CC1=C(C)C[C@@H](C(=O)N[C@H](C)C(C)(C)C)[C@@H](C(=O)OCCOCCOCCOCCOC(=O)c2ccc(-c3c4nc(c(-c5c(F)c(F)c(F)c(F)c5F)c5ccc([nH]5)c(-c5c(F)c(F)c(F)c(F)c5F)c5nc(c(-c6c(F)c(F)c(F)c(F)c6F)c6ccc3[nH]6)C=C5)C=C4)cc2)C1
REMARK SMILES IDX 24 1 23 2 22 3 21 4 20 5 19 6 17 7 18 8 16 9 1 10 2 11 3 12
REMARK SMILES IDX 97 13 4 14 5 15 6 16 7 17 8 18 9 19 10 21 11 22 12 23 13 24
REMARK SMILES IDX 14 25 15 26 25 27 26 28 27 29 28 30 29 31 30 32 31 33 32 34
REMARK SMILES IDX 33 35 34 36 35 37 96 38 36 39 95 40 37 41 38 42 39 43 89 44
REMARK SMILES IDX 40 45 94 46 88 47 90 48 41 49 93 50 87 51 86 52 42 54 74 55
REMARK SMILES IDX 54 56 73 57 55 58 58 59 72 60 91 61 56 62 57 63 71 65 92 66
REMARK SMILES IDX 59 67 43 68 44 69 52 70 45 71 46 72 50 73 53 74 47 75 48 76
REMARK SMILES IDX 51 77 49 78 75 79 76 80 84 81 77 82 78 83 82 84 85 85 79 86
REMARK SMILES IDX 80 87 83 88 81 89 60 90 61 91 69 92 62 93 63 94 67 95 70 96
REMARK SMILES IDX 64 97 65 98 68 99 66 100
REMARK H PARENT 9 20 90 53 58 64
REMARK Flexibility Score: inf
ROOT
ATOM      1  C   UNL A   1      38.148  21.600  25.397  1.00  0.00     0.188 C 
ENDROOT
BRANCH   1   2
ATOM      2  C   UNL A   1      37.029  22.568  25.823  1.00  0.00     0.188 C 
BRANCH   2   3
ATOM      3  O   UNL A   1      35.733  22.000  25.617  1.00  0.00    -0.376 OA
BRANCH   3   4
ATOM      4  C   UNL A   1      34.790  22.254  26.656  1.00  0.00     0.202 C 
BRANCH   4   5
ATOM      5  C   UNL A   1      33.322  22.178  26.224  1.00  0.00     0.261 C 
BRANCH   5   6
ATOM      6  O   UNL A   1      32.504  23.290  26.654  1.00  0.00    -0.463 OA
BRANCH   6   7
ATOM      7  C   UNL A   1      32.114  24.201  25.725  1.00  0.00     0.310 C 
ATOM      8  O   UNL A   1      31.063  24.137  25.107  1.00  0.00    -0.252 OA
BRANCH   7   9
ATOM      9  C   UNL A   1      33.217  25.216  25.484  1.00  0.00     0.116 C 
ATOM     10  C   UNL A   1      33.234  26.231  21.768  1.00  0.00     0.039 C 
ATOM     11  C   UNL A   1      33.546  26.433  23.224  1.00  0.00    -0.073 C 
ATOM     12  C   UNL A   1      33.794  27.612  23.830  1.00  0.00    -0.074 C 
ATOM     13  C   UNL A   1      33.630  25.145  24.005  1.00  0.00     0.046 C 
ATOM     14  C   UNL A   1      33.942  28.945  23.148  1.00  0.00     0.039 C 
ATOM     15  C   UNL A   1      33.973  27.657  25.326  1.00  0.00     0.045 C 
ATOM     16  C   UNL A   1      33.087  26.638  26.063  1.00  0.00     0.097 C 
BRANCH  16  17
ATOM     17  C   UNL A   1      31.784  27.317  26.522  1.00  0.00     0.224 C 
ATOM     18  O   UNL A   1      31.431  27.156  27.702  1.00  0.00    -0.275 OA
ATOM     19  N   UNL A   1      30.964  28.119  25.813  1.00  0.00    -0.353 N 
ATOM     20  H   UNL A   1      30.068  28.216  26.208  1.00  0.00     0.163 HD
BRANCH  19  21
ATOM     21  C   UNL A   1      31.142  28.871  24.576  1.00  0.00     0.084 C 
ATOM     22  C   UNL A   1      31.094  30.368  24.914  1.00  0.00     0.031 C 
BRANCH  21  23
ATOM     23  C   UNL A   1      30.090  28.478  23.467  1.00  0.00    -0.018 C 
ATOM     24  C   UNL A   1      28.893  29.445  23.557  1.00  0.00     0.013 C 
ATOM     25  C   UNL A   1      30.669  28.609  22.048  1.00  0.00     0.013 C 
ATOM     26  C   UNL A   1      29.578  27.025  23.584  1.00  0.00     0.013 C 
ENDBRANCH  21  23
ENDBRANCH  19  21
ENDBRANCH  16  17
ENDBRANCH   7   9
ENDBRANCH   6   7
ENDBRANCH   5   6
ENDBRANCH   4   5
ENDBRANCH   3   4
ENDBRANCH   2   3
ENDBRANCH   1   2
BRANCH   1  27
ATOM     27  O   UNL A   1      39.372  21.687  26.111  1.00  0.00    -0.377 OA
BRANCH  27  28
ATOM     28  C   UNL A   1      40.122  20.495  26.142  1.00  0.00     0.188 C 
BRANCH  28  29
ATOM     29  C   UNL A   1      41.252  20.467  27.189  1.00  0.00     0.188 C 
BRANCH  29  30
ATOM     30  O   UNL A   1      42.538  21.036  26.962  1.00  0.00    -0.376 OA
BRANCH  30  31
ATOM     31  C   UNL A   1      43.275  20.794  25.770  1.00  0.00     0.202 C 
BRANCH  31  32
ATOM     32  C   UNL A   1      43.979  21.948  25.049  1.00  0.00     0.261 C 
BRANCH  32  33
ATOM     33  O   UNL A   1      43.194  23.142  24.951  1.00  0.00    -0.460 OA
BRANCH  33  34
ATOM     34  C   UNL A   1      43.874  24.303  25.062  1.00  0.00     0.338 C 
ATOM     35  O   UNL A   1      44.835  24.676  24.409  1.00  0.00    -0.246 OA
BRANCH  34  36
ATOM     36  C   UNL A   1      43.130  25.187  25.979  1.00  0.00     0.060 A 
ATOM     37  C   UNL A   1      43.589  26.506  26.122  1.00  0.00     0.016 A 
ATOM     38  C   UNL A   1      41.968  24.760  26.626  1.00  0.00     0.016 A 
ATOM     39  C   UNL A   1      42.882  27.405  26.909  1.00  0.00     0.010 A 
ATOM     40  C   UNL A   1      41.294  25.644  27.470  1.00  0.00     0.010 A 
ATOM     41  C   UNL A   1      41.768  26.958  27.632  1.00  0.00    -0.014 A 
BRANCH  41  42
ATOM     42  C   UNL A   1      41.316  27.765  28.783  1.00  0.00     0.031 A 
ATOM     43  C   UNL A   1      42.115  27.642  30.049  1.00  0.00     0.074 A 
ATOM     44  C   UNL A   1      40.266  28.596  28.699  1.00  0.00     0.049 A 
ATOM     45  N   UNL A   1      41.959  28.246  31.197  1.00  0.00    -0.248 NA
ATOM     46  C   UNL A   1      43.259  26.714  30.007  1.00  0.00     0.031 C 
ATOM     47  C   UNL A   1      39.459  28.829  27.504  1.00  0.00     0.029 A 
ATOM     48  N   UNL A   1      39.702  29.404  29.653  1.00  0.00    -0.354 N 
ATOM     49  C   UNL A   1      42.994  27.788  31.999  1.00  0.00     0.074 A 
ATOM     50  C   UNL A   1      43.754  26.834  31.226  1.00  0.00     0.031 C 
ATOM     51  C   UNL A   1      38.491  29.716  27.801  1.00  0.00     0.029 A 
ATOM     52  C   UNL A   1      38.602  30.092  29.210  1.00  0.00     0.049 A 
ATOM     53  H   UNL A   1      40.054  29.482  30.569  1.00  0.00     0.167 HD
ATOM     54  C   UNL A   1      43.289  28.135  33.272  1.00  0.00     0.037 A 
ATOM     55  C   UNL A   1      37.778  30.918  29.882  1.00  0.00     0.037 A 
ATOM     56  C   UNL A   1      42.494  29.040  34.053  1.00  0.00     0.049 A 
ATOM     57  C   UNL A   1      38.054  31.196  31.340  1.00  0.00     0.074 A 
ATOM     58  C   UNL A   1      42.671  29.436  35.364  1.00  0.00     0.029 A 
ATOM     59  N   UNL A   1      41.349  29.671  33.589  1.00  0.00    -0.354 N 
ATOM     60  N   UNL A   1      39.047  30.779  32.091  1.00  0.00    -0.248 NA
ATOM     61  C   UNL A   1      37.095  32.059  32.043  1.00  0.00     0.031 C 
ATOM     62  C   UNL A   1      41.605  30.274  35.710  1.00  0.00     0.029 A 
ATOM     63  C   UNL A   1      40.794  30.440  34.597  1.00  0.00     0.049 A 
ATOM     64  H   UNL A   1      40.987  29.587  32.677  1.00  0.00     0.167 HD
ATOM     65  C   UNL A   1      38.851  31.353  33.340  1.00  0.00     0.074 A 
ATOM     66  C   UNL A   1      37.647  32.152  33.245  1.00  0.00     0.031 C 
ATOM     67  C   UNL A   1      39.600  31.235  34.466  1.00  0.00     0.037 A 
BRANCH  54  68
ATOM     68  C   UNL A   1      44.492  27.489  33.888  1.00  0.00     0.064 A 
ATOM     69  C   UNL A   1      44.405  26.246  34.536  1.00  0.00     0.173 A 
ATOM     70  C   UNL A   1      45.736  28.132  33.863  1.00  0.00     0.173 A 
ATOM     71  F   UNL A   1      43.229  25.604  34.611  1.00  0.00    -0.203 F 
ATOM     72  C   UNL A   1      45.516  25.687  35.163  1.00  0.00     0.198 A 
ATOM     73  C   UNL A   1      46.851  27.558  34.469  1.00  0.00     0.198 A 
ATOM     74  F   UNL A   1      45.869  29.326  33.266  1.00  0.00    -0.203 F 
ATOM     75  F   UNL A   1      45.396  24.529  35.827  1.00  0.00    -0.200 F 
ATOM     76  C   UNL A   1      46.738  26.342  35.125  1.00  0.00     0.200 A 
ATOM     77  F   UNL A   1      48.032  28.189  34.430  1.00  0.00    -0.200 F 
ATOM     78  F   UNL A   1      47.805  25.806  35.735  1.00  0.00    -0.200 F 
ENDBRANCH  54  68
BRANCH  55  79
ATOM     79  C   UNL A   1      36.616  31.542  29.196  1.00  0.00     0.064 A 
ATOM     80  C   UNL A   1      36.581  32.922  28.947  1.00  0.00     0.173 A 
ATOM     81  C   UNL A   1      35.509  30.780  28.796  1.00  0.00     0.173 A 
ATOM     82  F   UNL A   1      37.604  33.698  29.335  1.00  0.00    -0.203 F 
ATOM     83  C   UNL A   1      35.478  33.516  28.336  1.00  0.00     0.198 A 
ATOM     84  C   UNL A   1      34.417  31.372  28.164  1.00  0.00     0.198 A 
ATOM     85  F   UNL A   1      35.489  29.458  29.017  1.00  0.00    -0.203 F 
ATOM     86  F   UNL A   1      35.452  34.842  28.148  1.00  0.00    -0.200 F 
ATOM     87  C   UNL A   1      34.399  32.739  27.941  1.00  0.00     0.200 A 
ATOM     88  F   UNL A   1      33.380  30.617  27.775  1.00  0.00    -0.200 F 
ATOM     89  F   UNL A   1      33.339  33.312  27.353  1.00  0.00    -0.200 F 
ENDBRANCH  55  79
BRANCH  67  90
ATOM     90  C   UNL A   1      39.167  32.021  35.667  1.00  0.00     0.064 A 
ATOM     91  C   UNL A   1      39.524  33.366  35.836  1.00  0.00     0.173 A 
ATOM     92  C   UNL A   1      38.331  31.435  36.629  1.00  0.00     0.173 A 
ATOM     93  F   UNL A   1      40.332  33.967  34.948  1.00  0.00    -0.203 F 
ATOM     94  C   UNL A   1      39.075  34.091  36.937  1.00  0.00     0.198 A 
ATOM     95  C   UNL A   1      37.860  32.169  37.712  1.00  0.00     0.198 A 
ATOM     96  F   UNL A   1      37.954  30.153  36.507  1.00  0.00    -0.203 F 
ATOM     97  F   UNL A   1      39.460  35.364  37.101  1.00  0.00    -0.200 F 
ATOM     98  C   UNL A   1      38.237  33.495  37.868  1.00  0.00     0.200 A 
ATOM     99  F   UNL A   1      37.039  31.597  38.603  1.00  0.00    -0.200 F 
ATOM    100  F   UNL A   1      37.798  34.197  38.921  1.00  0.00    -0.200 F 
ENDBRANCH  67  90
ENDBRANCH  41  42
ENDBRANCH  34  36
ENDBRANCH  33  34
ENDBRANCH  32  33
ENDBRANCH  31  32
ENDBRANCH  30  31
ENDBRANCH  29  30
ENDBRANCH  28  29
ENDBRANCH  27  28
ENDBRANCH   1  27
TORSDOF 23
ENDMDL
MODEL 3
REMARK VINA RESULT:      -9.5      5.137     11.908
REMARK SMILES CC1=C(C)C[C@@H](C(=O)N[C@H](C)C(C)(C)C)[C@@H](C(=O)OCCOCCOCCOCCOC(=O)c2ccc(-c3c4nc(c(-c5c(F)c(F)c(F)c(F)c5F)c5ccc([nH]5)c(-c5c(F)c(F)c(F)c(F)c5F)c5nc(c(-c6c(F)c(F)c(F)c(F)c6F)c6ccc3[nH]6)C=C5)C=C4)cc2)C1
REMARK SMILES IDX 24 1 23 2 22 3 21 4 20 5 19 6 17 7 18 8 16 9 1 10 2 11 3 12
REMARK SMILES IDX 97 13 4 14 5 15 6 16 7 17 8 18 9 19 10 21 11 22 12 23 13 24
REMARK SMILES IDX 14 25 15 26 25 27 26 28 27 29 28 30 29 31 30 32 31 33 32 34
REMARK SMILES IDX 33 35 34 36 35 37 96 38 36 39 95 40 37 41 38 42 39 43 89 44
REMARK SMILES IDX 40 45 94 46 88 47 90 48 41 49 93 50 87 51 86 52 42 54 74 55
REMARK SMILES IDX 54 56 73 57 55 58 58 59 72 60 91 61 56 62 57 63 71 65 92 66
REMARK SMILES IDX 59 67 43 68 44 69 52 70 45 71 46 72 50 73 53 74 47 75 48 76
REMARK SMILES IDX 51 77 49 78 75 79 76 80 84 81 77 82 78 83 82 84 85 85 79 86
REMARK SMILES IDX 80 87 83 88 81 89 60 90 61 91 69 92 62 93 63 94 67 95 70 96
REMARK SMILES IDX 64 97 65 98 68 99 66 100
REMARK H PARENT 9 20 90 53 58 64
REMARK Flexibility Score: inf
ROOT
ATOM      1  C   UNL A   1      35.322  31.891  27.957  1.00  0.00     0.188 C 
ENDROOT
BRANCH   1   2
ATOM      2  C   UNL A   1      35.864  30.473  27.698  1.00  0.00     0.188 C 
BRANCH   2   3
ATOM      3  O   UNL A   1      35.928  29.704  28.902  1.00  0.00    -0.376 OA
BRANCH   3   4
ATOM      4  C   UNL A   1      37.212  29.647  29.516  1.00  0.00     0.202 C 
BRANCH   4   5
ATOM      5  C   UNL A   1      38.241  28.787  28.774  1.00  0.00     0.261 C 
BRANCH   5   6
ATOM      6  O   UNL A   1      38.945  27.832  29.602  1.00  0.00    -0.463 OA
BRANCH   6   7
ATOM      7  C   UNL A   1      40.263  27.613  29.355  1.00  0.00     0.310 C 
ATOM      8  O   UNL A   1      41.122  27.579  30.222  1.00  0.00    -0.252 OA
BRANCH   7   9
ATOM      9  C   UNL A   1      40.517  27.548  27.860  1.00  0.00     0.116 C 
ATOM     10  C   UNL A   1      44.272  28.063  27.176  1.00  0.00     0.039 C 
ATOM     11  C   UNL A   1      42.890  27.588  26.829  1.00  0.00    -0.073 C 
ATOM     12  C   UNL A   1      42.578  26.631  25.932  1.00  0.00    -0.074 C 
ATOM     13  C   UNL A   1      41.798  28.339  27.549  1.00  0.00     0.046 C 
ATOM     14  C   UNL A   1      43.539  25.941  25.002  1.00  0.00     0.039 C 
ATOM     15  C   UNL A   1      41.145  26.186  25.786  1.00  0.00     0.045 C 
ATOM     16  C   UNL A   1      40.376  26.205  27.118  1.00  0.00     0.097 C 
BRANCH  16  17
ATOM     17  C   UNL A   1      40.408  24.806  27.759  1.00  0.00     0.224 C 
ATOM     18  O   UNL A   1      39.322  24.255  28.001  1.00  0.00    -0.275 OA
ATOM     19  N   UNL A   1      41.483  24.052  28.069  1.00  0.00    -0.353 N 
ATOM     20  H   UNL A   1      41.287  23.328  28.705  1.00  0.00     0.163 HD
BRANCH  19  21
ATOM     21  C   UNL A   1      42.878  24.098  27.648  1.00  0.00     0.084 C 
ATOM     22  C   UNL A   1      43.161  22.856  26.790  1.00  0.00     0.031 C 
BRANCH  21  23
ATOM     23  C   UNL A   1      43.878  24.220  28.863  1.00  0.00    -0.018 C 
ATOM     24  C   UNL A   1      43.436  25.401  29.750  1.00  0.00     0.013 C 
ATOM     25  C   UNL A   1      43.869  22.964  29.749  1.00  0.00     0.013 C 
ATOM     26  C   UNL A   1      45.348  24.429  28.437  1.00  0.00     0.013 C 
ENDBRANCH  21  23
ENDBRANCH  19  21
ENDBRANCH  16  17
ENDBRANCH   7   9
ENDBRANCH   6   7
ENDBRANCH   5   6
ENDBRANCH   4   5
ENDBRANCH   3   4
ENDBRANCH   2   3
ENDBRANCH   1   2
BRANCH   1  27
ATOM     27  O   UNL A   1      36.284  32.906  28.202  1.00  0.00    -0.377 OA
BRANCH  27  28
ATOM     28  C   UNL A   1      36.131  33.579  29.429  1.00  0.00     0.188 C 
BRANCH  28  29
ATOM     29  C   UNL A   1      34.699  34.063  29.729  1.00  0.00     0.188 C 
BRANCH  29  30
ATOM     30  O   UNL A   1      34.035  33.811  30.964  1.00  0.00    -0.376 OA
BRANCH  30  31
ATOM     31  C   UNL A   1      34.404  32.736  31.818  1.00  0.00     0.202 C 
BRANCH  31  32
ATOM     32  C   UNL A   1      35.358  32.975  32.993  1.00  0.00     0.261 C 
BRANCH  32  33
ATOM     33  O   UNL A   1      36.289  31.911  33.217  1.00  0.00    -0.460 OA
BRANCH  33  34
ATOM     34  C   UNL A   1      37.189  32.115  34.201  1.00  0.00     0.338 C 
ATOM     35  O   UNL A   1      37.020  32.683  35.268  1.00  0.00    -0.246 OA
BRANCH  34  36
ATOM     36  C   UNL A   1      38.402  31.336  33.886  1.00  0.00     0.060 A 
ATOM     37  C   UNL A   1      39.601  31.727  34.502  1.00  0.00     0.016 A 
ATOM     38  C   UNL A   1      38.354  30.205  33.067  1.00  0.00     0.016 A 
ATOM     39  C   UNL A   1      40.757  30.983  34.304  1.00  0.00     0.010 A 
ATOM     40  C   UNL A   1      39.529  29.496  32.816  1.00  0.00     0.010 A 
ATOM     41  C   UNL A   1      40.735  29.903  33.413  1.00  0.00    -0.014 A 
BRANCH  41  42
ATOM     42  C   UNL A   1      42.021  29.422  32.871  1.00  0.00     0.031 A 
ATOM     43  C   UNL A   1      42.623  30.221  31.751  1.00  0.00     0.074 A 
ATOM     44  C   UNL A   1      42.646  28.345  33.372  1.00  0.00     0.049 A 
ATOM     45  N   UNL A   1      43.745  30.043  31.106  1.00  0.00    -0.248 NA
ATOM     46  C   UNL A   1      41.851  31.395  31.303  1.00  0.00     0.031 C 
ATOM     47  C   UNL A   1      42.176  27.534  34.491  1.00  0.00     0.029 A 
ATOM     48  N   UNL A   1      43.824  27.753  32.995  1.00  0.00    -0.354 N 
ATOM     49  C   UNL A   1      43.821  31.091  30.199  1.00  0.00     0.074 A 
ATOM     50  C   UNL A   1      42.623  31.884  30.349  1.00  0.00     0.031 C 
ATOM     51  C   UNL A   1      43.055  26.537  34.704  1.00  0.00     0.029 A 
ATOM     52  C   UNL A   1      44.133  26.632  33.721  1.00  0.00     0.049 A 
ATOM     53  H   UNL A   1      44.393  28.101  32.270  1.00  0.00     0.167 HD
ATOM     54  C   UNL A   1      44.807  31.372  29.318  1.00  0.00     0.037 A 
ATOM     55  C   UNL A   1      45.168  25.780  33.586  1.00  0.00     0.037 A 
ATOM     56  C   UNL A   1      45.967  30.546  29.135  1.00  0.00     0.049 A 
ATOM     57  C   UNL A   1      46.195  26.045  32.512  1.00  0.00     0.074 A 
ATOM     58  C   UNL A   1      47.012  30.708  28.246  1.00  0.00     0.029 A 
ATOM     59  N   UNL A   1      46.216  29.383  29.848  1.00  0.00    -0.354 N 
ATOM     60  N   UNL A   1      46.277  27.048  31.670  1.00  0.00    -0.248 NA
ATOM     61  C   UNL A   1      47.273  25.056  32.368  1.00  0.00     0.031 C 
ATOM     62  C   UNL A   1      47.873  29.614  28.389  1.00  0.00     0.029 A 
ATOM     63  C   UNL A   1      47.390  28.800  29.403  1.00  0.00     0.049 A 
ATOM     64  H   UNL A   1      45.644  29.025  30.565  1.00  0.00     0.167 HD
ATOM     65  C   UNL A   1      47.427  26.831  30.924  1.00  0.00     0.074 A 
ATOM     66  C   UNL A   1      48.014  25.602  31.415  1.00  0.00     0.031 C 
ATOM     67  C   UNL A   1      47.955  27.581  29.924  1.00  0.00     0.037 A 
BRANCH  54  68
ATOM     68  C   UNL A   1      44.629  32.594  28.470  1.00  0.00     0.064 A 
ATOM     69  C   UNL A   1      44.117  32.512  27.165  1.00  0.00     0.173 A 
ATOM     70  C   UNL A   1      45.006  33.855  28.951  1.00  0.00     0.173 A 
ATOM     71  F   UNL A   1      43.770  31.323  26.650  1.00  0.00    -0.203 F 
ATOM     72  C   UNL A   1      44.021  33.646  26.363  1.00  0.00     0.198 A 
ATOM     73  C   UNL A   1      44.882  34.991  28.155  1.00  0.00     0.198 A 
ATOM     74  F   UNL A   1      45.510  33.985  30.188  1.00  0.00    -0.203 F 
ATOM     75  F   UNL A   1      43.585  33.535  25.100  1.00  0.00    -0.200 F 
ATOM     76  C   UNL A   1      44.398  34.884  26.860  1.00  0.00     0.200 A 
ATOM     77  F   UNL A   1      45.245  36.187  28.637  1.00  0.00    -0.200 F 
ATOM     78  F   UNL A   1      44.310  35.974  26.085  1.00  0.00    -0.200 F 
ENDBRANCH  54  68
BRANCH  55  79
ATOM     79  C   UNL A   1      45.291  24.601  34.482  1.00  0.00     0.064 A 
ATOM     80  C   UNL A   1      44.760  23.356  34.114  1.00  0.00     0.173 A 
ATOM     81  C   UNL A   1      45.919  24.696  35.733  1.00  0.00     0.173 A 
ATOM     82  F   UNL A   1      44.126  23.220  32.940  1.00  0.00    -0.203 F 
ATOM     83  C   UNL A   1      44.841  22.257  34.967  1.00  0.00     0.198 A 
ATOM     84  C   UNL A   1      46.020  23.590  36.575  1.00  0.00     0.198 A 
ATOM     85  F   UNL A   1      46.437  25.865  36.136  1.00  0.00    -0.203 F 
ATOM     86  F   UNL A   1      44.289  21.091  34.608  1.00  0.00    -0.200 F 
ATOM     87  C   UNL A   1      45.476  22.374  36.195  1.00  0.00     0.200 A 
ATOM     88  F   UNL A   1      46.642  23.706  37.757  1.00  0.00    -0.200 F 
ATOM     89  F   UNL A   1      45.553  21.317  37.015  1.00  0.00    -0.200 F 
ENDBRANCH  55  79
BRANCH  67  90
ATOM     90  C   UNL A   1      49.252  27.120  29.328  1.00  0.00     0.064 A 
ATOM     91  C   UNL A   1      49.289  26.261  28.220  1.00  0.00     0.173 A 
ATOM     92  C   UNL A   1      50.470  27.596  29.835  1.00  0.00     0.173 A 
ATOM     93  F   UNL A   1      48.150  25.770  27.707  1.00  0.00    -0.203 F 
ATOM     94  C   UNL A   1      50.502  25.879  27.653  1.00  0.00     0.198 A 
ATOM     95  C   UNL A   1      51.679  27.236  29.249  1.00  0.00     0.198 A 
ATOM     96  F   UNL A   1      50.486  28.427  30.888  1.00  0.00    -0.203 F 
ATOM     97  F   UNL A   1      50.518  25.026  26.621  1.00  0.00    -0.200 F 
ATOM     98  C   UNL A   1      51.694  26.374  28.163  1.00  0.00     0.200 A 
ATOM     99  F   UNL A   1      52.828  27.725  29.732  1.00  0.00    -0.200 F 
ATOM    100  F   UNL A   1      52.860  26.013  27.609  1.00  0.00    -0.200 F 
ENDBRANCH  67  90
ENDBRANCH  41  42
ENDBRANCH  34  36
ENDBRANCH  33  34
ENDBRANCH  32  33
ENDBRANCH  31  32
ENDBRANCH  30  31
ENDBRANCH  29  30
ENDBRANCH  28  29
ENDBRANCH  27  28
ENDBRANCH   1  27
TORSDOF 23
ENDMDL
