MODEL 1
REMARK VINA RESULT:      -9.9      0.000      0.000
REMARK SMILES CCC[C@@H](c1cccc(C(=O)OCCOCCOCCOCCOC(=O)c2ccc(-c3c4nc(c(-c5c(F)c(F)c(F)c(F)c5F)c5ccc([nH]5)c(-c5c(F)c(F)c(F)c(F)c5F)c5nc(c(-c6c(F)c(F)c(F)c(F)c6F)c6ccc3[nH]6)C=C5)C=C4)cc2)c1)[C@H]1C[NH2+]CC[NH2+]1
REMARK SMILES IDX 17 1 16 2 15 3 14 4 13 5 12 6 10 7 11 8 9 9 5 10 6 11 90 12
REMARK SMILES IDX 7 13 8 14 4 15 3 16 2 17 1 18 91 19 92 20 96 21 93 22 95 23
REMARK SMILES IDX 94 26 18 29 19 30 20 31 21 32 22 33 23 34 24 35 25 36 26 37
REMARK SMILES IDX 27 38 28 39 89 40 29 41 88 42 30 43 31 44 32 45 82 46 33 47
REMARK SMILES IDX 87 48 81 49 83 50 34 51 86 52 80 53 79 54 35 56 67 57 47 58
REMARK SMILES IDX 66 59 48 60 51 61 65 62 84 63 49 64 50 65 64 67 85 68 52 69
REMARK SMILES IDX 36 70 37 71 45 72 38 73 39 74 43 75 46 76 40 77 41 78 44 79
REMARK SMILES IDX 42 80 68 81 69 82 77 83 70 84 71 85 75 86 78 87 72 88 73 89
REMARK SMILES IDX 76 90 74 91 53 92 54 93 62 94 55 95 56 96 60 97 63 98 57 99
REMARK SMILES IDX 58 100 61 101 59 102
REMARK H PARENT 96 24 96 25 93 27 93 28 83 55 51 66
REMARK Flexibility Score: inf
ROOT
ATOM      1  C   UNL A   1      38.182  20.736  25.009  1.00  0.00     0.188 C 
ENDROOT
BRANCH   1   2
ATOM      2  C   UNL A   1      37.095  19.641  24.990  1.00  0.00     0.188 C 
BRANCH   2   3
ATOM      3  O   UNL A   1      35.758  20.119  24.893  1.00  0.00    -0.376 OA
BRANCH   3   4
ATOM      4  C   UNL A   1      34.760  19.157  24.592  1.00  0.00     0.202 C 
BRANCH   4   5
ATOM      5  C   UNL A   1      33.346  19.668  24.878  1.00  0.00     0.261 C 
BRANCH   5   6
ATOM      6  O   UNL A   1      33.191  21.070  24.624  1.00  0.00    -0.460 OA
BRANCH   6   7
ATOM      7  C   UNL A   1      32.938  21.851  25.699  1.00  0.00     0.338 C 
ATOM      8  O   UNL A   1      32.421  21.498  26.746  1.00  0.00    -0.246 OA
BRANCH   7   9
ATOM      9  C   UNL A   1      33.571  23.173  25.482  1.00  0.00     0.060 A 
ATOM     10  C   UNL A   1      33.427  25.500  24.670  1.00  0.00    -0.038 A 
ATOM     11  C   UNL A   1      34.774  25.612  25.045  1.00  0.00     0.004 A 
ATOM     12  C   UNL A   1      32.842  24.257  24.956  1.00  0.00     0.020 A 
ATOM     13  C   UNL A   1      35.528  24.535  25.533  1.00  0.00     0.001 A 
ATOM     14  C   UNL A   1      34.929  23.305  25.744  1.00  0.00     0.016 A 
BRANCH  10  15
ATOM     15  C   UNL A   1      32.609  26.678  24.095  1.00  0.00     0.083 C 
BRANCH  15  16
ATOM     16  C   UNL A   1      32.088  27.731  25.154  1.00  0.00     0.014 C 
BRANCH  16  17
ATOM     17  C   UNL A   1      32.585  27.755  26.607  1.00  0.00    -0.003 C 
ATOM     18  C   UNL A   1      31.539  28.041  27.668  1.00  0.00     0.004 C 
ENDBRANCH  16  17
ENDBRANCH  15  16
BRANCH  15  19
ATOM     19  C   UNL A   1      31.332  26.376  23.168  1.00  0.00     0.245 C 
ATOM     20  C   UNL A   1      29.983  26.042  23.862  1.00  0.00     0.327 C 
ATOM     21  N   UNL A   1      31.168  27.265  21.994  1.00  0.00    -0.334 N 
ATOM     22  N   UNL A   1      28.874  26.999  23.799  1.00  0.00    -0.337 N 
ATOM     23  C   UNL A   1      30.440  28.478  22.362  1.00  0.00     0.323 C 
ATOM     24  H   UNL A   1      30.649  26.769  21.269  1.00  0.00     0.346 HD
ATOM     25  H   UNL A   1      32.092  27.529  21.650  1.00  0.00     0.346 HD
ATOM     26  C   UNL A   1      29.062  28.206  22.996  1.00  0.00     0.322 C 
ATOM     27  H   UNL A   1      28.675  27.296  24.754  1.00  0.00     0.346 HD
ATOM     28  H   UNL A   1      28.123  26.491  23.331  1.00  0.00     0.346 HD
ENDBRANCH  15  19
ENDBRANCH  10  15
ENDBRANCH   7   9
ENDBRANCH   6   7
ENDBRANCH   5   6
ENDBRANCH   4   5
ENDBRANCH   3   4
ENDBRANCH   2   3
ENDBRANCH   1   2
BRANCH   1  29
ATOM     29  O   UNL A   1      38.303  21.627  26.108  1.00  0.00    -0.377 OA
BRANCH  29  30
ATOM     30  C   UNL A   1      39.581  22.099  26.503  1.00  0.00     0.188 C 
BRANCH  30  31
ATOM     31  C   UNL A   1      40.840  21.263  26.199  1.00  0.00     0.188 C 
BRANCH  31  32
ATOM     32  O   UNL A   1      41.949  21.543  27.044  1.00  0.00    -0.376 OA
BRANCH  32  33
ATOM     33  C   UNL A   1      43.202  21.696  26.395  1.00  0.00     0.202 C 
BRANCH  33  34
ATOM     34  C   UNL A   1      43.101  22.188  24.946  1.00  0.00     0.261 C 
BRANCH  34  35
ATOM     35  O   UNL A   1      42.750  23.573  24.796  1.00  0.00    -0.460 OA
BRANCH  35  36
ATOM     36  C   UNL A   1      43.665  24.492  25.173  1.00  0.00     0.338 C 
ATOM     37  O   UNL A   1      44.785  24.654  24.726  1.00  0.00    -0.246 OA
BRANCH  36  38
ATOM     38  C   UNL A   1      43.002  25.407  26.121  1.00  0.00     0.060 A 
ATOM     39  C   UNL A   1      43.434  26.738  26.200  1.00  0.00     0.016 A 
ATOM     40  C   UNL A   1      41.948  24.952  26.915  1.00  0.00     0.016 A 
ATOM     41  C   UNL A   1      42.826  27.613  27.100  1.00  0.00     0.010 A 
ATOM     42  C   UNL A   1      41.355  25.821  27.830  1.00  0.00     0.010 A 
ATOM     43  C   UNL A   1      41.812  27.145  27.949  1.00  0.00    -0.014 A 
BRANCH  43  44
ATOM     44  C   UNL A   1      41.377  27.965  29.102  1.00  0.00     0.031 A 
ATOM     45  C   UNL A   1      42.120  27.809  30.398  1.00  0.00     0.074 A 
ATOM     46  C   UNL A   1      40.347  28.823  29.007  1.00  0.00     0.049 A 
ATOM     47  N   UNL A   1      41.898  28.367  31.561  1.00  0.00    -0.248 NA
ATOM     48  C   UNL A   1      43.270  26.890  30.381  1.00  0.00     0.031 C 
ATOM     49  C   UNL A   1      39.570  29.083  27.798  1.00  0.00     0.029 A 
ATOM     50  N   UNL A   1      39.772  29.626  29.961  1.00  0.00    -0.354 N 
ATOM     51  C   UNL A   1      42.877  27.868  32.408  1.00  0.00     0.074 A 
ATOM     52  C   UNL A   1      43.674  26.937  31.640  1.00  0.00     0.031 C 
ATOM     53  C   UNL A   1      38.606  29.976  28.086  1.00  0.00     0.029 A 
ATOM     54  C   UNL A   1      38.681  30.324  29.505  1.00  0.00     0.049 A 
ATOM     55  H   UNL A   1      40.110  29.695  30.883  1.00  0.00     0.167 HD
ATOM     56  C   UNL A   1      43.098  28.166  33.710  1.00  0.00     0.037 A 
ATOM     57  C   UNL A   1      37.831  31.132  30.169  1.00  0.00     0.037 A 
ATOM     58  C   UNL A   1      42.296  29.080  34.476  1.00  0.00     0.049 A 
ATOM     59  C   UNL A   1      38.052  31.391  31.638  1.00  0.00     0.074 A 
ATOM     60  C   UNL A   1      42.442  29.458  35.799  1.00  0.00     0.029 A 
ATOM     61  N   UNL A   1      41.184  29.751  33.987  1.00  0.00    -0.354 N 
ATOM     62  N   UNL A   1      38.998  30.943  32.428  1.00  0.00    -0.248 NA
ATOM     63  C   UNL A   1      37.085  32.272  32.309  1.00  0.00     0.031 C 
ATOM     64  C   UNL A   1      41.388  30.320  36.124  1.00  0.00     0.029 A 
ATOM     65  C   UNL A   1      40.619  30.522  34.989  1.00  0.00     0.049 A 
ATOM     66  H   UNL A   1      40.847  29.688  33.065  1.00  0.00     0.167 HD
ATOM     67  C   UNL A   1      38.760  31.508  33.675  1.00  0.00     0.074 A 
ATOM     68  C   UNL A   1      37.584  32.341  33.535  1.00  0.00     0.031 C 
ATOM     69  C   UNL A   1      39.452  31.353  34.830  1.00  0.00     0.037 A 
BRANCH  56  70
ATOM     70  C   UNL A   1      44.237  27.467  34.390  1.00  0.00     0.064 A 
ATOM     71  C   UNL A   1      45.516  28.042  34.462  1.00  0.00     0.173 A 
ATOM     72  C   UNL A   1      44.048  26.212  34.985  1.00  0.00     0.173 A 
ATOM     73  F   UNL A   1      45.754  29.233  33.891  1.00  0.00    -0.203 F 
ATOM     74  C   UNL A   1      46.569  27.373  35.081  1.00  0.00     0.198 A 
ATOM     75  C   UNL A   1      45.095  25.559  35.629  1.00  0.00     0.198 A 
ATOM     76  F   UNL A   1      42.846  25.618  34.945  1.00  0.00    -0.203 F 
ATOM     77  F   UNL A   1      47.793  27.917  35.091  1.00  0.00    -0.200 F 
ATOM     78  C   UNL A   1      46.356  26.135  35.669  1.00  0.00     0.200 A 
ATOM     79  F   UNL A   1      44.886  24.366  36.205  1.00  0.00    -0.200 F 
ATOM     80  F   UNL A   1      47.370  25.493  36.266  1.00  0.00    -0.200 F 
ENDBRANCH  56  70
BRANCH  57  81
ATOM     81  C   UNL A   1      36.684  31.751  29.454  1.00  0.00     0.064 A 
ATOM     82  C   UNL A   1      36.657  33.126  29.183  1.00  0.00     0.173 A 
ATOM     83  C   UNL A   1      35.583  30.984  29.047  1.00  0.00     0.173 A 
ATOM     84  F   UNL A   1      37.673  33.907  29.579  1.00  0.00    -0.203 F 
ATOM     85  C   UNL A   1      35.565  33.713  28.545  1.00  0.00     0.198 A 
ATOM     86  C   UNL A   1      34.504  31.567  28.384  1.00  0.00     0.198 A 
ATOM     87  F   UNL A   1      35.557  29.666  29.288  1.00  0.00    -0.203 F 
ATOM     88  F   UNL A   1      35.545  35.036  28.340  1.00  0.00    -0.200 F 
ATOM     89  C   UNL A   1      34.493  32.932  28.141  1.00  0.00     0.200 A 
ATOM     90  F   UNL A   1      33.474  30.808  27.988  1.00  0.00    -0.200 F 
ATOM     91  F   UNL A   1      33.445  33.496  27.526  1.00  0.00    -0.200 F 
ENDBRANCH  57  81
BRANCH  69  92
ATOM     92  C   UNL A   1      38.985  32.129  36.028  1.00  0.00     0.064 A 
ATOM     93  C   UNL A   1      39.321  33.479  36.210  1.00  0.00     0.173 A 
ATOM     94  C   UNL A   1      38.148  31.527  36.980  1.00  0.00     0.173 A 
ATOM     95  F   UNL A   1      40.128  34.098  35.335  1.00  0.00    -0.203 F 
ATOM     96  C   UNL A   1      38.853  34.190  37.313  1.00  0.00     0.198 A 
ATOM     97  C   UNL A   1      37.658  32.249  38.064  1.00  0.00     0.198 A 
ATOM     98  F   UNL A   1      37.790  30.241  36.848  1.00  0.00    -0.203 F 
ATOM     99  F   UNL A   1      39.222  35.466  37.490  1.00  0.00    -0.200 F 
ATOM    100  C   UNL A   1      38.016  33.577  38.233  1.00  0.00     0.200 A 
ATOM    101  F   UNL A   1      36.837  31.660  38.944  1.00  0.00    -0.200 F 
ATOM    102  F   UNL A   1      37.560  34.266  39.288  1.00  0.00    -0.200 F 
ENDBRANCH  69  92
ENDBRANCH  43  44
ENDBRANCH  36  38
ENDBRANCH  35  36
ENDBRANCH  34  35
ENDBRANCH  33  34
ENDBRANCH  32  33
ENDBRANCH  31  32
ENDBRANCH  30  31
ENDBRANCH  29  30
ENDBRANCH   1  29
TORSDOF 24
ENDMDL
MODEL 2
REMARK VINA RESULT:      -9.8      0.704      2.028
REMARK SMILES CCC[C@@H](c1cccc(C(=O)OCCOCCOCCOCCOC(=O)c2ccc(-c3c4nc(c(-c5c(F)c(F)c(F)c(F)c5F)c5ccc([nH]5)c(-c5c(F)c(F)c(F)c(F)c5F)c5nc(c(-c6c(F)c(F)c(F)c(F)c6F)c6ccc3[nH]6)C=C5)C=C4)cc2)c1)[C@H]1C[NH2+]CC[NH2+]1
REMARK SMILES IDX 17 1 16 2 15 3 14 4 13 5 12 6 10 7 11 8 9 9 5 10 6 11 90 12
REMARK SMILES IDX 7 13 8 14 4 15 3 16 2 17 1 18 91 19 92 20 96 21 93 22 95 23
REMARK SMILES IDX 94 26 18 29 19 30 20 31 21 32 22 33 23 34 24 35 25 36 26 37
REMARK SMILES IDX 27 38 28 39 89 40 29 41 88 42 30 43 31 44 32 45 82 46 33 47
REMARK SMILES IDX 87 48 81 49 83 50 34 51 86 52 80 53 79 54 35 56 67 57 47 58
REMARK SMILES IDX 66 59 48 60 51 61 65 62 84 63 49 64 50 65 64 67 85 68 52 69
REMARK SMILES IDX 36 70 37 71 45 72 38 73 39 74 43 75 46 76 40 77 41 78 44 79
REMARK SMILES IDX 42 80 68 81 69 82 77 83 70 84 71 85 75 86 78 87 72 88 73 89
REMARK SMILES IDX 76 90 74 91 53 92 54 93 62 94 55 95 56 96 60 97 63 98 57 99
REMARK SMILES IDX 58 100 61 101 59 102
REMARK H PARENT 96 24 96 25 93 27 93 28 83 55 51 66
REMARK Flexibility Score: inf
ROOT
ATOM      1  C   UNL A   1      38.297  20.694  24.971  1.00  0.00     0.188 C 
ENDROOT
BRANCH   1   2
ATOM      2  C   UNL A   1      37.203  19.607  24.899  1.00  0.00     0.188 C 
BRANCH   2   3
ATOM      3  O   UNL A   1      35.870  20.083  25.044  1.00  0.00    -0.376 OA
BRANCH   3   4
ATOM      4  C   UNL A   1      34.834  19.130  24.870  1.00  0.00     0.202 C 
BRANCH   4   5
ATOM      5  C   UNL A   1      33.467  19.659  25.315  1.00  0.00     0.261 C 
BRANCH   5   6
ATOM      6  O   UNL A   1      33.284  21.052  25.032  1.00  0.00    -0.460 OA
BRANCH   6   7
ATOM      7  C   UNL A   1      33.257  21.883  26.099  1.00  0.00     0.338 C 
ATOM      8  O   UNL A   1      33.182  21.555  27.272  1.00  0.00    -0.246 OA
BRANCH   7   9
ATOM      9  C   UNL A   1      33.534  23.262  25.631  1.00  0.00     0.060 A 
ATOM     10  C   UNL A   1      32.789  25.310  24.472  1.00  0.00    -0.038 A 
ATOM     11  C   UNL A   1      34.075  25.807  24.730  1.00  0.00     0.004 A 
ATOM     12  C   UNL A   1      32.542  24.031  24.992  1.00  0.00     0.020 A 
ATOM     13  C   UNL A   1      35.089  25.044  25.330  1.00  0.00     0.001 A 
ATOM     14  C   UNL A   1      34.822  23.761  25.774  1.00  0.00     0.016 A 
BRANCH  10  15
ATOM     15  C   UNL A   1      31.688  26.140  23.776  1.00  0.00     0.083 C 
BRANCH  15  16
ATOM     16  C   UNL A   1      31.532  25.903  22.220  1.00  0.00     0.014 C 
BRANCH  16  17
ATOM     17  C   UNL A   1      32.693  25.418  21.338  1.00  0.00    -0.003 C 
ATOM     18  C   UNL A   1      32.494  25.545  19.840  1.00  0.00     0.004 C 
ENDBRANCH  16  17
ENDBRANCH  15  16
BRANCH  15  19
ATOM     19  C   UNL A   1      31.679  27.739  23.941  1.00  0.00     0.245 C 
ATOM     20  C   UNL A   1      32.446  28.589  22.891  1.00  0.00     0.327 C 
ATOM     21  N   UNL A   1      30.379  28.336  24.324  1.00  0.00    -0.334 N 
ATOM     22  N   UNL A   1      31.701  29.425  21.944  1.00  0.00    -0.337 N 
ATOM     23  C   UNL A   1      29.560  28.594  23.141  1.00  0.00     0.323 C 
ATOM     24  H   UNL A   1      30.547  29.216  24.813  1.00  0.00     0.346 HD
ATOM     25  H   UNL A   1      29.883  27.683  24.930  1.00  0.00     0.346 HD
ATOM     26  C   UNL A   1      30.248  29.490  22.092  1.00  0.00     0.322 C 
ATOM     27  H   UNL A   1      31.897  29.072  21.008  1.00  0.00     0.346 HD
ATOM     28  H   UNL A   1      32.023  30.375  22.132  1.00  0.00     0.346 HD
ENDBRANCH  15  19
ENDBRANCH  10  15
ENDBRANCH   7   9
ENDBRANCH   6   7
ENDBRANCH   5   6
ENDBRANCH   4   5
ENDBRANCH   3   4
ENDBRANCH   2   3
ENDBRANCH   1   2
BRANCH   1  29
ATOM     29  O   UNL A   1      38.431  21.520  26.118  1.00  0.00    -0.377 OA
BRANCH  29  30
ATOM     30  C   UNL A   1      39.709  22.009  26.496  1.00  0.00     0.188 C 
BRANCH  30  31
ATOM     31  C   UNL A   1      40.980  21.230  26.103  1.00  0.00     0.188 C 
BRANCH  31  32
ATOM     32  O   UNL A   1      42.096  21.460  26.953  1.00  0.00    -0.376 OA
BRANCH  32  33
ATOM     33  C   UNL A   1      43.348  21.624  26.304  1.00  0.00     0.202 C 
BRANCH  33  34
ATOM     34  C   UNL A   1      43.247  22.170  24.875  1.00  0.00     0.261 C 
BRANCH  34  35
ATOM     35  O   UNL A   1      43.017  23.585  24.777  1.00  0.00    -0.460 OA
BRANCH  35  36
ATOM     36  C   UNL A   1      43.940  24.405  25.322  1.00  0.00     0.338 C 
ATOM     37  O   UNL A   1      45.111  24.518  25.012  1.00  0.00    -0.246 OA
BRANCH  36  38
ATOM     38  C   UNL A   1      43.235  25.293  26.265  1.00  0.00     0.060 A 
ATOM     39  C   UNL A   1      43.441  26.677  26.182  1.00  0.00     0.016 A 
ATOM     40  C   UNL A   1      42.363  24.758  27.215  1.00  0.00     0.016 A 
ATOM     41  C   UNL A   1      42.791  27.529  27.075  1.00  0.00     0.010 A 
ATOM     42  C   UNL A   1      41.731  25.608  28.122  1.00  0.00     0.010 A 
ATOM     43  C   UNL A   1      41.967  26.994  28.075  1.00  0.00    -0.014 A 
BRANCH  43  44
ATOM     44  C   UNL A   1      41.522  27.845  29.201  1.00  0.00     0.031 A 
ATOM     45  C   UNL A   1      42.274  27.747  30.499  1.00  0.00     0.074 A 
ATOM     46  C   UNL A   1      40.478  28.682  29.082  1.00  0.00     0.049 A 
ATOM     47  N   UNL A   1      42.047  28.341  31.642  1.00  0.00    -0.248 NA
ATOM     48  C   UNL A   1      43.439  26.848  30.507  1.00  0.00     0.031 C 
ATOM     49  C   UNL A   1      39.691  28.886  27.869  1.00  0.00     0.029 A 
ATOM     50  N   UNL A   1      39.893  29.508  30.011  1.00  0.00    -0.354 N 
ATOM     51  C   UNL A   1      43.039  27.889  32.502  1.00  0.00     0.074 A 
ATOM     52  C   UNL A   1      43.848  26.945  31.762  1.00  0.00     0.031 C 
ATOM     53  C   UNL A   1      38.712  29.772  28.131  1.00  0.00     0.029 A 
ATOM     54  C   UNL A   1      38.788  30.170  29.537  1.00  0.00     0.049 A 
ATOM     55  H   UNL A   1      40.234  29.614  30.928  1.00  0.00     0.167 HD
ATOM     56  C   UNL A   1      43.260  28.235  33.791  1.00  0.00     0.037 A 
ATOM     57  C   UNL A   1      37.927  30.987  30.177  1.00  0.00     0.037 A 
ATOM     58  C   UNL A   1      42.446  29.162  34.529  1.00  0.00     0.049 A 
ATOM     59  C   UNL A   1      38.150  31.300  31.635  1.00  0.00     0.074 A 
ATOM     60  C   UNL A   1      42.592  29.588  35.838  1.00  0.00     0.029 A 
ATOM     61  N   UNL A   1      41.321  29.796  34.023  1.00  0.00    -0.354 N 
ATOM     62  N   UNL A   1      39.108  30.896  32.435  1.00  0.00    -0.248 NA
ATOM     63  C   UNL A   1      37.171  32.187  32.280  1.00  0.00     0.031 C 
ATOM     64  C   UNL A   1      41.525  30.442  36.138  1.00  0.00     0.029 A 
ATOM     65  C   UNL A   1      40.747  30.591  35.000  1.00  0.00     0.049 A 
ATOM     66  H   UNL A   1      40.980  29.695  33.105  1.00  0.00     0.167 HD
ATOM     67  C   UNL A   1      38.865  31.499  33.663  1.00  0.00     0.074 A 
ATOM     68  C   UNL A   1      37.675  32.307  33.501  1.00  0.00     0.031 C 
ATOM     69  C   UNL A   1      39.566  31.396  34.819  1.00  0.00     0.037 A 
BRANCH  56  70
ATOM     70  C   UNL A   1      44.415  27.580  34.489  1.00  0.00     0.064 A 
ATOM     71  C   UNL A   1      45.651  28.230  34.638  1.00  0.00     0.173 A 
ATOM     72  C   UNL A   1      44.284  26.290  35.024  1.00  0.00     0.173 A 
ATOM     73  F   UNL A   1      45.833  29.457  34.127  1.00  0.00    -0.203 F 
ATOM     74  C   UNL A   1      46.719  27.601  35.272  1.00  0.00     0.198 A 
ATOM     75  C   UNL A   1      45.344  25.677  35.684  1.00  0.00     0.198 A 
ATOM     76  F   UNL A   1      43.124  25.625  34.908  1.00  0.00    -0.203 F 
ATOM     77  F   UNL A   1      47.904  28.220  35.356  1.00  0.00    -0.200 F 
ATOM     78  C   UNL A   1      46.563  26.328  35.800  1.00  0.00     0.200 A 
ATOM     79  F   UNL A   1      45.189  24.449  36.201  1.00  0.00    -0.200 F 
ATOM     80  F   UNL A   1      47.591  25.725  36.411  1.00  0.00    -0.200 F 
ENDBRANCH  56  70
BRANCH  57  81
ATOM     81  C   UNL A   1      36.767  31.561  29.447  1.00  0.00     0.064 A 
ATOM     82  C   UNL A   1      35.680  30.760  29.071  1.00  0.00     0.173 A 
ATOM     83  C   UNL A   1      36.732  32.917  29.091  1.00  0.00     0.173 A 
ATOM     84  F   UNL A   1      35.680  29.451  29.363  1.00  0.00    -0.203 F 
ATOM     85  C   UNL A   1      34.608  31.290  28.355  1.00  0.00     0.198 A 
ATOM     86  C   UNL A   1      35.647  33.453  28.399  1.00  0.00     0.198 A 
ATOM     87  F   UNL A   1      37.750  33.725  29.420  1.00  0.00    -0.203 F 
ATOM     88  F   UNL A   1      33.603  30.493  27.969  1.00  0.00    -0.200 F 
ATOM     89  C   UNL A   1      34.589  32.637  28.025  1.00  0.00     0.200 A 
ATOM     90  F   UNL A   1      35.629  34.756  28.089  1.00  0.00    -0.200 F 
ATOM     91  F   UNL A   1      33.558  33.147  27.338  1.00  0.00    -0.200 F 
ENDBRANCH  57  81
BRANCH  69  92
ATOM     92  C   UNL A   1      39.091  32.205  35.992  1.00  0.00     0.064 A 
ATOM     93  C   UNL A   1      38.271  31.653  36.987  1.00  0.00     0.173 A 
ATOM     94  C   UNL A   1      39.505  33.538  36.147  1.00  0.00     0.173 A 
ATOM     95  F   UNL A   1      37.838  30.388  36.879  1.00  0.00    -0.203 F 
ATOM     96  C   UNL A   1      37.865  32.411  38.082  1.00  0.00     0.198 A 
ATOM     97  C   UNL A   1      39.123  34.283  37.259  1.00  0.00     0.198 A 
ATOM     98  F   UNL A   1      40.297  34.111  35.229  1.00  0.00    -0.203 F 
ATOM     99  F   UNL A   1      37.046  31.877  38.999  1.00  0.00    -0.200 F 
ATOM    100  C   UNL A   1      38.298  33.722  38.221  1.00  0.00     0.200 A 
ATOM    101  F   UNL A   1      39.554  35.544  37.399  1.00  0.00    -0.200 F 
ATOM    102  F   UNL A   1      37.914  34.447  39.282  1.00  0.00    -0.200 F 
ENDBRANCH  69  92
ENDBRANCH  43  44
ENDBRANCH  36  38
ENDBRANCH  35  36
ENDBRANCH  34  35
ENDBRANCH  33  34
ENDBRANCH  32  33
ENDBRANCH  31  32
ENDBRANCH  30  31
ENDBRANCH  29  30
ENDBRANCH   1  29
TORSDOF 24
ENDMDL
MODEL 3
REMARK VINA RESULT:      -9.8      4.036      9.331
REMARK SMILES CCC[C@@H](c1cccc(C(=O)OCCOCCOCCOCCOC(=O)c2ccc(-c3c4nc(c(-c5c(F)c(F)c(F)c(F)c5F)c5ccc([nH]5)c(-c5c(F)c(F)c(F)c(F)c5F)c5nc(c(-c6c(F)c(F)c(F)c(F)c6F)c6ccc3[nH]6)C=C5)C=C4)cc2)c1)[C@H]1C[NH2+]CC[NH2+]1
REMARK SMILES IDX 17 1 16 2 15 3 14 4 13 5 12 6 10 7 11 8 9 9 5 10 6 11 90 12
REMARK SMILES IDX 7 13 8 14 4 15 3 16 2 17 1 18 91 19 92 20 96 21 93 22 95 23
REMARK SMILES IDX 94 26 18 29 19 30 20 31 21 32 22 33 23 34 24 35 25 36 26 37
REMARK SMILES IDX 27 38 28 39 89 40 29 41 88 42 30 43 31 44 32 45 82 46 33 47
REMARK SMILES IDX 87 48 81 49 83 50 34 51 86 52 80 53 79 54 35 56 67 57 47 58
REMARK SMILES IDX 66 59 48 60 51 61 65 62 84 63 49 64 50 65 64 67 85 68 52 69
REMARK SMILES IDX 36 70 37 71 45 72 38 73 39 74 43 75 46 76 40 77 41 78 44 79
REMARK SMILES IDX 42 80 68 81 69 82 77 83 70 84 71 85 75 86 78 87 72 88 73 89
REMARK SMILES IDX 76 90 74 91 53 92 54 93 62 94 55 95 56 96 60 97 63 98 57 99
REMARK SMILES IDX 58 100 61 101 59 102
REMARK H PARENT 96 24 96 25 93 27 93 28 83 55 51 66
REMARK Flexibility Score: inf
ROOT
ATOM      1  C   UNL A   1      34.836  30.762  27.999  1.00  0.00     0.188 C 
ENDROOT
BRANCH   1   2
ATOM      2  C   UNL A   1      33.879  30.081  26.997  1.00  0.00     0.188 C 
BRANCH   2   3
ATOM      3  O   UNL A   1      32.563  29.845  27.484  1.00  0.00    -0.376 OA
BRANCH   3   4
ATOM      4  C   UNL A   1      31.849  28.773  26.888  1.00  0.00     0.202 C 
BRANCH   4   5
ATOM      5  C   UNL A   1      31.834  28.856  25.360  1.00  0.00     0.261 C 
BRANCH   5   6
ATOM      6  O   UNL A   1      32.610  27.827  24.732  1.00  0.00    -0.460 OA
BRANCH   6   7
ATOM      7  C   UNL A   1      32.179  27.404  23.521  1.00  0.00     0.338 C 
ATOM      8  O   UNL A   1      32.085  28.079  22.509  1.00  0.00    -0.246 OA
BRANCH   7   9
ATOM      9  C   UNL A   1      32.023  25.931  23.563  1.00  0.00     0.060 A 
ATOM     10  C   UNL A   1      33.024  23.686  23.789  1.00  0.00    -0.038 A 
ATOM     11  C   UNL A   1      31.725  23.193  23.596  1.00  0.00     0.004 A 
ATOM     12  C   UNL A   1      33.121  25.085  23.814  1.00  0.00     0.020 A 
ATOM     13  C   UNL A   1      30.626  24.016  23.305  1.00  0.00     0.001 A 
ATOM     14  C   UNL A   1      30.776  25.392  23.277  1.00  0.00     0.016 A 
BRANCH  10  15
ATOM     15  C   UNL A   1      34.239  22.774  24.071  1.00  0.00     0.083 C 
BRANCH  15  16
ATOM     16  C   UNL A   1      34.067  21.752  25.265  1.00  0.00     0.014 C 
BRANCH  16  17
ATOM     17  C   UNL A   1      33.982  20.233  25.046  1.00  0.00    -0.003 C 
ATOM     18  C   UNL A   1      32.905  19.754  24.091  1.00  0.00     0.004 C 
ENDBRANCH  16  17
ENDBRANCH  15  16
BRANCH  15  19
ATOM     19  C   UNL A   1      35.683  23.435  24.315  1.00  0.00     0.245 C 
ATOM     20  C   UNL A   1      36.099  23.775  25.773  1.00  0.00     0.327 C 
ATOM     21  N   UNL A   1      36.794  22.858  23.522  1.00  0.00    -0.334 N 
ATOM     22  N   UNL A   1      37.162  23.006  26.427  1.00  0.00    -0.337 N 
ATOM     23  C   UNL A   1      37.365  21.698  24.201  1.00  0.00     0.323 C 
ATOM     24  H   UNL A   1      37.520  23.566  23.399  1.00  0.00     0.346 HD
ATOM     25  H   UNL A   1      36.431  22.563  22.616  1.00  0.00     0.346 HD
ATOM     26  C   UNL A   1      37.857  21.994  25.632  1.00  0.00     0.322 C 
ATOM     27  H   UNL A   1      36.745  22.531  27.227  1.00  0.00     0.346 HD
ATOM     28  H   UNL A   1      37.879  23.696  26.649  1.00  0.00     0.346 HD
ENDBRANCH  15  19
ENDBRANCH  10  15
ENDBRANCH   7   9
ENDBRANCH   6   7
ENDBRANCH   5   6
ENDBRANCH   4   5
ENDBRANCH   3   4
ENDBRANCH   2   3
ENDBRANCH   1   2
BRANCH   1  29
ATOM     29  O   UNL A   1      34.420  31.892  28.753  1.00  0.00    -0.377 OA
BRANCH  29  30
ATOM     30  C   UNL A   1      34.141  33.119  28.097  1.00  0.00     0.188 C 
BRANCH  30  31
ATOM     31  C   UNL A   1      35.065  34.335  28.311  1.00  0.00     0.188 C 
BRANCH  31  32
ATOM     32  O   UNL A   1      34.380  35.558  28.549  1.00  0.00    -0.376 OA
BRANCH  32  33
ATOM     33  C   UNL A   1      33.035  35.442  28.991  1.00  0.00     0.202 C 
BRANCH  33  34
ATOM     34  C   UNL A   1      32.577  36.583  29.906  1.00  0.00     0.261 C 
BRANCH  34  35
ATOM     35  O   UNL A   1      33.223  36.634  31.188  1.00  0.00    -0.460 OA
BRANCH  35  36
ATOM     36  C   UNL A   1      32.946  35.646  32.065  1.00  0.00     0.338 C 
ATOM     37  O   UNL A   1      31.884  35.409  32.609  1.00  0.00    -0.246 OA
BRANCH  36  38
ATOM     38  C   UNL A   1      34.130  34.768  32.124  1.00  0.00     0.060 A 
ATOM     39  C   UNL A   1      33.963  33.420  32.469  1.00  0.00     0.016 A 
ATOM     40  C   UNL A   1      35.396  35.275  31.824  1.00  0.00     0.016 A 
ATOM     41  C   UNL A   1      35.074  32.580  32.541  1.00  0.00     0.010 A 
ATOM     42  C   UNL A   1      36.509  34.441  31.918  1.00  0.00     0.010 A 
ATOM     43  C   UNL A   1      36.356  33.098  32.307  1.00  0.00    -0.014 A 
BRANCH  43  44
ATOM     44  C   UNL A   1      37.552  32.307  32.675  1.00  0.00     0.031 A 
ATOM     45  C   UNL A   1      38.226  32.615  33.983  1.00  0.00     0.074 A 
ATOM     46  C   UNL A   1      38.033  31.344  31.872  1.00  0.00     0.049 A 
ATOM     47  N   UNL A   1      39.314  32.105  34.501  1.00  0.00    -0.248 NA
ATOM     48  C   UNL A   1      37.585  33.644  34.817  1.00  0.00     0.031 C 
ATOM     49  C   UNL A   1      37.451  30.935  30.597  1.00  0.00     0.029 A 
ATOM     50  N   UNL A   1      39.140  30.543  32.013  1.00  0.00    -0.354 N 
ATOM     51  C   UNL A   1      39.486  32.751  35.718  1.00  0.00     0.074 A 
ATOM     52  C   UNL A   1      38.413  33.712  35.847  1.00  0.00     0.031 C 
ATOM     53  C   UNL A   1      38.216  29.966  30.061  1.00  0.00     0.029 A 
ATOM     54  C   UNL A   1      39.356  29.711  30.942  1.00  0.00     0.049 A 
ATOM     55  H   UNL A   1      39.723  30.563  32.806  1.00  0.00     0.167 HD
ATOM     56  C   UNL A   1      40.449  32.555  36.649  1.00  0.00     0.037 A 
ATOM     57  C   UNL A   1      40.371  28.860  30.697  1.00  0.00     0.037 A 
ATOM     58  C   UNL A   1      41.522  31.609  36.512  1.00  0.00     0.049 A 
ATOM     59  C   UNL A   1      41.474  28.712  31.715  1.00  0.00     0.074 A 
ATOM     60  C   UNL A   1      42.543  31.326  37.402  1.00  0.00     0.029 A 
ATOM     61  N   UNL A   1      41.721  30.800  35.403  1.00  0.00    -0.354 N 
ATOM     62  N   UNL A   1      41.615  29.300  32.879  1.00  0.00    -0.248 NA
ATOM     63  C   UNL A   1      42.560  27.777  31.386  1.00  0.00     0.031 C 
ATOM     64  C   UNL A   1      43.388  30.381  36.809  1.00  0.00     0.029 A 
ATOM     65  C   UNL A   1      42.863  30.035  35.574  1.00  0.00     0.049 A 
ATOM     66  H   UNL A   1      41.138  30.774  34.610  1.00  0.00     0.167 HD
ATOM     67  C   UNL A   1      42.783  28.788  33.431  1.00  0.00     0.074 A 
ATOM     68  C   UNL A   1      43.308  27.832  32.479  1.00  0.00     0.031 C 
ATOM     69  C   UNL A   1      43.367  29.080  34.619  1.00  0.00     0.037 A 
BRANCH  56  70
ATOM     70  C   UNL A   1      40.394  33.405  37.883  1.00  0.00     0.064 A 
ATOM     71  C   UNL A   1      39.489  33.137  38.923  1.00  0.00     0.173 A 
ATOM     72  C   UNL A   1      41.261  34.497  38.033  1.00  0.00     0.173 A 
ATOM     73  F   UNL A   1      38.625  32.115  38.819  1.00  0.00    -0.203 F 
ATOM     74  C   UNL A   1      39.438  33.947  40.054  1.00  0.00     0.198 A 
ATOM     75  C   UNL A   1      41.227  35.287  39.178  1.00  0.00     0.198 A 
ATOM     76  F   UNL A   1      42.144  34.797  37.068  1.00  0.00    -0.203 F 
ATOM     77  F   UNL A   1      38.531  33.704  41.010  1.00  0.00    -0.200 F 
ATOM     78  C   UNL A   1      40.311  35.017  40.184  1.00  0.00     0.200 A 
ATOM     79  F   UNL A   1      42.078  36.315  39.306  1.00  0.00    -0.200 F 
ATOM     80  F   UNL A   1      40.261  35.795  41.274  1.00  0.00    -0.200 F 
ENDBRANCH  56  70
BRANCH  57  81
ATOM     81  C   UNL A   1      40.402  28.086  29.429  1.00  0.00     0.064 A 
ATOM     82  C   UNL A   1      41.119  28.547  28.316  1.00  0.00     0.173 A 
ATOM     83  C   UNL A   1      39.696  26.880  29.296  1.00  0.00     0.173 A 
ATOM     84  F   UNL A   1      41.785  29.709  28.383  1.00  0.00    -0.203 F 
ATOM     85  C   UNL A   1      41.118  27.839  27.115  1.00  0.00     0.198 A 
ATOM     86  C   UNL A   1      39.718  26.160  28.104  1.00  0.00     0.198 A 
ATOM     87  F   UNL A   1      38.989  26.400  30.329  1.00  0.00    -0.203 F 
ATOM     88  F   UNL A   1      41.775  28.326  26.054  1.00  0.00    -0.200 F 
ATOM     89  C   UNL A   1      40.423  26.643  27.012  1.00  0.00     0.200 A 
ATOM     90  F   UNL A   1      39.053  25.001  28.011  1.00  0.00    -0.200 F 
ATOM     91  F   UNL A   1      40.424  25.963  25.858  1.00  0.00    -0.200 F 
ENDBRANCH  57  81
BRANCH  69  92
ATOM     92  C   UNL A   1      44.617  28.332  34.980  1.00  0.00     0.064 A 
ATOM     93  C   UNL A   1      44.573  27.092  35.634  1.00  0.00     0.173 A 
ATOM     94  C   UNL A   1      45.876  28.840  34.620  1.00  0.00     0.173 A 
ATOM     95  F   UNL A   1      43.397  26.569  36.011  1.00  0.00    -0.203 F 
ATOM     96  C   UNL A   1      45.744  26.399  35.934  1.00  0.00     0.198 A 
ATOM     97  C   UNL A   1      47.041  28.130  34.894  1.00  0.00     0.198 A 
ATOM     98  F   UNL A   1      45.973  30.017  33.985  1.00  0.00    -0.203 F 
ATOM     99  F   UNL A   1      45.681  25.237  36.599  1.00  0.00    -0.200 F 
ATOM    100  C   UNL A   1      46.975  26.914  35.556  1.00  0.00     0.200 A 
ATOM    101  F   UNL A   1      48.228  28.622  34.515  1.00  0.00    -0.200 F 
ATOM    102  F   UNL A   1      48.099  26.241  35.838  1.00  0.00    -0.200 F 
ENDBRANCH  69  92
ENDBRANCH  43  44
ENDBRANCH  36  38
ENDBRANCH  35  36
ENDBRANCH  34  35
ENDBRANCH  33  34
ENDBRANCH  32  33
ENDBRANCH  31  32
ENDBRANCH  30  31
ENDBRANCH  29  30
ENDBRANCH   1  29
TORSDOF 24
ENDMDL
