MODEL 1
REMARK VINA RESULT:     -10.5      0.000      0.000
REMARK SMILES C[C@@H](C(=O)OCCOCCOCCOCCOC(=O)c1ccc(-c2c3nc(c(-c4c(F)c(F)c(F)c(F)c4F)c4ccc([nH]4)c(-c4c(F)c(F)c(F)c(F)c4F)c4nc(c(-c5c(F)c(F)c(F)c(F)c5F)c5ccc2[nH]5)C=C4)C=C3)cc1)c1ccc(N[C@H]2CCC[C@@H]2O)cc1F
REMARK SMILES IDX 10 1 9 2 8 3 7 4 6 5 5 6 3 7 4 8 2 9 1 10 83 11 84 12 95 13
REMARK SMILES IDX 85 14 94 15 96 16 86 17 87 18 88 20 89 21 92 22 90 23 91 24
REMARK SMILES IDX 93 25 11 27 12 28 13 29 14 30 15 31 16 32 17 33 18 34 19 35
REMARK SMILES IDX 20 36 21 37 82 38 22 39 81 40 23 41 24 42 25 43 75 44 26 45
REMARK SMILES IDX 80 46 74 47 76 48 27 49 79 50 73 51 72 52 28 54 60 55 40 56
REMARK SMILES IDX 59 57 41 58 44 59 58 60 77 61 42 62 43 63 57 65 78 66 45 67
REMARK SMILES IDX 29 68 30 69 38 70 31 71 32 72 36 73 39 74 33 75 34 76 37 77
REMARK SMILES IDX 35 78 61 79 62 80 70 81 63 82 64 83 68 84 71 85 65 86 66 87
REMARK SMILES IDX 69 88 67 89 46 90 47 91 55 92 48 93 49 94 53 95 56 96 50 97
REMARK SMILES IDX 51 98 54 99 52 100
REMARK H PARENT 87 19 93 26 76 53 44 64
REMARK Flexibility Score: inf
ROOT
ATOM      1  C   UNL A   1      39.369  20.885  25.800  1.00  0.00     0.188 C 
ENDROOT
BRANCH   1   2
ATOM      2  C   UNL A   1      38.522  22.174  25.792  1.00  0.00     0.188 C 
BRANCH   2   3
ATOM      3  O   UNL A   1      37.290  22.195  25.092  1.00  0.00    -0.376 OA
BRANCH   3   4
ATOM      4  C   UNL A   1      36.112  21.735  25.735  1.00  0.00     0.202 C 
BRANCH   4   5
ATOM      5  C   UNL A   1      35.347  20.467  25.287  1.00  0.00     0.261 C 
BRANCH   5   6
ATOM      6  O   UNL A   1      34.333  20.603  24.270  1.00  0.00    -0.463 OA
BRANCH   6   7
ATOM      7  C   UNL A   1      33.041  20.617  24.691  1.00  0.00     0.313 C 
ATOM      8  O   UNL A   1      32.667  20.083  25.732  1.00  0.00    -0.252 OA
BRANCH   7   9
ATOM      9  C   UNL A   1      32.077  21.398  23.769  1.00  0.00     0.129 C 
ATOM     10  C   UNL A   1      32.084  21.083  22.266  1.00  0.00     0.025 C 
BRANCH   9  11
ATOM     11  C   UNL A   1      32.175  22.892  24.063  1.00  0.00     0.002 A 
ATOM     12  C   UNL A   1      31.229  23.576  24.831  1.00  0.00     0.010 A 
ATOM     13  C   UNL A   1      33.157  23.663  23.451  1.00  0.00     0.129 A 
ATOM     14  C   UNL A   1      31.204  24.975  24.890  1.00  0.00     0.026 A 
ATOM     15  C   UNL A   1      33.182  25.057  23.579  1.00  0.00     0.065 A 
ATOM     16  F   UNL A   1      34.108  23.070  22.716  1.00  0.00    -0.207 F 
ATOM     17  C   UNL A   1      32.189  25.749  24.287  1.00  0.00     0.037 A 
BRANCH  17  18
ATOM     18  N   UNL A   1      32.259  27.122  24.371  1.00  0.00    -0.380 N 
ATOM     19  H   UNL A   1      32.895  27.464  25.040  1.00  0.00     0.160 HD
BRANCH  18  20
ATOM     20  C   UNL A   1      31.538  28.152  23.625  1.00  0.00     0.107 C 
ATOM     21  C   UNL A   1      30.436  27.608  22.711  1.00  0.00     0.027 C 
ATOM     22  C   UNL A   1      30.879  29.265  24.455  1.00  0.00     0.136 C 
ATOM     23  C   UNL A   1      29.312  28.647  22.754  1.00  0.00     0.005 C 
ATOM     24  C   UNL A   1      29.895  29.865  23.461  1.00  0.00     0.034 C 
BRANCH  22  25
ATOM     25  O   UNL A   1      31.810  30.237  24.904  1.00  0.00    -0.391 OA
ATOM     26  H   UNL A   1      32.249  30.643  24.141  1.00  0.00     0.211 HD
ENDBRANCH  22  25
ENDBRANCH  18  20
ENDBRANCH  17  18
ENDBRANCH   9  11
ENDBRANCH   7   9
ENDBRANCH   6   7
ENDBRANCH   5   6
ENDBRANCH   4   5
ENDBRANCH   3   4
ENDBRANCH   2   3
ENDBRANCH   1   2
BRANCH   1  27
ATOM     27  O   UNL A   1      40.235  20.764  26.908  1.00  0.00    -0.377 OA
BRANCH  27  28
ATOM     28  C   UNL A   1      41.603  21.044  26.661  1.00  0.00     0.188 C 
BRANCH  28  29
ATOM     29  C   UNL A   1      42.449  19.966  25.956  1.00  0.00     0.188 C 
BRANCH  29  30
ATOM     30  O   UNL A   1      43.416  20.487  25.049  1.00  0.00    -0.376 OA
BRANCH  30  31
ATOM     31  C   UNL A   1      44.782  20.501  25.439  1.00  0.00     0.202 C 
BRANCH  31  32
ATOM     32  C   UNL A   1      45.430  21.878  25.656  1.00  0.00     0.261 C 
BRANCH  32  33
ATOM     33  O   UNL A   1      44.607  22.879  26.271  1.00  0.00    -0.460 OA
BRANCH  33  34
ATOM     34  C   UNL A   1      44.271  23.959  25.535  1.00  0.00     0.338 C 
ATOM     35  O   UNL A   1      44.383  24.092  24.328  1.00  0.00    -0.246 OA
BRANCH  34  36
ATOM     36  C   UNL A   1      43.539  24.893  26.416  1.00  0.00     0.060 A 
ATOM     37  C   UNL A   1      43.958  26.230  26.477  1.00  0.00     0.016 A 
ATOM     38  C   UNL A   1      42.432  24.466  27.152  1.00  0.00     0.016 A 
ATOM     39  C   UNL A   1      43.291  27.135  27.303  1.00  0.00     0.010 A 
ATOM     40  C   UNL A   1      41.783  25.365  28.000  1.00  0.00     0.010 A 
ATOM     41  C   UNL A   1      42.231  26.695  28.104  1.00  0.00    -0.014 A 
BRANCH  41  42
ATOM     42  C   UNL A   1      41.745  27.556  29.209  1.00  0.00     0.031 A 
ATOM     43  C   UNL A   1      42.473  27.497  30.524  1.00  0.00     0.074 A 
ATOM     44  C   UNL A   1      40.702  28.389  29.049  1.00  0.00     0.049 A 
ATOM     45  N   UNL A   1      42.216  28.108  31.651  1.00  0.00    -0.248 NA
ATOM     46  C   UNL A   1      43.657  26.621  30.571  1.00  0.00     0.031 C 
ATOM     47  C   UNL A   1      39.949  28.575  27.813  1.00  0.00     0.029 A 
ATOM     48  N   UNL A   1      40.094  29.233  29.946  1.00  0.00    -0.354 N 
ATOM     49  C   UNL A   1      43.195  27.684  32.540  1.00  0.00     0.074 A 
ATOM     50  C   UNL A   1      44.034  26.742  31.833  1.00  0.00     0.031 C 
ATOM     51  C   UNL A   1      38.968  29.469  28.031  1.00  0.00     0.029 A 
ATOM     52  C   UNL A   1      39.004  29.890  29.431  1.00  0.00     0.049 A 
ATOM     53  H   UNL A   1      40.409  29.355  30.871  1.00  0.00     0.167 HD
ATOM     54  C   UNL A   1      43.382  28.054  33.829  1.00  0.00     0.037 A 
ATOM     55  C   UNL A   1      38.124  30.715  30.034  1.00  0.00     0.037 A 
ATOM     56  C   UNL A   1      42.543  28.990  34.527  1.00  0.00     0.049 A 
ATOM     57  C   UNL A   1      38.303  31.044  31.496  1.00  0.00     0.074 A 
ATOM     58  C   UNL A   1      42.658  29.447  35.828  1.00  0.00     0.029 A 
ATOM     59  N   UNL A   1      41.424  29.605  33.984  1.00  0.00    -0.354 N 
ATOM     60  N   UNL A   1      39.246  30.663  32.324  1.00  0.00    -0.248 NA
ATOM     61  C   UNL A   1      37.294  31.922  32.107  1.00  0.00     0.031 C 
ATOM     62  C   UNL A   1      41.572  30.285  36.093  1.00  0.00     0.029 A 
ATOM     63  C   UNL A   1      40.820  30.411  34.936  1.00  0.00     0.049 A 
ATOM     64  H   UNL A   1      41.107  29.486  33.060  1.00  0.00     0.167 HD
ATOM     65  C   UNL A   1      38.966  31.281  33.538  1.00  0.00     0.074 A 
ATOM     66  C   UNL A   1      37.771  32.073  33.333  1.00  0.00     0.031 C 
ATOM     67  C   UNL A   1      39.637  31.204  34.714  1.00  0.00     0.037 A 
BRANCH  54  68
ATOM     68  C   UNL A   1      44.514  27.412  34.578  1.00  0.00     0.064 A 
ATOM     69  C   UNL A   1      44.376  26.165  35.206  1.00  0.00     0.173 A 
ATOM     70  C   UNL A   1      45.765  28.044  34.643  1.00  0.00     0.173 A 
ATOM     71  F   UNL A   1      43.197  25.525  35.188  1.00  0.00    -0.203 F 
ATOM     72  C   UNL A   1      45.442  25.588  35.893  1.00  0.00     0.198 A 
ATOM     73  C   UNL A   1      46.837  27.449  35.303  1.00  0.00     0.198 A 
ATOM     74  F   UNL A   1      45.950  29.238  34.060  1.00  0.00    -0.203 F 
ATOM     75  F   UNL A   1      45.272  24.421  36.530  1.00  0.00    -0.200 F 
ATOM     76  C   UNL A   1      46.672  26.226  35.933  1.00  0.00     0.200 A 
ATOM     77  F   UNL A   1      48.029  28.061  35.327  1.00  0.00    -0.200 F 
ATOM     78  F   UNL A   1      47.700  25.665  36.587  1.00  0.00    -0.200 F 
ENDBRANCH  54  68
BRANCH  55  79
ATOM     79  C   UNL A   1      36.980  31.281  29.267  1.00  0.00     0.064 A 
ATOM     80  C   UNL A   1      36.946  32.637  28.914  1.00  0.00     0.173 A 
ATOM     81  C   UNL A   1      35.882  30.487  28.905  1.00  0.00     0.173 A 
ATOM     82  F   UNL A   1      37.958  33.446  29.261  1.00  0.00    -0.203 F 
ATOM     83  C   UNL A   1      35.848  33.182  28.251  1.00  0.00     0.198 A 
ATOM     84  C   UNL A   1      34.799  31.026  28.213  1.00  0.00     0.198 A 
ATOM     85  F   UNL A   1      35.860  29.185  29.224  1.00  0.00    -0.203 F 
ATOM     86  F   UNL A   1      35.816  34.493  27.977  1.00  0.00    -0.200 F 
ATOM     87  C   UNL A   1      34.778  32.375  27.895  1.00  0.00     0.200 A 
ATOM     88  F   UNL A   1      33.773  30.239  27.862  1.00  0.00    -0.200 F 
ATOM     89  F   UNL A   1      33.723  32.899  27.257  1.00  0.00    -0.200 F 
ENDBRANCH  55  79
BRANCH  67  90
ATOM     90  C   UNL A   1      39.130  32.034  35.860  1.00  0.00     0.064 A 
ATOM     91  C   UNL A   1      38.266  31.509  36.833  1.00  0.00     0.173 A 
ATOM     92  C   UNL A   1      39.556  33.363  36.013  1.00  0.00     0.173 A 
ATOM     93  F   UNL A   1      37.820  30.248  36.730  1.00  0.00    -0.203 F 
ATOM     94  C   UNL A   1      37.824  32.292  37.896  1.00  0.00     0.198 A 
ATOM     95  C   UNL A   1      39.142  34.131  37.098  1.00  0.00     0.198 A 
ATOM     96  F   UNL A   1      40.391  33.913  35.119  1.00  0.00    -0.203 F 
ATOM     97  F   UNL A   1      36.955  31.786  38.782  1.00  0.00    -0.200 F 
ATOM     98  C   UNL A   1      38.269  33.599  38.032  1.00  0.00     0.200 A 
ATOM     99  F   UNL A   1      39.590  35.387  37.237  1.00  0.00    -0.200 F 
ATOM    100  F   UNL A   1      37.851  34.348  39.063  1.00  0.00    -0.200 F 
ENDBRANCH  67  90
ENDBRANCH  41  42
ENDBRANCH  34  36
ENDBRANCH  33  34
ENDBRANCH  32  33
ENDBRANCH  31  32
ENDBRANCH  30  31
ENDBRANCH  29  30
ENDBRANCH  28  29
ENDBRANCH  27  28
ENDBRANCH   1  27
TORSDOF 24
ENDMDL
MODEL 2
REMARK VINA RESULT:     -10.4      5.125      8.071
REMARK SMILES C[C@@H](C(=O)OCCOCCOCCOCCOC(=O)c1ccc(-c2c3nc(c(-c4c(F)c(F)c(F)c(F)c4F)c4ccc([nH]4)c(-c4c(F)c(F)c(F)c(F)c4F)c4nc(c(-c5c(F)c(F)c(F)c(F)c5F)c5ccc2[nH]5)C=C4)C=C3)cc1)c1ccc(N[C@H]2CCC[C@@H]2O)cc1F
REMARK SMILES IDX 10 1 9 2 8 3 7 4 6 5 5 6 3 7 4 8 2 9 1 10 83 11 84 12 95 13
REMARK SMILES IDX 85 14 94 15 96 16 86 17 87 18 88 20 89 21 92 22 90 23 91 24
REMARK SMILES IDX 93 25 11 27 12 28 13 29 14 30 15 31 16 32 17 33 18 34 19 35
REMARK SMILES IDX 20 36 21 37 82 38 22 39 81 40 23 41 24 42 25 43 75 44 26 45
REMARK SMILES IDX 80 46 74 47 76 48 27 49 79 50 73 51 72 52 28 54 60 55 40 56
REMARK SMILES IDX 59 57 41 58 44 59 58 60 77 61 42 62 43 63 57 65 78 66 45 67
REMARK SMILES IDX 29 68 30 69 38 70 31 71 32 72 36 73 39 74 33 75 34 76 37 77
REMARK SMILES IDX 35 78 61 79 62 80 70 81 63 82 64 83 68 84 71 85 65 86 66 87
REMARK SMILES IDX 69 88 67 89 46 90 47 91 55 92 48 93 49 94 53 95 56 96 50 97
REMARK SMILES IDX 51 98 54 99 52 100
REMARK H PARENT 87 19 93 26 76 53 44 64
REMARK Flexibility Score: inf
ROOT
ATOM      1  C   UNL A   1      38.806  23.353  26.451  1.00  0.00     0.188 C 
ENDROOT
BRANCH   1   2
ATOM      2  C   UNL A   1      37.329  23.737  26.227  1.00  0.00     0.188 C 
BRANCH   2   3
ATOM      3  O   UNL A   1      36.862  23.973  24.910  1.00  0.00    -0.376 OA
BRANCH   3   4
ATOM      4  C   UNL A   1      35.466  24.055  24.667  1.00  0.00     0.202 C 
BRANCH   4   5
ATOM      5  C   UNL A   1      34.549  25.086  25.367  1.00  0.00     0.261 C 
BRANCH   5   6
ATOM      6  O   UNL A   1      33.981  26.147  24.572  1.00  0.00    -0.463 OA
BRANCH   6   7
ATOM      7  C   UNL A   1      33.411  25.790  23.390  1.00  0.00     0.313 C 
ATOM      8  O   UNL A   1      34.011  25.821  22.319  1.00  0.00    -0.252 OA
BRANCH   7   9
ATOM      9  C   UNL A   1      31.949  25.303  23.508  1.00  0.00     0.129 C 
ATOM     10  C   UNL A   1      30.987  26.084  24.414  1.00  0.00     0.025 C 
BRANCH   9  11
ATOM     11  C   UNL A   1      31.924  23.800  23.769  1.00  0.00     0.002 A 
ATOM     12  C   UNL A   1      31.581  23.252  25.009  1.00  0.00     0.010 A 
ATOM     13  C   UNL A   1      32.383  22.913  22.801  1.00  0.00     0.129 A 
ATOM     14  C   UNL A   1      31.793  21.899  25.297  1.00  0.00     0.026 A 
ATOM     15  C   UNL A   1      32.516  21.545  23.064  1.00  0.00     0.065 A 
ATOM     16  F   UNL A   1      32.712  23.368  21.584  1.00  0.00    -0.207 F 
ATOM     17  C   UNL A   1      32.243  21.008  24.330  1.00  0.00     0.037 A 
BRANCH  17  18
ATOM     18  N   UNL A   1      32.402  19.655  24.533  1.00  0.00    -0.380 N 
ATOM     19  H   UNL A   1      31.809  19.266  25.217  1.00  0.00     0.160 HD
BRANCH  18  20
ATOM     20  C   UNL A   1      33.310  18.703  23.894  1.00  0.00     0.107 C 
ATOM     21  C   UNL A   1      34.438  18.207  24.804  1.00  0.00     0.027 C 
ATOM     22  C   UNL A   1      32.670  17.440  23.297  1.00  0.00     0.136 C 
ATOM     23  C   UNL A   1      34.668  16.743  24.417  1.00  0.00     0.005 C 
ATOM     24  C   UNL A   1      33.871  16.519  23.137  1.00  0.00     0.034 C 
BRANCH  22  25
ATOM     25  O   UNL A   1      32.041  17.682  22.049  1.00  0.00    -0.391 OA
ATOM     26  H   UNL A   1      32.716  17.802  21.363  1.00  0.00     0.211 HD
ENDBRANCH  22  25
ENDBRANCH  18  20
ENDBRANCH  17  18
ENDBRANCH   9  11
ENDBRANCH   7   9
ENDBRANCH   6   7
ENDBRANCH   5   6
ENDBRANCH   4   5
ENDBRANCH   3   4
ENDBRANCH   2   3
ENDBRANCH   1   2
BRANCH   1  27
ATOM     27  O   UNL A   1      39.075  21.973  26.325  1.00  0.00    -0.377 OA
BRANCH  27  28
ATOM     28  C   UNL A   1      40.421  21.626  26.049  1.00  0.00     0.188 C 
BRANCH  28  29
ATOM     29  C   UNL A   1      41.480  21.902  27.135  1.00  0.00     0.188 C 
BRANCH  29  30
ATOM     30  O   UNL A   1      42.194  20.745  27.558  1.00  0.00    -0.376 OA
BRANCH  30  31
ATOM     31  C   UNL A   1      41.801  19.476  27.056  1.00  0.00     0.202 C 
BRANCH  31  32
ATOM     32  C   UNL A   1      42.766  18.786  26.078  1.00  0.00     0.261 C 
BRANCH  32  33
ATOM     33  O   UNL A   1      43.037  19.482  24.852  1.00  0.00    -0.460 OA
BRANCH  33  34
ATOM     34  C   UNL A   1      44.327  19.651  24.497  1.00  0.00     0.338 C 
ATOM     35  O   UNL A   1      45.025  18.879  23.862  1.00  0.00    -0.246 OA
BRANCH  34  36
ATOM     36  C   UNL A   1      44.705  21.041  24.828  1.00  0.00     0.060 A 
ATOM     37  C   UNL A   1      45.294  21.301  26.074  1.00  0.00     0.016 A 
ATOM     38  C   UNL A   1      44.510  22.075  23.910  1.00  0.00     0.016 A 
ATOM     39  C   UNL A   1      45.657  22.603  26.418  1.00  0.00     0.010 A 
ATOM     40  C   UNL A   1      44.848  23.383  24.267  1.00  0.00     0.010 A 
ATOM     41  C   UNL A   1      45.392  23.656  25.535  1.00  0.00    -0.014 A 
BRANCH  41  42
ATOM     42  C   UNL A   1      45.468  25.054  26.023  1.00  0.00     0.031 A 
ATOM     43  C   UNL A   1      46.802  25.746  25.977  1.00  0.00     0.074 A 
ATOM     44  C   UNL A   1      44.381  25.706  26.473  1.00  0.00     0.049 A 
ATOM     45  N   UNL A   1      47.140  26.941  26.389  1.00  0.00    -0.248 NA
ATOM     46  C   UNL A   1      47.911  24.979  25.385  1.00  0.00     0.031 C 
ATOM     47  C   UNL A   1      43.027  25.163  26.518  1.00  0.00     0.029 A 
ATOM     48  N   UNL A   1      44.256  26.974  26.985  1.00  0.00    -0.354 N 
ATOM     49  C   UNL A   1      48.496  27.063  26.116  1.00  0.00     0.074 A 
ATOM     50  C   UNL A   1      48.928  25.812  25.532  1.00  0.00     0.031 C 
ATOM     51  C   UNL A   1      42.205  26.089  27.044  1.00  0.00     0.029 A 
ATOM     52  C   UNL A   1      42.982  27.274  27.402  1.00  0.00     0.049 A 
ATOM     53  H   UNL A   1      45.007  27.608  27.047  1.00  0.00     0.167 HD
ATOM     54  C   UNL A   1      49.307  28.126  26.328  1.00  0.00     0.037 A 
ATOM     55  C   UNL A   1      42.512  28.372  28.027  1.00  0.00     0.037 A 
ATOM     56  C   UNL A   1      48.872  29.366  26.912  1.00  0.00     0.049 A 
ATOM     57  C   UNL A   1      43.455  29.511  28.331  1.00  0.00     0.074 A 
ATOM     58  C   UNL A   1      49.610  30.512  27.152  1.00  0.00     0.029 A 
ATOM     59  N   UNL A   1      47.584  29.619  27.359  1.00  0.00    -0.354 N 
ATOM     60  N   UNL A   1      44.730  29.632  28.047  1.00  0.00    -0.248 NA
ATOM     61  C   UNL A   1      42.892  30.667  29.043  1.00  0.00     0.031 C 
ATOM     62  C   UNL A   1      48.787  31.432  27.805  1.00  0.00     0.029 A 
ATOM     63  C   UNL A   1      47.515  30.891  27.905  1.00  0.00     0.049 A 
ATOM     64  H   UNL A   1      46.830  28.989  27.298  1.00  0.00     0.167 HD
ATOM     65  C   UNL A   1      45.109  30.888  28.509  1.00  0.00     0.074 A 
ATOM     66  C   UNL A   1      43.926  31.494  29.082  1.00  0.00     0.031 C 
ATOM     67  C   UNL A   1      46.326  31.486  28.462  1.00  0.00     0.037 A 
BRANCH  54  68
ATOM     68  C   UNL A   1      50.756  27.977  25.964  1.00  0.00     0.064 A 
ATOM     69  C   UNL A   1      51.219  28.194  24.658  1.00  0.00     0.173 A 
ATOM     70  C   UNL A   1      51.700  27.641  26.946  1.00  0.00     0.173 A 
ATOM     71  F   UNL A   1      50.357  28.502  23.677  1.00  0.00    -0.203 F 
ATOM     72  C   UNL A   1      52.569  28.053  24.344  1.00  0.00     0.198 A 
ATOM     73  C   UNL A   1      53.053  27.533  26.635  1.00  0.00     0.198 A 
ATOM     74  F   UNL A   1      51.311  27.422  28.211  1.00  0.00    -0.203 F 
ATOM     75  F   UNL A   1      52.981  28.212  23.078  1.00  0.00    -0.200 F 
ATOM     76  C   UNL A   1      53.485  27.731  25.334  1.00  0.00     0.200 A 
ATOM     77  F   UNL A   1      53.937  27.236  27.598  1.00  0.00    -0.200 F 
ATOM     78  F   UNL A   1      54.785  27.604  25.032  1.00  0.00    -0.200 F 
ENDBRANCH  54  68
BRANCH  55  79
ATOM     79  C   UNL A   1      41.079  28.452  28.426  1.00  0.00     0.064 A 
ATOM     80  C   UNL A   1      40.110  28.959  27.548  1.00  0.00     0.173 A 
ATOM     81  C   UNL A   1      40.656  28.059  29.704  1.00  0.00     0.173 A 
ATOM     82  F   UNL A   1      40.468  29.376  26.324  1.00  0.00    -0.203 F 
ATOM     83  C   UNL A   1      38.780  29.093  27.941  1.00  0.00     0.198 A 
ATOM     84  C   UNL A   1      39.319  28.162  30.085  1.00  0.00     0.198 A 
ATOM     85  F   UNL A   1      41.542  27.573  30.585  1.00  0.00    -0.203 F 
ATOM     86  F   UNL A   1      37.887  29.634  27.103  1.00  0.00    -0.200 F 
ATOM     87  C   UNL A   1      38.385  28.688  29.207  1.00  0.00     0.200 A 
ATOM     88  F   UNL A   1      38.940  27.759  31.305  1.00  0.00    -0.200 F 
ATOM     89  F   UNL A   1      37.105  28.816  29.585  1.00  0.00    -0.200 F 
ENDBRANCH  55  79
BRANCH  67  90
ATOM     90  C   UNL A   1      46.433  32.887  28.996  1.00  0.00     0.064 A 
ATOM     91  C   UNL A   1      46.267  34.011  28.173  1.00  0.00     0.173 A 
ATOM     92  C   UNL A   1      46.660  33.106  30.365  1.00  0.00     0.173 A 
ATOM     93  F   UNL A   1      46.060  33.859  26.857  1.00  0.00    -0.203 F 
ATOM     94  C   UNL A   1      46.354  35.300  28.694  1.00  0.00     0.198 A 
ATOM     95  C   UNL A   1      46.709  34.395  30.888  1.00  0.00     0.198 A 
ATOM     96  F   UNL A   1      46.815  32.068  31.200  1.00  0.00    -0.203 F 
ATOM     97  F   UNL A   1      46.247  36.358  27.879  1.00  0.00    -0.200 F 
ATOM     98  C   UNL A   1      46.565  35.490  30.052  1.00  0.00     0.200 A 
ATOM     99  F   UNL A   1      46.892  34.575  32.203  1.00  0.00    -0.200 F 
ATOM    100  F   UNL A   1      46.638  36.731  30.554  1.00  0.00    -0.200 F 
ENDBRANCH  67  90
ENDBRANCH  41  42
ENDBRANCH  34  36
ENDBRANCH  33  34
ENDBRANCH  32  33
ENDBRANCH  31  32
ENDBRANCH  30  31
ENDBRANCH  29  30
ENDBRANCH  28  29
ENDBRANCH  27  28
ENDBRANCH   1  27
TORSDOF 24
ENDMDL
MODEL 3
REMARK VINA RESULT:     -10.3      2.854      8.223
REMARK SMILES C[C@@H](C(=O)OCCOCCOCCOCCOC(=O)c1ccc(-c2c3nc(c(-c4c(F)c(F)c(F)c(F)c4F)c4ccc([nH]4)c(-c4c(F)c(F)c(F)c(F)c4F)c4nc(c(-c5c(F)c(F)c(F)c(F)c5F)c5ccc2[nH]5)C=C4)C=C3)cc1)c1ccc(N[C@H]2CCC[C@@H]2O)cc1F
REMARK SMILES IDX 10 1 9 2 8 3 7 4 6 5 5 6 3 7 4 8 2 9 1 10 83 11 84 12 95 13
REMARK SMILES IDX 85 14 94 15 96 16 86 17 87 18 88 20 89 21 92 22 90 23 91 24
REMARK SMILES IDX 93 25 11 27 12 28 13 29 14 30 15 31 16 32 17 33 18 34 19 35
REMARK SMILES IDX 20 36 21 37 82 38 22 39 81 40 23 41 24 42 25 43 75 44 26 45
REMARK SMILES IDX 80 46 74 47 76 48 27 49 79 50 73 51 72 52 28 54 60 55 40 56
REMARK SMILES IDX 59 57 41 58 44 59 58 60 77 61 42 62 43 63 57 65 78 66 45 67
REMARK SMILES IDX 29 68 30 69 38 70 31 71 32 72 36 73 39 74 33 75 34 76 37 77
REMARK SMILES IDX 35 78 61 79 62 80 70 81 63 82 64 83 68 84 71 85 65 86 66 87
REMARK SMILES IDX 69 88 67 89 46 90 47 91 55 92 48 93 49 94 53 95 56 96 50 97
REMARK SMILES IDX 51 98 54 99 52 100
REMARK H PARENT 87 19 93 26 76 53 44 64
REMARK Flexibility Score: inf
ROOT
ATOM      1  C   UNL A   1      33.919  25.246  25.852  1.00  0.00     0.188 C 
ENDROOT
BRANCH   1   2
ATOM      2  C   UNL A   1      34.830  24.345  24.992  1.00  0.00     0.188 C 
BRANCH   2   3
ATOM      3  O   UNL A   1      36.218  24.292  25.269  1.00  0.00    -0.376 OA
BRANCH   3   4
ATOM      4  C   UNL A   1      36.784  23.094  25.780  1.00  0.00     0.202 C 
BRANCH   4   5
ATOM      5  C   UNL A   1      36.319  21.687  25.337  1.00  0.00     0.261 C 
BRANCH   5   6
ATOM      6  O   UNL A   1      35.012  21.236  25.751  1.00  0.00    -0.463 OA
BRANCH   6   7
ATOM      7  C   UNL A   1      34.592  20.042  25.256  1.00  0.00     0.313 C 
ATOM      8  O   UNL A   1      35.357  19.191  24.811  1.00  0.00    -0.252 OA
BRANCH   7   9
ATOM      9  C   UNL A   1      33.064  19.822  25.333  1.00  0.00     0.129 C 
ATOM     10  C   UNL A   1      32.503  18.437  24.978  1.00  0.00     0.025 C 
BRANCH   9  11
ATOM     11  C   UNL A   1      32.341  20.958  24.614  1.00  0.00     0.002 A 
ATOM     12  C   UNL A   1      32.423  21.153  23.232  1.00  0.00     0.010 A 
ATOM     13  C   UNL A   1      31.673  21.935  25.343  1.00  0.00     0.129 A 
ATOM     14  C   UNL A   1      31.956  22.326  22.628  1.00  0.00     0.026 A 
ATOM     15  C   UNL A   1      31.131  23.069  24.727  1.00  0.00     0.065 A 
ATOM     16  F   UNL A   1      31.539  21.801  26.670  1.00  0.00    -0.207 F 
ATOM     17  C   UNL A   1      31.280  23.302  23.352  1.00  0.00     0.037 A 
BRANCH  17  18
ATOM     18  N   UNL A   1      30.734  24.440  22.802  1.00  0.00    -0.380 N 
ATOM     19  H   UNL A   1      30.266  24.303  21.946  1.00  0.00     0.160 HD
BRANCH  18  20
ATOM     20  C   UNL A   1      30.738  25.820  23.286  1.00  0.00     0.107 C 
ATOM     21  C   UNL A   1      31.326  26.829  22.295  1.00  0.00     0.027 C 
ATOM     22  C   UNL A   1      29.382  26.399  23.717  1.00  0.00     0.136 C 
ATOM     23  C   UNL A   1      30.504  28.109  22.473  1.00  0.00     0.005 C 
ATOM     24  C   UNL A   1      29.662  27.895  23.725  1.00  0.00     0.034 C 
BRANCH  22  25
ATOM     25  O   UNL A   1      28.975  25.947  24.999  1.00  0.00    -0.391 OA
ATOM     26  H   UNL A   1      29.742  25.596  25.477  1.00  0.00     0.211 HD
ENDBRANCH  22  25
ENDBRANCH  18  20
ENDBRANCH  17  18
ENDBRANCH   9  11
ENDBRANCH   7   9
ENDBRANCH   6   7
ENDBRANCH   5   6
ENDBRANCH   4   5
ENDBRANCH   3   4
ENDBRANCH   2   3
ENDBRANCH   1   2
BRANCH   1  27
ATOM     27  O   UNL A   1      34.432  26.540  26.085  1.00  0.00    -0.377 OA
BRANCH  27  28
ATOM     28  C   UNL A   1      33.508  27.607  25.951  1.00  0.00     0.188 C 
BRANCH  28  29
ATOM     29  C   UNL A   1      32.189  27.530  26.746  1.00  0.00     0.188 C 
BRANCH  29  30
ATOM     30  O   UNL A   1      31.446  28.745  26.757  1.00  0.00    -0.376 OA
BRANCH  30  31
ATOM     31  C   UNL A   1      31.830  29.791  25.876  1.00  0.00     0.202 C 
BRANCH  31  32
ATOM     32  C   UNL A   1      31.819  31.219  26.445  1.00  0.00     0.261 C 
BRANCH  32  33
ATOM     33  O   UNL A   1      32.643  31.452  27.596  1.00  0.00    -0.460 OA
BRANCH  33  34
ATOM     34  C   UNL A   1      33.514  32.481  27.550  1.00  0.00     0.338 C 
ATOM     35  O   UNL A   1      33.269  33.643  27.273  1.00  0.00    -0.246 OA
BRANCH  34  36
ATOM     36  C   UNL A   1      34.801  32.005  28.100  1.00  0.00     0.060 A 
ATOM     37  C   UNL A   1      34.984  30.629  28.294  1.00  0.00     0.016 A 
ATOM     38  C   UNL A   1      35.829  32.903  28.395  1.00  0.00     0.016 A 
ATOM     39  C   UNL A   1      36.185  30.150  28.815  1.00  0.00     0.010 A 
ATOM     40  C   UNL A   1      37.021  32.425  28.944  1.00  0.00     0.010 A 
ATOM     41  C   UNL A   1      37.190  31.050  29.188  1.00  0.00    -0.014 A 
BRANCH  41  42
ATOM     42  C   UNL A   1      38.313  30.580  30.036  1.00  0.00     0.031 A 
ATOM     43  C   UNL A   1      39.271  29.580  29.449  1.00  0.00     0.074 A 
ATOM     44  C   UNL A   1      38.497  31.043  31.285  1.00  0.00     0.049 A 
ATOM     45  N   UNL A   1      40.295  28.981  29.999  1.00  0.00    -0.248 NA
ATOM     46  C   UNL A   1      39.036  29.204  28.045  1.00  0.00     0.031 C 
ATOM     47  C   UNL A   1      37.670  32.049  31.945  1.00  0.00     0.029 A 
ATOM     48  N   UNL A   1      39.445  30.715  32.222  1.00  0.00    -0.354 N 
ATOM     49  C   UNL A   1      40.817  28.152  29.014  1.00  0.00     0.074 A 
ATOM     50  C   UNL A   1      39.982  28.301  27.843  1.00  0.00     0.031 C 
ATOM     51  C   UNL A   1      38.140  32.249  33.190  1.00  0.00     0.029 A 
ATOM     52  C   UNL A   1      39.277  31.360  33.423  1.00  0.00     0.049 A 
ATOM     53  H   UNL A   1      40.176  30.079  32.050  1.00  0.00     0.167 HD
ATOM     54  C   UNL A   1      41.902  27.344  29.080  1.00  0.00     0.037 A 
ATOM     55  C   UNL A   1      39.951  31.222  34.583  1.00  0.00     0.037 A 
ATOM     56  C   UNL A   1      42.728  27.199  30.248  1.00  0.00     0.049 A 
ATOM     57  C   UNL A   1      41.103  30.250  34.656  1.00  0.00     0.074 A 
ATOM     58  C   UNL A   1      43.861  26.421  30.412  1.00  0.00     0.029 A 
ATOM     59  N   UNL A   1      42.503  27.837  31.459  1.00  0.00    -0.354 N 
ATOM     60  N   UNL A   1      41.610  29.489  33.715  1.00  0.00    -0.248 NA
ATOM     61  C   UNL A   1      41.779  30.119  35.955  1.00  0.00     0.031 C 
ATOM     62  C   UNL A   1      44.281  26.537  31.739  1.00  0.00     0.029 A 
ATOM     63  C   UNL A   1      43.456  27.444  32.384  1.00  0.00     0.049 A 
ATOM     64  H   UNL A   1      41.774  28.475  31.634  1.00  0.00     0.167 HD
ATOM     65  C   UNL A   1      42.682  28.821  34.296  1.00  0.00     0.074 A 
ATOM     66  C   UNL A   1      42.760  29.276  35.669  1.00  0.00     0.031 C 
ATOM     67  C   UNL A   1      43.528  27.915  33.745  1.00  0.00     0.037 A 
BRANCH  54  68
ATOM     68  C   UNL A   1      42.231  26.524  27.866  1.00  0.00     0.064 A 
ATOM     69  C   UNL A   1      43.172  26.949  26.916  1.00  0.00     0.173 A 
ATOM     70  C   UNL A   1      41.615  25.279  27.666  1.00  0.00     0.173 A 
ATOM     71  F   UNL A   1      43.778  28.139  27.049  1.00  0.00    -0.203 F 
ATOM     72  C   UNL A   1      43.463  26.170  25.798  1.00  0.00     0.198 A 
ATOM     73  C   UNL A   1      41.933  24.489  26.565  1.00  0.00     0.198 A 
ATOM     74  F   UNL A   1      40.708  24.825  28.544  1.00  0.00    -0.203 F 
ATOM     75  F   UNL A   1      44.325  26.621  24.876  1.00  0.00    -0.200 F 
ATOM     76  C   UNL A   1      42.850  24.938  25.629  1.00  0.00     0.200 A 
ATOM     77  F   UNL A   1      41.350  23.292  26.412  1.00  0.00    -0.200 F 
ATOM     78  F   UNL A   1      43.138  24.186  24.557  1.00  0.00    -0.200 F 
ENDBRANCH  54  68
BRANCH  55  79
ATOM     79  C   UNL A   1      39.551  32.011  35.780  1.00  0.00     0.064 A 
ATOM     80  C   UNL A   1      38.530  31.568  36.632  1.00  0.00     0.173 A 
ATOM     81  C   UNL A   1      40.156  33.242  36.077  1.00  0.00     0.173 A 
ATOM     82  F   UNL A   1      37.900  30.411  36.377  1.00  0.00    -0.203 F 
ATOM     83  C   UNL A   1      38.112  32.335  37.718  1.00  0.00     0.198 A 
ATOM     84  C   UNL A   1      39.760  33.993  37.182  1.00  0.00     0.198 A 
ATOM     85  F   UNL A   1      41.134  33.716  35.292  1.00  0.00    -0.203 F 
ATOM     86  F   UNL A   1      37.095  31.914  38.481  1.00  0.00    -0.200 F 
ATOM     87  C   UNL A   1      38.732  33.543  37.996  1.00  0.00     0.200 A 
ATOM     88  F   UNL A   1      40.370  35.155  37.453  1.00  0.00    -0.200 F 
ATOM     89  F   UNL A   1      38.330  34.281  39.040  1.00  0.00    -0.200 F 
ENDBRANCH  55  79
BRANCH  67  90
ATOM     90  C   UNL A   1      44.644  27.391  34.604  1.00  0.00     0.064 A 
ATOM     91  C   UNL A   1      45.875  28.055  34.710  1.00  0.00     0.173 A 
ATOM     92  C   UNL A   1      44.460  26.230  35.372  1.00  0.00     0.173 A 
ATOM     93  F   UNL A   1      46.109  29.163  33.990  1.00  0.00    -0.203 F 
ATOM     94  C   UNL A   1      46.889  27.561  35.527  1.00  0.00     0.198 A 
ATOM     95  C   UNL A   1      45.461  25.759  36.216  1.00  0.00     0.198 A 
ATOM     96  F   UNL A   1      43.298  25.561  35.319  1.00  0.00    -0.203 F 
ATOM     97  F   UNL A   1      48.076  28.181  35.569  1.00  0.00    -0.200 F 
ATOM     98  C   UNL A   1      46.678  26.418  36.285  1.00  0.00     0.200 A 
ATOM     99  F   UNL A   1      45.247  24.667  36.963  1.00  0.00    -0.200 F 
ATOM    100  F   UNL A   1      47.651  25.949  37.079  1.00  0.00    -0.200 F 
ENDBRANCH  67  90
ENDBRANCH  41  42
ENDBRANCH  34  36
ENDBRANCH  33  34
ENDBRANCH  32  33
ENDBRANCH  31  32
ENDBRANCH  30  31
ENDBRANCH  29  30
ENDBRANCH  28  29
ENDBRANCH  27  28
ENDBRANCH   1  27
TORSDOF 24
ENDMDL
