MODEL 1
REMARK VINA RESULT:     -10.4      0.000      0.000
REMARK SMILES COc1ccc2c(c1)c(CC(=O)OCCOCCOCCOCCOC(=O)c1ccc(-c3c4nc(c(-c5c(F)c(F)c(F)c(F)c5F)c5ccc([nH]5)c(-c5c(F)c(F)c(F)c(F)c5F)c5nc(c(-c6c(F)c(F)c(F)c(F)c6F)c6ccc3[nH]6)C=C5)C=C4)cc1)c(C(F)(F)F)n2C(=O)c1ccc(Cl)cc1
REMARK SMILES IDX 18 1 17 2 16 3 15 4 14 5 13 6 11 7 12 8 10 9 9 10 3 11 4 12
REMARK SMILES IDX 8 13 5 14 7 15 6 16 96 17 91 18 2 19 1 20 97 21 98 22 99 23
REMARK SMILES IDX 100 24 105 25 101 26 104 27 102 28 103 29 92 30 93 31 94 32
REMARK SMILES IDX 95 33 19 34 20 35 21 36 22 37 23 38 24 39 25 40 26 41 27 42
REMARK SMILES IDX 28 43 29 44 90 45 30 46 89 47 31 48 32 49 33 50 83 51 34 52
REMARK SMILES IDX 88 53 82 54 84 55 35 56 87 57 81 58 80 59 36 61 68 62 48 63
REMARK SMILES IDX 67 64 49 65 52 66 66 67 85 68 50 69 51 70 65 72 86 73 53 74
REMARK SMILES IDX 37 75 38 76 46 77 39 78 40 79 44 80 47 81 41 82 42 83 45 84
REMARK SMILES IDX 43 85 69 86 70 87 78 88 71 89 72 90 76 91 79 92 73 93 74 94
REMARK SMILES IDX 77 95 75 96 54 97 55 98 63 99 56 100 57 101 61 102 64 103
REMARK SMILES IDX 58 104 59 105 62 106 60 107
REMARK H PARENT 84 60 52 71
REMARK Flexibility Score: inf
ROOT
ATOM      1  C   UNL A   1      34.576  21.847  27.300  1.00  0.00     0.188 C 
ENDROOT
BRANCH   1   2
ATOM      2  C   UNL A   1      33.079  21.801  27.575  1.00  0.00     0.188 C 
BRANCH   2   3
ATOM      3  O   UNL A   1      32.438  23.060  27.488  1.00  0.00    -0.376 OA
BRANCH   3   4
ATOM      4  C   UNL A   1      31.829  23.406  26.256  1.00  0.00     0.202 C 
BRANCH   4   5
ATOM      5  C   UNL A   1      32.705  23.500  24.988  1.00  0.00     0.261 C 
BRANCH   5   6
ATOM      6  O   UNL A   1      33.922  24.279  25.052  1.00  0.00    -0.463 OA
BRANCH   6   7
ATOM      7  C   UNL A   1      34.524  24.608  23.884  1.00  0.00     0.310 C 
ATOM      8  O   UNL A   1      35.154  23.796  23.210  1.00  0.00    -0.252 OA
BRANCH   7   9
ATOM      9  C   UNL A   1      34.313  26.048  23.404  1.00  0.00     0.161 C 
BRANCH   9  10
ATOM     10  C   UNL A   1      33.060  26.837  23.784  1.00  0.00     0.002 A 
ATOM     11  C   UNL A   1      33.657  29.618  26.368  1.00  0.00     0.119 A 
ATOM     12  C   UNL A   1      32.365  30.107  26.374  1.00  0.00     0.048 A 
ATOM     13  C   UNL A   1      33.945  28.450  25.651  1.00  0.00     0.057 A 
ATOM     14  C   UNL A   1      31.371  29.480  25.621  1.00  0.00     0.031 A 
ATOM     15  C   UNL A   1      32.984  27.862  24.788  1.00  0.00     0.008 A 
ATOM     16  C   UNL A   1      31.683  28.371  24.799  1.00  0.00     0.057 A 
ATOM     17  N   UNL A   1      30.916  27.625  23.889  1.00  0.00    -0.271 N 
ATOM     18  C   UNL A   1      31.752  26.641  23.334  1.00  0.00     0.135 A 
BRANCH  11  19
ATOM     19  O   UNL A   1      34.726  30.212  26.984  1.00  0.00    -0.497 OA
ATOM     20  C   UNL A   1      35.594  29.354  27.724  1.00  0.00     0.278 C 
ENDBRANCH  11  19
BRANCH  17  21
ATOM     21  C   UNL A   1      29.546  27.868  23.567  1.00  0.00     0.262 C 
ATOM     22  O   UNL A   1      28.711  27.028  23.888  1.00  0.00    -0.268 OA
BRANCH  21  23
ATOM     23  C   UNL A   1      29.040  29.026  22.798  1.00  0.00     0.040 A 
ATOM     24  C   UNL A   1      29.907  29.672  21.908  1.00  0.00     0.015 A 
ATOM     25  C   UNL A   1      27.734  29.499  22.988  1.00  0.00     0.015 A 
ATOM     26  C   UNL A   1      29.488  30.834  21.253  1.00  0.00     0.021 A 
ATOM     27  C   UNL A   1      27.317  30.657  22.319  1.00  0.00     0.021 A 
ATOM     28  C   UNL A   1      28.200  31.326  21.467  1.00  0.00     0.041 A 
ATOM     29  Cl  UNL A   1      27.704  32.780  20.691  1.00  0.00    -0.084 Cl
ENDBRANCH  21  23
ENDBRANCH  17  21
BRANCH  18  30
ATOM     30  C   UNL A   1      31.264  25.574  22.407  1.00  0.00     0.432 C 
ATOM     31  F   UNL A   1      30.264  24.845  22.958  1.00  0.00    -0.165 F 
ATOM     32  F   UNL A   1      30.734  26.142  21.285  1.00  0.00    -0.165 F 
ATOM     33  F   UNL A   1      32.219  24.738  21.945  1.00  0.00    -0.165 F 
ENDBRANCH  18  30
ENDBRANCH   9  10
ENDBRANCH   7   9
ENDBRANCH   6   7
ENDBRANCH   5   6
ENDBRANCH   4   5
ENDBRANCH   3   4
ENDBRANCH   2   3
ENDBRANCH   1   2
BRANCH   1  34
ATOM     34  O   UNL A   1      35.166  21.389  26.109  1.00  0.00    -0.377 OA
BRANCH  34  35
ATOM     35  C   UNL A   1      36.415  21.896  25.727  1.00  0.00     0.188 C 
BRANCH  35  36
ATOM     36  C   UNL A   1      37.413  20.876  25.167  1.00  0.00     0.188 C 
BRANCH  36  37
ATOM     37  O   UNL A   1      38.818  20.991  25.382  1.00  0.00    -0.376 OA
BRANCH  37  38
ATOM     38  C   UNL A   1      39.346  22.024  26.197  1.00  0.00     0.202 C 
BRANCH  38  39
ATOM     39  C   UNL A   1      40.657  21.761  26.960  1.00  0.00     0.261 C 
BRANCH  39  40
ATOM     40  O   UNL A   1      41.352  22.952  27.337  1.00  0.00    -0.460 OA
BRANCH  40  41
ATOM     41  C   UNL A   1      42.171  23.523  26.412  1.00  0.00     0.338 C 
ATOM     42  O   UNL A   1      42.564  23.051  25.376  1.00  0.00    -0.246 OA
BRANCH  41  43
ATOM     43  C   UNL A   1      42.216  24.963  26.767  1.00  0.00     0.060 A 
ATOM     44  C   UNL A   1      43.020  25.423  27.813  1.00  0.00     0.016 A 
ATOM     45  C   UNL A   1      41.181  25.757  26.255  1.00  0.00     0.016 A 
ATOM     46  C   UNL A   1      42.675  26.613  28.448  1.00  0.00     0.010 A 
ATOM     47  C   UNL A   1      40.833  26.945  26.899  1.00  0.00     0.010 A 
ATOM     48  C   UNL A   1      41.547  27.350  28.028  1.00  0.00    -0.014 A 
BRANCH  48  49
ATOM     49  C   UNL A   1      41.352  28.678  28.628  1.00  0.00     0.031 A 
ATOM     50  C   UNL A   1      42.431  29.621  28.226  1.00  0.00     0.074 A 
ATOM     51  C   UNL A   1      40.290  29.153  29.312  1.00  0.00     0.049 A 
ATOM     52  N   UNL A   1      43.248  30.285  28.977  1.00  0.00    -0.248 NA
ATOM     53  C   UNL A   1      42.704  29.727  26.782  1.00  0.00     0.031 C 
ATOM     54  C   UNL A   1      38.996  28.516  29.549  1.00  0.00     0.029 A 
ATOM     55  N   UNL A   1      40.128  30.398  29.871  1.00  0.00    -0.354 N 
ATOM     56  C   UNL A   1      44.053  31.003  28.099  1.00  0.00     0.074 A 
ATOM     57  C   UNL A   1      43.774  30.516  26.773  1.00  0.00     0.031 C 
ATOM     58  C   UNL A   1      38.125  29.440  30.022  1.00  0.00     0.029 A 
ATOM     59  C   UNL A   1      38.818  30.706  30.216  1.00  0.00     0.049 A 
ATOM     60  H   UNL A   1      40.878  31.019  30.015  1.00  0.00     0.167 HD
ATOM     61  C   UNL A   1      44.749  32.101  28.486  1.00  0.00     0.037 A 
ATOM     62  C   UNL A   1      38.326  31.924  30.569  1.00  0.00     0.037 A 
ATOM     63  C   UNL A   1      44.958  32.144  29.904  1.00  0.00     0.049 A 
ATOM     64  C   UNL A   1      39.467  32.791  30.950  1.00  0.00     0.074 A 
ATOM     65  C   UNL A   1      45.575  31.312  30.817  1.00  0.00     0.029 A 
ATOM     66  N   UNL A   1      44.230  33.037  30.647  1.00  0.00    -0.354 N 
ATOM     67  N   UNL A   1      40.146  32.686  32.056  1.00  0.00    -0.248 NA
ATOM     68  C   UNL A   1      40.082  33.608  29.913  1.00  0.00     0.031 C 
ATOM     69  C   UNL A   1      44.825  31.451  32.020  1.00  0.00     0.029 A 
ATOM     70  C   UNL A   1      43.807  32.370  31.766  1.00  0.00     0.049 A 
ATOM     71  H   UNL A   1      44.047  33.977  30.420  1.00  0.00     0.167 HD
ATOM     72  C   UNL A   1      41.433  33.065  31.711  1.00  0.00     0.074 A 
ATOM     73  C   UNL A   1      41.309  33.729  30.421  1.00  0.00     0.031 C 
ATOM     74  C   UNL A   1      42.513  32.559  32.370  1.00  0.00     0.037 A 
BRANCH  61  75
ATOM     75  C   UNL A   1      44.937  33.297  27.593  1.00  0.00     0.064 A 
ATOM     76  C   UNL A   1      46.228  33.639  27.154  1.00  0.00     0.173 A 
ATOM     77  C   UNL A   1      43.939  34.277  27.395  1.00  0.00     0.173 A 
ATOM     78  F   UNL A   1      47.255  32.796  27.334  1.00  0.00    -0.203 F 
ATOM     79  C   UNL A   1      46.506  34.893  26.606  1.00  0.00     0.198 A 
ATOM     80  C   UNL A   1      44.208  35.501  26.791  1.00  0.00     0.198 A 
ATOM     81  F   UNL A   1      42.697  34.137  27.878  1.00  0.00    -0.203 F 
ATOM     82  F   UNL A   1      47.772  35.224  26.317  1.00  0.00    -0.200 F 
ATOM     83  C   UNL A   1      45.497  35.822  26.425  1.00  0.00     0.200 A 
ATOM     84  F   UNL A   1      43.220  36.395  26.646  1.00  0.00    -0.200 F 
ATOM     85  F   UNL A   1      45.773  37.043  25.951  1.00  0.00    -0.200 F 
ENDBRANCH  61  75
BRANCH  62  86
ATOM     86  C   UNL A   1      36.955  32.483  30.428  1.00  0.00     0.064 A 
ATOM     87  C   UNL A   1      36.128  32.691  31.549  1.00  0.00     0.173 A 
ATOM     88  C   UNL A   1      36.521  33.067  29.224  1.00  0.00     0.173 A 
ATOM     89  F   UNL A   1      36.482  32.214  32.752  1.00  0.00    -0.203 F 
ATOM     90  C   UNL A   1      34.954  33.451  31.471  1.00  0.00     0.198 A 
ATOM     91  C   UNL A   1      35.342  33.813  29.144  1.00  0.00     0.198 A 
ATOM     92  F   UNL A   1      37.277  33.009  28.119  1.00  0.00    -0.203 F 
ATOM     93  F   UNL A   1      34.229  33.678  32.576  1.00  0.00    -0.200 F 
ATOM     94  C   UNL A   1      34.566  34.016  30.269  1.00  0.00     0.200 A 
ATOM     95  F   UNL A   1      34.997  34.385  27.982  1.00  0.00    -0.200 F 
ATOM     96  F   UNL A   1      33.472  34.789  30.205  1.00  0.00    -0.200 F 
ENDBRANCH  62  86
BRANCH  74  97
ATOM     97  C   UNL A   1      42.285  31.880  33.685  1.00  0.00     0.064 A 
ATOM     98  C   UNL A   1      41.838  30.555  33.812  1.00  0.00     0.173 A 
ATOM     99  C   UNL A   1      42.709  32.540  34.847  1.00  0.00     0.173 A 
ATOM    100  F   UNL A   1      41.509  29.827  32.734  1.00  0.00    -0.203 F 
ATOM    101  C   UNL A   1      41.790  29.934  35.058  1.00  0.00     0.198 A 
ATOM    102  C   UNL A   1      42.699  31.903  36.082  1.00  0.00     0.198 A 
ATOM    103  F   UNL A   1      43.191  33.792  34.771  1.00  0.00    -0.203 F 
ATOM    104  F   UNL A   1      41.352  28.671  35.159  1.00  0.00    -0.200 F 
ATOM    105  C   UNL A   1      42.235  30.602  36.188  1.00  0.00     0.200 A 
ATOM    106  F   UNL A   1      43.172  32.537  37.164  1.00  0.00    -0.200 F 
ATOM    107  F   UNL A   1      42.244  29.981  37.376  1.00  0.00    -0.200 F 
ENDBRANCH  74  97
ENDBRANCH  48  49
ENDBRANCH  41  43
ENDBRANCH  40  41
ENDBRANCH  39  40
ENDBRANCH  38  39
ENDBRANCH  37  38
ENDBRANCH  36  37
ENDBRANCH  35  36
ENDBRANCH  34  35
ENDBRANCH   1  34
TORSDOF 25
ENDMDL
MODEL 2
REMARK VINA RESULT:     -10.3      0.753      1.715
REMARK SMILES COc1ccc2c(c1)c(CC(=O)OCCOCCOCCOCCOC(=O)c1ccc(-c3c4nc(c(-c5c(F)c(F)c(F)c(F)c5F)c5ccc([nH]5)c(-c5c(F)c(F)c(F)c(F)c5F)c5nc(c(-c6c(F)c(F)c(F)c(F)c6F)c6ccc3[nH]6)C=C5)C=C4)cc1)c(C(F)(F)F)n2C(=O)c1ccc(Cl)cc1
REMARK SMILES IDX 18 1 17 2 16 3 15 4 14 5 13 6 11 7 12 8 10 9 9 10 3 11 4 12
REMARK SMILES IDX 8 13 5 14 7 15 6 16 96 17 91 18 2 19 1 20 97 21 98 22 99 23
REMARK SMILES IDX 100 24 105 25 101 26 104 27 102 28 103 29 92 30 93 31 94 32
REMARK SMILES IDX 95 33 19 34 20 35 21 36 22 37 23 38 24 39 25 40 26 41 27 42
REMARK SMILES IDX 28 43 29 44 90 45 30 46 89 47 31 48 32 49 33 50 83 51 34 52
REMARK SMILES IDX 88 53 82 54 84 55 35 56 87 57 81 58 80 59 36 61 68 62 48 63
REMARK SMILES IDX 67 64 49 65 52 66 66 67 85 68 50 69 51 70 65 72 86 73 53 74
REMARK SMILES IDX 37 75 38 76 46 77 39 78 40 79 44 80 47 81 41 82 42 83 45 84
REMARK SMILES IDX 43 85 69 86 70 87 78 88 71 89 72 90 76 91 79 92 73 93 74 94
REMARK SMILES IDX 77 95 75 96 54 97 55 98 63 99 56 100 57 101 61 102 64 103
REMARK SMILES IDX 58 104 59 105 62 106 60 107
REMARK H PARENT 84 60 52 71
REMARK Flexibility Score: inf
ROOT
ATOM      1  C   UNL A   1      34.602  21.370  26.864  1.00  0.00     0.188 C 
ENDROOT
BRANCH   1   2
ATOM      2  C   UNL A   1      33.111  21.063  26.859  1.00  0.00     0.188 C 
BRANCH   2   3
ATOM      3  O   UNL A   1      32.287  22.209  26.748  1.00  0.00    -0.376 OA
BRANCH   3   4
ATOM      4  C   UNL A   1      31.774  22.531  25.466  1.00  0.00     0.202 C 
BRANCH   4   5
ATOM      5  C   UNL A   1      32.763  22.851  24.324  1.00  0.00     0.261 C 
BRANCH   5   6
ATOM      6  O   UNL A   1      33.917  23.669  24.625  1.00  0.00    -0.463 OA
BRANCH   6   7
ATOM      7  C   UNL A   1      34.605  24.198  23.585  1.00  0.00     0.310 C 
ATOM      8  O   UNL A   1      35.239  23.509  22.789  1.00  0.00    -0.252 OA
BRANCH   7   9
ATOM      9  C   UNL A   1      34.489  25.715  23.408  1.00  0.00     0.161 C 
BRANCH   9  10
ATOM     10  C   UNL A   1      33.247  26.478  23.870  1.00  0.00     0.002 A 
ATOM     11  C   UNL A   1      33.839  28.820  26.858  1.00  0.00     0.119 A 
ATOM     12  C   UNL A   1      32.562  29.342  26.903  1.00  0.00     0.048 A 
ATOM     13  C   UNL A   1      34.118  27.764  25.981  1.00  0.00     0.057 A 
ATOM     14  C   UNL A   1      31.574  28.867  26.039  1.00  0.00     0.031 A 
ATOM     15  C   UNL A   1      33.168  27.342  25.014  1.00  0.00     0.008 A 
ATOM     16  C   UNL A   1      31.881  27.884  25.068  1.00  0.00     0.057 A 
ATOM     17  N   UNL A   1      31.123  27.307  24.036  1.00  0.00    -0.271 N 
ATOM     18  C   UNL A   1      31.949  26.392  23.361  1.00  0.00     0.135 A 
BRANCH  11  19
ATOM     19  O   UNL A   1      34.905  29.281  27.584  1.00  0.00    -0.497 OA
ATOM     20  C   UNL A   1      34.819  30.623  28.063  1.00  0.00     0.278 C 
ENDBRANCH  11  19
BRANCH  17  21
ATOM     21  C   UNL A   1      29.770  27.639  23.718  1.00  0.00     0.262 C 
ATOM     22  O   UNL A   1      28.891  26.823  23.979  1.00  0.00    -0.268 OA
BRANCH  21  23
ATOM     23  C   UNL A   1      29.331  28.866  23.019  1.00  0.00     0.040 A 
ATOM     24  C   UNL A   1      28.044  29.358  23.270  1.00  0.00     0.015 A 
ATOM     25  C   UNL A   1      30.166  29.499  22.088  1.00  0.00     0.015 A 
ATOM     26  C   UNL A   1      27.566  30.450  22.540  1.00  0.00     0.021 A 
ATOM     27  C   UNL A   1      29.684  30.601  21.369  1.00  0.00     0.021 A 
ATOM     28  C   UNL A   1      28.383  31.061  21.588  1.00  0.00     0.041 A 
ATOM     29  Cl  UNL A   1      27.774  32.379  20.664  1.00  0.00    -0.084 Cl
ENDBRANCH  21  23
ENDBRANCH  17  21
BRANCH  18  30
ATOM     30  C   UNL A   1      31.460  25.492  22.271  1.00  0.00     0.432 C 
ATOM     31  F   UNL A   1      30.524  24.621  22.717  1.00  0.00    -0.165 F 
ATOM     32  F   UNL A   1      30.849  26.229  21.299  1.00  0.00    -0.165 F 
ATOM     33  F   UNL A   1      32.426  24.807  21.620  1.00  0.00    -0.165 F 
ENDBRANCH  18  30
ENDBRANCH   9  10
ENDBRANCH   7   9
ENDBRANCH   6   7
ENDBRANCH   5   6
ENDBRANCH   4   5
ENDBRANCH   3   4
ENDBRANCH   2   3
ENDBRANCH   1   2
BRANCH   1  34
ATOM     34  O   UNL A   1      35.443  21.177  25.754  1.00  0.00    -0.377 OA
BRANCH  34  35
ATOM     35  C   UNL A   1      36.624  21.923  25.656  1.00  0.00     0.188 C 
BRANCH  35  36
ATOM     36  C   UNL A   1      37.905  21.124  25.386  1.00  0.00     0.188 C 
BRANCH  36  37
ATOM     37  O   UNL A   1      39.201  21.656  25.646  1.00  0.00    -0.376 OA
BRANCH  37  38
ATOM     38  C   UNL A   1      39.432  22.492  26.768  1.00  0.00     0.202 C 
BRANCH  38  39
ATOM     39  C   UNL A   1      40.717  22.281  27.589  1.00  0.00     0.261 C 
BRANCH  39  40
ATOM     40  O   UNL A   1      41.432  23.490  27.857  1.00  0.00    -0.460 OA
BRANCH  40  41
ATOM     41  C   UNL A   1      42.225  23.986  26.867  1.00  0.00     0.338 C 
ATOM     42  O   UNL A   1      42.531  23.460  25.828  1.00  0.00    -0.246 OA
BRANCH  41  43
ATOM     43  C   UNL A   1      42.364  25.433  27.167  1.00  0.00     0.060 A 
ATOM     44  C   UNL A   1      43.192  25.878  28.201  1.00  0.00     0.016 A 
ATOM     45  C   UNL A   1      41.388  26.273  26.616  1.00  0.00     0.016 A 
ATOM     46  C   UNL A   1      42.924  27.112  28.787  1.00  0.00     0.010 A 
ATOM     47  C   UNL A   1      41.117  27.506  27.212  1.00  0.00     0.010 A 
ATOM     48  C   UNL A   1      41.850  27.905  28.330  1.00  0.00    -0.014 A 
BRANCH  48  49
ATOM     49  C   UNL A   1      41.741  29.266  28.877  1.00  0.00     0.031 A 
ATOM     50  C   UNL A   1      42.869  30.126  28.426  1.00  0.00     0.074 A 
ATOM     51  C   UNL A   1      40.718  29.831  29.552  1.00  0.00     0.049 A 
ATOM     52  N   UNL A   1      43.733  30.770  29.140  1.00  0.00    -0.248 NA
ATOM     53  C   UNL A   1      43.129  30.158  26.976  1.00  0.00     0.031 C 
ATOM     54  C   UNL A   1      39.391  29.281  29.828  1.00  0.00     0.029 A 
ATOM     55  N   UNL A   1      40.636  31.104  30.061  1.00  0.00    -0.354 N 
ATOM     56  C   UNL A   1      44.567  31.403  28.226  1.00  0.00     0.074 A 
ATOM     57  C   UNL A   1      44.243  30.881  26.924  1.00  0.00     0.031 C 
ATOM     58  C   UNL A   1      38.582  30.274  30.272  1.00  0.00     0.029 A 
ATOM     59  C   UNL A   1      39.351  31.503  30.407  1.00  0.00     0.049 A 
ATOM     60  H   UNL A   1      41.423  31.685  30.172  1.00  0.00     0.167 HD
ATOM     61  C   UNL A   1      45.332  32.473  28.560  1.00  0.00     0.037 A 
ATOM     62  C   UNL A   1      38.936  32.761  30.715  1.00  0.00     0.037 A 
ATOM     63  C   UNL A   1      45.561  32.561  29.973  1.00  0.00     0.049 A 
ATOM     64  C   UNL A   1      40.131  33.574  31.048  1.00  0.00     0.074 A 
ATOM     65  C   UNL A   1      46.140  31.731  30.913  1.00  0.00     0.029 A 
ATOM     66  N   UNL A   1      44.897  33.524  30.686  1.00  0.00    -0.354 N 
ATOM     67  N   UNL A   1      40.817  33.474  32.150  1.00  0.00    -0.248 NA
ATOM     68  C   UNL A   1      40.780  34.311  29.971  1.00  0.00     0.031 C 
ATOM     69  C   UNL A   1      45.414  31.962  32.116  1.00  0.00     0.029 A 
ATOM     70  C   UNL A   1      44.449  32.930  31.836  1.00  0.00     0.049 A 
ATOM     71  H   UNL A   1      44.766  34.463  30.422  1.00  0.00     0.167 HD
ATOM     72  C   UNL A   1      42.119  33.761  31.777  1.00  0.00     0.074 A 
ATOM     73  C   UNL A   1      42.019  34.378  30.462  1.00  0.00     0.031 C 
ATOM     74  C   UNL A   1      43.176  33.218  32.445  1.00  0.00     0.037 A 
BRANCH  61  75
ATOM     75  C   UNL A   1      45.578  33.618  27.617  1.00  0.00     0.064 A 
ATOM     76  C   UNL A   1      46.899  33.979  27.293  1.00  0.00     0.173 A 
ATOM     77  C   UNL A   1      44.579  34.549  27.254  1.00  0.00     0.173 A 
ATOM     78  F   UNL A   1      47.925  33.185  27.633  1.00  0.00    -0.203 F 
ATOM     79  C   UNL A   1      47.196  35.206  26.699  1.00  0.00     0.198 A 
ATOM     80  C   UNL A   1      44.875  35.742  26.605  1.00  0.00     0.198 A 
ATOM     81  F   UNL A   1      43.298  34.394  27.613  1.00  0.00    -0.203 F 
ATOM     82  F   UNL A   1      48.475  35.564  26.522  1.00  0.00    -0.200 F 
ATOM     83  C   UNL A   1      46.186  36.086  26.354  1.00  0.00     0.200 A 
ATOM     84  F   UNL A   1      43.882  36.591  26.300  1.00  0.00    -0.200 F 
ATOM     85  F   UNL A   1      46.474  37.286  25.835  1.00  0.00    -0.200 F 
ENDBRANCH  61  75
BRANCH  62  86
ATOM     86  C   UNL A   1      37.599  33.395  30.565  1.00  0.00     0.064 A 
ATOM     87  C   UNL A   1      37.035  33.628  29.295  1.00  0.00     0.173 A 
ATOM     88  C   UNL A   1      36.733  33.550  31.662  1.00  0.00     0.173 A 
ATOM     89  F   UNL A   1      37.769  33.458  28.185  1.00  0.00    -0.203 F 
ATOM     90  C   UNL A   1      35.687  33.973  29.137  1.00  0.00     0.198 A 
ATOM     91  C   UNL A   1      35.392  33.909  31.505  1.00  0.00     0.198 A 
ATOM     92  F   UNL A   1      37.142  33.265  32.906  1.00  0.00    -0.203 F 
ATOM     93  F   UNL A   1      35.174  34.123  27.907  1.00  0.00    -0.200 F 
ATOM     94  C   UNL A   1      34.866  34.107  30.243  1.00  0.00     0.200 A 
ATOM     95  F   UNL A   1      34.600  34.001  32.581  1.00  0.00    -0.200 F 
ATOM     96  F   UNL A   1      33.563  34.385  30.090  1.00  0.00    -0.200 F 
ENDBRANCH  62  86
BRANCH  74  97
ATOM     97  C   UNL A   1      42.926  32.608  33.789  1.00  0.00     0.064 A 
ATOM     98  C   UNL A   1      42.981  33.326  34.994  1.00  0.00     0.173 A 
ATOM     99  C   UNL A   1      42.438  31.294  33.833  1.00  0.00     0.173 A 
ATOM    100  F   UNL A   1      43.343  34.617  35.018  1.00  0.00    -0.203 F 
ATOM    101  C   UNL A   1      42.591  32.736  36.195  1.00  0.00     0.198 A 
ATOM    102  C   UNL A   1      42.012  30.724  35.026  1.00  0.00     0.198 A 
ATOM    103  F   UNL A   1      42.321  30.582  32.699  1.00  0.00    -0.203 F 
ATOM    104  F   UNL A   1      42.660  33.436  37.336  1.00  0.00    -0.200 F 
ATOM    105  C   UNL A   1      42.093  31.443  36.207  1.00  0.00     0.200 A 
ATOM    106  F   UNL A   1      41.489  29.489  35.026  1.00  0.00    -0.200 F 
ATOM    107  F   UNL A   1      41.663  30.899  37.355  1.00  0.00    -0.200 F 
ENDBRANCH  74  97
ENDBRANCH  48  49
ENDBRANCH  41  43
ENDBRANCH  40  41
ENDBRANCH  39  40
ENDBRANCH  38  39
ENDBRANCH  37  38
ENDBRANCH  36  37
ENDBRANCH  35  36
ENDBRANCH  34  35
ENDBRANCH   1  34
TORSDOF 25
ENDMDL
MODEL 3
REMARK VINA RESULT:     -10.0      4.950     10.725
REMARK SMILES COc1ccc2c(c1)c(CC(=O)OCCOCCOCCOCCOC(=O)c1ccc(-c3c4nc(c(-c5c(F)c(F)c(F)c(F)c5F)c5ccc([nH]5)c(-c5c(F)c(F)c(F)c(F)c5F)c5nc(c(-c6c(F)c(F)c(F)c(F)c6F)c6ccc3[nH]6)C=C5)C=C4)cc1)c(C(F)(F)F)n2C(=O)c1ccc(Cl)cc1
REMARK SMILES IDX 18 1 17 2 16 3 15 4 14 5 13 6 11 7 12 8 10 9 9 10 3 11 4 12
REMARK SMILES IDX 8 13 5 14 7 15 6 16 96 17 91 18 2 19 1 20 97 21 98 22 99 23
REMARK SMILES IDX 100 24 105 25 101 26 104 27 102 28 103 29 92 30 93 31 94 32
REMARK SMILES IDX 95 33 19 34 20 35 21 36 22 37 23 38 24 39 25 40 26 41 27 42
REMARK SMILES IDX 28 43 29 44 90 45 30 46 89 47 31 48 32 49 33 50 83 51 34 52
REMARK SMILES IDX 88 53 82 54 84 55 35 56 87 57 81 58 80 59 36 61 68 62 48 63
REMARK SMILES IDX 67 64 49 65 52 66 66 67 85 68 50 69 51 70 65 72 86 73 53 74
REMARK SMILES IDX 37 75 38 76 46 77 39 78 40 79 44 80 47 81 41 82 42 83 45 84
REMARK SMILES IDX 43 85 69 86 70 87 78 88 71 89 72 90 76 91 79 92 73 93 74 94
REMARK SMILES IDX 77 95 75 96 54 97 55 98 63 99 56 100 57 101 61 102 64 103
REMARK SMILES IDX 58 104 59 105 62 106 60 107
REMARK H PARENT 84 60 52 71
REMARK Flexibility Score: inf
ROOT
ATOM      1  C   UNL A   1      46.987  30.092  28.047  1.00  0.00     0.188 C 
ENDROOT
BRANCH   1   2
ATOM      2  C   UNL A   1      47.252  28.645  27.655  1.00  0.00     0.188 C 
BRANCH   2   3
ATOM      3  O   UNL A   1      47.529  28.461  26.279  1.00  0.00    -0.376 OA
BRANCH   3   4
ATOM      4  C   UNL A   1      46.576  27.752  25.505  1.00  0.00     0.202 C 
BRANCH   4   5
ATOM      5  C   UNL A   1      46.540  26.210  25.590  1.00  0.00     0.261 C 
BRANCH   5   6
ATOM      6  O   UNL A   1      46.169  25.466  24.407  1.00  0.00    -0.463 OA
BRANCH   6   7
ATOM      7  C   UNL A   1      45.770  24.182  24.568  1.00  0.00     0.310 C 
ATOM      8  O   UNL A   1      45.876  23.338  23.680  1.00  0.00    -0.252 OA
BRANCH   7   9
ATOM      9  C   UNL A   1      45.241  23.814  25.958  1.00  0.00     0.161 C 
BRANCH   9  10
ATOM     10  C   UNL A   1      43.935  23.038  26.131  1.00  0.00     0.002 A 
ATOM     11  C   UNL A   1      44.184  19.298  25.282  1.00  0.00     0.119 A 
ATOM     12  C   UNL A   1      42.887  18.973  25.627  1.00  0.00     0.048 A 
ATOM     13  C   UNL A   1      44.576  20.643  25.281  1.00  0.00     0.057 A 
ATOM     14  C   UNL A   1      41.994  19.967  26.032  1.00  0.00     0.031 A 
ATOM     15  C   UNL A   1      43.727  21.656  25.797  1.00  0.00     0.008 A 
ATOM     16  C   UNL A   1      42.420  21.311  26.148  1.00  0.00     0.057 A 
ATOM     17  N   UNL A   1      41.773  22.469  26.610  1.00  0.00    -0.271 N 
ATOM     18  C   UNL A   1      42.688  23.532  26.520  1.00  0.00     0.135 A 
BRANCH  11  19
ATOM     19  O   UNL A   1      45.167  18.397  24.972  1.00  0.00    -0.497 OA
ATOM     20  C   UNL A   1      46.433  18.591  25.602  1.00  0.00     0.278 C 
ENDBRANCH  11  19
BRANCH  17  21
ATOM     21  C   UNL A   1      40.438  22.526  27.117  1.00  0.00     0.262 C 
ATOM     22  O   UNL A   1      40.274  22.519  28.333  1.00  0.00    -0.268 OA
BRANCH  21  23
ATOM     23  C   UNL A   1      39.209  22.514  26.295  1.00  0.00     0.040 A 
ATOM     24  C   UNL A   1      38.421  23.671  26.248  1.00  0.00     0.015 A 
ATOM     25  C   UNL A   1      38.812  21.355  25.614  1.00  0.00     0.015 A 
ATOM     26  C   UNL A   1      37.199  23.649  25.569  1.00  0.00     0.021 A 
ATOM     27  C   UNL A   1      37.592  21.344  24.926  1.00  0.00     0.021 A 
ATOM     28  C   UNL A   1      36.786  22.486  24.919  1.00  0.00     0.041 A 
ATOM     29  Cl  UNL A   1      35.262  22.452  24.121  1.00  0.00    -0.084 Cl
ENDBRANCH  21  23
ENDBRANCH  17  21
BRANCH  18  30
ATOM     30  C   UNL A   1      42.327  24.954  26.811  1.00  0.00     0.432 C 
ATOM     31  F   UNL A   1      42.091  25.156  28.129  1.00  0.00    -0.165 F 
ATOM     32  F   UNL A   1      43.371  25.773  26.492  1.00  0.00    -0.165 F 
ATOM     33  F   UNL A   1      41.287  25.437  26.097  1.00  0.00    -0.165 F 
ENDBRANCH  18  30
ENDBRANCH   9  10
ENDBRANCH   7   9
ENDBRANCH   6   7
ENDBRANCH   5   6
ENDBRANCH   4   5
ENDBRANCH   3   4
ENDBRANCH   2   3
ENDBRANCH   1   2
BRANCH   1  34
ATOM     34  O   UNL A   1      47.798  31.170  27.649  1.00  0.00    -0.377 OA
BRANCH  34  35
ATOM     35  C   UNL A   1      47.297  32.093  26.722  1.00  0.00     0.188 C 
BRANCH  35  36
ATOM     36  C   UNL A   1      48.132  33.363  26.519  1.00  0.00     0.188 C 
BRANCH  36  37
ATOM     37  O   UNL A   1      47.767  34.371  25.580  1.00  0.00    -0.376 OA
BRANCH  37  38
ATOM     38  C   UNL A   1      48.452  35.612  25.542  1.00  0.00     0.202 C 
BRANCH  38  39
ATOM     39  C   UNL A   1      48.388  36.526  26.778  1.00  0.00     0.261 C 
BRANCH  39  40
ATOM     40  O   UNL A   1      47.066  36.706  27.292  1.00  0.00    -0.460 OA
BRANCH  40  41
ATOM     41  C   UNL A   1      46.933  36.911  28.631  1.00  0.00     0.338 C 
ATOM     42  O   UNL A   1      47.088  37.935  29.245  1.00  0.00    -0.246 OA
BRANCH  41  43
ATOM     43  C   UNL A   1      46.234  35.706  29.143  1.00  0.00     0.060 A 
ATOM     44  C   UNL A   1      45.371  34.972  28.326  1.00  0.00     0.016 A 
ATOM     45  C   UNL A   1      46.206  35.554  30.536  1.00  0.00     0.016 A 
ATOM     46  C   UNL A   1      44.371  34.209  28.924  1.00  0.00     0.010 A 
ATOM     47  C   UNL A   1      45.198  34.795  31.132  1.00  0.00     0.010 A 
ATOM     48  C   UNL A   1      44.248  34.163  30.329  1.00  0.00    -0.014 A 
BRANCH  48  49
ATOM     49  C   UNL A   1      43.286  33.201  30.886  1.00  0.00     0.031 A 
ATOM     50  C   UNL A   1      43.717  31.797  30.643  1.00  0.00     0.074 A 
ATOM     51  C   UNL A   1      42.221  33.429  31.685  1.00  0.00     0.049 A 
ATOM     52  N   UNL A   1      43.086  30.851  30.027  1.00  0.00    -0.248 NA
ATOM     53  C   UNL A   1      45.095  31.457  31.040  1.00  0.00     0.031 C 
ATOM     54  C   UNL A   1      41.798  34.682  32.307  1.00  0.00     0.029 A 
ATOM     55  N   UNL A   1      41.329  32.516  32.192  1.00  0.00    -0.354 N 
ATOM     56  C   UNL A   1      43.935  29.750  30.077  1.00  0.00     0.074 A 
ATOM     57  C   UNL A   1      45.202  30.215  30.578  1.00  0.00     0.031 C 
ATOM     58  C   UNL A   1      40.864  34.417  33.252  1.00  0.00     0.029 A 
ATOM     59  C   UNL A   1      40.550  32.995  33.238  1.00  0.00     0.049 A 
ATOM     60  H   UNL A   1      41.248  31.599  31.843  1.00  0.00     0.167 HD
ATOM     61  C   UNL A   1      43.489  28.481  29.905  1.00  0.00     0.037 A 
ATOM     62  C   UNL A   1      39.758  32.269  34.071  1.00  0.00     0.037 A 
ATOM     63  C   UNL A   1      42.235  28.432  29.211  1.00  0.00     0.049 A 
ATOM     64  C   UNL A   1      39.507  30.950  33.441  1.00  0.00     0.074 A 
ATOM     65  C   UNL A   1      41.796  28.857  27.973  1.00  0.00     0.029 A 
ATOM     66  N   UNL A   1      41.103  28.134  29.924  1.00  0.00    -0.354 N 
ATOM     67  N   UNL A   1      38.716  30.747  32.427  1.00  0.00    -0.248 NA
ATOM     68  C   UNL A   1      40.421  29.859  33.750  1.00  0.00     0.031 C 
ATOM     69  C   UNL A   1      40.437  29.235  28.165  1.00  0.00     0.029 A 
ATOM     70  C   UNL A   1      40.129  29.001  29.504  1.00  0.00     0.049 A 
ATOM     71  H   UNL A   1      41.008  27.431  30.607  1.00  0.00     0.167 HD
ATOM     72  C   UNL A   1      39.306  29.706  31.729  1.00  0.00     0.074 A 
ATOM     73  C   UNL A   1      40.279  29.127  32.644  1.00  0.00     0.031 C 
ATOM     74  C   UNL A   1      39.148  29.590  30.380  1.00  0.00     0.037 A 
BRANCH  61  75
ATOM     75  C   UNL A   1      44.045  27.316  30.676  1.00  0.00     0.064 A 
ATOM     76  C   UNL A   1      44.593  26.222  29.982  1.00  0.00     0.173 A 
ATOM     77  C   UNL A   1      43.796  27.109  32.052  1.00  0.00     0.173 A 
ATOM     78  F   UNL A   1      44.827  26.300  28.664  1.00  0.00    -0.203 F 
ATOM     79  C   UNL A   1      44.822  24.997  30.611  1.00  0.00     0.198 A 
ATOM     80  C   UNL A   1      44.085  25.907  32.688  1.00  0.00     0.198 A 
ATOM     81  F   UNL A   1      43.161  28.018  32.804  1.00  0.00    -0.203 F 
ATOM     82  F   UNL A   1      45.226  23.945  29.886  1.00  0.00    -0.200 F 
ATOM     83  C   UNL A   1      44.569  24.840  31.962  1.00  0.00     0.200 A 
ATOM     84  F   UNL A   1      43.810  25.769  33.993  1.00  0.00    -0.200 F 
ATOM     85  F   UNL A   1      44.736  23.651  32.553  1.00  0.00    -0.200 F 
ENDBRANCH  61  75
BRANCH  62  86
ATOM     86  C   UNL A   1      39.340  32.536  35.474  1.00  0.00     0.064 A 
ATOM     87  C   UNL A   1      40.289  32.725  36.498  1.00  0.00     0.173 A 
ATOM     88  C   UNL A   1      38.012  32.869  35.793  1.00  0.00     0.173 A 
ATOM     89  F   UNL A   1      41.588  32.482  36.274  1.00  0.00    -0.203 F 
ATOM     90  C   UNL A   1      39.929  33.234  37.753  1.00  0.00     0.198 A 
ATOM     91  C   UNL A   1      37.652  33.362  37.050  1.00  0.00     0.198 A 
ATOM     92  F   UNL A   1      37.046  32.813  34.866  1.00  0.00    -0.203 F 
ATOM     93  F   UNL A   1      40.872  33.459  38.679  1.00  0.00    -0.200 F 
ATOM     94  C   UNL A   1      38.611  33.557  38.025  1.00  0.00     0.200 A 
ATOM     95  F   UNL A   1      36.378  33.705  37.288  1.00  0.00    -0.200 F 
ATOM     96  F   UNL A   1      38.275  34.094  39.206  1.00  0.00    -0.200 F 
ENDBRANCH  62  86
BRANCH  74  97
ATOM     97  C   UNL A   1      38.055  30.374  29.724  1.00  0.00     0.064 A 
ATOM     98  C   UNL A   1      38.148  31.743  29.425  1.00  0.00     0.173 A 
ATOM     99  C   UNL A   1      36.951  29.670  29.222  1.00  0.00     0.173 A 
ATOM    100  F   UNL A   1      39.222  32.461  29.787  1.00  0.00    -0.203 F 
ATOM    101  C   UNL A   1      37.158  32.381  28.681  1.00  0.00     0.198 A 
ATOM    102  C   UNL A   1      35.987  30.301  28.445  1.00  0.00     0.198 A 
ATOM    103  F   UNL A   1      36.841  28.348  29.440  1.00  0.00    -0.203 F 
ATOM    104  F   UNL A   1      37.261  33.690  28.414  1.00  0.00    -0.200 F 
ATOM    105  C   UNL A   1      36.088  31.657  28.179  1.00  0.00     0.200 A 
ATOM    106  F   UNL A   1      34.979  29.587  27.924  1.00  0.00    -0.200 F 
ATOM    107  F   UNL A   1      35.169  32.260  27.412  1.00  0.00    -0.200 F 
ENDBRANCH  74  97
ENDBRANCH  48  49
ENDBRANCH  41  43
ENDBRANCH  40  41
ENDBRANCH  39  40
ENDBRANCH  38  39
ENDBRANCH  37  38
ENDBRANCH  36  37
ENDBRANCH  35  36
ENDBRANCH  34  35
ENDBRANCH   1  34
TORSDOF 25
ENDMDL
