MODEL 1
REMARK VINA RESULT:     -10.5      0.000      0.000
REMARK SMILES Cc1ccc(C(=O)OCCOCCOCCOCCOC(=O)c2ccc(-c3c4nc(c(-c5c(F)c(F)c(F)c(F)c5F)c5ccc([nH]5)c(-c5c(F)c(F)c(F)c(F)c5F)c5nc(c(-c6c(F)c(F)c(F)c(F)c6F)c6ccc3[nH]6)C=C5)C=C4)cc2)c(Oc2cccc(F)c2C(N)=O)c1
REMARK SMILES IDX 13 1 12 2 11 3 10 4 9 5 8 6 6 7 7 8 5 9 1 10 2 11 3 12 98 13
REMARK SMILES IDX 4 14 86 15 87 16 88 17 89 18 94 19 90 20 92 21 91 22 93 23
REMARK SMILES IDX 95 24 96 25 97 26 14 29 15 30 16 31 17 32 18 33 19 34 20 35
REMARK SMILES IDX 21 36 22 37 23 38 24 39 85 40 25 41 84 42 26 43 27 44 28 45
REMARK SMILES IDX 78 46 29 47 83 48 77 49 79 50 30 51 82 52 76 53 75 54 31 56
REMARK SMILES IDX 63 57 43 58 62 59 44 60 47 61 61 62 80 63 45 64 46 65 60 67
REMARK SMILES IDX 81 68 48 69 32 70 33 71 41 72 34 73 35 74 39 75 42 76 36 77
REMARK SMILES IDX 37 78 40 79 38 80 64 81 65 82 73 83 66 84 67 85 71 86 74 87
REMARK SMILES IDX 68 88 69 89 72 90 70 91 49 92 50 93 58 94 51 95 52 96 56 97
REMARK SMILES IDX 59 98 53 99 54 100 57 101 55 102
REMARK H PARENT 96 27 96 28 79 55 47 66
REMARK Flexibility Score: inf
ROOT
ATOM      1  C   UNL A   1      34.549  22.446  23.793  1.00  0.00     0.188 C 
ENDROOT
BRANCH   1   2
ATOM      2  C   UNL A   1      33.353  22.924  22.960  1.00  0.00     0.188 C 
BRANCH   2   3
ATOM      3  O   UNL A   1      32.338  23.693  23.581  1.00  0.00    -0.376 OA
BRANCH   3   4
ATOM      4  C   UNL A   1      31.992  23.298  24.903  1.00  0.00     0.202 C 
BRANCH   4   5
ATOM      5  C   UNL A   1      31.214  24.294  25.742  1.00  0.00     0.261 C 
BRANCH   5   6
ATOM      6  O   UNL A   1      31.747  25.603  25.498  1.00  0.00    -0.460 OA
BRANCH   6   7
ATOM      7  C   UNL A   1      31.046  26.586  26.068  1.00  0.00     0.342 C 
ATOM      8  O   UNL A   1      30.051  26.468  26.782  1.00  0.00    -0.246 OA
BRANCH   7   9
ATOM      9  C   UNL A   1      31.890  27.774  26.158  1.00  0.00     0.102 A 
ATOM     10  C   UNL A   1      33.807  31.337  27.459  1.00  0.00     0.044 C 
ATOM     11  C   UNL A   1      33.219  30.062  26.947  1.00  0.00    -0.047 A 
ATOM     12  C   UNL A   1      33.344  28.909  27.718  1.00  0.00     0.004 A 
ATOM     13  C   UNL A   1      32.521  30.027  25.725  1.00  0.00     0.051 A 
ATOM     14  C   UNL A   1      32.645  27.783  27.345  1.00  0.00     0.020 A 
ATOM     15  C   UNL A   1      31.917  28.854  25.263  1.00  0.00     0.142 A 
BRANCH  15  16
ATOM     16  O   UNL A   1      31.381  28.708  24.000  1.00  0.00    -0.455 OA
BRANCH  16  17
ATOM     17  C   UNL A   1      30.092  29.136  23.721  1.00  0.00     0.143 A 
ATOM     18  C   UNL A   1      29.932  30.531  23.751  1.00  0.00     0.048 A 
ATOM     19  C   UNL A   1      28.958  28.330  23.481  1.00  0.00     0.117 A 
ATOM     20  C   UNL A   1      28.695  31.123  23.475  1.00  0.00     0.007 A 
ATOM     21  C   UNL A   1      27.729  28.942  23.198  1.00  0.00     0.139 A 
ATOM     22  C   UNL A   1      27.595  30.325  23.183  1.00  0.00     0.040 A 
ATOM     23  F   UNL A   1      26.627  28.214  22.963  1.00  0.00    -0.206 F 
BRANCH  19  24
ATOM     24  C   UNL A   1      28.923  26.855  23.494  1.00  0.00     0.255 C 
ATOM     25  N   UNL A   1      27.923  26.273  24.193  1.00  0.00    -0.365 N 
ATOM     26  O   UNL A   1      29.732  26.169  22.884  1.00  0.00    -0.269 OA
ATOM     27  H   UNL A   1      27.275  26.831  24.681  1.00  0.00     0.159 HD
ATOM     28  H   UNL A   1      27.843  25.292  24.214  1.00  0.00     0.159 HD
ENDBRANCH  19  24
ENDBRANCH  16  17
ENDBRANCH  15  16
ENDBRANCH   7   9
ENDBRANCH   6   7
ENDBRANCH   5   6
ENDBRANCH   4   5
ENDBRANCH   3   4
ENDBRANCH   2   3
ENDBRANCH   1   2
BRANCH   1  29
ATOM     29  O   UNL A   1      35.868  22.707  23.329  1.00  0.00    -0.377 OA
BRANCH  29  30
ATOM     30  C   UNL A   1      36.968  22.018  23.925  1.00  0.00     0.188 C 
BRANCH  30  31
ATOM     31  C   UNL A   1      36.720  21.016  25.035  1.00  0.00     0.188 C 
BRANCH  31  32
ATOM     32  O   UNL A   1      37.942  20.895  25.751  1.00  0.00    -0.376 OA
BRANCH  32  33
ATOM     33  C   UNL A   1      38.886  21.933  25.530  1.00  0.00     0.202 C 
BRANCH  33  34
ATOM     34  C   UNL A   1      38.758  23.078  26.540  1.00  0.00     0.261 C 
BRANCH  34  35
ATOM     35  O   UNL A   1      39.682  22.852  27.624  1.00  0.00    -0.460 OA
BRANCH  35  36
ATOM     36  C   UNL A   1      40.694  23.757  27.732  1.00  0.00     0.338 C 
ATOM     37  O   UNL A   1      41.849  23.486  28.013  1.00  0.00    -0.246 OA
BRANCH  36  38
ATOM     38  C   UNL A   1      40.143  25.146  27.726  1.00  0.00     0.060 A 
ATOM     39  C   UNL A   1      40.419  26.020  26.664  1.00  0.00     0.016 A 
ATOM     40  C   UNL A   1      39.629  25.663  28.907  1.00  0.00     0.016 A 
ATOM     41  C   UNL A   1      40.362  27.413  26.857  1.00  0.00     0.010 A 
ATOM     42  C   UNL A   1      39.686  27.028  29.117  1.00  0.00     0.010 A 
ATOM     43  C   UNL A   1      40.108  27.927  28.125  1.00  0.00    -0.014 A 
BRANCH  43  44
ATOM     44  C   UNL A   1      40.398  29.313  28.573  1.00  0.00     0.031 A 
ATOM     45  C   UNL A   1      39.280  30.322  28.592  1.00  0.00     0.074 A 
ATOM     46  C   UNL A   1      41.515  29.541  29.319  1.00  0.00     0.049 A 
ATOM     47  N   UNL A   1      39.336  31.489  29.139  1.00  0.00    -0.248 NA
ATOM     48  C   UNL A   1      37.952  30.069  28.036  1.00  0.00     0.031 C 
ATOM     49  C   UNL A   1      41.694  30.566  30.344  1.00  0.00     0.029 A 
ATOM     50  N   UNL A   1      42.727  28.851  29.389  1.00  0.00    -0.354 N 
ATOM     51  C   UNL A   1      38.052  31.953  29.353  1.00  0.00     0.074 A 
ATOM     52  C   UNL A   1      37.237  31.077  28.552  1.00  0.00     0.031 C 
ATOM     53  C   UNL A   1      42.908  30.512  30.905  1.00  0.00     0.029 A 
ATOM     54  C   UNL A   1      43.681  29.663  30.043  1.00  0.00     0.049 A 
ATOM     55  H   UNL A   1      42.891  27.945  29.040  1.00  0.00     0.167 HD
ATOM     56  C   UNL A   1      37.856  32.927  30.300  1.00  0.00     0.037 A 
ATOM     57  C   UNL A   1      44.754  30.133  29.340  1.00  0.00     0.037 A 
ATOM     58  C   UNL A   1      39.153  33.490  30.750  1.00  0.00     0.049 A 
ATOM     59  C   UNL A   1      44.589  31.638  29.129  1.00  0.00     0.074 A 
ATOM     60  C   UNL A   1      39.754  33.672  31.983  1.00  0.00     0.029 A 
ATOM     61  N   UNL A   1      40.153  33.792  29.811  1.00  0.00    -0.354 N 
ATOM     62  N   UNL A   1      43.420  32.230  28.991  1.00  0.00    -0.248 NA
ATOM     63  C   UNL A   1      45.667  32.595  29.382  1.00  0.00     0.031 C 
ATOM     64  C   UNL A   1      41.150  33.874  31.778  1.00  0.00     0.029 A 
ATOM     65  C   UNL A   1      41.388  33.946  30.411  1.00  0.00     0.049 A 
ATOM     66  H   UNL A   1      39.992  33.881  28.844  1.00  0.00     0.167 HD
ATOM     67  C   UNL A   1      43.550  33.558  29.323  1.00  0.00     0.074 A 
ATOM     68  C   UNL A   1      44.985  33.751  29.484  1.00  0.00     0.031 C 
ATOM     69  C   UNL A   1      42.540  34.423  29.660  1.00  0.00     0.037 A 
BRANCH  56  70
ATOM     70  C   UNL A   1      36.524  33.250  31.020  1.00  0.00     0.064 A 
ATOM     71  C   UNL A   1      35.490  33.960  30.354  1.00  0.00     0.173 A 
ATOM     72  C   UNL A   1      36.230  32.994  32.379  1.00  0.00     0.173 A 
ATOM     73  F   UNL A   1      35.559  34.227  29.044  1.00  0.00    -0.203 F 
ATOM     74  C   UNL A   1      34.327  34.420  30.997  1.00  0.00     0.198 A 
ATOM     75  C   UNL A   1      35.040  33.402  33.006  1.00  0.00     0.198 A 
ATOM     76  F   UNL A   1      37.084  32.363  33.187  1.00  0.00    -0.203 F 
ATOM     77  F   UNL A   1      33.429  35.146  30.315  1.00  0.00    -0.200 F 
ATOM     78  C   UNL A   1      34.098  34.136  32.324  1.00  0.00     0.200 A 
ATOM     79  F   UNL A   1      34.829  33.087  34.294  1.00  0.00    -0.200 F 
ATOM     80  F   UNL A   1      32.984  34.559  32.937  1.00  0.00    -0.200 F 
ENDBRANCH  56  70
BRANCH  57  81
ATOM     81  C   UNL A   1      45.301  29.015  28.499  1.00  0.00     0.064 A 
ATOM     82  C   UNL A   1      45.250  29.293  27.106  1.00  0.00     0.173 A 
ATOM     83  C   UNL A   1      46.376  28.229  28.944  1.00  0.00     0.173 A 
ATOM     84  F   UNL A   1      44.237  30.027  26.615  1.00  0.00    -0.203 F 
ATOM     85  C   UNL A   1      46.351  29.067  26.279  1.00  0.00     0.198 A 
ATOM     86  C   UNL A   1      47.449  27.943  28.085  1.00  0.00     0.198 A 
ATOM     87  F   UNL A   1      46.499  27.925  30.244  1.00  0.00    -0.203 F 
ATOM     88  F   UNL A   1      46.383  29.598  25.047  1.00  0.00    -0.200 F 
ATOM     89  C   UNL A   1      47.470  28.433  26.785  1.00  0.00     0.200 A 
ATOM     90  F   UNL A   1      48.540  27.323  28.560  1.00  0.00    -0.200 F 
ATOM     91  F   UNL A   1      48.593  28.370  26.054  1.00  0.00    -0.200 F 
ENDBRANCH  57  81
BRANCH  69  92
ATOM     92  C   UNL A   1      42.592  35.905  29.363  1.00  0.00     0.064 A 
ATOM     93  C   UNL A   1      43.392  36.788  30.102  1.00  0.00     0.173 A 
ATOM     94  C   UNL A   1      42.033  36.437  28.170  1.00  0.00     0.173 A 
ATOM     95  F   UNL A   1      44.050  36.385  31.197  1.00  0.00    -0.203 F 
ATOM     96  C   UNL A   1      43.593  38.107  29.700  1.00  0.00     0.198 A 
ATOM     97  C   UNL A   1      42.284  37.737  27.744  1.00  0.00     0.198 A 
ATOM     98  F   UNL A   1      41.269  35.709  27.346  1.00  0.00    -0.203 F 
ATOM     99  F   UNL A   1      44.349  38.916  30.454  1.00  0.00    -0.200 F 
ATOM    100  C   UNL A   1      43.056  38.576  28.515  1.00  0.00     0.200 A 
ATOM    101  F   UNL A   1      41.800  38.154  26.566  1.00  0.00    -0.200 F 
ATOM    102  F   UNL A   1      43.301  39.827  28.107  1.00  0.00    -0.200 F 
ENDBRANCH  69  92
ENDBRANCH  43  44
ENDBRANCH  36  38
ENDBRANCH  35  36
ENDBRANCH  34  35
ENDBRANCH  33  34
ENDBRANCH  32  33
ENDBRANCH  31  32
ENDBRANCH  30  31
ENDBRANCH  29  30
ENDBRANCH   1  29
TORSDOF 23
ENDMDL
MODEL 2
REMARK VINA RESULT:     -10.5      1.504      2.685
REMARK SMILES Cc1ccc(C(=O)OCCOCCOCCOCCOC(=O)c2ccc(-c3c4nc(c(-c5c(F)c(F)c(F)c(F)c5F)c5ccc([nH]5)c(-c5c(F)c(F)c(F)c(F)c5F)c5nc(c(-c6c(F)c(F)c(F)c(F)c6F)c6ccc3[nH]6)C=C5)C=C4)cc2)c(Oc2cccc(F)c2C(N)=O)c1
REMARK SMILES IDX 13 1 12 2 11 3 10 4 9 5 8 6 6 7 7 8 5 9 1 10 2 11 3 12 98 13
REMARK SMILES IDX 4 14 86 15 87 16 88 17 89 18 94 19 90 20 92 21 91 22 93 23
REMARK SMILES IDX 95 24 96 25 97 26 14 29 15 30 16 31 17 32 18 33 19 34 20 35
REMARK SMILES IDX 21 36 22 37 23 38 24 39 85 40 25 41 84 42 26 43 27 44 28 45
REMARK SMILES IDX 78 46 29 47 83 48 77 49 79 50 30 51 82 52 76 53 75 54 31 56
REMARK SMILES IDX 63 57 43 58 62 59 44 60 47 61 61 62 80 63 45 64 46 65 60 67
REMARK SMILES IDX 81 68 48 69 32 70 33 71 41 72 34 73 35 74 39 75 42 76 36 77
REMARK SMILES IDX 37 78 40 79 38 80 64 81 65 82 73 83 66 84 67 85 71 86 74 87
REMARK SMILES IDX 68 88 69 89 72 90 70 91 49 92 50 93 58 94 51 95 52 96 56 97
REMARK SMILES IDX 59 98 53 99 54 100 57 101 55 102
REMARK H PARENT 96 27 96 28 79 55 47 66
REMARK Flexibility Score: inf
ROOT
ATOM      1  C   UNL A   1      34.113  23.063  23.857  1.00  0.00     0.188 C 
ENDROOT
BRANCH   1   2
ATOM      2  C   UNL A   1      32.864  23.115  22.965  1.00  0.00     0.188 C 
BRANCH   2   3
ATOM      3  O   UNL A   1      32.302  24.372  22.632  1.00  0.00    -0.376 OA
BRANCH   3   4
ATOM      4  C   UNL A   1      32.893  25.034  21.520  1.00  0.00     0.202 C 
BRANCH   4   5
ATOM      5  C   UNL A   1      33.166  26.519  21.663  1.00  0.00     0.261 C 
BRANCH   5   6
ATOM      6  O   UNL A   1      32.114  27.098  22.447  1.00  0.00    -0.460 OA
BRANCH   6   7
ATOM      7  C   UNL A   1      32.373  28.338  22.867  1.00  0.00     0.342 C 
ATOM      8  O   UNL A   1      33.440  28.942  22.775  1.00  0.00    -0.246 OA
BRANCH   7   9
ATOM      9  C   UNL A   1      31.113  29.067  22.985  1.00  0.00     0.102 A 
ATOM     10  C   UNL A   1      28.025  31.970  22.674  1.00  0.00     0.044 C 
ATOM     11  C   UNL A   1      29.037  30.876  22.792  1.00  0.00    -0.047 A 
ATOM     12  C   UNL A   1      29.544  30.305  21.629  1.00  0.00     0.004 A 
ATOM     13  C   UNL A   1      29.498  30.450  24.053  1.00  0.00     0.051 A 
ATOM     14  C   UNL A   1      30.608  29.436  21.725  1.00  0.00     0.020 A 
ATOM     15  C   UNL A   1      30.485  29.469  24.174  1.00  0.00     0.142 A 
BRANCH  15  16
ATOM     16  O   UNL A   1      30.846  28.881  25.370  1.00  0.00    -0.455 OA
BRANCH  16  17
ATOM     17  C   UNL A   1      31.945  29.337  26.082  1.00  0.00     0.143 A 
ATOM     18  C   UNL A   1      31.882  30.698  26.423  1.00  0.00     0.048 A 
ATOM     19  C   UNL A   1      33.101  28.605  26.428  1.00  0.00     0.117 A 
ATOM     20  C   UNL A   1      32.906  31.307  27.157  1.00  0.00     0.007 A 
ATOM     21  C   UNL A   1      34.112  29.231  27.171  1.00  0.00     0.139 A 
ATOM     22  C   UNL A   1      34.016  30.566  27.545  1.00  0.00     0.040 A 
ATOM     23  F   UNL A   1      35.227  28.572  27.523  1.00  0.00    -0.206 F 
BRANCH  19  24
ATOM     24  C   UNL A   1      33.373  27.197  26.083  1.00  0.00     0.255 C 
ATOM     25  N   UNL A   1      32.440  26.288  26.444  1.00  0.00    -0.365 N 
ATOM     26  O   UNL A   1      34.375  26.847  25.473  1.00  0.00    -0.269 OA
ATOM     27  H   UNL A   1      31.637  26.576  26.934  1.00  0.00     0.159 HD
ATOM     28  H   UNL A   1      32.565  25.338  26.216  1.00  0.00     0.159 HD
ENDBRANCH  19  24
ENDBRANCH  16  17
ENDBRANCH  15  16
ENDBRANCH   7   9
ENDBRANCH   6   7
ENDBRANCH   5   6
ENDBRANCH   4   5
ENDBRANCH   3   4
ENDBRANCH   2   3
ENDBRANCH   1   2
BRANCH   1  29
ATOM     29  O   UNL A   1      35.399  23.037  23.250  1.00  0.00    -0.377 OA
BRANCH  29  30
ATOM     30  C   UNL A   1      36.438  22.261  23.849  1.00  0.00     0.188 C 
BRANCH  30  31
ATOM     31  C   UNL A   1      36.113  21.316  24.989  1.00  0.00     0.188 C 
BRANCH  31  32
ATOM     32  O   UNL A   1      37.354  20.969  25.591  1.00  0.00    -0.376 OA
BRANCH  32  33
ATOM     33  C   UNL A   1      38.412  21.894  25.391  1.00  0.00     0.202 C 
BRANCH  33  34
ATOM     34  C   UNL A   1      38.501  22.943  26.504  1.00  0.00     0.261 C 
BRANCH  34  35
ATOM     35  O   UNL A   1      39.591  22.600  27.385  1.00  0.00    -0.460 OA
BRANCH  35  36
ATOM     36  C   UNL A   1      40.637  23.471  27.393  1.00  0.00     0.338 C 
ATOM     37  O   UNL A   1      41.804  23.162  27.565  1.00  0.00    -0.246 OA
BRANCH  36  38
ATOM     38  C   UNL A   1      40.134  24.877  27.434  1.00  0.00     0.060 A 
ATOM     39  C   UNL A   1      40.449  25.780  26.407  1.00  0.00     0.016 A 
ATOM     40  C   UNL A   1      39.628  25.368  28.629  1.00  0.00     0.016 A 
ATOM     41  C   UNL A   1      40.438  27.166  26.651  1.00  0.00     0.010 A 
ATOM     42  C   UNL A   1      39.729  26.721  28.890  1.00  0.00     0.010 A 
ATOM     43  C   UNL A   1      40.190  27.641  27.936  1.00  0.00    -0.014 A 
BRANCH  43  44
ATOM     44  C   UNL A   1      40.523  28.999  28.436  1.00  0.00     0.031 A 
ATOM     45  C   UNL A   1      39.436  30.039  28.500  1.00  0.00     0.074 A 
ATOM     46  C   UNL A   1      41.648  29.163  29.187  1.00  0.00     0.049 A 
ATOM     47  N   UNL A   1      39.529  31.182  29.092  1.00  0.00    -0.248 NA
ATOM     48  C   UNL A   1      38.100  29.849  27.939  1.00  0.00     0.031 C 
ATOM     49  C   UNL A   1      41.861  30.142  30.251  1.00  0.00     0.029 A 
ATOM     50  N   UNL A   1      42.839  28.435  29.226  1.00  0.00    -0.354 N 
ATOM     51  C   UNL A   1      38.260  31.676  29.328  1.00  0.00     0.074 A 
ATOM     52  C   UNL A   1      37.417  30.857  28.496  1.00  0.00     0.031 C 
ATOM     53  C   UNL A   1      43.074  30.028  30.806  1.00  0.00     0.029 A 
ATOM     54  C   UNL A   1      43.818  29.191  29.908  1.00  0.00     0.049 A 
ATOM     55  H   UNL A   1      42.974  27.539  28.840  1.00  0.00     0.167 HD
ATOM     56  C   UNL A   1      38.096  32.618  30.314  1.00  0.00     0.037 A 
ATOM     57  C   UNL A   1      44.904  29.656  29.220  1.00  0.00     0.037 A 
ATOM     58  C   UNL A   1      39.411  33.123  30.781  1.00  0.00     0.049 A 
ATOM     59  C   UNL A   1      44.784  31.172  29.069  1.00  0.00     0.074 A 
ATOM     60  C   UNL A   1      40.019  33.238  32.018  1.00  0.00     0.029 A 
ATOM     61  N   UNL A   1      40.417  33.431  29.851  1.00  0.00    -0.354 N 
ATOM     62  N   UNL A   1      43.634  31.805  28.959  1.00  0.00    -0.248 NA
ATOM     63  C   UNL A   1      45.891  32.086  29.355  1.00  0.00     0.031 C 
ATOM     64  C   UNL A   1      41.421  33.405  31.816  1.00  0.00     0.029 A 
ATOM     65  C   UNL A   1      41.658  33.524  30.452  1.00  0.00     0.049 A 
ATOM     66  H   UNL A   1      40.257  33.563  28.888  1.00  0.00     0.167 HD
ATOM     67  C   UNL A   1      43.804  33.113  29.342  1.00  0.00     0.074 A 
ATOM     68  C   UNL A   1      45.244  33.257  29.505  1.00  0.00     0.031 C 
ATOM     69  C   UNL A   1      42.822  33.995  29.716  1.00  0.00     0.037 A 
BRANCH  56  70
ATOM     70  C   UNL A   1      36.776  32.952  31.050  1.00  0.00     0.064 A 
ATOM     71  C   UNL A   1      35.706  33.592  30.372  1.00  0.00     0.173 A 
ATOM     72  C   UNL A   1      36.527  32.775  32.431  1.00  0.00     0.173 A 
ATOM     73  F   UNL A   1      35.731  33.777  29.047  1.00  0.00    -0.203 F 
ATOM     74  C   UNL A   1      34.549  34.063  31.019  1.00  0.00     0.198 A 
ATOM     75  C   UNL A   1      35.344  33.192  33.066  1.00  0.00     0.198 A 
ATOM     76  F   UNL A   1      37.419  32.219  33.252  1.00  0.00    -0.203 F 
ATOM     77  F   UNL A   1      33.613  34.721  30.319  1.00  0.00    -0.200 F 
ATOM     78  C   UNL A   1      34.364  33.858  32.367  1.00  0.00     0.200 A 
ATOM     79  F   UNL A   1      35.176  32.954  34.376  1.00  0.00    -0.200 F 
ATOM     80  F   UNL A   1      33.257  34.291  32.985  1.00  0.00    -0.200 F 
ENDBRANCH  56  70
BRANCH  57  81
ATOM     81  C   UNL A   1      45.414  28.556  28.333  1.00  0.00     0.064 A 
ATOM     82  C   UNL A   1      45.322  28.871  26.951  1.00  0.00     0.173 A 
ATOM     83  C   UNL A   1      46.496  27.750  28.725  1.00  0.00     0.173 A 
ATOM     84  F   UNL A   1      44.301  29.626  26.511  1.00  0.00    -0.203 F 
ATOM     85  C   UNL A   1      46.396  28.658  26.084  1.00  0.00     0.198 A 
ATOM     86  C   UNL A   1      47.539  27.478  27.825  1.00  0.00     0.198 A 
ATOM     87  F   UNL A   1      46.656  27.411  30.012  1.00  0.00    -0.203 F 
ATOM     88  F   UNL A   1      46.394  29.221  24.866  1.00  0.00    -0.200 F 
ATOM     89  C   UNL A   1      47.524  28.001  26.538  1.00  0.00     0.200 A 
ATOM     90  F   UNL A   1      48.639  26.837  28.249  1.00  0.00    -0.200 F 
ATOM     91  F   UNL A   1      48.623  27.949  25.771  1.00  0.00    -0.200 F 
ENDBRANCH  57  81
BRANCH  69  92
ATOM     92  C   UNL A   1      42.918  35.485  29.478  1.00  0.00     0.064 A 
ATOM     93  C   UNL A   1      43.506  36.355  30.408  1.00  0.00     0.173 A 
ATOM     94  C   UNL A   1      42.648  36.046  28.201  1.00  0.00     0.173 A 
ATOM     95  F   UNL A   1      43.892  35.928  31.617  1.00  0.00    -0.203 F 
ATOM     96  C   UNL A   1      43.774  37.687  30.098  1.00  0.00     0.198 A 
ATOM     97  C   UNL A   1      42.972  37.360  27.880  1.00  0.00     0.198 A 
ATOM     98  F   UNL A   1      42.113  35.334  27.201  1.00  0.00    -0.203 F 
ATOM     99  F   UNL A   1      44.317  38.481  31.031  1.00  0.00    -0.200 F 
ATOM    100  C   UNL A   1      43.525  38.184  28.832  1.00  0.00     0.200 A 
ATOM    101  F   UNL A   1      42.773  37.806  26.631  1.00  0.00    -0.200 F 
ATOM    102  F   UNL A   1      43.839  39.448  28.526  1.00  0.00    -0.200 F 
ENDBRANCH  69  92
ENDBRANCH  43  44
ENDBRANCH  36  38
ENDBRANCH  35  36
ENDBRANCH  34  35
ENDBRANCH  33  34
ENDBRANCH  32  33
ENDBRANCH  31  32
ENDBRANCH  30  31
ENDBRANCH  29  30
ENDBRANCH   1  29
TORSDOF 23
ENDMDL
MODEL 3
REMARK VINA RESULT:     -10.2      4.372     10.321
REMARK SMILES Cc1ccc(C(=O)OCCOCCOCCOCCOC(=O)c2ccc(-c3c4nc(c(-c5c(F)c(F)c(F)c(F)c5F)c5ccc([nH]5)c(-c5c(F)c(F)c(F)c(F)c5F)c5nc(c(-c6c(F)c(F)c(F)c(F)c6F)c6ccc3[nH]6)C=C5)C=C4)cc2)c(Oc2cccc(F)c2C(N)=O)c1
REMARK SMILES IDX 13 1 12 2 11 3 10 4 9 5 8 6 6 7 7 8 5 9 1 10 2 11 3 12 98 13
REMARK SMILES IDX 4 14 86 15 87 16 88 17 89 18 94 19 90 20 92 21 91 22 93 23
REMARK SMILES IDX 95 24 96 25 97 26 14 29 15 30 16 31 17 32 18 33 19 34 20 35
REMARK SMILES IDX 21 36 22 37 23 38 24 39 85 40 25 41 84 42 26 43 27 44 28 45
REMARK SMILES IDX 78 46 29 47 83 48 77 49 79 50 30 51 82 52 76 53 75 54 31 56
REMARK SMILES IDX 63 57 43 58 62 59 44 60 47 61 61 62 80 63 45 64 46 65 60 67
REMARK SMILES IDX 81 68 48 69 32 70 33 71 41 72 34 73 35 74 39 75 42 76 36 77
REMARK SMILES IDX 37 78 40 79 38 80 64 81 65 82 73 83 66 84 67 85 71 86 74 87
REMARK SMILES IDX 68 88 69 89 72 90 70 91 49 92 50 93 58 94 51 95 52 96 56 97
REMARK SMILES IDX 59 98 53 99 54 100 57 101 55 102
REMARK H PARENT 96 27 96 28 79 55 47 66
REMARK Flexibility Score: inf
ROOT
ATOM      1  C   UNL A   1      34.929  31.528  28.363  1.00  0.00     0.188 C 
ENDROOT
BRANCH   1   2
ATOM      2  C   UNL A   1      33.651  30.917  27.771  1.00  0.00     0.188 C 
BRANCH   2   3
ATOM      3  O   UNL A   1      33.664  30.443  26.436  1.00  0.00    -0.376 OA
BRANCH   3   4
ATOM      4  C   UNL A   1      34.089  29.096  26.267  1.00  0.00     0.202 C 
BRANCH   4   5
ATOM      5  C   UNL A   1      33.198  28.011  26.843  1.00  0.00     0.261 C 
BRANCH   5   6
ATOM      6  O   UNL A   1      33.453  26.793  26.130  1.00  0.00    -0.460 OA
BRANCH   6   7
ATOM      7  C   UNL A   1      32.653  26.605  25.078  1.00  0.00     0.342 C 
ATOM      8  O   UNL A   1      32.863  26.957  23.918  1.00  0.00    -0.246 OA
BRANCH   7   9
ATOM      9  C   UNL A   1      31.746  25.498  25.368  1.00  0.00     0.102 A 
ATOM     10  C   UNL A   1      29.222  22.682  27.307  1.00  0.00     0.044 C 
ATOM     11  C   UNL A   1      30.052  23.660  26.539  1.00  0.00    -0.047 A 
ATOM     12  C   UNL A   1      29.742  25.014  26.626  1.00  0.00     0.004 A 
ATOM     13  C   UNL A   1      31.148  23.230  25.768  1.00  0.00     0.051 A 
ATOM     14  C   UNL A   1      30.612  25.931  26.079  1.00  0.00     0.020 A 
ATOM     15  C   UNL A   1      31.966  24.140  25.092  1.00  0.00     0.142 A 
BRANCH  15  16
ATOM     16  O   UNL A   1      32.935  23.777  24.179  1.00  0.00    -0.455 OA
BRANCH  16  17
ATOM     17  C   UNL A   1      33.924  22.866  24.518  1.00  0.00     0.143 A 
ATOM     18  C   UNL A   1      35.144  23.455  24.890  1.00  0.00     0.048 A 
ATOM     19  C   UNL A   1      33.840  21.457  24.468  1.00  0.00     0.117 A 
ATOM     20  C   UNL A   1      36.237  22.671  25.276  1.00  0.00     0.007 A 
ATOM     21  C   UNL A   1      34.943  20.690  24.868  1.00  0.00     0.139 A 
ATOM     22  C   UNL A   1      36.130  21.285  25.279  1.00  0.00     0.040 A 
ATOM     23  F   UNL A   1      34.906  19.349  24.837  1.00  0.00    -0.206 F 
BRANCH  19  24
ATOM     24  C   UNL A   1      32.672  20.673  24.026  1.00  0.00     0.255 C 
ATOM     25  N   UNL A   1      32.214  20.910  22.776  1.00  0.00    -0.365 N 
ATOM     26  O   UNL A   1      32.143  19.821  24.728  1.00  0.00    -0.269 OA
ATOM     27  H   UNL A   1      32.644  21.596  22.217  1.00  0.00     0.159 HD
ATOM     28  H   UNL A   1      31.450  20.396  22.427  1.00  0.00     0.159 HD
ENDBRANCH  19  24
ENDBRANCH  16  17
ENDBRANCH  15  16
ENDBRANCH   7   9
ENDBRANCH   6   7
ENDBRANCH   5   6
ENDBRANCH   4   5
ENDBRANCH   3   4
ENDBRANCH   2   3
ENDBRANCH   1   2
BRANCH   1  29
ATOM     29  O   UNL A   1      34.977  32.927  28.616  1.00  0.00    -0.377 OA
BRANCH  29  30
ATOM     30  C   UNL A   1      33.864  33.742  28.247  1.00  0.00     0.188 C 
BRANCH  30  31
ATOM     31  C   UNL A   1      33.849  35.212  28.615  1.00  0.00     0.188 C 
BRANCH  31  32
ATOM     32  O   UNL A   1      32.570  35.475  29.178  1.00  0.00    -0.376 OA
BRANCH  32  33
ATOM     33  C   UNL A   1      32.562  35.791  30.562  1.00  0.00     0.202 C 
BRANCH  33  34
ATOM     34  C   UNL A   1      33.968  35.831  31.170  1.00  0.00     0.261 C 
BRANCH  34  35
ATOM     35  O   UNL A   1      34.226  34.578  31.836  1.00  0.00    -0.460 OA
BRANCH  35  36
ATOM     36  C   UNL A   1      35.443  34.473  32.438  1.00  0.00     0.338 C 
ATOM     37  O   UNL A   1      35.985  35.357  33.080  1.00  0.00    -0.246 OA
BRANCH  36  38
ATOM     38  C   UNL A   1      36.138  33.234  31.978  1.00  0.00     0.060 A 
ATOM     39  C   UNL A   1      35.874  31.998  32.588  1.00  0.00     0.016 A 
ATOM     40  C   UNL A   1      37.262  33.360  31.173  1.00  0.00     0.016 A 
ATOM     41  C   UNL A   1      36.829  30.965  32.544  1.00  0.00     0.010 A 
ATOM     42  C   UNL A   1      38.237  32.383  31.232  1.00  0.00     0.010 A 
ATOM     43  C   UNL A   1      38.072  31.196  31.962  1.00  0.00    -0.014 A 
BRANCH  43  44
ATOM     44  C   UNL A   1      39.294  30.379  32.177  1.00  0.00     0.031 A 
ATOM     45  C   UNL A   1      39.497  29.138  31.349  1.00  0.00     0.074 A 
ATOM     46  C   UNL A   1      40.367  30.954  32.791  1.00  0.00     0.049 A 
ATOM     47  N   UNL A   1      40.588  28.453  31.284  1.00  0.00    -0.248 NA
ATOM     48  C   UNL A   1      38.480  28.586  30.455  1.00  0.00     0.031 C 
ATOM     49  C   UNL A   1      41.777  30.641  32.573  1.00  0.00     0.029 A 
ATOM     50  N   UNL A   1      40.445  32.012  33.699  1.00  0.00    -0.354 N 
ATOM     51  C   UNL A   1      40.569  27.674  30.142  1.00  0.00     0.074 A 
ATOM     52  C   UNL A   1      39.191  27.719  29.725  1.00  0.00     0.031 C 
ATOM     53  C   UNL A   1      42.584  31.401  33.325  1.00  0.00     0.029 A 
ATOM     54  C   UNL A   1      41.724  32.009  34.299  1.00  0.00     0.049 A 
ATOM     55  H   UNL A   1      39.725  32.657  33.889  1.00  0.00     0.167 HD
ATOM     56  C   UNL A   1      41.763  27.224  29.635  1.00  0.00     0.037 A 
ATOM     57  C   UNL A   1      41.836  31.733  35.634  1.00  0.00     0.037 A 
ATOM     58  C   UNL A   1      42.866  27.466  30.598  1.00  0.00     0.049 A 
ATOM     59  C   UNL A   1      42.476  30.357  35.804  1.00  0.00     0.074 A 
ATOM     60  C   UNL A   1      44.098  28.091  30.521  1.00  0.00     0.029 A 
ATOM     61  N   UNL A   1      42.680  27.195  31.963  1.00  0.00    -0.354 N 
ATOM     62  N   UNL A   1      42.307  29.364  34.954  1.00  0.00    -0.248 NA
ATOM     63  C   UNL A   1      43.581  30.107  36.731  1.00  0.00     0.031 C 
ATOM     64  C   UNL A   1      44.540  28.377  31.846  1.00  0.00     0.029 A 
ATOM     65  C   UNL A   1      43.643  27.810  32.742  1.00  0.00     0.049 A 
ATOM     66  H   UNL A   1      41.953  26.636  32.321  1.00  0.00     0.167 HD
ATOM     67  C   UNL A   1      43.354  28.483  35.081  1.00  0.00     0.074 A 
ATOM     68  C   UNL A   1      44.079  28.951  36.255  1.00  0.00     0.031 C 
ATOM     69  C   UNL A   1      43.749  27.539  34.168  1.00  0.00     0.037 A 
BRANCH  56  70
ATOM     70  C   UNL A   1      42.024  26.764  28.181  1.00  0.00     0.064 A 
ATOM     71  C   UNL A   1      42.379  25.419  27.895  1.00  0.00     0.173 A 
ATOM     72  C   UNL A   1      42.052  27.596  27.038  1.00  0.00     0.173 A 
ATOM     73  F   UNL A   1      42.336  24.471  28.839  1.00  0.00    -0.203 F 
ATOM     74  C   UNL A   1      42.782  24.977  26.622  1.00  0.00     0.198 A 
ATOM     75  C   UNL A   1      42.397  27.140  25.754  1.00  0.00     0.198 A 
ATOM     76  F   UNL A   1      41.779  28.900  27.098  1.00  0.00    -0.203 F 
ATOM     77  F   UNL A   1      43.169  23.704  26.448  1.00  0.00    -0.200 F 
ATOM     78  C   UNL A   1      42.786  25.836  25.548  1.00  0.00     0.200 A 
ATOM     79  F   UNL A   1      42.365  27.992  24.717  1.00  0.00    -0.200 F 
ATOM     80  F   UNL A   1      43.154  25.416  24.330  1.00  0.00    -0.200 F 
ENDBRANCH  56  70
BRANCH  57  81
ATOM     81  C   UNL A   1      40.760  32.482  36.367  1.00  0.00     0.064 A 
ATOM     82  C   UNL A   1      40.969  33.888  36.373  1.00  0.00     0.173 A 
ATOM     83  C   UNL A   1      39.425  32.045  36.346  1.00  0.00     0.173 A 
ATOM     84  F   UNL A   1      42.223  34.370  36.408  1.00  0.00    -0.203 F 
ATOM     85  C   UNL A   1      39.938  34.777  36.065  1.00  0.00     0.198 A 
ATOM     86  C   UNL A   1      38.384  32.956  36.108  1.00  0.00     0.198 A 
ATOM     87  F   UNL A   1      39.143  30.734  36.336  1.00  0.00    -0.203 F 
ATOM     88  F   UNL A   1      40.220  36.061  35.794  1.00  0.00    -0.200 F 
ATOM     89  C   UNL A   1      38.652  34.302  35.887  1.00  0.00     0.200 A 
ATOM     90  F   UNL A   1      37.130  32.511  35.938  1.00  0.00    -0.200 F 
ATOM     91  F   UNL A   1      37.695  35.117  35.420  1.00  0.00    -0.200 F 
ENDBRANCH  57  81
BRANCH  69  92
ATOM     92  C   UNL A   1      44.387  26.226  34.563  1.00  0.00     0.064 A 
ATOM     93  C   UNL A   1      43.630  25.075  34.824  1.00  0.00     0.173 A 
ATOM     94  C   UNL A   1      45.789  26.023  34.446  1.00  0.00     0.173 A 
ATOM     95  F   UNL A   1      42.291  25.114  34.869  1.00  0.00    -0.203 F 
ATOM     96  C   UNL A   1      44.226  23.826  34.988  1.00  0.00     0.198 A 
ATOM     97  C   UNL A   1      46.371  24.765  34.553  1.00  0.00     0.198 A 
ATOM     98  F   UNL A   1      46.640  27.020  34.173  1.00  0.00    -0.203 F 
ATOM     99  F   UNL A   1      43.458  22.762  35.258  1.00  0.00    -0.200 F 
ATOM    100  C   UNL A   1      45.591  23.667  34.834  1.00  0.00     0.200 A 
ATOM    101  F   UNL A   1      47.689  24.624  34.346  1.00  0.00    -0.200 F 
ATOM    102  F   UNL A   1      46.148  22.455  34.936  1.00  0.00    -0.200 F 
ENDBRANCH  69  92
ENDBRANCH  43  44
ENDBRANCH  36  38
ENDBRANCH  35  36
ENDBRANCH  34  35
ENDBRANCH  33  34
ENDBRANCH  32  33
ENDBRANCH  31  32
ENDBRANCH  30  31
ENDBRANCH  29  30
ENDBRANCH   1  29
TORSDOF 23
ENDMDL
