MODEL 1
REMARK VINA RESULT:     -10.4      0.000      0.000
REMARK SMILES O=C(C[C@@H]1[NH2+]CCc2c(Br)cccc21)OCCOCCOCCOCCOC(=O)c1ccc(-c2c3nc(c(-c4c(F)c(F)c(F)c(F)c4F)c4ccc([nH]4)c(-c4c(F)c(F)c(F)c(F)c4F)c4nc(c(-c5c(F)c(F)c(F)c(F)c5F)c5ccc2[nH]5)C=C4)C=C3)cc1
REMARK SMILES IDX 22 1 21 2 20 3 19 4 18 5 17 6 16 7 15 8 2 9 1 10 3 11 4 12
REMARK SMILES IDX 5 13 14 14 6 15 8 18 13 19 7 20 9 21 12 22 10 23 11 24 23 25
REMARK SMILES IDX 24 26 25 27 26 28 27 29 28 30 29 31 30 32 31 33 92 34 32 35
REMARK SMILES IDX 91 36 33 37 34 38 35 39 85 40 36 41 90 42 84 43 86 44 37 45
REMARK SMILES IDX 89 46 83 47 82 48 38 50 70 51 50 52 69 53 51 54 54 55 68 56
REMARK SMILES IDX 87 57 52 58 53 59 67 61 88 62 55 63 39 64 40 65 48 66 41 67
REMARK SMILES IDX 42 68 46 69 49 70 43 71 44 72 47 73 45 74 71 75 72 76 80 77
REMARK SMILES IDX 73 78 74 79 78 80 81 81 75 82 76 83 79 84 77 85 56 86 57 87
REMARK SMILES IDX 65 88 58 89 59 90 63 91 66 92 60 93 61 94 64 95 62 96
REMARK H PARENT 5 16 5 17 86 49 54 60
REMARK Flexibility Score: inf
ROOT
ATOM      1  C   UNL A   1      33.316  28.555  26.840  1.00  0.00     0.188 C 
ENDROOT
BRANCH   1   2
ATOM      2  O   UNL A   1      32.317  27.812  27.520  1.00  0.00    -0.377 OA
BRANCH   2   3
ATOM      3  C   UNL A   1      31.205  27.453  26.703  1.00  0.00     0.188 C 
BRANCH   3   4
ATOM      4  C   UNL A   1      31.358  26.104  25.992  1.00  0.00     0.188 C 
BRANCH   4   5
ATOM      5  O   UNL A   1      30.995  26.114  24.622  1.00  0.00    -0.376 OA
BRANCH   5   6
ATOM      6  C   UNL A   1      30.664  27.252  23.858  1.00  0.00     0.202 C 
BRANCH   6   7
ATOM      7  C   UNL A   1      31.070  27.379  22.391  1.00  0.00     0.261 C 
BRANCH   7   8
ATOM      8  O   UNL A   1      32.447  27.164  22.057  1.00  0.00    -0.463 OA
BRANCH   8   9
ATOM      9  C   UNL A   1      33.040  26.026  21.669  1.00  0.00     0.312 C 
ATOM     10  O   UNL A   1      32.929  25.665  20.499  1.00  0.00    -0.252 OA
BRANCH   9  11
ATOM     11  C   UNL A   1      33.738  25.154  22.669  1.00  0.00     0.192 C 
BRANCH  11  12
ATOM     12  C   UNL A   1      33.726  23.644  22.438  1.00  0.00     0.225 C 
ATOM     13  N   UNL A   1      32.401  23.039  22.306  1.00  0.00    -0.339 N 
ATOM     14  C   UNL A   1      34.543  23.052  23.577  1.00  0.00     0.014 A 
ATOM     15  C   UNL A   1      31.670  23.142  23.566  1.00  0.00     0.265 C 
ATOM     16  H   UNL A   1      32.503  22.055  22.056  1.00  0.00     0.346 HD
ATOM     17  H   UNL A   1      31.882  23.532  21.580  1.00  0.00     0.346 HD
ATOM     18  C   UNL A   1      33.889  22.524  24.708  1.00  0.00    -0.019 A 
ATOM     19  C   UNL A   1      35.947  23.183  23.566  1.00  0.00     0.010 A 
ATOM     20  C   UNL A   1      32.381  22.374  24.686  1.00  0.00     0.098 C 
ATOM     21  C   UNL A   1      34.669  22.114  25.800  1.00  0.00     0.021 A 
ATOM     22  C   UNL A   1      36.701  22.796  24.668  1.00  0.00     0.002 A 
ATOM     23  Br  UNL A   1      33.895  21.355  27.359  1.00  0.00    -0.051 Br
ATOM     24  C   UNL A   1      36.062  22.262  25.783  1.00  0.00     0.016 A 
ENDBRANCH  11  12
ENDBRANCH   9  11
ENDBRANCH   8   9
ENDBRANCH   7   8
ENDBRANCH   6   7
ENDBRANCH   5   6
ENDBRANCH   4   5
ENDBRANCH   3   4
ENDBRANCH   2   3
ENDBRANCH   1   2
BRANCH   1  25
ATOM     25  C   UNL A   1      33.163  30.096  26.880  1.00  0.00     0.188 C 
BRANCH  25  26
ATOM     26  O   UNL A   1      32.224  30.785  26.069  1.00  0.00    -0.376 OA
BRANCH  26  27
ATOM     27  C   UNL A   1      31.414  31.807  26.625  1.00  0.00     0.202 C 
BRANCH  27  28
ATOM     28  C   UNL A   1      32.001  33.191  26.943  1.00  0.00     0.261 C 
BRANCH  28  29
ATOM     29  O   UNL A   1      32.640  33.317  28.219  1.00  0.00    -0.460 OA
BRANCH  29  30
ATOM     30  C   UNL A   1      33.709  34.147  28.273  1.00  0.00     0.338 C 
ATOM     31  O   UNL A   1      33.714  35.364  28.216  1.00  0.00    -0.246 OA
BRANCH  30  32
ATOM     32  C   UNL A   1      34.891  33.343  28.644  1.00  0.00     0.060 A 
ATOM     33  C   UNL A   1      34.688  32.069  29.199  1.00  0.00     0.016 A 
ATOM     34  C   UNL A   1      36.182  33.812  28.397  1.00  0.00     0.016 A 
ATOM     35  C   UNL A   1      35.775  31.251  29.483  1.00  0.00     0.010 A 
ATOM     36  C   UNL A   1      37.276  33.020  28.748  1.00  0.00     0.010 A 
ATOM     37  C   UNL A   1      37.073  31.747  29.309  1.00  0.00    -0.014 A 
BRANCH  37  38
ATOM     38  C   UNL A   1      38.184  31.042  29.980  1.00  0.00     0.031 A 
ATOM     39  C   UNL A   1      38.445  31.386  31.418  1.00  0.00     0.074 A 
ATOM     40  C   UNL A   1      38.917  30.110  29.351  1.00  0.00     0.049 A 
ATOM     41  N   UNL A   1      39.314  30.878  32.249  1.00  0.00    -0.248 NA
ATOM     42  C   UNL A   1      37.601  32.446  31.997  1.00  0.00     0.031 C 
ATOM     43  C   UNL A   1      38.732  29.679  27.969  1.00  0.00     0.029 A 
ATOM     44  N   UNL A   1      39.971  29.358  29.805  1.00  0.00    -0.354 N 
ATOM     45  C   UNL A   1      39.110  31.543  33.449  1.00  0.00     0.074 A 
ATOM     46  C   UNL A   1      38.063  32.513  33.234  1.00  0.00     0.031 C 
ATOM     47  C   UNL A   1      39.655  28.746  27.680  1.00  0.00     0.029 A 
ATOM     48  C   UNL A   1      40.504  28.528  28.853  1.00  0.00     0.049 A 
ATOM     49  H   UNL A   1      40.313  29.411  30.726  1.00  0.00     0.167 HD
ATOM     50  C   UNL A   1      39.738  31.351  34.630  1.00  0.00     0.037 A 
ATOM     51  C   UNL A   1      41.563  27.696  28.923  1.00  0.00     0.037 A 
ATOM     52  C   UNL A   1      40.801  30.407  34.826  1.00  0.00     0.049 A 
ATOM     53  C   UNL A   1      42.311  27.562  30.226  1.00  0.00     0.074 A 
ATOM     54  C   UNL A   1      41.488  30.118  35.990  1.00  0.00     0.029 A 
ATOM     55  N   UNL A   1      41.347  29.618  33.824  1.00  0.00    -0.354 N 
ATOM     56  N   UNL A   1      42.071  28.140  31.379  1.00  0.00    -0.248 NA
ATOM     57  C   UNL A   1      43.471  26.658  30.243  1.00  0.00     0.031 C 
ATOM     58  C   UNL A   1      42.497  29.202  35.676  1.00  0.00     0.029 A 
ATOM     59  C   UNL A   1      42.395  28.872  34.334  1.00  0.00     0.049 A 
ATOM     60  H   UNL A   1      41.035  29.593  32.891  1.00  0.00     0.167 HD
ATOM     61  C   UNL A   1      43.030  27.658  32.261  1.00  0.00     0.074 A 
ATOM     62  C   UNL A   1      43.856  26.733  31.512  1.00  0.00     0.031 C 
ATOM     63  C   UNL A   1      43.203  27.951  33.573  1.00  0.00     0.037 A 
BRANCH  50  64
ATOM     64  C   UNL A   1      39.311  32.205  35.785  1.00  0.00     0.064 A 
ATOM     65  C   UNL A   1      38.350  31.767  36.708  1.00  0.00     0.173 A 
ATOM     66  C   UNL A   1      39.888  33.467  35.984  1.00  0.00     0.173 A 
ATOM     67  F   UNL A   1      37.753  30.575  36.548  1.00  0.00    -0.203 F 
ATOM     68  C   UNL A   1      37.965  32.572  37.776  1.00  0.00     0.198 A 
ATOM     69  C   UNL A   1      39.524  34.257  37.071  1.00  0.00     0.198 A 
ATOM     70  F   UNL A   1      40.810  33.933  35.128  1.00  0.00    -0.203 F 
ATOM     71  F   UNL A   1      37.010  32.154  38.618  1.00  0.00    -0.200 F 
ATOM     72  C   UNL A   1      38.558  33.812  37.961  1.00  0.00     0.200 A 
ATOM     73  F   UNL A   1      40.106  35.450  37.255  1.00  0.00    -0.200 F 
ATOM     74  F   UNL A   1      38.194  34.582  38.995  1.00  0.00    -0.200 F 
ENDBRANCH  50  64
BRANCH  51  75
ATOM     75  C   UNL A   1      41.957  26.919  27.720  1.00  0.00     0.064 A 
ATOM     76  C   UNL A   1      42.892  27.426  26.807  1.00  0.00     0.173 A 
ATOM     77  C   UNL A   1      41.447  25.633  27.487  1.00  0.00     0.173 A 
ATOM     78  F   UNL A   1      43.391  28.658  26.975  1.00  0.00    -0.203 F 
ATOM     79  C   UNL A   1      43.308  26.671  25.711  1.00  0.00     0.198 A 
ATOM     80  C   UNL A   1      41.880  24.872  26.403  1.00  0.00     0.198 A 
ATOM     81  F   UNL A   1      40.547  25.105  28.330  1.00  0.00    -0.203 F 
ATOM     82  F   UNL A   1      44.192  27.183  24.845  1.00  0.00    -0.200 F 
ATOM     83  C   UNL A   1      42.810  25.391  25.517  1.00  0.00     0.200 A 
ATOM     84  F   UNL A   1      41.406  23.631  26.227  1.00  0.00    -0.200 F 
ATOM     85  F   UNL A   1      43.229  24.658  24.476  1.00  0.00    -0.200 F 
ENDBRANCH  51  75
BRANCH  63  86
ATOM     86  C   UNL A   1      44.316  27.270  34.316  1.00  0.00     0.064 A 
ATOM     87  C   UNL A   1      45.557  27.894  34.503  1.00  0.00     0.173 A 
ATOM     88  C   UNL A   1      44.081  26.054  34.978  1.00  0.00     0.173 A 
ATOM     89  F   UNL A   1      45.830  29.052  33.886  1.00  0.00    -0.203 F 
ATOM     90  C   UNL A   1      46.519  27.331  35.337  1.00  0.00     0.198 A 
ATOM     91  C   UNL A   1      45.035  25.508  35.832  1.00  0.00     0.198 A 
ATOM     92  F   UNL A   1      42.905  25.425  34.840  1.00  0.00    -0.203 F 
ATOM     93  F   UNL A   1      47.701  27.940  35.500  1.00  0.00    -0.200 F 
ATOM     94  C   UNL A   1      46.252  26.148  36.013  1.00  0.00     0.200 A 
ATOM     95  F   UNL A   1      44.766  24.379  36.501  1.00  0.00    -0.200 F 
ATOM     96  F   UNL A   1      47.165  25.629  36.845  1.00  0.00    -0.200 F 
ENDBRANCH  63  86
ENDBRANCH  37  38
ENDBRANCH  30  32
ENDBRANCH  29  30
ENDBRANCH  28  29
ENDBRANCH  27  28
ENDBRANCH  26  27
ENDBRANCH  25  26
ENDBRANCH   1  25
TORSDOF 21
ENDMDL
MODEL 2
REMARK VINA RESULT:     -10.2      4.317      7.076
REMARK SMILES O=C(C[C@@H]1[NH2+]CCc2c(Br)cccc21)OCCOCCOCCOCCOC(=O)c1ccc(-c2c3nc(c(-c4c(F)c(F)c(F)c(F)c4F)c4ccc([nH]4)c(-c4c(F)c(F)c(F)c(F)c4F)c4nc(c(-c5c(F)c(F)c(F)c(F)c5F)c5ccc2[nH]5)C=C4)C=C3)cc1
REMARK SMILES IDX 22 1 21 2 20 3 19 4 18 5 17 6 16 7 15 8 2 9 1 10 3 11 4 12
REMARK SMILES IDX 5 13 14 14 6 15 8 18 13 19 7 20 9 21 12 22 10 23 11 24 23 25
REMARK SMILES IDX 24 26 25 27 26 28 27 29 28 30 29 31 30 32 31 33 92 34 32 35
REMARK SMILES IDX 91 36 33 37 34 38 35 39 85 40 36 41 90 42 84 43 86 44 37 45
REMARK SMILES IDX 89 46 83 47 82 48 38 50 70 51 50 52 69 53 51 54 54 55 68 56
REMARK SMILES IDX 87 57 52 58 53 59 67 61 88 62 55 63 39 64 40 65 48 66 41 67
REMARK SMILES IDX 42 68 46 69 49 70 43 71 44 72 47 73 45 74 71 75 72 76 80 77
REMARK SMILES IDX 73 78 74 79 78 80 81 81 75 82 76 83 79 84 77 85 56 86 57 87
REMARK SMILES IDX 65 88 58 89 59 90 63 91 66 92 60 93 61 94 64 95 62 96
REMARK H PARENT 5 16 5 17 86 49 54 60
REMARK Flexibility Score: inf
ROOT
ATOM      1  C   UNL A   1      33.378  35.309  29.153  1.00  0.00     0.188 C 
ENDROOT
BRANCH   1   2
ATOM      2  O   UNL A   1      32.969  34.043  28.660  1.00  0.00    -0.377 OA
BRANCH   2   3
ATOM      3  C   UNL A   1      33.892  33.451  27.749  1.00  0.00     0.188 C 
BRANCH   3   4
ATOM      4  C   UNL A   1      34.541  32.160  28.262  1.00  0.00     0.188 C 
BRANCH   4   5
ATOM      5  O   UNL A   1      34.616  31.117  27.307  1.00  0.00    -0.376 OA
BRANCH   5   6
ATOM      6  C   UNL A   1      34.016  29.846  27.414  1.00  0.00     0.202 C 
BRANCH   6   7
ATOM      7  C   UNL A   1      32.726  29.502  26.671  1.00  0.00     0.261 C 
BRANCH   7   8
ATOM      8  O   UNL A   1      32.585  28.172  26.157  1.00  0.00    -0.463 OA
BRANCH   8   9
ATOM      9  C   UNL A   1      31.789  27.189  26.601  1.00  0.00     0.312 C 
ATOM     10  O   UNL A   1      31.053  27.406  27.562  1.00  0.00    -0.252 OA
BRANCH   9  11
ATOM     11  C   UNL A   1      31.872  25.817  26.004  1.00  0.00     0.192 C 
BRANCH  11  12
ATOM     12  C   UNL A   1      33.175  25.410  25.317  1.00  0.00     0.225 C 
ATOM     13  N   UNL A   1      33.255  25.718  23.889  1.00  0.00    -0.339 N 
ATOM     14  C   UNL A   1      33.350  23.930  25.620  1.00  0.00     0.014 A 
ATOM     15  C   UNL A   1      32.280  24.926  23.145  1.00  0.00     0.265 C 
ATOM     16  H   UNL A   1      34.193  25.502  23.550  1.00  0.00     0.346 HD
ATOM     17  H   UNL A   1      33.053  26.708  23.751  1.00  0.00     0.346 HD
ATOM     18  C   UNL A   1      32.965  22.969  24.664  1.00  0.00    -0.019 A 
ATOM     19  C   UNL A   1      33.743  23.528  26.913  1.00  0.00     0.010 A 
ATOM     20  C   UNL A   1      32.565  23.426  23.276  1.00  0.00     0.098 C 
ATOM     21  C   UNL A   1      33.007  21.613  25.026  1.00  0.00     0.021 A 
ATOM     22  C   UNL A   1      33.753  22.181  27.261  1.00  0.00     0.002 A 
ATOM     23  Br  UNL A   1      32.544  20.233  23.807  1.00  0.00    -0.051 Br
ATOM     24  C   UNL A   1      33.386  21.226  26.318  1.00  0.00     0.016 A 
ENDBRANCH  11  12
ENDBRANCH   9  11
ENDBRANCH   8   9
ENDBRANCH   7   8
ENDBRANCH   6   7
ENDBRANCH   5   6
ENDBRANCH   4   5
ENDBRANCH   3   4
ENDBRANCH   2   3
ENDBRANCH   1   2
BRANCH   1  25
ATOM     25  C   UNL A   1      33.397  35.464  30.695  1.00  0.00     0.188 C 
BRANCH  25  26
ATOM     26  O   UNL A   1      34.493  35.031  31.486  1.00  0.00    -0.376 OA
BRANCH  26  27
ATOM     27  C   UNL A   1      34.282  34.578  32.813  1.00  0.00     0.202 C 
BRANCH  27  28
ATOM     28  C   UNL A   1      34.194  33.076  33.126  1.00  0.00     0.261 C 
BRANCH  28  29
ATOM     29  O   UNL A   1      35.188  32.251  32.505  1.00  0.00    -0.460 OA
BRANCH  29  30
ATOM     30  C   UNL A   1      36.346  32.093  33.189  1.00  0.00     0.338 C 
ATOM     31  O   UNL A   1      36.557  32.327  34.367  1.00  0.00    -0.246 OA
BRANCH  30  32
ATOM     32  C   UNL A   1      37.292  31.365  32.320  1.00  0.00     0.060 A 
ATOM     33  C   UNL A   1      38.305  30.603  32.922  1.00  0.00     0.016 A 
ATOM     34  C   UNL A   1      37.149  31.387  30.931  1.00  0.00     0.016 A 
ATOM     35  C   UNL A   1      39.162  29.839  32.139  1.00  0.00     0.010 A 
ATOM     36  C   UNL A   1      38.054  30.675  30.140  1.00  0.00     0.010 A 
ATOM     37  C   UNL A   1      39.073  29.917  30.744  1.00  0.00    -0.014 A 
BRANCH  37  38
ATOM     38  C   UNL A   1      40.217  29.436  29.944  1.00  0.00     0.031 A 
ATOM     39  C   UNL A   1      41.342  30.401  29.707  1.00  0.00     0.074 A 
ATOM     40  C   UNL A   1      40.276  28.182  29.470  1.00  0.00     0.049 A 
ATOM     41  N   UNL A   1      42.479  30.218  29.092  1.00  0.00    -0.248 NA
ATOM     42  C   UNL A   1      41.158  31.761  30.246  1.00  0.00     0.031 C 
ATOM     43  C   UNL A   1      39.255  27.156  29.665  1.00  0.00     0.029 A 
ATOM     44  N   UNL A   1      41.244  27.562  28.721  1.00  0.00    -0.354 N 
ATOM     45  C   UNL A   1      43.149  31.428  29.186  1.00  0.00     0.074 A 
ATOM     46  C   UNL A   1      42.284  32.350  29.883  1.00  0.00     0.031 C 
ATOM     47  C   UNL A   1      39.645  26.034  29.035  1.00  0.00     0.029 A 
ATOM     48  C   UNL A   1      40.934  26.271  28.382  1.00  0.00     0.049 A 
ATOM     49  H   UNL A   1      42.081  28.004  28.451  1.00  0.00     0.167 HD
ATOM     50  C   UNL A   1      44.385  31.738  28.736  1.00  0.00     0.037 A 
ATOM     51  C   UNL A   1      41.613  25.388  27.622  1.00  0.00     0.037 A 
ATOM     52  C   UNL A   1      45.226  30.825  28.015  1.00  0.00     0.049 A 
ATOM     53  C   UNL A   1      42.952  25.782  27.051  1.00  0.00     0.074 A 
ATOM     54  C   UNL A   1      46.505  31.033  27.536  1.00  0.00     0.029 A 
ATOM     55  N   UNL A   1      44.856  29.540  27.648  1.00  0.00    -0.354 N 
ATOM     56  N   UNL A   1      43.615  26.904  27.200  1.00  0.00    -0.248 NA
ATOM     57  C   UNL A   1      43.642  24.791  26.211  1.00  0.00     0.031 C 
ATOM     58  C   UNL A   1      46.885  29.895  26.819  1.00  0.00     0.029 A 
ATOM     59  C   UNL A   1      45.870  28.955  26.908  1.00  0.00     0.049 A 
ATOM     60  H   UNL A   1      44.003  29.108  27.879  1.00  0.00     0.167 HD
ATOM     61  C   UNL A   1      44.803  26.749  26.496  1.00  0.00     0.074 A 
ATOM     62  C   UNL A   1      44.775  25.420  25.922  1.00  0.00     0.031 C 
ATOM     63  C   UNL A   1      45.826  27.627  26.348  1.00  0.00     0.037 A 
BRANCH  50  64
ATOM     64  C   UNL A   1      44.880  33.131  28.982  1.00  0.00     0.064 A 
ATOM     65  C   UNL A   1      44.598  34.180  28.093  1.00  0.00     0.173 A 
ATOM     66  C   UNL A   1      45.623  33.426  30.133  1.00  0.00     0.173 A 
ATOM     67  F   UNL A   1      43.908  33.944  26.967  1.00  0.00    -0.203 F 
ATOM     68  C   UNL A   1      45.065  35.468  28.337  1.00  0.00     0.198 A 
ATOM     69  C   UNL A   1      46.062  34.722  30.390  1.00  0.00     0.198 A 
ATOM     70  F   UNL A   1      45.921  32.458  31.013  1.00  0.00    -0.203 F 
ATOM     71  F   UNL A   1      44.825  36.444  27.451  1.00  0.00    -0.200 F 
ATOM     72  C   UNL A   1      45.788  35.740  29.489  1.00  0.00     0.200 A 
ATOM     73  F   UNL A   1      46.751  34.985  31.508  1.00  0.00    -0.200 F 
ATOM     74  F   UNL A   1      46.228  36.983  29.727  1.00  0.00    -0.200 F 
ENDBRANCH  50  64
BRANCH  51  75
ATOM     75  C   UNL A   1      41.034  24.041  27.380  1.00  0.00     0.064 A 
ATOM     76  C   UNL A   1      39.928  23.872  26.537  1.00  0.00     0.173 A 
ATOM     77  C   UNL A   1      41.607  22.892  27.945  1.00  0.00     0.173 A 
ATOM     78  F   UNL A   1      39.332  24.942  25.991  1.00  0.00    -0.203 F 
ATOM     79  C   UNL A   1      39.422  22.602  26.261  1.00  0.00     0.198 A 
ATOM     80  C   UNL A   1      41.115  21.622  27.651  1.00  0.00     0.198 A 
ATOM     81  F   UNL A   1      42.666  23.002  28.761  1.00  0.00    -0.203 F 
ATOM     82  F   UNL A   1      38.355  22.468  25.463  1.00  0.00    -0.200 F 
ATOM     83  C   UNL A   1      40.023  21.479  26.809  1.00  0.00     0.200 A 
ATOM     84  F   UNL A   1      41.707  20.539  28.173  1.00  0.00    -0.200 F 
ATOM     85  F   UNL A   1      39.551  20.257  26.524  1.00  0.00    -0.200 F 
ENDBRANCH  51  75
BRANCH  63  86
ATOM     86  C   UNL A   1      47.021  27.201  25.545  1.00  0.00     0.064 A 
ATOM     87  C   UNL A   1      47.176  27.589  24.207  1.00  0.00     0.173 A 
ATOM     88  C   UNL A   1      48.089  26.537  26.169  1.00  0.00     0.173 A 
ATOM     89  F   UNL A   1      46.181  28.219  23.567  1.00  0.00    -0.203 F 
ATOM     90  C   UNL A   1      48.363  27.337  23.525  1.00  0.00     0.198 A 
ATOM     91  C   UNL A   1      49.284  26.312  25.493  1.00  0.00     0.198 A 
ATOM     92  F   UNL A   1      47.993  26.158  27.451  1.00  0.00    -0.203 F 
ATOM     93  F   UNL A   1      48.491  27.711  22.245  1.00  0.00    -0.200 F 
ATOM     94  C   UNL A   1      49.422  26.714  24.172  1.00  0.00     0.200 A 
ATOM     95  F   UNL A   1      50.312  25.732  26.127  1.00  0.00    -0.200 F 
ATOM     96  F   UNL A   1      50.578  26.509  23.525  1.00  0.00    -0.200 F 
ENDBRANCH  63  86
ENDBRANCH  37  38
ENDBRANCH  30  32
ENDBRANCH  29  30
ENDBRANCH  28  29
ENDBRANCH  27  28
ENDBRANCH  26  27
ENDBRANCH  25  26
ENDBRANCH   1  25
TORSDOF 21
ENDMDL
MODEL 3
REMARK VINA RESULT:     -10.1      0.969      7.288
REMARK SMILES O=C(C[C@@H]1[NH2+]CCc2c(Br)cccc21)OCCOCCOCCOCCOC(=O)c1ccc(-c2c3nc(c(-c4c(F)c(F)c(F)c(F)c4F)c4ccc([nH]4)c(-c4c(F)c(F)c(F)c(F)c4F)c4nc(c(-c5c(F)c(F)c(F)c(F)c5F)c5ccc2[nH]5)C=C4)C=C3)cc1
REMARK SMILES IDX 22 1 21 2 20 3 19 4 18 5 17 6 16 7 15 8 2 9 1 10 3 11 4 12
REMARK SMILES IDX 5 13 14 14 6 15 8 18 13 19 7 20 9 21 12 22 10 23 11 24 23 25
REMARK SMILES IDX 24 26 25 27 26 28 27 29 28 30 29 31 30 32 31 33 92 34 32 35
REMARK SMILES IDX 91 36 33 37 34 38 35 39 85 40 36 41 90 42 84 43 86 44 37 45
REMARK SMILES IDX 89 46 83 47 82 48 38 50 70 51 50 52 69 53 51 54 54 55 68 56
REMARK SMILES IDX 87 57 52 58 53 59 67 61 88 62 55 63 39 64 40 65 48 66 41 67
REMARK SMILES IDX 42 68 46 69 49 70 43 71 44 72 47 73 45 74 71 75 72 76 80 77
REMARK SMILES IDX 73 78 74 79 78 80 81 81 75 82 76 83 79 84 77 85 56 86 57 87
REMARK SMILES IDX 65 88 58 89 59 90 63 91 66 92 60 93 61 94 64 95 62 96
REMARK H PARENT 5 16 5 17 86 49 54 60
REMARK Flexibility Score: inf
ROOT
ATOM      1  C   UNL A   1      32.336  26.241  25.987  1.00  0.00     0.188 C 
ENDROOT
BRANCH   1   2
ATOM      2  O   UNL A   1      31.323  25.646  26.783  1.00  0.00    -0.377 OA
BRANCH   2   3
ATOM      3  C   UNL A   1      30.022  25.708  26.206  1.00  0.00     0.188 C 
BRANCH   3   4
ATOM      4  C   UNL A   1      29.966  25.285  24.734  1.00  0.00     0.188 C 
BRANCH   4   5
ATOM      5  O   UNL A   1      29.294  26.196  23.883  1.00  0.00    -0.376 OA
BRANCH   5   6
ATOM      6  C   UNL A   1      29.756  27.472  23.500  1.00  0.00     0.202 C 
BRANCH   6   7
ATOM      7  C   UNL A   1      30.707  27.660  22.320  1.00  0.00     0.261 C 
BRANCH   7   8
ATOM      8  O   UNL A   1      32.085  27.317  22.509  1.00  0.00    -0.463 OA
BRANCH   8   9
ATOM      9  C   UNL A   1      32.739  26.232  22.070  1.00  0.00     0.312 C 
ATOM     10  O   UNL A   1      33.645  26.374  21.250  1.00  0.00    -0.252 OA
BRANCH   9  11
ATOM     11  C   UNL A   1      32.303  24.861  22.490  1.00  0.00     0.192 C 
BRANCH  11  12
ATOM     12  C   UNL A   1      33.272  23.700  22.269  1.00  0.00     0.225 C 
ATOM     13  N   UNL A   1      32.670  22.468  21.758  1.00  0.00    -0.339 N 
ATOM     14  C   UNL A   1      33.989  23.510  23.597  1.00  0.00     0.014 A 
ATOM     15  C   UNL A   1      31.764  21.899  22.751  1.00  0.00     0.265 C 
ATOM     16  H   UNL A   1      33.408  21.794  21.550  1.00  0.00     0.346 HD
ATOM     17  H   UNL A   1      32.144  22.682  20.912  1.00  0.00     0.346 HD
ATOM     18  C   UNL A   1      33.556  22.509  24.490  1.00  0.00    -0.019 A 
ATOM     19  C   UNL A   1      34.973  24.438  23.994  1.00  0.00     0.010 A 
ATOM     20  C   UNL A   1      32.512  21.511  24.031  1.00  0.00     0.098 C 
ATOM     21  C   UNL A   1      34.145  22.449  25.762  1.00  0.00     0.021 A 
ATOM     22  C   UNL A   1      35.525  24.379  25.269  1.00  0.00     0.002 A 
ATOM     23  Br  UNL A   1      33.664  21.120  27.030  1.00  0.00    -0.051 Br
ATOM     24  C   UNL A   1      35.111  23.385  26.151  1.00  0.00     0.016 A 
ENDBRANCH  11  12
ENDBRANCH   9  11
ENDBRANCH   8   9
ENDBRANCH   7   8
ENDBRANCH   6   7
ENDBRANCH   5   6
ENDBRANCH   4   5
ENDBRANCH   3   4
ENDBRANCH   2   3
ENDBRANCH   1   2
BRANCH   1  25
ATOM     25  C   UNL A   1      32.866  27.613  26.476  1.00  0.00     0.188 C 
BRANCH  25  26
ATOM     26  O   UNL A   1      33.137  28.681  25.581  1.00  0.00    -0.376 OA
BRANCH  26  27
ATOM     27  C   UNL A   1      32.103  29.572  25.197  1.00  0.00     0.202 C 
BRANCH  27  28
ATOM     28  C   UNL A   1      31.782  30.815  26.041  1.00  0.00     0.261 C 
BRANCH  28  29
ATOM     29  O   UNL A   1      32.501  30.933  27.275  1.00  0.00    -0.460 OA
BRANCH  29  30
ATOM     30  C   UNL A   1      33.303  32.017  27.398  1.00  0.00     0.338 C 
ATOM     31  O   UNL A   1      33.010  33.187  27.226  1.00  0.00    -0.246 OA
BRANCH  30  32
ATOM     32  C   UNL A   1      34.574  31.576  28.007  1.00  0.00     0.060 A 
ATOM     33  C   UNL A   1      34.716  30.225  28.360  1.00  0.00     0.016 A 
ATOM     34  C   UNL A   1      35.634  32.469  28.176  1.00  0.00     0.016 A 
ATOM     35  C   UNL A   1      35.926  29.757  28.858  1.00  0.00     0.010 A 
ATOM     36  C   UNL A   1      36.827  32.014  28.743  1.00  0.00     0.010 A 
ATOM     37  C   UNL A   1      36.966  30.662  29.101  1.00  0.00    -0.014 A 
BRANCH  37  38
ATOM     38  C   UNL A   1      38.069  30.236  29.987  1.00  0.00     0.031 A 
ATOM     39  C   UNL A   1      39.060  29.259  29.425  1.00  0.00     0.074 A 
ATOM     40  C   UNL A   1      38.207  30.718  31.231  1.00  0.00     0.049 A 
ATOM     41  N   UNL A   1      40.143  28.770  29.965  1.00  0.00    -0.248 NA
ATOM     42  C   UNL A   1      38.792  28.772  28.059  1.00  0.00     0.031 C 
ATOM     43  C   UNL A   1      37.322  31.690  31.866  1.00  0.00     0.029 A 
ATOM     44  N   UNL A   1      39.155  30.446  32.186  1.00  0.00    -0.354 N 
ATOM     45  C   UNL A   1      40.692  27.936  29.003  1.00  0.00     0.074 A 
ATOM     46  C   UNL A   1      39.810  27.953  27.860  1.00  0.00     0.031 C 
ATOM     47  C   UNL A   1      37.760  31.923  33.115  1.00  0.00     0.029 A 
ATOM     48  C   UNL A   1      38.947  31.105  33.370  1.00  0.00     0.049 A 
ATOM     49  H   UNL A   1      39.911  29.835  32.034  1.00  0.00     0.167 HD
ATOM     50  C   UNL A   1      41.839  27.225  29.068  1.00  0.00     0.037 A 
ATOM     51  C   UNL A   1      39.634  31.042  34.529  1.00  0.00     0.037 A 
ATOM     52  C   UNL A   1      42.693  27.187  30.221  1.00  0.00     0.049 A 
ATOM     53  C   UNL A   1      40.862  30.171  34.612  1.00  0.00     0.074 A 
ATOM     54  C   UNL A   1      43.891  26.517  30.379  1.00  0.00     0.029 A 
ATOM     55  N   UNL A   1      42.422  27.829  31.420  1.00  0.00    -0.354 N 
ATOM     56  N   UNL A   1      41.419  29.437  33.677  1.00  0.00    -0.248 NA
ATOM     57  C   UNL A   1      41.563  30.120  35.904  1.00  0.00     0.031 C 
ATOM     58  C   UNL A   1      44.312  26.698  31.700  1.00  0.00     0.029 A 
ATOM     59  C   UNL A   1      43.412  27.534  32.342  1.00  0.00     0.049 A 
ATOM     60  H   UNL A   1      41.645  28.407  31.589  1.00  0.00     0.167 HD
ATOM     61  C   UNL A   1      42.541  28.857  34.257  1.00  0.00     0.074 A 
ATOM     62  C   UNL A   1      42.592  29.328  35.625  1.00  0.00     0.031 C 
ATOM     63  C   UNL A   1      43.449  28.018  33.700  1.00  0.00     0.037 A 
BRANCH  50  64
ATOM     64  C   UNL A   1      42.211  26.405  27.869  1.00  0.00     0.064 A 
ATOM     65  C   UNL A   1      41.848  25.054  27.761  1.00  0.00     0.173 A 
ATOM     66  C   UNL A   1      42.917  26.984  26.806  1.00  0.00     0.173 A 
ATOM     67  F   UNL A   1      41.188  24.449  28.761  1.00  0.00    -0.203 F 
ATOM     68  C   UNL A   1      42.200  24.307  26.641  1.00  0.00     0.198 A 
ATOM     69  C   UNL A   1      43.241  26.242  25.674  1.00  0.00     0.198 A 
ATOM     70  F   UNL A   1      43.290  28.272  26.863  1.00  0.00    -0.203 F 
ATOM     71  F   UNL A   1      41.885  23.006  26.580  1.00  0.00    -0.200 F 
ATOM     72  C   UNL A   1      42.888  24.903  25.595  1.00  0.00     0.200 A 
ATOM     73  F   UNL A   1      43.897  26.823  24.660  1.00  0.00    -0.200 F 
ATOM     74  F   UNL A   1      43.218  24.186  24.513  1.00  0.00    -0.200 F 
ENDBRANCH  50  64
BRANCH  51  75
ATOM     75  C   UNL A   1      39.174  31.845  35.690  1.00  0.00     0.064 A 
ATOM     76  C   UNL A   1      38.284  31.311  36.631  1.00  0.00     0.173 A 
ATOM     77  C   UNL A   1      39.657  33.144  35.911  1.00  0.00     0.173 A 
ATOM     78  F   UNL A   1      37.778  30.083  36.451  1.00  0.00    -0.203 F 
ATOM     79  C   UNL A   1      37.900  32.044  37.754  1.00  0.00     0.198 A 
ATOM     80  C   UNL A   1      39.290  33.866  37.045  1.00  0.00     0.198 A 
ATOM     81  F   UNL A   1      40.510  33.701  35.038  1.00  0.00    -0.203 F 
ATOM     82  F   UNL A   1      37.037  31.516  38.631  1.00  0.00    -0.200 F 
ATOM     83  C   UNL A   1      38.413  33.315  37.965  1.00  0.00     0.200 A 
ATOM     84  F   UNL A   1      39.798  35.089  37.252  1.00  0.00    -0.200 F 
ATOM     85  F   UNL A   1      38.061  34.008  39.057  1.00  0.00    -0.200 F 
ENDBRANCH  51  75
BRANCH  63  86
ATOM     86  C   UNL A   1      44.596  27.545  34.546  1.00  0.00     0.064 A 
ATOM     87  C   UNL A   1      45.781  28.286  34.648  1.00  0.00     0.173 A 
ATOM     88  C   UNL A   1      44.442  26.426  35.381  1.00  0.00     0.173 A 
ATOM     89  F   UNL A   1      45.977  29.357  33.866  1.00  0.00    -0.203 F 
ATOM     90  C   UNL A   1      46.767  27.931  35.564  1.00  0.00     0.198 A 
ATOM     91  C   UNL A   1      45.417  26.091  36.315  1.00  0.00     0.198 A 
ATOM     92  F   UNL A   1      43.320  25.694  35.329  1.00  0.00    -0.203 F 
ATOM     93  F   UNL A   1      47.895  28.649  35.644  1.00  0.00    -0.200 F 
ATOM     94  C   UNL A   1      46.578  26.845  36.408  1.00  0.00     0.200 A 
ATOM     95  F   UNL A   1      45.222  25.057  37.143  1.00  0.00    -0.200 F 
ATOM     96  F   UNL A   1      47.511  26.529  37.317  1.00  0.00    -0.200 F 
ENDBRANCH  63  86
ENDBRANCH  37  38
ENDBRANCH  30  32
ENDBRANCH  29  30
ENDBRANCH  28  29
ENDBRANCH  27  28
ENDBRANCH  26  27
ENDBRANCH  25  26
ENDBRANCH   1  25
TORSDOF 21
ENDMDL
