MODEL 1
REMARK VINA RESULT:     -10.8      0.000      0.000
REMARK SMILES C[C@H](C(=O)OCCOCCOCCOCCOC(=O)c1ccc(-c2c3nc(c(-c4c(F)c(F)c(F)c(F)c4F)c4ccc([nH]4)c(-c4c(F)c(F)c(F)c(F)c4F)c4nc(c(-c5c(F)c(F)c(F)c(F)c5F)c5ccc2[nH]5)C=C4)C=C3)cc1)N1C(=O)/C(=C/c2ccccc2F)SC1=S
REMARK SMILES IDX 11 1 10 2 9 3 8 4 7 5 6 6 5 7 3 8 4 9 2 10 1 11 83 12 84 13
REMARK SMILES IDX 96 14 85 15 86 16 95 17 97 18 87 19 88 20 89 21 93 22 90 23
REMARK SMILES IDX 92 24 94 25 91 26 12 27 13 28 14 29 15 30 16 31 17 32 18 33
REMARK SMILES IDX 19 34 20 35 21 36 82 37 22 38 81 39 23 40 24 41 25 42 75 43
REMARK SMILES IDX 26 44 80 45 74 46 76 47 27 48 79 49 73 50 72 51 28 53 60 54
REMARK SMILES IDX 40 55 59 56 41 57 44 58 58 59 77 60 42 61 43 62 57 64 78 65
REMARK SMILES IDX 45 66 29 67 30 68 38 69 31 70 32 71 36 72 39 73 33 74 34 75
REMARK SMILES IDX 37 76 35 77 61 78 62 79 70 80 63 81 64 82 68 83 71 84 65 85
REMARK SMILES IDX 66 86 69 87 67 88 46 89 47 90 55 91 48 92 49 93 53 94 56 95
REMARK SMILES IDX 50 96 51 97 54 98 52 99
REMARK H PARENT 76 52 44 63
REMARK Flexibility Score: inf
ROOT
ATOM      1  O   UNL A   1      31.809  29.693  24.612  1.00  0.00    -0.377 OA
ENDROOT
BRANCH   1   2
ATOM      2  C   UNL A   1      30.819  28.957  23.904  1.00  0.00     0.188 C 
BRANCH   2   3
ATOM      3  C   UNL A   1      30.892  28.758  22.368  1.00  0.00     0.188 C 
BRANCH   3   4
ATOM      4  O   UNL A   1      30.663  27.426  21.939  1.00  0.00    -0.376 OA
BRANCH   4   5
ATOM      5  C   UNL A   1      31.790  26.573  21.834  1.00  0.00     0.202 C 
BRANCH   5   6
ATOM      6  C   UNL A   1      31.876  25.420  22.837  1.00  0.00     0.261 C 
BRANCH   6   7
ATOM      7  O   UNL A   1      33.186  25.200  23.385  1.00  0.00    -0.462 OA
BRANCH   7   8
ATOM      8  C   UNL A   1      33.534  25.886  24.500  1.00  0.00     0.329 C 
ATOM      9  O   UNL A   1      33.726  27.098  24.515  1.00  0.00    -0.250 OA
BRANCH   8  10
ATOM     10  C   UNL A   1      33.442  25.025  25.793  1.00  0.00     0.199 C 
ATOM     11  C   UNL A   1      32.028  25.331  26.346  1.00  0.00     0.044 C 
BRANCH  10  12
ATOM     12  N   UNL A   1      33.726  23.555  25.703  1.00  0.00    -0.279 N 
ATOM     13  C   UNL A   1      32.677  22.684  25.428  1.00  0.00     0.266 C 
ATOM     14  C   UNL A   1      34.967  23.004  25.414  1.00  0.00     0.149 C 
ATOM     15  O   UNL A   1      31.530  22.999  25.135  1.00  0.00    -0.268 OA
ATOM     16  C   UNL A   1      33.152  21.276  25.316  1.00  0.00     0.081 C 
ATOM     17  S   UNL A   1      34.857  21.254  25.266  1.00  0.00    -0.054 SA
ATOM     18  S   UNL A   1      36.438  23.741  25.125  1.00  0.00    -0.052 S 
ATOM     19  C   UNL A   1      32.301  20.255  25.137  1.00  0.00     0.032 C 
BRANCH  19  20
ATOM     20  C   UNL A   1      32.662  18.887  24.732  1.00  0.00     0.012 A 
ATOM     21  C   UNL A   1      32.940  17.969  25.756  1.00  0.00     0.011 A 
ATOM     22  C   UNL A   1      32.721  18.442  23.408  1.00  0.00     0.130 A 
ATOM     23  C   UNL A   1      33.220  16.633  25.461  1.00  0.00     0.001 A 
ATOM     24  C   UNL A   1      32.990  17.106  23.107  1.00  0.00     0.040 A 
ATOM     25  F   UNL A   1      32.515  19.293  22.391  1.00  0.00    -0.206 F 
ATOM     26  C   UNL A   1      33.232  16.198  24.137  1.00  0.00     0.003 A 
ENDBRANCH  19  20
ENDBRANCH  10  12
ENDBRANCH   8  10
ENDBRANCH   7   8
ENDBRANCH   6   7
ENDBRANCH   5   6
ENDBRANCH   4   5
ENDBRANCH   3   4
ENDBRANCH   2   3
ENDBRANCH   1   2
BRANCH   1  27
ATOM     27  C   UNL A   1      31.628  29.965  25.993  1.00  0.00     0.188 C 
BRANCH  27  28
ATOM     28  C   UNL A   1      32.856  29.925  26.928  1.00  0.00     0.188 C 
BRANCH  28  29
ATOM     29  O   UNL A   1      33.326  31.206  27.315  1.00  0.00    -0.376 OA
BRANCH  29  30
ATOM     30  C   UNL A   1      32.416  32.289  27.308  1.00  0.00     0.202 C 
BRANCH  30  31
ATOM     31  C   UNL A   1      32.989  33.710  27.391  1.00  0.00     0.261 C 
BRANCH  31  32
ATOM     32  O   UNL A   1      32.374  34.588  28.343  1.00  0.00    -0.460 OA
BRANCH  32  33
ATOM     33  C   UNL A   1      33.191  35.399  29.051  1.00  0.00     0.338 C 
ATOM     34  O   UNL A   1      32.988  36.547  29.384  1.00  0.00    -0.246 OA
BRANCH  33  35
ATOM     35  C   UNL A   1      34.317  34.566  29.521  1.00  0.00     0.060 A 
ATOM     36  C   UNL A   1      34.070  33.541  30.443  1.00  0.00     0.016 A 
ATOM     37  C   UNL A   1      35.604  34.784  29.023  1.00  0.00     0.016 A 
ATOM     38  C   UNL A   1      35.119  32.738  30.886  1.00  0.00     0.010 A 
ATOM     39  C   UNL A   1      36.659  34.000  29.491  1.00  0.00     0.010 A 
ATOM     40  C   UNL A   1      36.423  32.995  30.446  1.00  0.00    -0.014 A 
BRANCH  40  41
ATOM     41  C   UNL A   1      37.567  32.373  31.152  1.00  0.00     0.031 A 
ATOM     42  C   UNL A   1      38.297  31.261  30.457  1.00  0.00     0.074 A 
ATOM     43  C   UNL A   1      37.956  32.794  32.367  1.00  0.00     0.049 A 
ATOM     44  N   UNL A   1      39.286  30.517  30.882  1.00  0.00    -0.248 NA
ATOM     45  C   UNL A   1      37.845  30.940  29.092  1.00  0.00     0.031 C 
ATOM     46  C   UNL A   1      37.351  33.891  33.117  1.00  0.00     0.029 A 
ATOM     47  N   UNL A   1      38.954  32.331  33.188  1.00  0.00    -0.354 N 
ATOM     48  C   UNL A   1      39.571  29.645  29.840  1.00  0.00     0.074 A 
ATOM     49  C   UNL A   1      38.630  29.923  28.778  1.00  0.00     0.031 C 
ATOM     50  C   UNL A   1      37.980  34.006  34.301  1.00  0.00     0.029 A 
ATOM     51  C   UNL A   1      39.006  32.968  34.401  1.00  0.00     0.049 A 
ATOM     52  H   UNL A   1      39.574  31.610  32.930  1.00  0.00     0.167 HD
ATOM     53  C   UNL A   1      40.539  28.701  29.774  1.00  0.00     0.037 A 
ATOM     54  C   UNL A   1      39.776  32.716  35.478  1.00  0.00     0.037 A 
ATOM     55  C   UNL A   1      41.461  28.420  30.840  1.00  0.00     0.049 A 
ATOM     56  C   UNL A   1      40.791  31.601  35.412  1.00  0.00     0.074 A 
ATOM     57  C   UNL A   1      42.481  27.487  30.876  1.00  0.00     0.029 A 
ATOM     58  N   UNL A   1      41.465  29.067  32.068  1.00  0.00    -0.354 N 
ATOM     59  N   UNL A   1      41.074  30.793  34.419  1.00  0.00    -0.248 NA
ATOM     60  C   UNL A   1      41.597  31.367  36.619  1.00  0.00     0.031 C 
ATOM     61  C   UNL A   1      43.064  27.528  32.146  1.00  0.00     0.029 A 
ATOM     62  C   UNL A   1      42.454  28.534  32.879  1.00  0.00     0.049 A 
ATOM     63  H   UNL A   1      40.856  29.797  32.325  1.00  0.00     0.167 HD
ATOM     64  C   UNL A   1      42.107  29.979  34.867  1.00  0.00     0.074 A 
ATOM     65  C   UNL A   1      42.412  30.401  36.218  1.00  0.00     0.031 C 
ATOM     66  C   UNL A   1      42.749  28.975  34.219  1.00  0.00     0.037 A 
BRANCH  53  67
ATOM     67  C   UNL A   1      40.622  27.884  28.518  1.00  0.00     0.064 A 
ATOM     68  C   UNL A   1      41.379  28.304  27.412  1.00  0.00     0.173 A 
ATOM     69  C   UNL A   1      39.952  26.655  28.425  1.00  0.00     0.173 A 
ATOM     70  F   UNL A   1      42.023  29.481  27.442  1.00  0.00    -0.203 F 
ATOM     71  C   UNL A   1      41.440  27.536  26.252  1.00  0.00     0.198 A 
ATOM     72  C   UNL A   1      40.043  25.874  27.276  1.00  0.00     0.198 A 
ATOM     73  F   UNL A   1      39.214  26.207  29.451  1.00  0.00    -0.203 F 
ATOM     74  F   UNL A   1      42.126  27.982  25.191  1.00  0.00    -0.200 F 
ATOM     75  C   UNL A   1      40.779  26.318  26.188  1.00  0.00     0.200 A 
ATOM     76  F   UNL A   1      39.414  24.692  27.221  1.00  0.00    -0.200 F 
ATOM     77  F   UNL A   1      40.846  25.576  25.074  1.00  0.00    -0.200 F 
ENDBRANCH  53  67
BRANCH  54  78
ATOM     78  C   UNL A   1      39.609  33.519  36.720  1.00  0.00     0.064 A 
ATOM     79  C   UNL A   1      38.729  33.117  37.733  1.00  0.00     0.173 A 
ATOM     80  C   UNL A   1      40.307  34.723  36.905  1.00  0.00     0.173 A 
ATOM     81  F   UNL A   1      38.017  31.988  37.593  1.00  0.00    -0.203 F 
ATOM     82  C   UNL A   1      38.534  33.898  38.871  1.00  0.00     0.198 A 
ATOM     83  C   UNL A   1      40.136  35.486  38.058  1.00  0.00     0.198 A 
ATOM     84  F   UNL A   1      41.160  35.156  35.965  1.00  0.00    -0.203 F 
ATOM     85  F   UNL A   1      37.643  33.517  39.797  1.00  0.00    -0.200 F 
ATOM     86  C   UNL A   1      39.242  35.078  39.036  1.00  0.00     0.200 A 
ATOM     87  F   UNL A   1      40.833  36.619  38.217  1.00  0.00    -0.200 F 
ATOM     88  F   UNL A   1      39.055  35.828  40.130  1.00  0.00    -0.200 F 
ENDBRANCH  54  78
BRANCH  66  89
ATOM     89  C   UNL A   1      43.876  28.291  34.942  1.00  0.00     0.064 A 
ATOM     90  C   UNL A   1      43.693  27.077  35.619  1.00  0.00     0.173 A 
ATOM     91  C   UNL A   1      45.169  28.837  34.912  1.00  0.00     0.173 A 
ATOM     92  F   UNL A   1      42.475  26.518  35.688  1.00  0.00    -0.203 F 
ATOM     93  C   UNL A   1      44.756  26.450  36.265  1.00  0.00     0.198 A 
ATOM     94  C   UNL A   1      46.237  28.190  35.528  1.00  0.00     0.198 A 
ATOM     95  F   UNL A   1      45.402  29.992  34.270  1.00  0.00    -0.203 F 
ATOM     96  F   UNL A   1      44.547  25.318  36.951  1.00  0.00    -0.200 F 
ATOM     97  C   UNL A   1      46.028  27.002  36.212  1.00  0.00     0.200 A 
ATOM     98  F   UNL A   1      47.467  28.716  35.460  1.00  0.00    -0.200 F 
ATOM     99  F   UNL A   1      47.052  26.392  36.825  1.00  0.00    -0.200 F 
ENDBRANCH  66  89
ENDBRANCH  40  41
ENDBRANCH  33  35
ENDBRANCH  32  33
ENDBRANCH  31  32
ENDBRANCH  30  31
ENDBRANCH  29  30
ENDBRANCH  28  29
ENDBRANCH  27  28
ENDBRANCH   1  27
TORSDOF 22
ENDMDL
MODEL 2
REMARK VINA RESULT:     -10.8      2.362      8.189
REMARK SMILES C[C@H](C(=O)OCCOCCOCCOCCOC(=O)c1ccc(-c2c3nc(c(-c4c(F)c(F)c(F)c(F)c4F)c4ccc([nH]4)c(-c4c(F)c(F)c(F)c(F)c4F)c4nc(c(-c5c(F)c(F)c(F)c(F)c5F)c5ccc2[nH]5)C=C4)C=C3)cc1)N1C(=O)/C(=C/c2ccccc2F)SC1=S
REMARK SMILES IDX 11 1 10 2 9 3 8 4 7 5 6 6 5 7 3 8 4 9 2 10 1 11 83 12 84 13
REMARK SMILES IDX 96 14 85 15 86 16 95 17 97 18 87 19 88 20 89 21 93 22 90 23
REMARK SMILES IDX 92 24 94 25 91 26 12 27 13 28 14 29 15 30 16 31 17 32 18 33
REMARK SMILES IDX 19 34 20 35 21 36 82 37 22 38 81 39 23 40 24 41 25 42 75 43
REMARK SMILES IDX 26 44 80 45 74 46 76 47 27 48 79 49 73 50 72 51 28 53 60 54
REMARK SMILES IDX 40 55 59 56 41 57 44 58 58 59 77 60 42 61 43 62 57 64 78 65
REMARK SMILES IDX 45 66 29 67 30 68 38 69 31 70 32 71 36 72 39 73 33 74 34 75
REMARK SMILES IDX 37 76 35 77 61 78 62 79 70 80 63 81 64 82 68 83 71 84 65 85
REMARK SMILES IDX 66 86 69 87 67 88 46 89 47 90 55 91 48 92 49 93 53 94 56 95
REMARK SMILES IDX 50 96 51 97 54 98 52 99
REMARK H PARENT 76 52 44 63
REMARK Flexibility Score: inf
ROOT
ATOM      1  O   UNL A   1      33.534  27.777  26.157  1.00  0.00    -0.377 OA
ENDROOT
BRANCH   1   2
ATOM      2  C   UNL A   1      33.573  26.356  26.096  1.00  0.00     0.188 C 
BRANCH   2   3
ATOM      3  C   UNL A   1      34.582  25.605  25.191  1.00  0.00     0.188 C 
BRANCH   3   4
ATOM      4  O   UNL A   1      35.545  24.841  25.898  1.00  0.00    -0.376 OA
BRANCH   4   5
ATOM      5  C   UNL A   1      35.675  23.474  25.550  1.00  0.00     0.202 C 
BRANCH   5   6
ATOM      6  C   UNL A   1      34.379  22.668  25.432  1.00  0.00     0.261 C 
BRANCH   6   7
ATOM      7  O   UNL A   1      34.096  22.179  24.111  1.00  0.00    -0.462 OA
BRANCH   7   8
ATOM      8  C   UNL A   1      34.140  23.060  23.082  1.00  0.00     0.329 C 
ATOM      9  O   UNL A   1      35.183  23.422  22.547  1.00  0.00    -0.250 OA
BRANCH   8  10
ATOM     10  C   UNL A   1      32.732  23.386  22.505  1.00  0.00     0.199 C 
ATOM     11  C   UNL A   1      31.951  22.056  22.650  1.00  0.00     0.044 C 
BRANCH  10  12
ATOM     12  N   UNL A   1      31.982  24.563  23.055  1.00  0.00    -0.279 N 
ATOM     13  C   UNL A   1      31.672  25.619  22.205  1.00  0.00     0.266 C 
ATOM     14  C   UNL A   1      31.172  24.530  24.182  1.00  0.00     0.149 C 
ATOM     15  O   UNL A   1      31.853  25.652  20.994  1.00  0.00    -0.268 OA
ATOM     16  C   UNL A   1      30.876  26.667  22.903  1.00  0.00     0.081 C 
ATOM     17  S   UNL A   1      30.363  26.075  24.419  1.00  0.00    -0.054 SA
ATOM     18  S   UNL A   1      30.820  23.274  25.227  1.00  0.00    -0.052 S 
ATOM     19  C   UNL A   1      30.536  27.816  22.301  1.00  0.00     0.032 C 
BRANCH  19  20
ATOM     20  C   UNL A   1      29.532  28.780  22.777  1.00  0.00     0.012 A 
ATOM     21  C   UNL A   1      29.940  30.116  22.914  1.00  0.00     0.011 A 
ATOM     22  C   UNL A   1      28.203  28.459  23.076  1.00  0.00     0.130 A 
ATOM     23  C   UNL A   1      29.030  31.106  23.291  1.00  0.00     0.001 A 
ATOM     24  C   UNL A   1      27.288  29.446  23.443  1.00  0.00     0.040 A 
ATOM     25  F   UNL A   1      27.777  27.188  23.012  1.00  0.00    -0.206 F 
ATOM     26  C   UNL A   1      27.701  30.774  23.544  1.00  0.00     0.003 A 
ENDBRANCH  19  20
ENDBRANCH  10  12
ENDBRANCH   8  10
ENDBRANCH   7   8
ENDBRANCH   6   7
ENDBRANCH   5   6
ENDBRANCH   4   5
ENDBRANCH   3   4
ENDBRANCH   2   3
ENDBRANCH   1   2
BRANCH   1  27
ATOM     27  C   UNL A   1      32.358  28.430  26.610  1.00  0.00     0.188 C 
BRANCH  27  28
ATOM     28  C   UNL A   1      31.989  29.803  26.009  1.00  0.00     0.188 C 
BRANCH  28  29
ATOM     29  O   UNL A   1      32.036  30.870  26.941  1.00  0.00    -0.376 OA
BRANCH  29  30
ATOM     30  C   UNL A   1      31.451  32.107  26.581  1.00  0.00     0.202 C 
BRANCH  30  31
ATOM     31  C   UNL A   1      32.113  33.393  27.093  1.00  0.00     0.261 C 
BRANCH  31  32
ATOM     32  O   UNL A   1      33.134  33.230  28.085  1.00  0.00    -0.460 OA
BRANCH  32  33
ATOM     33  C   UNL A   1      34.245  33.988  27.958  1.00  0.00     0.338 C 
ATOM     34  O   UNL A   1      34.310  35.170  27.696  1.00  0.00    -0.246 OA
BRANCH  33  35
ATOM     35  C   UNL A   1      35.384  33.150  28.388  1.00  0.00     0.060 A 
ATOM     36  C   UNL A   1      35.172  31.789  28.642  1.00  0.00     0.016 A 
ATOM     37  C   UNL A   1      36.658  33.708  28.507  1.00  0.00     0.016 A 
ATOM     38  C   UNL A   1      36.238  30.982  29.035  1.00  0.00     0.010 A 
ATOM     39  C   UNL A   1      37.719  32.907  28.932  1.00  0.00     0.010 A 
ATOM     40  C   UNL A   1      37.504  31.549  29.226  1.00  0.00    -0.014 A 
BRANCH  40  41
ATOM     41  C   UNL A   1      38.545  30.783  29.949  1.00  0.00     0.031 A 
ATOM     42  C   UNL A   1      38.768  31.102  31.399  1.00  0.00     0.074 A 
ATOM     43  C   UNL A   1      39.259  29.821  29.341  1.00  0.00     0.049 A 
ATOM     44  N   UNL A   1      39.652  30.620  32.234  1.00  0.00    -0.248 NA
ATOM     45  C   UNL A   1      37.869  32.109  31.988  1.00  0.00     0.031 C 
ATOM     46  C   UNL A   1      39.099  29.397  27.953  1.00  0.00     0.029 A 
ATOM     47  N   UNL A   1      40.275  29.034  29.822  1.00  0.00    -0.354 N 
ATOM     48  C   UNL A   1      39.416  31.264  33.441  1.00  0.00     0.074 A 
ATOM     49  C   UNL A   1      38.333  32.197  33.224  1.00  0.00     0.031 C 
ATOM     50  C   UNL A   1      40.002  28.436  27.686  1.00  0.00     0.029 A 
ATOM     51  C   UNL A   1      40.823  28.206  28.875  1.00  0.00     0.049 A 
ATOM     52  H   UNL A   1      40.583  29.062  30.758  1.00  0.00     0.167 HD
ATOM     53  C   UNL A   1      40.043  31.085  34.626  1.00  0.00     0.037 A 
ATOM     54  C   UNL A   1      41.885  27.381  28.958  1.00  0.00     0.037 A 
ATOM     55  C   UNL A   1      41.129  30.166  34.830  1.00  0.00     0.049 A 
ATOM     56  C   UNL A   1      42.624  27.262  30.269  1.00  0.00     0.074 A 
ATOM     57  C   UNL A   1      41.833  29.906  35.992  1.00  0.00     0.029 A 
ATOM     58  N   UNL A   1      41.677  29.363  33.840  1.00  0.00    -0.354 N 
ATOM     59  N   UNL A   1      42.385  27.855  31.414  1.00  0.00    -0.248 NA
ATOM     60  C   UNL A   1      43.779  26.354  30.298  1.00  0.00     0.031 C 
ATOM     61  C   UNL A   1      42.845  28.989  35.691  1.00  0.00     0.029 A 
ATOM     62  C   UNL A   1      42.729  28.625  34.358  1.00  0.00     0.049 A 
ATOM     63  H   UNL A   1      41.364  29.323  32.907  1.00  0.00     0.167 HD
ATOM     64  C   UNL A   1      43.335  27.370  32.305  1.00  0.00     0.074 A 
ATOM     65  C   UNL A   1      44.147  26.422  31.570  1.00  0.00     0.031 C 
ATOM     66  C   UNL A   1      43.519  27.678  33.613  1.00  0.00     0.037 A 
BRANCH  53  67
ATOM     67  C   UNL A   1      39.587  31.927  35.782  1.00  0.00     0.064 A 
ATOM     68  C   UNL A   1      40.188  33.160  36.081  1.00  0.00     0.173 A 
ATOM     69  C   UNL A   1      38.520  31.505  36.589  1.00  0.00     0.173 A 
ATOM     70  F   UNL A   1      41.225  33.601  35.352  1.00  0.00    -0.203 F 
ATOM     71  C   UNL A   1      39.755  33.925  37.161  1.00  0.00     0.198 A 
ATOM     72  C   UNL A   1      38.067  32.288  37.647  1.00  0.00     0.198 A 
ATOM     73  F   UNL A   1      37.910  30.335  36.348  1.00  0.00    -0.203 F 
ATOM     74  F   UNL A   1      40.378  35.073  37.459  1.00  0.00    -0.200 F 
ATOM     75  C   UNL A   1      38.690  33.492  37.938  1.00  0.00     0.200 A 
ATOM     76  F   UNL A   1      37.030  31.875  38.389  1.00  0.00    -0.200 F 
ATOM     77  F   UNL A   1      38.268  34.234  38.972  1.00  0.00    -0.200 F 
ENDBRANCH  53  67
BRANCH  54  78
ATOM     78  C   UNL A   1      42.331  26.615  27.763  1.00  0.00     0.064 A 
ATOM     79  C   UNL A   1      41.826  25.338  27.488  1.00  0.00     0.173 A 
ATOM     80  C   UNL A   1      43.296  27.136  26.886  1.00  0.00     0.173 A 
ATOM     81  F   UNL A   1      40.922  24.784  28.310  1.00  0.00    -0.203 F 
ATOM     82  C   UNL A   1      42.285  24.600  26.398  1.00  0.00     0.198 A 
ATOM     83  C   UNL A   1      43.730  26.412  25.778  1.00  0.00     0.198 A 
ATOM     84  F   UNL A   1      43.815  28.353  27.104  1.00  0.00    -0.203 F 
ATOM     85  F   UNL A   1      41.826  23.358  26.191  1.00  0.00    -0.200 F 
ATOM     86  C   UNL A   1      43.231  25.140  25.540  1.00  0.00     0.200 A 
ATOM     87  F   UNL A   1      44.635  26.943  24.946  1.00  0.00    -0.200 F 
ATOM     88  F   UNL A   1      43.672  24.431  24.492  1.00  0.00    -0.200 F 
ENDBRANCH  54  78
BRANCH  66  89
ATOM     89  C   UNL A   1      44.610  26.952  34.351  1.00  0.00     0.064 A 
ATOM     90  C   UNL A   1      44.386  25.718  34.976  1.00  0.00     0.173 A 
ATOM     91  C   UNL A   1      45.909  27.482  34.391  1.00  0.00     0.173 A 
ATOM     92  F   UNL A   1      43.160  25.173  34.977  1.00  0.00    -0.203 F 
ATOM     93  C   UNL A   1      45.416  25.053  35.637  1.00  0.00     0.198 A 
ATOM     94  C   UNL A   1      46.945  26.798  35.022  1.00  0.00     0.198 A 
ATOM     95  F   UNL A   1      46.181  28.656  33.801  1.00  0.00    -0.203 F 
ATOM     96  F   UNL A   1      45.168  23.899  36.272  1.00  0.00    -0.200 F 
ATOM     97  C   UNL A   1      46.695  25.589  35.653  1.00  0.00     0.200 A 
ATOM     98  F   UNL A   1      48.183  27.309  35.019  1.00  0.00    -0.200 F 
ATOM     99  F   UNL A   1      47.688  24.943  36.280  1.00  0.00    -0.200 F 
ENDBRANCH  66  89
ENDBRANCH  40  41
ENDBRANCH  33  35
ENDBRANCH  32  33
ENDBRANCH  31  32
ENDBRANCH  30  31
ENDBRANCH  29  30
ENDBRANCH  28  29
ENDBRANCH  27  28
ENDBRANCH   1  27
TORSDOF 22
ENDMDL
MODEL 3
REMARK VINA RESULT:     -10.6      2.200      7.609
REMARK SMILES C[C@H](C(=O)OCCOCCOCCOCCOC(=O)c1ccc(-c2c3nc(c(-c4c(F)c(F)c(F)c(F)c4F)c4ccc([nH]4)c(-c4c(F)c(F)c(F)c(F)c4F)c4nc(c(-c5c(F)c(F)c(F)c(F)c5F)c5ccc2[nH]5)C=C4)C=C3)cc1)N1C(=O)/C(=C/c2ccccc2F)SC1=S
REMARK SMILES IDX 11 1 10 2 9 3 8 4 7 5 6 6 5 7 3 8 4 9 2 10 1 11 83 12 84 13
REMARK SMILES IDX 96 14 85 15 86 16 95 17 97 18 87 19 88 20 89 21 93 22 90 23
REMARK SMILES IDX 92 24 94 25 91 26 12 27 13 28 14 29 15 30 16 31 17 32 18 33
REMARK SMILES IDX 19 34 20 35 21 36 82 37 22 38 81 39 23 40 24 41 25 42 75 43
REMARK SMILES IDX 26 44 80 45 74 46 76 47 27 48 79 49 73 50 72 51 28 53 60 54
REMARK SMILES IDX 40 55 59 56 41 57 44 58 58 59 77 60 42 61 43 62 57 64 78 65
REMARK SMILES IDX 45 66 29 67 30 68 38 69 31 70 32 71 36 72 39 73 33 74 34 75
REMARK SMILES IDX 37 76 35 77 61 78 62 79 70 80 63 81 64 82 68 83 71 84 65 85
REMARK SMILES IDX 66 86 69 87 67 88 46 89 47 90 55 91 48 92 49 93 53 94 56 95
REMARK SMILES IDX 50 96 51 97 54 98 52 99
REMARK H PARENT 76 52 44 63
REMARK Flexibility Score: inf
ROOT
ATOM      1  O   UNL A   1      32.388  28.045  26.595  1.00  0.00    -0.377 OA
ENDROOT
BRANCH   1   2
ATOM      2  C   UNL A   1      31.343  27.122  26.876  1.00  0.00     0.188 C 
BRANCH   2   3
ATOM      3  C   UNL A   1      30.664  26.291  25.757  1.00  0.00     0.188 C 
BRANCH   3   4
ATOM      4  O   UNL A   1      30.311  27.039  24.606  1.00  0.00    -0.376 OA
BRANCH   4   5
ATOM      5  C   UNL A   1      30.847  26.616  23.365  1.00  0.00     0.202 C 
BRANCH   5   6
ATOM      6  C   UNL A   1      32.367  26.699  23.208  1.00  0.00     0.261 C 
BRANCH   6   7
ATOM      7  O   UNL A   1      33.069  25.488  23.529  1.00  0.00    -0.462 OA
BRANCH   7   8
ATOM      8  C   UNL A   1      32.912  24.422  22.707  1.00  0.00     0.329 C 
ATOM      9  O   UNL A   1      33.054  24.482  21.490  1.00  0.00    -0.250 OA
BRANCH   8  10
ATOM     10  C   UNL A   1      32.761  23.080  23.480  1.00  0.00     0.199 C 
ATOM     11  C   UNL A   1      32.409  22.051  22.377  1.00  0.00     0.044 C 
BRANCH  10  12
ATOM     12  N   UNL A   1      33.885  22.624  24.362  1.00  0.00    -0.279 N 
ATOM     13  C   UNL A   1      35.185  22.656  23.865  1.00  0.00     0.266 C 
ATOM     14  C   UNL A   1      33.845  22.603  25.750  1.00  0.00     0.149 C 
ATOM     15  O   UNL A   1      35.539  23.130  22.793  1.00  0.00    -0.268 OA
ATOM     16  C   UNL A   1      36.173  22.228  24.894  1.00  0.00     0.081 C 
ATOM     17  S   UNL A   1      35.406  22.134  26.415  1.00  0.00    -0.054 SA
ATOM     18  S   UNL A   1      32.618  23.017  26.804  1.00  0.00    -0.052 S 
ATOM     19  C   UNL A   1      37.478  22.103  24.612  1.00  0.00     0.032 C 
BRANCH  19  20
ATOM     20  C   UNL A   1      38.568  21.970  25.592  1.00  0.00     0.012 A 
ATOM     21  C   UNL A   1      38.908  23.114  26.331  1.00  0.00     0.011 A 
ATOM     22  C   UNL A   1      39.263  20.784  25.849  1.00  0.00     0.130 A 
ATOM     23  C   UNL A   1      39.881  23.055  27.330  1.00  0.00     0.001 A 
ATOM     24  C   UNL A   1      40.229  20.717  26.854  1.00  0.00     0.040 A 
ATOM     25  F   UNL A   1      39.012  19.677  25.134  1.00  0.00    -0.206 F 
ATOM     26  C   UNL A   1      40.533  21.854  27.601  1.00  0.00     0.003 A 
ENDBRANCH  19  20
ENDBRANCH  10  12
ENDBRANCH   8  10
ENDBRANCH   7   8
ENDBRANCH   6   7
ENDBRANCH   5   6
ENDBRANCH   4   5
ENDBRANCH   3   4
ENDBRANCH   2   3
ENDBRANCH   1   2
BRANCH   1  27
ATOM     27  C   UNL A   1      32.104  29.435  26.547  1.00  0.00     0.188 C 
BRANCH  27  28
ATOM     28  C   UNL A   1      31.528  30.033  25.246  1.00  0.00     0.188 C 
BRANCH  28  29
ATOM     29  O   UNL A   1      31.018  31.348  25.394  1.00  0.00    -0.376 OA
BRANCH  29  30
ATOM     30  C   UNL A   1      31.031  31.936  26.680  1.00  0.00     0.202 C 
BRANCH  30  31
ATOM     31  C   UNL A   1      32.075  33.026  26.962  1.00  0.00     0.261 C 
BRANCH  31  32
ATOM     32  O   UNL A   1      33.176  32.649  27.798  1.00  0.00    -0.460 OA
BRANCH  32  33
ATOM     33  C   UNL A   1      34.156  33.562  27.978  1.00  0.00     0.338 C 
ATOM     34  O   UNL A   1      34.060  34.770  27.933  1.00  0.00    -0.246 OA
BRANCH  33  35
ATOM     35  C   UNL A   1      35.350  32.822  28.436  1.00  0.00     0.060 A 
ATOM     36  C   UNL A   1      35.239  31.453  28.712  1.00  0.00     0.016 A 
ATOM     37  C   UNL A   1      36.576  33.478  28.559  1.00  0.00     0.016 A 
ATOM     38  C   UNL A   1      36.358  30.737  29.131  1.00  0.00     0.010 A 
ATOM     39  C   UNL A   1      37.689  32.768  29.010  1.00  0.00     0.010 A 
ATOM     40  C   UNL A   1      37.575  31.402  29.326  1.00  0.00    -0.014 A 
BRANCH  40  41
ATOM     41  C   UNL A   1      38.662  30.731  30.075  1.00  0.00     0.031 A 
ATOM     42  C   UNL A   1      38.825  31.072  31.528  1.00  0.00     0.074 A 
ATOM     43  C   UNL A   1      39.470  29.833  29.487  1.00  0.00     0.049 A 
ATOM     44  N   UNL A   1      39.729  30.670  32.383  1.00  0.00    -0.248 NA
ATOM     45  C   UNL A   1      37.830  31.999  32.093  1.00  0.00     0.031 C 
ATOM     46  C   UNL A   1      39.377  29.393  28.098  1.00  0.00     0.029 A 
ATOM     47  N   UNL A   1      40.540  29.138  29.993  1.00  0.00    -0.354 N 
ATOM     48  C   UNL A   1      39.413  31.294  33.582  1.00  0.00     0.074 A 
ATOM     49  C   UNL A   1      38.258  32.130  33.339  1.00  0.00     0.031 C 
ATOM     50  C   UNL A   1      40.366  28.513  27.854  1.00  0.00     0.029 A 
ATOM     51  C   UNL A   1      41.177  28.358  29.062  1.00  0.00     0.049 A 
ATOM     52  H   UNL A   1      40.823  29.194  30.934  1.00  0.00     0.167 HD
ATOM     53  C   UNL A   1      40.027  31.173  34.782  1.00  0.00     0.037 A 
ATOM     54  C   UNL A   1      42.305  27.628  29.171  1.00  0.00     0.037 A 
ATOM     55  C   UNL A   1      41.184  30.352  35.013  1.00  0.00     0.049 A 
ATOM     56  C   UNL A   1      43.022  27.576  30.498  1.00  0.00     0.074 A 
ATOM     57  C   UNL A   1      41.882  30.157  36.190  1.00  0.00     0.029 A 
ATOM     58  N   UNL A   1      41.821  29.597  34.038  1.00  0.00    -0.354 N 
ATOM     59  N   UNL A   1      42.708  28.149  31.635  1.00  0.00    -0.248 NA
ATOM     60  C   UNL A   1      44.251  26.772  30.556  1.00  0.00     0.031 C 
ATOM     61  C   UNL A   1      42.976  29.330  35.915  1.00  0.00     0.029 A 
ATOM     62  C   UNL A   1      42.920  28.954  34.582  1.00  0.00     0.049 A 
ATOM     63  H   UNL A   1      41.533  29.528  33.098  1.00  0.00     0.167 HD
ATOM     64  C   UNL A   1      43.677  27.751  32.547  1.00  0.00     0.074 A 
ATOM     65  C   UNL A   1      44.583  26.874  31.835  1.00  0.00     0.031 C 
ATOM     66  C   UNL A   1      43.806  28.077  33.858  1.00  0.00     0.037 A 
BRANCH  53  67
ATOM     67  C   UNL A   1      39.475  31.976  35.924  1.00  0.00     0.064 A 
ATOM     68  C   UNL A   1      38.447  31.483  36.744  1.00  0.00     0.173 A 
ATOM     69  C   UNL A   1      39.995  33.245  36.216  1.00  0.00     0.173 A 
ATOM     70  F   UNL A   1      37.902  30.283  36.496  1.00  0.00    -0.203 F 
ATOM     71  C   UNL A   1      37.943  32.244  37.796  1.00  0.00     0.198 A 
ATOM     72  C   UNL A   1      39.512  33.989  37.289  1.00  0.00     0.198 A 
ATOM     73  F   UNL A   1      40.977  33.763  35.463  1.00  0.00    -0.203 F 
ATOM     74  F   UNL A   1      36.926  31.776  38.532  1.00  0.00    -0.200 F 
ATOM     75  C   UNL A   1      38.482  33.493  38.072  1.00  0.00     0.200 A 
ATOM     76  F   UNL A   1      40.042  35.189  37.562  1.00  0.00    -0.200 F 
ATOM     77  F   UNL A   1      38.002  34.220  39.090  1.00  0.00    -0.200 F 
ENDBRANCH  53  67
BRANCH  54  78
ATOM     78  C   UNL A   1      42.841  26.901  27.989  1.00  0.00     0.064 A 
ATOM     79  C   UNL A   1      42.663  25.518  27.843  1.00  0.00     0.173 A 
ATOM     80  C   UNL A   1      43.569  27.571  26.993  1.00  0.00     0.173 A 
ATOM     81  F   UNL A   1      41.997  24.827  28.781  1.00  0.00    -0.203 F 
ATOM     82  C   UNL A   1      43.212  24.830  26.763  1.00  0.00     0.198 A 
ATOM     83  C   UNL A   1      44.089  26.888  25.896  1.00  0.00     0.198 A 
ATOM     84  F   UNL A   1      43.772  28.893  27.084  1.00  0.00    -0.203 F 
ATOM     85  F   UNL A   1      43.075  23.500  26.678  1.00  0.00    -0.200 F 
ATOM     86  C   UNL A   1      43.919  25.516  25.787  1.00  0.00     0.200 A 
ATOM     87  F   UNL A   1      44.761  27.557  24.950  1.00  0.00    -0.200 F 
ATOM     88  F   UNL A   1      44.447  24.854  24.747  1.00  0.00    -0.200 F 
ENDBRANCH  54  78
BRANCH  66  89
ATOM     89  C   UNL A   1      44.939  27.450  34.622  1.00  0.00     0.064 A 
ATOM     90  C   UNL A   1      44.798  26.220  35.280  1.00  0.00     0.173 A 
ATOM     91  C   UNL A   1      46.198  28.070  34.655  1.00  0.00     0.173 A 
ATOM     92  F   UNL A   1      43.612  25.591  35.289  1.00  0.00    -0.203 F 
ATOM     93  C   UNL A   1      45.866  25.648  35.965  1.00  0.00     0.198 A 
ATOM     94  C   UNL A   1      47.273  27.478  35.310  1.00  0.00     0.198 A 
ATOM     95  F   UNL A   1      46.391  29.244  34.034  1.00  0.00    -0.203 F 
ATOM     96  F   UNL A   1      45.694  24.497  36.631  1.00  0.00    -0.200 F 
ATOM     97  C   UNL A   1      47.105  26.272  35.973  1.00  0.00     0.200 A 
ATOM     98  F   UNL A   1      48.473  28.075  35.301  1.00  0.00    -0.200 F 
ATOM     99  F   UNL A   1      48.135  25.715  36.625  1.00  0.00    -0.200 F 
ENDBRANCH  66  89
ENDBRANCH  40  41
ENDBRANCH  33  35
ENDBRANCH  32  33
ENDBRANCH  31  32
ENDBRANCH  30  31
ENDBRANCH  29  30
ENDBRANCH  28  29
ENDBRANCH  27  28
ENDBRANCH   1  27
TORSDOF 22
ENDMDL
