MODEL 1
REMARK VINA RESULT:     -10.5      0.000      0.000
REMARK SMILES CO[C@H]1C[C@@H](C(=O)OCCOCCOCCOCCOC(=O)c2ccc(-c3c4nc(c(-c5c(F)c(F)c(F)c(F)c5F)c5ccc([nH]5)c(-c5c(F)c(F)c(F)c(F)c5F)c5nc(c(-c6c(F)c(F)c(F)c(F)c6F)c6ccc3[nH]6)C=C5)C=C4)cc2)N(C(=O)c2cc(SC)ccc2C)C1
REMARK SMILES IDX 13 1 12 2 11 3 10 4 9 5 8 6 6 7 7 8 5 9 3 10 4 11 98 12
REMARK SMILES IDX 86 13 2 14 1 15 87 16 88 17 89 18 90 19 96 20 91 21 95 22
REMARK SMILES IDX 97 23 94 24 92 25 93 26 14 27 15 28 16 29 17 30 18 31 19 32
REMARK SMILES IDX 20 33 21 34 22 35 23 36 24 37 85 38 25 39 84 40 26 41 27 42
REMARK SMILES IDX 28 43 78 44 29 45 83 46 77 47 79 48 30 49 82 50 76 51 75 52
REMARK SMILES IDX 31 54 63 55 43 56 62 57 44 58 47 59 61 60 80 61 45 62 46 63
REMARK SMILES IDX 60 65 81 66 48 67 32 68 33 69 41 70 34 71 35 72 39 73 42 74
REMARK SMILES IDX 36 75 37 76 40 77 38 78 64 79 65 80 73 81 66 82 67 83 71 84
REMARK SMILES IDX 74 85 68 86 69 87 72 88 70 89 49 90 50 91 58 92 51 93 52 94
REMARK SMILES IDX 56 95 59 96 53 97 54 98 57 99 55 100
REMARK H PARENT 79 53 47 64
REMARK Flexibility Score: inf
ROOT
ATOM      1  C   UNL A   1      34.803  22.825  26.215  1.00  0.00     0.188 C 
ENDROOT
BRANCH   1   2
ATOM      2  C   UNL A   1      34.091  22.133  27.393  1.00  0.00     0.188 C 
BRANCH   2   3
ATOM      3  O   UNL A   1      33.005  22.896  27.910  1.00  0.00    -0.376 OA
BRANCH   3   4
ATOM      4  C   UNL A   1      31.792  23.043  27.182  1.00  0.00     0.202 C 
BRANCH   4   5
ATOM      5  C   UNL A   1      31.679  24.010  25.999  1.00  0.00     0.261 C 
BRANCH   5   6
ATOM      6  O   UNL A   1      32.342  25.248  26.284  1.00  0.00    -0.462 OA
BRANCH   6   7
ATOM      7  C   UNL A   1      31.620  26.370  26.465  1.00  0.00     0.329 C 
ATOM      8  O   UNL A   1      30.467  26.398  26.873  1.00  0.00    -0.250 OA
BRANCH   7   9
ATOM      9  C   UNL A   1      32.444  27.622  26.134  1.00  0.00     0.198 C 
ATOM     10  C   UNL A   1      33.118  29.905  26.550  1.00  0.00     0.140 C 
ATOM     11  C   UNL A   1      32.311  28.756  27.157  1.00  0.00     0.071 C 
ATOM     12  C   UNL A   1      32.968  29.672  25.034  1.00  0.00     0.152 C 
ATOM     13  N   UNL A   1      32.302  28.380  24.887  1.00  0.00    -0.322 N 
BRANCH  10  14
ATOM     14  O   UNL A   1      32.579  31.183  26.892  1.00  0.00    -0.380 OA
ATOM     15  C   UNL A   1      31.275  31.426  26.383  1.00  0.00     0.195 C 
ENDBRANCH  10  14
BRANCH  13  16
ATOM     16  C   UNL A   1      31.689  28.081  23.686  1.00  0.00     0.254 C 
ATOM     17  O   UNL A   1      32.311  27.702  22.696  1.00  0.00    -0.269 OA
BRANCH  16  18
ATOM     18  C   UNL A   1      30.257  28.380  23.500  1.00  0.00     0.044 A 
ATOM     19  C   UNL A   1      29.844  29.717  23.444  1.00  0.00     0.029 A 
ATOM     20  C   UNL A   1      29.313  27.337  23.502  1.00  0.00    -0.038 A 
ATOM     21  C   UNL A   1      28.485  30.036  23.319  1.00  0.00     0.008 A 
ATOM     22  C   UNL A   1      27.959  27.666  23.371  1.00  0.00     0.005 A 
ATOM     23  C   UNL A   1      29.677  25.897  23.741  1.00  0.00     0.045 C 
ATOM     24  C   UNL A   1      27.554  28.997  23.246  1.00  0.00     0.015 A 
BRANCH  21  25
ATOM     25  S   UNL A   1      28.041  31.768  23.271  1.00  0.00    -0.130 SA
ATOM     26  C   UNL A   1      28.770  32.329  21.705  1.00  0.00     0.091 C 
ENDBRANCH  21  25
ENDBRANCH  16  18
ENDBRANCH  13  16
ENDBRANCH   7   9
ENDBRANCH   6   7
ENDBRANCH   5   6
ENDBRANCH   4   5
ENDBRANCH   3   4
ENDBRANCH   2   3
ENDBRANCH   1   2
BRANCH   1  27
ATOM     27  O   UNL A   1      34.856  22.105  24.993  1.00  0.00    -0.377 OA
BRANCH  27  28
ATOM     28  C   UNL A   1      35.645  20.935  25.030  1.00  0.00     0.188 C 
BRANCH  28  29
ATOM     29  C   UNL A   1      37.150  21.149  24.760  1.00  0.00     0.188 C 
BRANCH  29  30
ATOM     30  O   UNL A   1      37.973  21.914  25.635  1.00  0.00    -0.376 OA
BRANCH  30  31
ATOM     31  C   UNL A   1      39.239  21.440  26.075  1.00  0.00     0.202 C 
BRANCH  31  32
ATOM     32  C   UNL A   1      39.638  19.993  25.778  1.00  0.00     0.261 C 
BRANCH  32  33
ATOM     33  O   UNL A   1      40.654  19.490  26.658  1.00  0.00    -0.460 OA
BRANCH  33  34
ATOM     34  C   UNL A   1      41.900  19.440  26.126  1.00  0.00     0.338 C 
ATOM     35  O   UNL A   1      42.351  18.605  25.375  1.00  0.00    -0.246 OA
BRANCH  34  36
ATOM     36  C   UNL A   1      42.608  20.703  26.432  1.00  0.00     0.060 A 
ATOM     37  C   UNL A   1      42.557  21.154  27.760  1.00  0.00     0.016 A 
ATOM     38  C   UNL A   1      43.324  21.415  25.465  1.00  0.00     0.016 A 
ATOM     39  C   UNL A   1      43.174  22.348  28.115  1.00  0.00     0.010 A 
ATOM     40  C   UNL A   1      43.909  22.636  25.812  1.00  0.00     0.010 A 
ATOM     41  C   UNL A   1      43.788  23.126  27.125  1.00  0.00    -0.014 A 
BRANCH  41  42
ATOM     42  C   UNL A   1      43.983  24.565  27.411  1.00  0.00     0.031 A 
ATOM     43  C   UNL A   1      45.370  25.115  27.210  1.00  0.00     0.074 A 
ATOM     44  C   UNL A   1      42.964  25.372  27.745  1.00  0.00     0.049 A 
ATOM     45  N   UNL A   1      45.810  26.340  27.333  1.00  0.00    -0.248 NA
ATOM     46  C   UNL A   1      46.402  24.146  26.799  1.00  0.00     0.031 C 
ATOM     47  C   UNL A   1      41.573  24.958  27.913  1.00  0.00     0.029 A 
ATOM     48  N   UNL A   1      42.950  26.721  27.994  1.00  0.00    -0.354 N 
ATOM     49  C   UNL A   1      47.158  26.287  26.999  1.00  0.00     0.074 A 
ATOM     50  C   UNL A   1      47.478  24.909  26.710  1.00  0.00     0.031 C 
ATOM     51  C   UNL A   1      40.839  26.034  28.251  1.00  0.00     0.029 A 
ATOM     52  C   UNL A   1      41.712  27.203  28.339  1.00  0.00     0.049 A 
ATOM     53  H   UNL A   1      43.751  27.289  27.931  1.00  0.00     0.167 HD
ATOM     54  C   UNL A   1      48.049  27.302  26.924  1.00  0.00     0.037 A 
ATOM     55  C   UNL A   1      41.341  28.449  28.695  1.00  0.00     0.037 A 
ATOM     56  C   UNL A   1      47.734  28.666  27.241  1.00  0.00     0.049 A 
ATOM     57  C   UNL A   1      42.376  29.549  28.692  1.00  0.00     0.074 A 
ATOM     58  C   UNL A   1      48.569  29.769  27.240  1.00  0.00     0.029 A 
ATOM     59  N   UNL A   1      46.478  29.111  27.625  1.00  0.00    -0.354 N 
ATOM     60  N   UNL A   1      43.647  29.495  28.365  1.00  0.00    -0.248 NA
ATOM     61  C   UNL A   1      41.921  30.886  29.098  1.00  0.00     0.031 C 
ATOM     62  C   UNL A   1      47.825  30.875  27.665  1.00  0.00     0.029 A 
ATOM     63  C   UNL A   1      46.516  30.471  27.876  1.00  0.00     0.049 A 
ATOM     64  H   UNL A   1      45.678  28.542  27.708  1.00  0.00     0.167 HD
ATOM     65  C   UNL A   1      44.130  30.792  28.489  1.00  0.00     0.074 A 
ATOM     66  C   UNL A   1      43.013  31.613  28.909  1.00  0.00     0.031 C 
ATOM     67  C   UNL A   1      45.383  31.266  28.276  1.00  0.00     0.037 A 
BRANCH  54  68
ATOM     68  C   UNL A   1      49.447  26.954  26.509  1.00  0.00     0.064 A 
ATOM     69  C   UNL A   1      50.416  26.569  27.448  1.00  0.00     0.173 A 
ATOM     70  C   UNL A   1      49.824  27.008  25.159  1.00  0.00     0.173 A 
ATOM     71  F   UNL A   1      50.113  26.529  28.754  1.00  0.00    -0.203 F 
ATOM     72  C   UNL A   1      51.718  26.272  27.052  1.00  0.00     0.198 A 
ATOM     73  C   UNL A   1      51.118  26.683  24.764  1.00  0.00     0.198 A 
ATOM     74  F   UNL A   1      48.936  27.377  24.223  1.00  0.00    -0.203 F 
ATOM     75  F   UNL A   1      52.641  25.957  27.972  1.00  0.00    -0.200 F 
ATOM     76  C   UNL A   1      52.066  26.323  25.711  1.00  0.00     0.200 A 
ATOM     77  F   UNL A   1      51.451  26.725  23.466  1.00  0.00    -0.200 F 
ATOM     78  F   UNL A   1      53.318  26.034  25.330  1.00  0.00    -0.200 F 
ENDBRANCH  54  68
BRANCH  55  79
ATOM     79  C   UNL A   1      39.938  28.732  29.094  1.00  0.00     0.064 A 
ATOM     80  C   UNL A   1      39.504  28.549  30.415  1.00  0.00     0.173 A 
ATOM     81  C   UNL A   1      38.986  29.145  28.150  1.00  0.00     0.173 A 
ATOM     82  F   UNL A   1      40.369  28.131  31.352  1.00  0.00    -0.203 F 
ATOM     83  C   UNL A   1      38.169  28.740  30.770  1.00  0.00     0.198 A 
ATOM     84  C   UNL A   1      37.657  29.364  28.510  1.00  0.00     0.198 A 
ATOM     85  F   UNL A   1      39.345  29.333  26.872  1.00  0.00    -0.203 F 
ATOM     86  F   UNL A   1      37.771  28.500  32.026  1.00  0.00    -0.200 F 
ATOM     87  C   UNL A   1      37.248  29.150  29.817  1.00  0.00     0.200 A 
ATOM     88  F   UNL A   1      36.774  29.771  27.589  1.00  0.00    -0.200 F 
ATOM     89  F   UNL A   1      35.964  29.328  30.156  1.00  0.00    -0.200 F 
ENDBRANCH  55  79
BRANCH  67  90
ATOM     90  C   UNL A   1      45.598  32.743  28.441  1.00  0.00     0.064 A 
ATOM     91  C   UNL A   1      45.318  33.651  27.409  1.00  0.00     0.173 A 
ATOM     92  C   UNL A   1      46.058  33.257  29.663  1.00  0.00     0.173 A 
ATOM     93  F   UNL A   1      44.887  33.208  26.219  1.00  0.00    -0.203 F 
ATOM     94  C   UNL A   1      45.526  35.017  27.583  1.00  0.00     0.198 A 
ATOM     95  C   UNL A   1      46.232  34.626  29.845  1.00  0.00     0.198 A 
ATOM     96  F   UNL A   1      46.328  32.432  30.685  1.00  0.00    -0.203 F 
ATOM     97  F   UNL A   1      45.307  35.860  26.565  1.00  0.00    -0.200 F 
ATOM     98  C   UNL A   1      45.977  35.503  28.801  1.00  0.00     0.200 A 
ATOM     99  F   UNL A   1      46.652  35.095  31.027  1.00  0.00    -0.200 F 
ATOM    100  F   UNL A   1      46.174  36.818  28.968  1.00  0.00    -0.200 F 
ENDBRANCH  67  90
ENDBRANCH  41  42
ENDBRANCH  34  36
ENDBRANCH  33  34
ENDBRANCH  32  33
ENDBRANCH  31  32
ENDBRANCH  30  31
ENDBRANCH  29  30
ENDBRANCH  28  29
ENDBRANCH  27  28
ENDBRANCH   1  27
TORSDOF 24
ENDMDL
MODEL 2
REMARK VINA RESULT:     -10.4      4.723     10.683
REMARK SMILES CO[C@H]1C[C@@H](C(=O)OCCOCCOCCOCCOC(=O)c2ccc(-c3c4nc(c(-c5c(F)c(F)c(F)c(F)c5F)c5ccc([nH]5)c(-c5c(F)c(F)c(F)c(F)c5F)c5nc(c(-c6c(F)c(F)c(F)c(F)c6F)c6ccc3[nH]6)C=C5)C=C4)cc2)N(C(=O)c2cc(SC)ccc2C)C1
REMARK SMILES IDX 13 1 12 2 11 3 10 4 9 5 8 6 6 7 7 8 5 9 3 10 4 11 98 12
REMARK SMILES IDX 86 13 2 14 1 15 87 16 88 17 89 18 90 19 96 20 91 21 95 22
REMARK SMILES IDX 97 23 94 24 92 25 93 26 14 27 15 28 16 29 17 30 18 31 19 32
REMARK SMILES IDX 20 33 21 34 22 35 23 36 24 37 85 38 25 39 84 40 26 41 27 42
REMARK SMILES IDX 28 43 78 44 29 45 83 46 77 47 79 48 30 49 82 50 76 51 75 52
REMARK SMILES IDX 31 54 63 55 43 56 62 57 44 58 47 59 61 60 80 61 45 62 46 63
REMARK SMILES IDX 60 65 81 66 48 67 32 68 33 69 41 70 34 71 35 72 39 73 42 74
REMARK SMILES IDX 36 75 37 76 40 77 38 78 64 79 65 80 73 81 66 82 67 83 71 84
REMARK SMILES IDX 74 85 68 86 69 87 72 88 70 89 49 90 50 91 58 92 51 93 52 94
REMARK SMILES IDX 56 95 59 96 53 97 54 98 57 99 55 100
REMARK H PARENT 79 53 47 64
REMARK Flexibility Score: inf
ROOT
ATOM      1  C   UNL A   1      31.650  27.548  26.894  1.00  0.00     0.188 C 
ENDROOT
BRANCH   1   2
ATOM      2  C   UNL A   1      30.721  26.536  26.200  1.00  0.00     0.188 C 
BRANCH   2   3
ATOM      3  O   UNL A   1      31.056  25.183  26.494  1.00  0.00    -0.376 OA
BRANCH   3   4
ATOM      4  C   UNL A   1      30.663  24.120  25.635  1.00  0.00     0.202 C 
BRANCH   4   5
ATOM      5  C   UNL A   1      30.989  22.660  25.966  1.00  0.00     0.261 C 
BRANCH   5   6
ATOM      6  O   UNL A   1      31.880  22.575  27.085  1.00  0.00    -0.462 OA
BRANCH   6   7
ATOM      7  C   UNL A   1      32.933  21.735  27.043  1.00  0.00     0.329 C 
ATOM      8  O   UNL A   1      33.828  21.698  27.876  1.00  0.00    -0.250 OA
BRANCH   7   9
ATOM      9  C   UNL A   1      32.846  20.793  25.834  1.00  0.00     0.198 C 
ATOM     10  C   UNL A   1      32.885  18.593  24.836  1.00  0.00     0.140 C 
ATOM     11  C   UNL A   1      32.866  19.303  26.191  1.00  0.00     0.071 C 
ATOM     12  C   UNL A   1      33.636  19.591  23.932  1.00  0.00     0.152 C 
ATOM     13  N   UNL A   1      33.804  20.807  24.725  1.00  0.00    -0.322 N 
BRANCH  10  14
ATOM     14  O   UNL A   1      33.603  17.359  24.883  1.00  0.00    -0.380 OA
ATOM     15  C   UNL A   1      34.142  16.945  23.635  1.00  0.00     0.195 C 
ENDBRANCH  10  14
BRANCH  13  16
ATOM     16  C   UNL A   1      34.762  21.724  24.339  1.00  0.00     0.254 C 
ATOM     17  O   UNL A   1      35.944  21.428  24.183  1.00  0.00    -0.269 OA
BRANCH  16  18
ATOM     18  C   UNL A   1      34.418  23.157  24.269  1.00  0.00     0.044 A 
ATOM     19  C   UNL A   1      33.627  23.614  23.207  1.00  0.00     0.029 A 
ATOM     20  C   UNL A   1      34.976  24.062  25.189  1.00  0.00    -0.038 A 
ATOM     21  C   UNL A   1      33.324  24.976  23.082  1.00  0.00     0.008 A 
ATOM     22  C   UNL A   1      34.662  25.420  25.058  1.00  0.00     0.005 A 
ATOM     23  C   UNL A   1      35.974  23.658  26.239  1.00  0.00     0.045 C 
ATOM     24  C   UNL A   1      33.818  25.865  24.039  1.00  0.00     0.015 A 
BRANCH  21  25
ATOM     25  S   UNL A   1      32.323  25.478  21.687  1.00  0.00    -0.130 SA
ATOM     26  C   UNL A   1      31.401  26.899  22.341  1.00  0.00     0.091 C 
ENDBRANCH  21  25
ENDBRANCH  16  18
ENDBRANCH  13  16
ENDBRANCH   7   9
ENDBRANCH   6   7
ENDBRANCH   5   6
ENDBRANCH   4   5
ENDBRANCH   3   4
ENDBRANCH   2   3
ENDBRANCH   1   2
BRANCH   1  27
ATOM     27  O   UNL A   1      32.735  28.046  26.126  1.00  0.00    -0.377 OA
BRANCH  27  28
ATOM     28  C   UNL A   1      33.651  28.844  26.845  1.00  0.00     0.188 C 
BRANCH  28  29
ATOM     29  C   UNL A   1      33.458  30.368  26.689  1.00  0.00     0.188 C 
BRANCH  29  30
ATOM     30  O   UNL A   1      32.327  31.046  27.229  1.00  0.00    -0.376 OA
BRANCH  30  31
ATOM     31  C   UNL A   1      31.854  32.267  26.676  1.00  0.00     0.202 C 
BRANCH  31  32
ATOM     32  C   UNL A   1      31.991  33.557  27.490  1.00  0.00     0.261 C 
BRANCH  32  33
ATOM     33  O   UNL A   1      33.348  34.003  27.623  1.00  0.00    -0.460 OA
BRANCH  33  34
ATOM     34  C   UNL A   1      33.805  34.075  28.898  1.00  0.00     0.338 C 
ATOM     35  O   UNL A   1      33.252  34.569  29.855  1.00  0.00    -0.246 OA
BRANCH  34  36
ATOM     36  C   UNL A   1      35.032  33.257  29.020  1.00  0.00     0.060 A 
ATOM     37  C   UNL A   1      34.874  31.943  29.486  1.00  0.00     0.016 A 
ATOM     38  C   UNL A   1      36.294  33.741  28.667  1.00  0.00     0.016 A 
ATOM     39  C   UNL A   1      35.986  31.125  29.654  1.00  0.00     0.010 A 
ATOM     40  C   UNL A   1      37.417  32.934  28.875  1.00  0.00     0.010 A 
ATOM     41  C   UNL A   1      37.264  31.645  29.418  1.00  0.00    -0.014 A 
BRANCH  41  42
ATOM     42  C   UNL A   1      38.409  30.960  30.059  1.00  0.00     0.031 A 
ATOM     43  C   UNL A   1      38.669  31.281  31.507  1.00  0.00     0.074 A 
ATOM     44  C   UNL A   1      39.132  30.027  29.420  1.00  0.00     0.049 A 
ATOM     45  N   UNL A   1      39.565  30.792  32.325  1.00  0.00    -0.248 NA
ATOM     46  C   UNL A   1      37.785  32.289  32.119  1.00  0.00     0.031 C 
ATOM     47  C   UNL A   1      38.933  29.597  28.038  1.00  0.00     0.029 A 
ATOM     48  N   UNL A   1      40.182  29.264  29.865  1.00  0.00    -0.354 N 
ATOM     49  C   UNL A   1      39.336  31.418  33.544  1.00  0.00     0.074 A 
ATOM     50  C   UNL A   1      38.252  32.352  33.355  1.00  0.00     0.031 C 
ATOM     51  C   UNL A   1      39.843  28.652  27.743  1.00  0.00     0.029 A 
ATOM     52  C   UNL A   1      40.697  28.425  28.909  1.00  0.00     0.049 A 
ATOM     53  H   UNL A   1      40.532  29.313  30.783  1.00  0.00     0.167 HD
ATOM     54  C   UNL A   1      39.966  31.219  34.725  1.00  0.00     0.037 A 
ATOM     55  C   UNL A   1      41.746  27.582  28.976  1.00  0.00     0.037 A 
ATOM     56  C   UNL A   1      41.064  30.311  34.902  1.00  0.00     0.049 A 
ATOM     57  C   UNL A   1      42.492  27.446  30.282  1.00  0.00     0.074 A 
ATOM     58  C   UNL A   1      41.803  30.061  36.043  1.00  0.00     0.029 A 
ATOM     59  N   UNL A   1      41.584  29.507  33.899  1.00  0.00    -0.354 N 
ATOM     60  N   UNL A   1      42.265  28.032  31.435  1.00  0.00    -0.248 NA
ATOM     61  C   UNL A   1      43.634  26.522  30.298  1.00  0.00     0.031 C 
ATOM     62  C   UNL A   1      42.800  29.134  35.718  1.00  0.00     0.029 A 
ATOM     63  C   UNL A   1      42.644  28.767  34.391  1.00  0.00     0.049 A 
ATOM     64  H   UNL A   1      41.248  29.468  32.974  1.00  0.00     0.167 HD
ATOM     65  C   UNL A   1      43.209  27.521  32.317  1.00  0.00     0.074 A 
ATOM     66  C   UNL A   1      44.002  26.567  31.570  1.00  0.00     0.031 C 
ATOM     67  C   UNL A   1      43.405  27.810  33.628  1.00  0.00     0.037 A 
BRANCH  54  68
ATOM     68  C   UNL A   1      39.491  32.025  35.896  1.00  0.00     0.064 A 
ATOM     69  C   UNL A   1      40.053  33.273  36.204  1.00  0.00     0.173 A 
ATOM     70  C   UNL A   1      38.463  31.545  36.721  1.00  0.00     0.173 A 
ATOM     71  F   UNL A   1      41.057  33.764  35.462  1.00  0.00    -0.203 F 
ATOM     72  C   UNL A   1      39.620  34.001  37.310  1.00  0.00     0.198 A 
ATOM     73  C   UNL A   1      38.013  32.288  37.809  1.00  0.00     0.198 A 
ATOM     74  F   UNL A   1      37.898  30.355  36.474  1.00  0.00    -0.203 F 
ATOM     75  F   UNL A   1      40.206  35.166  37.615  1.00  0.00    -0.200 F 
ATOM     76  C   UNL A   1      38.596  33.511  38.107  1.00  0.00     0.200 A 
ATOM     77  F   UNL A   1      37.018  31.817  38.574  1.00  0.00    -0.200 F 
ATOM     78  F   UNL A   1      38.176  34.213  39.169  1.00  0.00    -0.200 F 
ENDBRANCH  54  68
BRANCH  55  79
ATOM     79  C   UNL A   1      42.168  26.808  27.779  1.00  0.00     0.064 A 
ATOM     80  C   UNL A   1      41.650  25.531  27.516  1.00  0.00     0.173 A 
ATOM     81  C   UNL A   1      43.138  27.309  26.899  1.00  0.00     0.173 A 
ATOM     82  F   UNL A   1      40.739  24.995  28.342  1.00  0.00    -0.203 F 
ATOM     83  C   UNL A   1      42.107  24.776  26.437  1.00  0.00     0.198 A 
ATOM     84  C   UNL A   1      43.573  26.566  25.803  1.00  0.00     0.198 A 
ATOM     85  F   UNL A   1      43.669  28.523  27.105  1.00  0.00    -0.203 F 
ATOM     86  F   UNL A   1      41.638  23.536  26.244  1.00  0.00    -0.200 F 
ATOM     87  C   UNL A   1      43.065  25.295  25.580  1.00  0.00     0.200 A 
ATOM     88  F   UNL A   1      44.491  27.076  24.971  1.00  0.00    -0.200 F 
ATOM     89  F   UNL A   1      43.509  24.567  24.546  1.00  0.00    -0.200 F 
ENDBRANCH  55  79
BRANCH  67  90
ATOM     90  C   UNL A   1      44.481  27.050  34.347  1.00  0.00     0.064 A 
ATOM     91  C   UNL A   1      44.203  25.887  35.079  1.00  0.00     0.173 A 
ATOM     92  C   UNL A   1      45.817  27.476  34.272  1.00  0.00     0.173 A 
ATOM     93  F   UNL A   1      42.941  25.445  35.191  1.00  0.00    -0.203 F 
ATOM     94  C   UNL A   1      45.217  25.198  35.740  1.00  0.00     0.198 A 
ATOM     95  C   UNL A   1      46.832  26.766  34.905  1.00  0.00     0.198 A 
ATOM     96  F   UNL A   1      46.138  28.575  33.574  1.00  0.00    -0.203 F 
ATOM     97  F   UNL A   1      44.919  24.122  36.481  1.00  0.00    -0.200 F 
ATOM     98  C   UNL A   1      46.530  25.635  35.648  1.00  0.00     0.200 A 
ATOM     99  F   UNL A   1      48.102  27.179  34.801  1.00  0.00    -0.200 F 
ATOM    100  F   UNL A   1      47.505  24.969  36.282  1.00  0.00    -0.200 F 
ENDBRANCH  67  90
ENDBRANCH  41  42
ENDBRANCH  34  36
ENDBRANCH  33  34
ENDBRANCH  32  33
ENDBRANCH  31  32
ENDBRANCH  30  31
ENDBRANCH  29  30
ENDBRANCH  28  29
ENDBRANCH  27  28
ENDBRANCH   1  27
TORSDOF 24
ENDMDL
MODEL 3
REMARK VINA RESULT:     -10.1      1.319      2.655
REMARK SMILES CO[C@H]1C[C@@H](C(=O)OCCOCCOCCOCCOC(=O)c2ccc(-c3c4nc(c(-c5c(F)c(F)c(F)c(F)c5F)c5ccc([nH]5)c(-c5c(F)c(F)c(F)c(F)c5F)c5nc(c(-c6c(F)c(F)c(F)c(F)c6F)c6ccc3[nH]6)C=C5)C=C4)cc2)N(C(=O)c2cc(SC)ccc2C)C1
REMARK SMILES IDX 13 1 12 2 11 3 10 4 9 5 8 6 6 7 7 8 5 9 3 10 4 11 98 12
REMARK SMILES IDX 86 13 2 14 1 15 87 16 88 17 89 18 90 19 96 20 91 21 95 22
REMARK SMILES IDX 97 23 94 24 92 25 93 26 14 27 15 28 16 29 17 30 18 31 19 32
REMARK SMILES IDX 20 33 21 34 22 35 23 36 24 37 85 38 25 39 84 40 26 41 27 42
REMARK SMILES IDX 28 43 78 44 29 45 83 46 77 47 79 48 30 49 82 50 76 51 75 52
REMARK SMILES IDX 31 54 63 55 43 56 62 57 44 58 47 59 61 60 80 61 45 62 46 63
REMARK SMILES IDX 60 65 81 66 48 67 32 68 33 69 41 70 34 71 35 72 39 73 42 74
REMARK SMILES IDX 36 75 37 76 40 77 38 78 64 79 65 80 73 81 66 82 67 83 71 84
REMARK SMILES IDX 74 85 68 86 69 87 72 88 70 89 49 90 50 91 58 92 51 93 52 94
REMARK SMILES IDX 56 95 59 96 53 97 54 98 57 99 55 100
REMARK H PARENT 79 53 47 64
REMARK Flexibility Score: inf
ROOT
ATOM      1  C   UNL A   1      34.367  22.813  26.636  1.00  0.00     0.188 C 
ENDROOT
BRANCH   1   2
ATOM      2  C   UNL A   1      32.889  22.382  26.673  1.00  0.00     0.188 C 
BRANCH   2   3
ATOM      3  O   UNL A   1      32.072  23.266  27.435  1.00  0.00    -0.376 OA
BRANCH   3   4
ATOM      4  C   UNL A   1      31.309  24.291  26.810  1.00  0.00     0.202 C 
BRANCH   4   5
ATOM      5  C   UNL A   1      31.065  24.300  25.298  1.00  0.00     0.261 C 
BRANCH   5   6
ATOM      6  O   UNL A   1      30.175  25.361  24.929  1.00  0.00    -0.462 OA
BRANCH   6   7
ATOM      7  C   UNL A   1      30.313  25.968  23.735  1.00  0.00     0.329 C 
ATOM      8  O   UNL A   1      30.753  25.432  22.727  1.00  0.00    -0.250 OA
BRANCH   7   9
ATOM      9  C   UNL A   1      29.805  27.417  23.785  1.00  0.00     0.198 C 
ATOM     10  C   UNL A   1      28.448  29.232  22.948  1.00  0.00     0.140 C 
ATOM     11  C   UNL A   1      28.691  27.731  22.781  1.00  0.00     0.071 C 
ATOM     12  C   UNL A   1      29.834  29.763  23.365  1.00  0.00     0.152 C 
ATOM     13  N   UNL A   1      30.669  28.585  23.589  1.00  0.00    -0.322 N 
BRANCH  10  14
ATOM     14  O   UNL A   1      28.046  29.854  21.727  1.00  0.00    -0.380 OA
ATOM     15  C   UNL A   1      28.480  31.200  21.582  1.00  0.00     0.195 C 
ENDBRANCH  10  14
BRANCH  13  16
ATOM     16  C   UNL A   1      32.041  28.734  23.591  1.00  0.00     0.254 C 
ATOM     17  O   UNL A   1      32.720  28.680  22.568  1.00  0.00    -0.269 OA
BRANCH  16  18
ATOM     18  C   UNL A   1      32.770  28.793  24.873  1.00  0.00     0.044 A 
ATOM     19  C   UNL A   1      32.790  29.996  25.588  1.00  0.00     0.029 A 
ATOM     20  C   UNL A   1      33.528  27.689  25.303  1.00  0.00    -0.038 A 
ATOM     21  C   UNL A   1      33.514  30.101  26.783  1.00  0.00     0.008 A 
ATOM     22  C   UNL A   1      34.244  27.802  26.501  1.00  0.00     0.005 A 
ATOM     23  C   UNL A   1      33.693  26.435  24.489  1.00  0.00     0.045 C 
ATOM     24  C   UNL A   1      34.208  28.981  27.249  1.00  0.00     0.015 A 
BRANCH  21  25
ATOM     25  S   UNL A   1      33.501  31.679  27.625  1.00  0.00    -0.130 SA
ATOM     26  C   UNL A   1      31.902  32.386  27.135  1.00  0.00     0.091 C 
ENDBRANCH  21  25
ENDBRANCH  16  18
ENDBRANCH  13  16
ENDBRANCH   7   9
ENDBRANCH   6   7
ENDBRANCH   5   6
ENDBRANCH   4   5
ENDBRANCH   3   4
ENDBRANCH   2   3
ENDBRANCH   1   2
BRANCH   1  27
ATOM     27  O   UNL A   1      34.911  23.111  25.359  1.00  0.00    -0.377 OA
BRANCH  27  28
ATOM     28  C   UNL A   1      35.364  21.988  24.634  1.00  0.00     0.188 C 
BRANCH  28  29
ATOM     29  C   UNL A   1      36.887  21.741  24.689  1.00  0.00     0.188 C 
BRANCH  29  30
ATOM     30  O   UNL A   1      37.742  22.484  25.553  1.00  0.00    -0.376 OA
BRANCH  30  31
ATOM     31  C   UNL A   1      38.913  21.910  26.119  1.00  0.00     0.202 C 
BRANCH  31  32
ATOM     32  C   UNL A   1      39.364  20.523  25.655  1.00  0.00     0.261 C 
BRANCH  32  33
ATOM     33  O   UNL A   1      40.242  19.870  26.582  1.00  0.00    -0.460 OA
BRANCH  33  34
ATOM     34  C   UNL A   1      41.527  19.746  26.165  1.00  0.00     0.338 C 
ATOM     35  O   UNL A   1      41.996  18.880  25.462  1.00  0.00    -0.246 OA
BRANCH  34  36
ATOM     36  C   UNL A   1      42.274  20.970  26.528  1.00  0.00     0.060 A 
ATOM     37  C   UNL A   1      42.358  21.282  27.894  1.00  0.00     0.016 A 
ATOM     38  C   UNL A   1      42.897  21.779  25.573  1.00  0.00     0.016 A 
ATOM     39  C   UNL A   1      43.020  22.433  28.307  1.00  0.00     0.010 A 
ATOM     40  C   UNL A   1      43.526  22.958  25.984  1.00  0.00     0.010 A 
ATOM     41  C   UNL A   1      43.540  23.309  27.346  1.00  0.00    -0.014 A 
BRANCH  41  42
ATOM     42  C   UNL A   1      43.777  24.711  27.758  1.00  0.00     0.031 A 
ATOM     43  C   UNL A   1      45.206  25.187  27.758  1.00  0.00     0.074 A 
ATOM     44  C   UNL A   1      42.770  25.556  28.031  1.00  0.00     0.049 A 
ATOM     45  N   UNL A   1      45.693  26.371  28.021  1.00  0.00    -0.248 NA
ATOM     46  C   UNL A   1      46.225  24.185  27.398  1.00  0.00     0.031 C 
ATOM     47  C   UNL A   1      41.349  25.218  28.007  1.00  0.00     0.029 A 
ATOM     48  N   UNL A   1      42.798  26.883  28.375  1.00  0.00    -0.354 N 
ATOM     49  C   UNL A   1      47.065  26.257  27.840  1.00  0.00     0.074 A 
ATOM     50  C   UNL A   1      47.344  24.884  27.490  1.00  0.00     0.031 C 
ATOM     51  C   UNL A   1      40.638  26.312  28.337  1.00  0.00     0.029 A 
ATOM     52  C   UNL A   1      41.556  27.417  28.611  1.00  0.00     0.049 A 
ATOM     53  H   UNL A   1      43.631  27.403  28.447  1.00  0.00     0.167 HD
ATOM     54  C   UNL A   1      48.012  27.218  27.943  1.00  0.00     0.037 A 
ATOM     55  C   UNL A   1      41.213  28.657  29.012  1.00  0.00     0.037 A 
ATOM     56  C   UNL A   1      47.736  28.575  28.322  1.00  0.00     0.049 A 
ATOM     57  C   UNL A   1      42.299  29.688  29.209  1.00  0.00     0.074 A 
ATOM     58  C   UNL A   1      48.622  29.621  28.497  1.00  0.00     0.029 A 
ATOM     59  N   UNL A   1      46.468  29.069  28.591  1.00  0.00    -0.354 N 
ATOM     60  N   UNL A   1      43.594  29.578  29.027  1.00  0.00    -0.248 NA
ATOM     61  C   UNL A   1      41.871  31.021  29.658  1.00  0.00     0.031 C 
ATOM     62  C   UNL A   1      47.894  30.740  28.915  1.00  0.00     0.029 A 
ATOM     63  C   UNL A   1      46.549  30.405  28.944  1.00  0.00     0.049 A 
ATOM     64  H   UNL A   1      45.635  28.547  28.539  1.00  0.00     0.167 HD
ATOM     65  C   UNL A   1      44.128  30.831  29.301  1.00  0.00     0.074 A 
ATOM     66  C   UNL A   1      43.015  31.690  29.650  1.00  0.00     0.031 C 
ATOM     67  C   UNL A   1      45.421  31.240  29.269  1.00  0.00     0.037 A 
BRANCH  54  68
ATOM     68  C   UNL A   1      49.430  26.813  27.667  1.00  0.00     0.064 A 
ATOM     69  C   UNL A   1      49.943  26.785  26.362  1.00  0.00     0.173 A 
ATOM     70  C   UNL A   1      50.283  26.447  28.718  1.00  0.00     0.173 A 
ATOM     71  F   UNL A   1      49.159  27.099  25.320  1.00  0.00    -0.203 F 
ATOM     72  C   UNL A   1      51.254  26.383  26.117  1.00  0.00     0.198 A 
ATOM     73  C   UNL A   1      51.601  26.074  28.472  1.00  0.00     0.198 A 
ATOM     74  F   UNL A   1      49.838  26.451  29.983  1.00  0.00    -0.203 F 
ATOM     75  F   UNL A   1      51.708  26.313  24.858  1.00  0.00    -0.200 F 
ATOM     76  C   UNL A   1      52.084  26.034  27.172  1.00  0.00     0.200 A 
ATOM     77  F   UNL A   1      52.403  25.744  29.494  1.00  0.00    -0.200 F 
ATOM     78  F   UNL A   1      53.346  25.650  26.936  1.00  0.00    -0.200 F 
ENDBRANCH  54  68
BRANCH  55  79
ATOM     79  C   UNL A   1      39.789  28.999  29.268  1.00  0.00     0.064 A 
ATOM     80  C   UNL A   1      39.191  28.749  30.512  1.00  0.00     0.173 A 
ATOM     81  C   UNL A   1      38.982  29.538  28.255  1.00  0.00     0.173 A 
ATOM     82  F   UNL A   1      39.913  28.211  31.506  1.00  0.00    -0.203 F 
ATOM     83  C   UNL A   1      37.835  28.998  30.723  1.00  0.00     0.198 A 
ATOM     84  C   UNL A   1      37.633  29.814  28.476  1.00  0.00     0.198 A 
ATOM     85  F   UNL A   1      39.502  29.794  27.046  1.00  0.00    -0.203 F 
ATOM     86  F   UNL A   1      37.277  28.694  31.902  1.00  0.00    -0.200 F 
ATOM     87  C   UNL A   1      37.059  29.533  29.706  1.00  0.00     0.200 A 
ATOM     88  F   UNL A   1      36.890  30.342  27.494  1.00  0.00    -0.200 F 
ATOM     89  F   UNL A   1      35.755  29.767  29.907  1.00  0.00    -0.200 F 
ENDBRANCH  55  79
BRANCH  67  90
ATOM     90  C   UNL A   1      45.693  32.686  29.565  1.00  0.00     0.064 A 
ATOM     91  C   UNL A   1      45.698  33.660  28.556  1.00  0.00     0.173 A 
ATOM     92  C   UNL A   1      45.918  33.106  30.886  1.00  0.00     0.173 A 
ATOM     93  F   UNL A   1      45.500  33.308  27.277  1.00  0.00    -0.203 F 
ATOM     94  C   UNL A   1      45.955  34.996  28.854  1.00  0.00     0.198 A 
ATOM     95  C   UNL A   1      46.141  34.447  31.184  1.00  0.00     0.198 A 
ATOM     96  F   UNL A   1      45.912  32.216  31.889  1.00  0.00    -0.203 F 
ATOM     97  F   UNL A   1      46.012  35.901  27.866  1.00  0.00    -0.200 F 
ATOM     98  C   UNL A   1      46.170  35.389  30.167  1.00  0.00     0.200 A 
ATOM     99  F   UNL A   1      46.332  34.826  32.454  1.00  0.00    -0.200 F 
ATOM    100  F   UNL A   1      46.414  36.676  30.452  1.00  0.00    -0.200 F 
ENDBRANCH  67  90
ENDBRANCH  41  42
ENDBRANCH  34  36
ENDBRANCH  33  34
ENDBRANCH  32  33
ENDBRANCH  31  32
ENDBRANCH  30  31
ENDBRANCH  29  30
ENDBRANCH  28  29
ENDBRANCH  27  28
ENDBRANCH   1  27
TORSDOF 24
ENDMDL
