MODEL 1
REMARK VINA RESULT:     -10.8      0.000      0.000
REMARK SMILES Cc1cccc(Nc2ccccc2C(=O)OCCOCCOCCOCCOC(=O)c2ccc(-c3c4nc(c(-c5c(F)c(F)c(F)c(F)c5F)c5ccc([nH]5)c(-c5c(F)c(F)c(F)c(F)c5F)c5nc(c(-c6c(F)c(F)c(F)c(F)c6F)c6ccc3[nH]6)C=C5)C=C4)cc2)c1C
REMARK SMILES IDX 22 1 21 2 20 3 19 4 18 5 17 6 16 7 14 8 15 9 13 10 8 11 9 12
REMARK SMILES IDX 10 13 12 14 11 15 7 16 6 18 1 19 2 20 3 21 94 22 4 23 95 24
REMARK SMILES IDX 5 25 23 26 24 27 25 28 26 29 27 30 28 31 29 32 30 33 31 34
REMARK SMILES IDX 32 35 93 36 33 37 92 38 34 39 35 40 36 41 86 42 37 43 91 44
REMARK SMILES IDX 85 45 87 46 38 47 90 48 84 49 83 50 39 52 71 53 51 54 70 55
REMARK SMILES IDX 52 56 55 57 69 58 88 59 53 60 54 61 68 63 89 64 56 65 40 66
REMARK SMILES IDX 41 67 49 68 42 69 43 70 47 71 50 72 44 73 45 74 48 75 46 76
REMARK SMILES IDX 72 77 73 78 81 79 74 80 75 81 79 82 82 83 76 84 77 85 80 86
REMARK SMILES IDX 78 87 57 88 58 89 66 90 59 91 60 92 64 93 67 94 61 95 62 96
REMARK SMILES IDX 65 97 63 98
REMARK H PARENT 7 17 87 51 55 62
REMARK Flexibility Score: inf
ROOT
ATOM      1  O   UNL A   1      32.074  26.902  22.939  1.00  0.00    -0.377 OA
ENDROOT
BRANCH   1   2
ATOM      2  C   UNL A   1      31.751  26.118  21.797  1.00  0.00     0.188 C 
BRANCH   2   3
ATOM      3  C   UNL A   1      32.859  25.523  20.892  1.00  0.00     0.188 C 
BRANCH   3   4
ATOM      4  O   UNL A   1      33.158  24.162  21.129  1.00  0.00    -0.376 OA
BRANCH   4   5
ATOM      5  C   UNL A   1      33.180  23.649  22.445  1.00  0.00     0.202 C 
BRANCH   5   6
ATOM      6  C   UNL A   1      31.981  22.893  23.024  1.00  0.00     0.261 C 
BRANCH   6   7
ATOM      7  O   UNL A   1      32.059  21.470  22.995  1.00  0.00    -0.460 OA
BRANCH   7   8
ATOM      8  C   UNL A   1      32.177  20.851  24.188  1.00  0.00     0.340 C 
ATOM      9  O   UNL A   1      31.606  21.175  25.219  1.00  0.00    -0.246 OA
BRANCH   8  10
ATOM     10  C   UNL A   1      32.941  19.582  24.038  1.00  0.00     0.083 A 
ATOM     11  C   UNL A   1      34.190  19.303  24.635  1.00  0.00     0.053 A 
ATOM     12  C   UNL A   1      34.794  18.066  24.325  1.00  0.00     0.027 A 
ATOM     13  C   UNL A   1      34.191  17.142  23.465  1.00  0.00     0.002 A 
ATOM     14  C   UNL A   1      32.342  18.645  23.171  1.00  0.00     0.018 A 
ATOM     15  C   UNL A   1      32.964  17.433  22.886  1.00  0.00     0.001 A 
BRANCH  11  16
ATOM     16  N   UNL A   1      34.863  20.091  25.598  1.00  0.00    -0.355 N 
ATOM     17  H   UNL A   1      34.772  19.761  26.521  1.00  0.00     0.167 HD
BRANCH  16  18
ATOM     18  C   UNL A   1      35.639  21.262  25.482  1.00  0.00     0.042 A 
ATOM     19  C   UNL A   1      39.239  22.410  25.963  1.00  0.00     0.044 C 
ATOM     20  C   UNL A   1      37.760  22.443  25.679  1.00  0.00    -0.046 A 
ATOM     21  C   UNL A   1      37.065  23.652  25.828  1.00  0.00     0.004 A 
ATOM     22  C   UNL A   1      37.048  21.255  25.390  1.00  0.00    -0.025 A 
ATOM     23  C   UNL A   1      35.678  23.686  25.748  1.00  0.00     0.002 A 
ATOM     24  C   UNL A   1      37.801  20.008  24.993  1.00  0.00     0.047 C 
ATOM     25  C   UNL A   1      34.971  22.493  25.616  1.00  0.00     0.026 A 
ENDBRANCH  16  18
ENDBRANCH  11  16
ENDBRANCH   8  10
ENDBRANCH   7   8
ENDBRANCH   6   7
ENDBRANCH   5   6
ENDBRANCH   4   5
ENDBRANCH   3   4
ENDBRANCH   2   3
ENDBRANCH   1   2
BRANCH   1  26
ATOM     26  C   UNL A   1      31.433  26.658  24.184  1.00  0.00     0.188 C 
BRANCH  26  27
ATOM     27  C   UNL A   1      31.573  27.651  25.360  1.00  0.00     0.188 C 
BRANCH  27  28
ATOM     28  O   UNL A   1      31.230  28.989  25.048  1.00  0.00    -0.376 OA
BRANCH  28  29
ATOM     29  C   UNL A   1      31.834  30.032  25.788  1.00  0.00     0.202 C 
BRANCH  29  30
ATOM     30  C   UNL A   1      33.311  29.885  26.179  1.00  0.00     0.261 C 
BRANCH  30  31
ATOM     31  O   UNL A   1      33.614  29.967  27.580  1.00  0.00    -0.460 OA
BRANCH  31  32
ATOM     32  C   UNL A   1      34.473  30.928  27.976  1.00  0.00     0.338 C 
ATOM     33  O   UNL A   1      34.220  32.096  28.224  1.00  0.00    -0.246 OA
BRANCH  32  34
ATOM     34  C   UNL A   1      35.767  30.274  28.245  1.00  0.00     0.060 A 
ATOM     35  C   UNL A   1      36.011  29.728  29.513  1.00  0.00     0.016 A 
ATOM     36  C   UNL A   1      36.729  30.186  27.236  1.00  0.00     0.016 A 
ATOM     37  C   UNL A   1      37.235  29.119  29.784  1.00  0.00     0.010 A 
ATOM     38  C   UNL A   1      37.963  29.601  27.518  1.00  0.00     0.010 A 
ATOM     39  C   UNL A   1      38.232  29.097  28.803  1.00  0.00    -0.014 A 
BRANCH  39  40
ATOM     40  C   UNL A   1      39.621  28.747  29.179  1.00  0.00     0.031 A 
ATOM     41  C   UNL A   1      40.396  29.728  30.012  1.00  0.00     0.074 A 
ATOM     42  C   UNL A   1      40.179  27.587  28.798  1.00  0.00     0.049 A 
ATOM     43  N   UNL A   1      41.639  29.684  30.413  1.00  0.00    -0.248 NA
ATOM     44  C   UNL A   1      39.663  30.929  30.445  1.00  0.00     0.031 C 
ATOM     45  C   UNL A   1      39.514  26.544  28.023  1.00  0.00     0.029 A 
ATOM     46  N   UNL A   1      41.448  27.104  29.003  1.00  0.00    -0.354 N 
ATOM     47  C   UNL A   1      41.843  30.856  31.129  1.00  0.00     0.074 A 
ATOM     48  C   UNL A   1      40.606  31.603  31.083  1.00  0.00     0.031 C 
ATOM     49  C   UNL A   1      40.389  25.548  27.797  1.00  0.00     0.029 A 
ATOM     50  C   UNL A   1      41.683  25.905  28.380  1.00  0.00     0.049 A 
ATOM     51  H   UNL A   1      42.123  27.574  29.543  1.00  0.00     0.167 HD
ATOM     52  C   UNL A   1      42.962  31.268  31.770  1.00  0.00     0.037 A 
ATOM     53  C   UNL A   1      42.823  25.196  28.268  1.00  0.00     0.037 A 
ATOM     54  C   UNL A   1      44.190  30.518  31.805  1.00  0.00     0.049 A 
ATOM     55  C   UNL A   1      44.077  25.703  28.933  1.00  0.00     0.074 A 
ATOM     56  C   UNL A   1      45.371  30.826  32.456  1.00  0.00     0.029 A 
ATOM     57  N   UNL A   1      44.401  29.317  31.142  1.00  0.00    -0.354 N 
ATOM     58  N   UNL A   1      44.258  26.792  29.641  1.00  0.00    -0.248 NA
ATOM     59  C   UNL A   1      45.286  24.880  28.785  1.00  0.00     0.031 C 
ATOM     60  C   UNL A   1      46.318  29.851  32.126  1.00  0.00     0.029 A 
ATOM     61  C   UNL A   1      45.706  28.892  31.333  1.00  0.00     0.049 A 
ATOM     62  H   UNL A   1      43.723  28.837  30.614  1.00  0.00     0.167 HD
ATOM     63  C   UNL A   1      45.588  26.774  30.044  1.00  0.00     0.074 A 
ATOM     64  C   UNL A   1      46.165  25.557  29.511  1.00  0.00     0.031 C 
ATOM     65  C   UNL A   1      46.269  27.680  30.790  1.00  0.00     0.037 A 
BRANCH  52  66
ATOM     66  C   UNL A   1      42.919  32.615  32.435  1.00  0.00     0.064 A 
ATOM     67  C   UNL A   1      43.268  33.794  31.759  1.00  0.00     0.173 A 
ATOM     68  C   UNL A   1      42.522  32.724  33.776  1.00  0.00     0.173 A 
ATOM     69  F   UNL A   1      43.670  33.746  30.480  1.00  0.00    -0.203 F 
ATOM     70  C   UNL A   1      43.265  35.024  32.414  1.00  0.00     0.198 A 
ATOM     71  C   UNL A   1      42.483  33.959  34.416  1.00  0.00     0.198 A 
ATOM     72  F   UNL A   1      42.174  31.630  34.472  1.00  0.00    -0.203 F 
ATOM     73  F   UNL A   1      43.670  36.126  31.767  1.00  0.00    -0.200 F 
ATOM     74  C   UNL A   1      42.866  35.107  33.739  1.00  0.00     0.200 A 
ATOM     75  F   UNL A   1      42.083  34.038  35.694  1.00  0.00    -0.200 F 
ATOM     76  F   UNL A   1      42.863  36.291  34.368  1.00  0.00    -0.200 F 
ENDBRANCH  52  66
BRANCH  53  77
ATOM     77  C   UNL A   1      42.827  23.937  27.477  1.00  0.00     0.064 A 
ATOM     78  C   UNL A   1      43.178  23.930  26.122  1.00  0.00     0.173 A 
ATOM     79  C   UNL A   1      42.490  22.710  28.070  1.00  0.00     0.173 A 
ATOM     80  F   UNL A   1      43.483  25.080  25.504  1.00  0.00    -0.203 F 
ATOM     81  C   UNL A   1      43.188  22.746  25.387  1.00  0.00     0.198 A 
ATOM     82  C   UNL A   1      42.528  21.523  27.342  1.00  0.00     0.198 A 
ATOM     83  F   UNL A   1      42.143  22.661  29.364  1.00  0.00    -0.203 F 
ATOM     84  F   UNL A   1      43.494  22.773  24.082  1.00  0.00    -0.200 F 
ATOM     85  C   UNL A   1      42.872  21.542  26.000  1.00  0.00     0.200 A 
ATOM     86  F   UNL A   1      42.237  20.362  27.943  1.00  0.00    -0.200 F 
ATOM     87  F   UNL A   1      42.897  20.403  25.295  1.00  0.00    -0.200 F 
ENDBRANCH  53  77
BRANCH  65  88
ATOM     88  C   UNL A   1      47.709  27.380  31.103  1.00  0.00     0.064 A 
ATOM     89  C   UNL A   1      48.760  27.922  30.348  1.00  0.00     0.173 A 
ATOM     90  C   UNL A   1      48.043  26.579  32.207  1.00  0.00     0.173 A 
ATOM     91  F   UNL A   1      48.498  28.685  29.276  1.00  0.00    -0.203 F 
ATOM     92  C   UNL A   1      50.088  27.647  30.667  1.00  0.00     0.198 A 
ATOM     93  C   UNL A   1      49.372  26.337  32.544  1.00  0.00     0.198 A 
ATOM     94  F   UNL A   1      47.079  26.043  32.970  1.00  0.00    -0.203 F 
ATOM     95  F   UNL A   1      51.074  28.133  29.898  1.00  0.00    -0.200 F 
ATOM     96  C   UNL A   1      50.393  26.864  31.769  1.00  0.00     0.200 A 
ATOM     97  F   UNL A   1      49.663  25.595  33.622  1.00  0.00    -0.200 F 
ATOM     98  F   UNL A   1      51.672  26.610  32.081  1.00  0.00    -0.200 F 
ENDBRANCH  65  88
ENDBRANCH  39  40
ENDBRANCH  32  34
ENDBRANCH  31  32
ENDBRANCH  30  31
ENDBRANCH  29  30
ENDBRANCH  28  29
ENDBRANCH  27  28
ENDBRANCH  26  27
ENDBRANCH   1  26
TORSDOF 22
ENDMDL
MODEL 2
REMARK VINA RESULT:     -10.6      2.928      4.109
REMARK SMILES Cc1cccc(Nc2ccccc2C(=O)OCCOCCOCCOCCOC(=O)c2ccc(-c3c4nc(c(-c5c(F)c(F)c(F)c(F)c5F)c5ccc([nH]5)c(-c5c(F)c(F)c(F)c(F)c5F)c5nc(c(-c6c(F)c(F)c(F)c(F)c6F)c6ccc3[nH]6)C=C5)C=C4)cc2)c1C
REMARK SMILES IDX 22 1 21 2 20 3 19 4 18 5 17 6 16 7 14 8 15 9 13 10 8 11 9 12
REMARK SMILES IDX 10 13 12 14 11 15 7 16 6 18 1 19 2 20 3 21 94 22 4 23 95 24
REMARK SMILES IDX 5 25 23 26 24 27 25 28 26 29 27 30 28 31 29 32 30 33 31 34
REMARK SMILES IDX 32 35 93 36 33 37 92 38 34 39 35 40 36 41 86 42 37 43 91 44
REMARK SMILES IDX 85 45 87 46 38 47 90 48 84 49 83 50 39 52 71 53 51 54 70 55
REMARK SMILES IDX 52 56 55 57 69 58 88 59 53 60 54 61 68 63 89 64 56 65 40 66
REMARK SMILES IDX 41 67 49 68 42 69 43 70 47 71 50 72 44 73 45 74 48 75 46 76
REMARK SMILES IDX 72 77 73 78 81 79 74 80 75 81 79 82 82 83 76 84 77 85 80 86
REMARK SMILES IDX 78 87 57 88 58 89 66 90 59 91 60 92 64 93 67 94 61 95 62 96
REMARK SMILES IDX 65 97 63 98
REMARK H PARENT 7 17 87 51 55 62
REMARK Flexibility Score: inf
ROOT
ATOM      1  O   UNL A   1      32.369  27.783  23.782  1.00  0.00    -0.377 OA
ENDROOT
BRANCH   1   2
ATOM      2  C   UNL A   1      32.095  26.663  24.615  1.00  0.00     0.188 C 
BRANCH   2   3
ATOM      3  C   UNL A   1      33.217  25.678  25.031  1.00  0.00     0.188 C 
BRANCH   3   4
ATOM      4  O   UNL A   1      32.981  24.979  26.237  1.00  0.00    -0.376 OA
BRANCH   4   5
ATOM      5  C   UNL A   1      31.691  24.494  26.547  1.00  0.00     0.202 C 
BRANCH   5   6
ATOM      6  C   UNL A   1      31.461  23.026  26.918  1.00  0.00     0.261 C 
BRANCH   6   7
ATOM      7  O   UNL A   1      32.530  22.128  26.628  1.00  0.00    -0.460 OA
BRANCH   7   8
ATOM      8  C   UNL A   1      32.410  21.396  25.501  1.00  0.00     0.340 C 
ATOM      9  O   UNL A   1      31.693  20.416  25.361  1.00  0.00    -0.246 OA
BRANCH   8  10
ATOM     10  C   UNL A   1      33.114  22.065  24.373  1.00  0.00     0.083 A 
ATOM     11  C   UNL A   1      34.498  22.344  24.322  1.00  0.00     0.053 A 
ATOM     12  C   UNL A   1      34.975  23.045  23.195  1.00  0.00     0.027 A 
ATOM     13  C   UNL A   1      34.127  23.451  22.160  1.00  0.00     0.002 A 
ATOM     14  C   UNL A   1      32.266  22.480  23.325  1.00  0.00     0.018 A 
ATOM     15  C   UNL A   1      32.769  23.169  22.226  1.00  0.00     0.001 A 
BRANCH  11  16
ATOM     16  N   UNL A   1      35.484  21.908  25.238  1.00  0.00    -0.355 N 
ATOM     17  H   UNL A   1      35.208  21.138  25.787  1.00  0.00     0.167 HD
BRANCH  16  18
ATOM     18  C   UNL A   1      36.787  22.371  25.511  1.00  0.00     0.042 A 
ATOM     19  C   UNL A   1      40.199  20.998  26.500  1.00  0.00     0.044 C 
ATOM     20  C   UNL A   1      39.100  21.970  26.159  1.00  0.00    -0.046 A 
ATOM     21  C   UNL A   1      39.194  23.292  26.617  1.00  0.00     0.004 A 
ATOM     22  C   UNL A   1      37.927  21.538  25.497  1.00  0.00    -0.025 A 
ATOM     23  C   UNL A   1      38.123  24.167  26.476  1.00  0.00     0.002 A 
ATOM     24  C   UNL A   1      37.912  20.202  24.794  1.00  0.00     0.047 C 
ATOM     25  C   UNL A   1      36.917  23.696  25.963  1.00  0.00     0.026 A 
ENDBRANCH  16  18
ENDBRANCH  11  16
ENDBRANCH   8  10
ENDBRANCH   7   8
ENDBRANCH   6   7
ENDBRANCH   5   6
ENDBRANCH   4   5
ENDBRANCH   3   4
ENDBRANCH   2   3
ENDBRANCH   1   2
BRANCH   1  26
ATOM     26  C   UNL A   1      32.573  29.070  24.351  1.00  0.00     0.188 C 
BRANCH  26  27
ATOM     27  C   UNL A   1      31.729  29.551  25.554  1.00  0.00     0.188 C 
BRANCH  27  28
ATOM     28  O   UNL A   1      31.437  30.936  25.555  1.00  0.00    -0.376 OA
BRANCH  28  29
ATOM     29  C   UNL A   1      31.415  31.621  26.792  1.00  0.00     0.202 C 
BRANCH  29  30
ATOM     30  C   UNL A   1      32.179  32.948  26.903  1.00  0.00     0.261 C 
BRANCH  30  31
ATOM     31  O   UNL A   1      33.020  33.107  28.055  1.00  0.00    -0.460 OA
BRANCH  31  32
ATOM     32  C   UNL A   1      34.144  33.838  27.909  1.00  0.00     0.338 C 
ATOM     33  O   UNL A   1      34.230  35.021  27.618  1.00  0.00    -0.246 OA
BRANCH  32  34
ATOM     34  C   UNL A   1      35.273  32.998  28.349  1.00  0.00     0.060 A 
ATOM     35  C   UNL A   1      35.032  31.674  28.742  1.00  0.00     0.016 A 
ATOM     36  C   UNL A   1      36.570  33.516  28.354  1.00  0.00     0.016 A 
ATOM     37  C   UNL A   1      36.088  30.873  29.172  1.00  0.00     0.010 A 
ATOM     38  C   UNL A   1      37.621  32.722  28.811  1.00  0.00     0.010 A 
ATOM     39  C   UNL A   1      37.378  31.409  29.255  1.00  0.00    -0.014 A 
BRANCH  39  40
ATOM     40  C   UNL A   1      38.428  30.680  30.002  1.00  0.00     0.031 A 
ATOM     41  C   UNL A   1      38.600  30.988  31.462  1.00  0.00     0.074 A 
ATOM     42  C   UNL A   1      39.205  29.763  29.404  1.00  0.00     0.049 A 
ATOM     43  N   UNL A   1      39.483  30.536  32.313  1.00  0.00    -0.248 NA
ATOM     44  C   UNL A   1      37.642  31.947  32.037  1.00  0.00     0.031 C 
ATOM     45  C   UNL A   1      39.106  29.353  28.006  1.00  0.00     0.029 A 
ATOM     46  N   UNL A   1      40.247  29.022  29.904  1.00  0.00    -0.354 N 
ATOM     47  C   UNL A   1      39.200  31.167  33.517  1.00  0.00     0.074 A 
ATOM     48  C   UNL A   1      38.083  32.054  33.280  1.00  0.00     0.031 C 
ATOM     49  C   UNL A   1      40.066  28.447  27.751  1.00  0.00     0.029 A 
ATOM     50  C   UNL A   1      40.866  28.245  28.959  1.00  0.00     0.049 A 
ATOM     51  H   UNL A   1      40.523  29.048  30.848  1.00  0.00     0.167 HD
ATOM     52  C   UNL A   1      39.816  31.015  34.713  1.00  0.00     0.037 A 
ATOM     53  C   UNL A   1      41.974  27.483  29.055  1.00  0.00     0.037 A 
ATOM     54  C   UNL A   1      40.931  30.133  34.937  1.00  0.00     0.049 A 
ATOM     55  C   UNL A   1      42.686  27.378  30.378  1.00  0.00     0.074 A 
ATOM     56  C   UNL A   1      41.605  29.876  36.116  1.00  0.00     0.029 A 
ATOM     57  N   UNL A   1      41.549  29.377  33.949  1.00  0.00    -0.354 N 
ATOM     58  N   UNL A   1      42.395  27.945  31.524  1.00  0.00    -0.248 NA
ATOM     59  C   UNL A   1      43.881  26.523  30.423  1.00  0.00     0.031 C 
ATOM     60  C   UNL A   1      42.676  29.024  35.830  1.00  0.00     0.029 A 
ATOM     61  C   UNL A   1      42.624  28.686  34.485  1.00  0.00     0.049 A 
ATOM     62  H   UNL A   1      41.266  29.338  33.008  1.00  0.00     0.167 HD
ATOM     63  C   UNL A   1      43.350  27.499  32.430  1.00  0.00     0.074 A 
ATOM     64  C   UNL A   1      44.224  26.601  31.702  1.00  0.00     0.031 C 
ATOM     65  C   UNL A   1      43.490  27.801  33.745  1.00  0.00     0.037 A 
BRANCH  52  66
ATOM     66  C   UNL A   1      39.328  31.865  35.852  1.00  0.00     0.064 A 
ATOM     67  C   UNL A   1      38.374  31.405  36.773  1.00  0.00     0.173 A 
ATOM     68  C   UNL A   1      39.824  33.166  36.022  1.00  0.00     0.173 A 
ATOM     69  F   UNL A   1      37.854  30.174  36.648  1.00  0.00    -0.203 F 
ATOM     70  C   UNL A   1      37.902  32.230  37.791  1.00  0.00     0.198 A 
ATOM     71  C   UNL A   1      39.380  33.975  37.064  1.00  0.00     0.198 A 
ATOM     72  F   UNL A   1      40.740  33.658  35.174  1.00  0.00    -0.203 F 
ATOM     73  F   UNL A   1      36.940  31.793  38.615  1.00  0.00    -0.200 F 
ATOM     74  C   UNL A   1      38.411  33.512  37.940  1.00  0.00     0.200 A 
ATOM     75  F   UNL A   1      39.883  35.209  37.214  1.00  0.00    -0.200 F 
ATOM     76  F   UNL A   1      37.957  34.305  38.920  1.00  0.00    -0.200 F 
ENDBRANCH  52  66
BRANCH  53  77
ATOM     77  C   UNL A   1      42.481  26.776  27.849  1.00  0.00     0.064 A 
ATOM     78  C   UNL A   1      43.281  27.430  26.904  1.00  0.00     0.173 A 
ATOM     79  C   UNL A   1      42.185  25.421  27.628  1.00  0.00     0.173 A 
ATOM     80  F   UNL A   1      43.570  28.730  27.058  1.00  0.00    -0.203 F 
ATOM     81  C   UNL A   1      43.760  26.760  25.780  1.00  0.00     0.198 A 
ATOM     82  C   UNL A   1      42.689  24.745  26.519  1.00  0.00     0.198 A 
ATOM     83  F   UNL A   1      41.422  24.749  28.500  1.00  0.00    -0.203 F 
ATOM     84  F   UNL A   1      44.495  27.420  24.873  1.00  0.00    -0.200 F 
ATOM     85  C   UNL A   1      43.473  25.416  25.593  1.00  0.00     0.200 A 
ATOM     86  F   UNL A   1      42.421  23.444  26.352  1.00  0.00    -0.200 F 
ATOM     87  F   UNL A   1      43.948  24.770  24.520  1.00  0.00    -0.200 F 
ENDBRANCH  53  77
BRANCH  65  88
ATOM     88  C   UNL A   1      44.610  27.135  34.496  1.00  0.00     0.064 A 
ATOM     89  C   UNL A   1      45.856  27.756  34.672  1.00  0.00     0.173 A 
ATOM     90  C   UNL A   1      44.417  25.878  35.090  1.00  0.00     0.173 A 
ATOM     91  F   UNL A   1      46.099  28.953  34.116  1.00  0.00    -0.203 F 
ATOM     92  C   UNL A   1      46.875  27.130  35.387  1.00  0.00     0.198 A 
ATOM     93  C   UNL A   1      45.425  25.272  35.836  1.00  0.00     0.198 A 
ATOM     94  F   UNL A   1      43.243  25.243  34.963  1.00  0.00    -0.203 F 
ATOM     95  F   UNL A   1      48.074  27.720  35.497  1.00  0.00    -0.200 F 
ATOM     96  C   UNL A   1      46.655  25.894  35.976  1.00  0.00     0.200 A 
ATOM     97  F   UNL A   1      45.203  24.086  36.420  1.00  0.00    -0.200 F 
ATOM     98  F   UNL A   1      47.633  25.299  36.674  1.00  0.00    -0.200 F 
ENDBRANCH  65  88
ENDBRANCH  39  40
ENDBRANCH  32  34
ENDBRANCH  31  32
ENDBRANCH  30  31
ENDBRANCH  29  30
ENDBRANCH  28  29
ENDBRANCH  27  28
ENDBRANCH  26  27
ENDBRANCH   1  26
TORSDOF 22
ENDMDL
MODEL 3
REMARK VINA RESULT:     -10.5      0.690      2.002
REMARK SMILES Cc1cccc(Nc2ccccc2C(=O)OCCOCCOCCOCCOC(=O)c2ccc(-c3c4nc(c(-c5c(F)c(F)c(F)c(F)c5F)c5ccc([nH]5)c(-c5c(F)c(F)c(F)c(F)c5F)c5nc(c(-c6c(F)c(F)c(F)c(F)c6F)c6ccc3[nH]6)C=C5)C=C4)cc2)c1C
REMARK SMILES IDX 22 1 21 2 20 3 19 4 18 5 17 6 16 7 14 8 15 9 13 10 8 11 9 12
REMARK SMILES IDX 10 13 12 14 11 15 7 16 6 18 1 19 2 20 3 21 94 22 4 23 95 24
REMARK SMILES IDX 5 25 23 26 24 27 25 28 26 29 27 30 28 31 29 32 30 33 31 34
REMARK SMILES IDX 32 35 93 36 33 37 92 38 34 39 35 40 36 41 86 42 37 43 91 44
REMARK SMILES IDX 85 45 87 46 38 47 90 48 84 49 83 50 39 52 71 53 51 54 70 55
REMARK SMILES IDX 52 56 55 57 69 58 88 59 53 60 54 61 68 63 89 64 56 65 40 66
REMARK SMILES IDX 41 67 49 68 42 69 43 70 47 71 50 72 44 73 45 74 48 75 46 76
REMARK SMILES IDX 72 77 73 78 81 79 74 80 75 81 79 82 82 83 76 84 77 85 80 86
REMARK SMILES IDX 78 87 57 88 58 89 66 90 59 91 60 92 64 93 67 94 61 95 62 96
REMARK SMILES IDX 65 97 63 98
REMARK H PARENT 7 17 87 51 55 62
REMARK Flexibility Score: inf
ROOT
ATOM      1  O   UNL A   1      32.014  26.731  23.884  1.00  0.00    -0.377 OA
ENDROOT
BRANCH   1   2
ATOM      2  C   UNL A   1      31.543  26.170  22.665  1.00  0.00     0.188 C 
BRANCH   2   3
ATOM      3  C   UNL A   1      32.524  25.761  21.537  1.00  0.00     0.188 C 
BRANCH   3   4
ATOM      4  O   UNL A   1      33.643  25.009  21.962  1.00  0.00    -0.376 OA
BRANCH   4   5
ATOM      5  C   UNL A   1      33.474  23.844  22.742  1.00  0.00     0.202 C 
BRANCH   5   6
ATOM      6  C   UNL A   1      32.150  23.075  22.745  1.00  0.00     0.261 C 
BRANCH   6   7
ATOM      7  O   UNL A   1      32.249  21.652  22.777  1.00  0.00    -0.460 OA
BRANCH   7   8
ATOM      8  C   UNL A   1      32.268  21.080  23.999  1.00  0.00     0.340 C 
ATOM      9  O   UNL A   1      31.680  21.491  24.988  1.00  0.00    -0.246 OA
BRANCH   8  10
ATOM     10  C   UNL A   1      32.939  19.752  23.936  1.00  0.00     0.083 A 
ATOM     11  C   UNL A   1      34.119  19.398  24.626  1.00  0.00     0.053 A 
ATOM     12  C   UNL A   1      34.644  18.110  24.391  1.00  0.00     0.027 A 
ATOM     13  C   UNL A   1      34.030  17.208  23.516  1.00  0.00     0.002 A 
ATOM     14  C   UNL A   1      32.328  18.837  23.054  1.00  0.00     0.018 A 
ATOM     15  C   UNL A   1      32.871  17.572  22.845  1.00  0.00     0.001 A 
BRANCH  11  16
ATOM     16  N   UNL A   1      34.785  20.163  25.612  1.00  0.00    -0.355 N 
ATOM     17  H   UNL A   1      34.653  19.834  26.531  1.00  0.00     0.167 HD
BRANCH  16  18
ATOM     18  C   UNL A   1      35.603  21.308  25.524  1.00  0.00     0.042 A 
ATOM     19  C   UNL A   1      39.241  22.315  26.030  1.00  0.00     0.044 C 
ATOM     20  C   UNL A   1      37.764  22.407  25.749  1.00  0.00    -0.046 A 
ATOM     21  C   UNL A   1      37.113  23.637  25.928  1.00  0.00     0.004 A 
ATOM     22  C   UNL A   1      37.010  21.253  25.430  1.00  0.00    -0.025 A 
ATOM     23  C   UNL A   1      35.727  23.721  25.851  1.00  0.00     0.002 A 
ATOM     24  C   UNL A   1      37.718  19.991  25.001  1.00  0.00     0.047 C 
ATOM     25  C   UNL A   1      34.979  22.557  25.690  1.00  0.00     0.026 A 
ENDBRANCH  16  18
ENDBRANCH  11  16
ENDBRANCH   8  10
ENDBRANCH   7   8
ENDBRANCH   6   7
ENDBRANCH   5   6
ENDBRANCH   4   5
ENDBRANCH   3   4
ENDBRANCH   2   3
ENDBRANCH   1   2
BRANCH   1  26
ATOM     26  C   UNL A   1      31.102  27.063  24.923  1.00  0.00     0.188 C 
BRANCH  26  27
ATOM     27  C   UNL A   1      31.463  28.121  25.990  1.00  0.00     0.188 C 
BRANCH  27  28
ATOM     28  O   UNL A   1      31.274  29.463  25.580  1.00  0.00    -0.376 OA
BRANCH  28  29
ATOM     29  C   UNL A   1      32.126  30.459  26.113  1.00  0.00     0.202 C 
BRANCH  29  30
ATOM     30  C   UNL A   1      33.576  30.076  26.442  1.00  0.00     0.261 C 
BRANCH  30  31
ATOM     31  O   UNL A   1      33.906  29.956  27.833  1.00  0.00    -0.460 OA
BRANCH  31  32
ATOM     32  C   UNL A   1      34.753  30.868  28.353  1.00  0.00     0.338 C 
ATOM     33  O   UNL A   1      34.481  31.981  28.774  1.00  0.00    -0.246 OA
BRANCH  32  34
ATOM     34  C   UNL A   1      36.065  30.212  28.502  1.00  0.00     0.060 A 
ATOM     35  C   UNL A   1      36.389  29.590  29.716  1.00  0.00     0.016 A 
ATOM     36  C   UNL A   1      36.966  30.198  27.434  1.00  0.00     0.016 A 
ATOM     37  C   UNL A   1      37.631  28.978  29.875  1.00  0.00     0.010 A 
ATOM     38  C   UNL A   1      38.218  29.610  27.604  1.00  0.00     0.010 A 
ATOM     39  C   UNL A   1      38.567  29.028  28.837  1.00  0.00    -0.014 A 
BRANCH  39  40
ATOM     40  C   UNL A   1      39.979  28.670  29.106  1.00  0.00     0.031 A 
ATOM     41  C   UNL A   1      40.841  29.677  29.814  1.00  0.00     0.074 A 
ATOM     42  C   UNL A   1      40.482  27.481  28.740  1.00  0.00     0.049 A 
ATOM     43  N   UNL A   1      42.114  29.627  30.105  1.00  0.00    -0.248 NA
ATOM     44  C   UNL A   1      40.168  30.913  30.246  1.00  0.00     0.031 C 
ATOM     45  C   UNL A   1      39.734  26.412  28.084  1.00  0.00     0.029 A 
ATOM     46  N   UNL A   1      41.756  26.983  28.857  1.00  0.00    -0.354 N 
ATOM     47  C   UNL A   1      42.399  30.831  30.737  1.00  0.00     0.074 A 
ATOM     48  C   UNL A   1      41.175  31.600  30.761  1.00  0.00     0.031 C 
ATOM     49  C   UNL A   1      40.569  25.389  27.834  1.00  0.00     0.029 A 
ATOM     50  C   UNL A   1      41.915  25.749  28.281  1.00  0.00     0.049 A 
ATOM     51  H   UNL A   1      42.485  27.466  29.310  1.00  0.00     0.167 HD
ATOM     52  C   UNL A   1      43.578  31.252  31.253  1.00  0.00     0.037 A 
ATOM     53  C   UNL A   1      43.030  25.011  28.106  1.00  0.00     0.037 A 
ATOM     54  C   UNL A   1      44.792  30.480  31.220  1.00  0.00     0.049 A 
ATOM     55  C   UNL A   1      44.346  25.527  28.629  1.00  0.00     0.074 A 
ATOM     56  C   UNL A   1      46.031  30.797  31.746  1.00  0.00     0.029 A 
ATOM     57  N   UNL A   1      44.923  29.242  30.606  1.00  0.00    -0.354 N 
ATOM     58  N   UNL A   1      44.607  26.647  29.260  1.00  0.00    -0.248 NA
ATOM     59  C   UNL A   1      45.524  24.673  28.419  1.00  0.00     0.031 C 
ATOM     60  C   UNL A   1      46.929  29.787  31.387  1.00  0.00     0.029 A 
ATOM     61  C   UNL A   1      46.233  28.801  30.703  1.00  0.00     0.049 A 
ATOM     62  H   UNL A   1      44.193  28.750  30.166  1.00  0.00     0.167 HD
ATOM     63  C   UNL A   1      45.967  26.622  29.543  1.00  0.00     0.074 A 
ATOM     64  C   UNL A   1      46.475  25.368  29.027  1.00  0.00     0.031 C 
ATOM     65  C   UNL A   1      46.726  27.551  30.177  1.00  0.00     0.037 A 
BRANCH  52  66
ATOM     66  C   UNL A   1      43.615  32.632  31.847  1.00  0.00     0.064 A 
ATOM     67  C   UNL A   1      43.305  32.875  33.194  1.00  0.00     0.173 A 
ATOM     68  C   UNL A   1      43.966  33.732  31.050  1.00  0.00     0.173 A 
ATOM     69  F   UNL A   1      42.947  31.862  33.999  1.00  0.00    -0.203 F 
ATOM     70  C   UNL A   1      43.300  34.170  33.708  1.00  0.00     0.198 A 
ATOM     71  C   UNL A   1      43.998  35.020  31.576  1.00  0.00     0.198 A 
ATOM     72  F   UNL A   1      44.276  33.559  29.756  1.00  0.00    -0.203 F 
ATOM     73  F   UNL A   1      42.932  34.384  34.979  1.00  0.00    -0.200 F 
ATOM     74  C   UNL A   1      43.654  35.240  32.900  1.00  0.00     0.200 A 
ATOM     75  F   UNL A   1      44.354  36.051  30.797  1.00  0.00    -0.200 F 
ATOM     76  F   UNL A   1      43.649  36.486  33.395  1.00  0.00    -0.200 F 
ENDBRANCH  52  66
BRANCH  53  77
ATOM     77  C   UNL A   1      42.943  23.714  27.386  1.00  0.00     0.064 A 
ATOM     78  C   UNL A   1      42.537  22.544  28.041  1.00  0.00     0.173 A 
ATOM     79  C   UNL A   1      43.253  23.623  26.020  1.00  0.00     0.173 A 
ATOM     80  F   UNL A   1      42.254  22.574  29.351  1.00  0.00    -0.203 F 
ATOM     81  C   UNL A   1      42.449  21.332  27.359  1.00  0.00     0.198 A 
ATOM     82  C   UNL A   1      43.137  22.416  25.333  1.00  0.00     0.198 A 
ATOM     83  F   UNL A   1      43.650  24.712  25.347  1.00  0.00    -0.203 F 
ATOM     84  F   UNL A   1      42.091  20.220  28.018  1.00  0.00    -0.200 F 
ATOM     85  C   UNL A   1      42.739  21.270  26.004  1.00  0.00     0.200 A 
ATOM     86  F   UNL A   1      43.404  22.367  24.022  1.00  0.00    -0.200 F 
ATOM     87  F   UNL A   1      42.639  20.107  25.348  1.00  0.00    -0.200 F 
ENDBRANCH  53  77
BRANCH  65  88
ATOM     88  C   UNL A   1      48.184  27.239  30.377  1.00  0.00     0.064 A 
ATOM     89  C   UNL A   1      48.658  26.636  31.552  1.00  0.00     0.173 A 
ATOM     90  C   UNL A   1      49.112  27.503  29.357  1.00  0.00     0.173 A 
ATOM     91  F   UNL A   1      47.816  26.372  32.563  1.00  0.00    -0.203 F 
ATOM     92  C   UNL A   1      50.010  26.338  31.709  1.00  0.00     0.198 A 
ATOM     93  C   UNL A   1      50.456  27.170  29.504  1.00  0.00     0.198 A 
ATOM     94  F   UNL A   1      48.713  28.070  28.209  1.00  0.00    -0.203 F 
ATOM     95  F   UNL A   1      50.447  25.811  32.862  1.00  0.00    -0.200 F 
ATOM     96  C   UNL A   1      50.905  26.596  30.683  1.00  0.00     0.200 A 
ATOM     97  F   UNL A   1      51.316  27.403  28.502  1.00  0.00    -0.200 F 
ATOM     98  F   UNL A   1      52.203  26.298  30.832  1.00  0.00    -0.200 F 
ENDBRANCH  65  88
ENDBRANCH  39  40
ENDBRANCH  32  34
ENDBRANCH  31  32
ENDBRANCH  30  31
ENDBRANCH  29  30
ENDBRANCH  28  29
ENDBRANCH  27  28
ENDBRANCH  26  27
ENDBRANCH   1  26
TORSDOF 22
ENDMDL
