MODEL 1
REMARK VINA RESULT:      -9.3      0.000      0.000
REMARK SMILES O=C(OCCOCCOCCOCCOC(=O)[C@@H]1[C@H](C(=O)Nc2ccccc2OC(F)F)[C@@H]2C=C[C@H]1C2)c1ccc(-c2c3nc(c(-c4c(F)c(F)c(F)c(F)c4F)c4ccc([nH]4)c(-c4c(F)c(F)c(F)c(F)c4F)c4nc(c(-c5c(F)c(F)c(F)c(F)c5F)c5ccc2[nH]5)C=C4)C=C3)cc1
REMARK SMILES IDX 10 1 9 2 8 3 7 4 6 5 5 6 4 7 3 8 2 9 1 10 38 11 39 12 100 13
REMARK SMILES IDX 40 14 99 15 41 16 42 17 43 18 93 19 44 20 98 21 92 22 94 23
REMARK SMILES IDX 45 24 97 25 91 26 90 27 46 29 78 30 58 31 77 32 59 33 62 34
REMARK SMILES IDX 76 35 95 36 60 37 61 38 75 40 96 41 63 42 47 43 48 44 56 45
REMARK SMILES IDX 49 46 50 47 54 48 57 49 51 50 52 51 55 52 53 53 79 54 80 55
REMARK SMILES IDX 88 56 81 57 82 58 86 59 89 60 83 61 84 62 87 63 85 64 64 65
REMARK SMILES IDX 65 66 73 67 66 68 67 69 71 70 74 71 68 72 69 73 72 74 70 75
REMARK SMILES IDX 11 76 12 77 13 78 14 79 15 80 16 81 17 82 18 83 19 84 36 85
REMARK SMILES IDX 33 86 35 87 37 88 34 89 20 90 21 91 22 92 23 94 24 95 28 96
REMARK SMILES IDX 25 97 27 98 26 99 29 100 30 101 31 102 32 103
REMARK H PARENT 94 28 62 39 22 93
REMARK Flexibility Score: inf
ROOT
ATOM      1  C   UNL A   1      35.288  31.455  29.025  1.00  0.00     0.188 C 
ENDROOT
BRANCH   1   2
ATOM      2  O   UNL A   1      35.390  32.815  28.590  1.00  0.00    -0.377 OA
BRANCH   2   3
ATOM      3  C   UNL A   1      34.188  33.518  28.279  1.00  0.00     0.188 C 
BRANCH   3   4
ATOM      4  C   UNL A   1      34.405  34.944  27.796  1.00  0.00     0.188 C 
BRANCH   4   5
ATOM      5  O   UNL A   1      34.232  35.829  28.890  1.00  0.00    -0.376 OA
BRANCH   5   6
ATOM      6  C   UNL A   1      32.939  36.397  29.072  1.00  0.00     0.202 C 
BRANCH   6   7
ATOM      7  C   UNL A   1      32.527  36.457  30.536  1.00  0.00     0.261 C 
BRANCH   7   8
ATOM      8  O   UNL A   1      33.672  36.106  31.326  1.00  0.00    -0.460 OA
BRANCH   8   9
ATOM      9  C   UNL A   1      33.511  35.038  32.148  1.00  0.00     0.338 C 
ATOM     10  O   UNL A   1      32.575  34.801  32.889  1.00  0.00    -0.246 OA
BRANCH   9  11
ATOM     11  C   UNL A   1      34.734  34.233  32.012  1.00  0.00     0.060 A 
ATOM     12  C   UNL A   1      34.726  32.926  32.515  1.00  0.00     0.016 A 
ATOM     13  C   UNL A   1      35.906  34.792  31.510  1.00  0.00     0.016 A 
ATOM     14  C   UNL A   1      35.888  32.215  32.648  1.00  0.00     0.010 A 
ATOM     15  C   UNL A   1      37.094  34.075  31.644  1.00  0.00     0.010 A 
ATOM     16  C   UNL A   1      37.081  32.816  32.270  1.00  0.00    -0.014 A 
BRANCH  16  17
ATOM     17  C   UNL A   1      38.293  32.202  32.828  1.00  0.00     0.031 A 
ATOM     18  C   UNL A   1      38.998  31.189  31.981  1.00  0.00     0.074 A 
ATOM     19  C   UNL A   1      38.847  32.720  33.933  1.00  0.00     0.049 A 
ATOM     20  N   UNL A   1      40.007  30.419  32.275  1.00  0.00    -0.248 NA
ATOM     21  C   UNL A   1      38.507  31.033  30.598  1.00  0.00     0.031 C 
ATOM     22  C   UNL A   1      38.334  33.879  34.671  1.00  0.00     0.029 A 
ATOM     23  N   UNL A   1      39.982  32.369  34.605  1.00  0.00    -0.354 N 
ATOM     24  C   UNL A   1      40.226  29.646  31.143  1.00  0.00     0.074 A 
ATOM     25  C   UNL A   1      39.268  30.051  30.144  1.00  0.00     0.031 C 
ATOM     26  C   UNL A   1      39.159  34.142  35.695  1.00  0.00     0.029 A 
ATOM     27  C   UNL A   1      40.190  33.114  35.736  1.00  0.00     0.049 A 
ATOM     28  H   UNL A   1      40.589  31.653  34.307  1.00  0.00     0.167 HD
ATOM     29  C   UNL A   1      41.142  28.665  30.984  1.00  0.00     0.037 A 
ATOM     30  C   UNL A   1      41.082  32.923  36.724  1.00  0.00     0.037 A 
ATOM     31  C   UNL A   1      42.082  28.320  32.015  1.00  0.00     0.049 A 
ATOM     32  C   UNL A   1      42.011  31.747  36.587  1.00  0.00     0.074 A 
ATOM     33  C   UNL A   1      43.000  27.291  32.054  1.00  0.00     0.029 A 
ATOM     34  N   UNL A   1      42.216  29.030  33.205  1.00  0.00    -0.354 N 
ATOM     35  N   UNL A   1      42.132  30.901  35.590  1.00  0.00    -0.248 NA
ATOM     36  C   UNL A   1      42.905  31.478  37.717  1.00  0.00     0.031 C 
ATOM     37  C   UNL A   1      43.657  27.352  33.289  1.00  0.00     0.029 A 
ATOM     38  C   UNL A   1      43.190  28.453  33.995  1.00  0.00     0.049 A 
ATOM     39  H   UNL A   1      41.692  29.828  33.448  1.00  0.00     0.167 HD
ATOM     40  C   UNL A   1      43.123  30.007  35.959  1.00  0.00     0.074 A 
ATOM     41  C   UNL A   1      43.583  30.428  37.271  1.00  0.00     0.031 C 
ATOM     42  C   UNL A   1      43.612  28.933  35.290  1.00  0.00     0.037 A 
BRANCH  29  43
ATOM     43  C   UNL A   1      41.065  27.857  29.723  1.00  0.00     0.064 A 
ATOM     44  C   UNL A   1      40.058  26.906  29.497  1.00  0.00     0.173 A 
ATOM     45  C   UNL A   1      42.072  27.983  28.752  1.00  0.00     0.173 A 
ATOM     46  F   UNL A   1      39.091  26.716  30.408  1.00  0.00    -0.203 F 
ATOM     47  C   UNL A   1      40.085  26.087  28.368  1.00  0.00     0.198 A 
ATOM     48  C   UNL A   1      42.080  27.183  27.613  1.00  0.00     0.198 A 
ATOM     49  F   UNL A   1      43.067  28.867  28.923  1.00  0.00    -0.203 F 
ATOM     50  F   UNL A   1      39.155  25.134  28.211  1.00  0.00    -0.200 F 
ATOM     51  C   UNL A   1      41.094  26.227  27.428  1.00  0.00     0.200 A 
ATOM     52  F   UNL A   1      43.057  27.321  26.707  1.00  0.00    -0.200 F 
ATOM     53  F   UNL A   1      41.128  25.426  26.353  1.00  0.00    -0.200 F 
ENDBRANCH  29  43
BRANCH  30  54
ATOM     54  C   UNL A   1      41.065  33.795  37.927  1.00  0.00     0.064 A 
ATOM     55  C   UNL A   1      41.943  34.878  38.056  1.00  0.00     0.173 A 
ATOM     56  C   UNL A   1      40.157  33.569  38.975  1.00  0.00     0.173 A 
ATOM     57  F   UNL A   1      42.841  35.130  37.092  1.00  0.00    -0.203 F 
ATOM     58  C   UNL A   1      41.922  35.694  39.187  1.00  0.00     0.198 A 
ATOM     59  C   UNL A   1      40.113  34.403  40.090  1.00  0.00     0.198 A 
ATOM     60  F   UNL A   1      39.292  32.546  38.909  1.00  0.00    -0.203 F 
ATOM     61  F   UNL A   1      42.799  36.700  39.301  1.00  0.00    -0.200 F 
ATOM     62  C   UNL A   1      41.002  35.460  40.200  1.00  0.00     0.200 A 
ATOM     63  F   UNL A   1      39.210  34.183  41.055  1.00  0.00    -0.200 F 
ATOM     64  F   UNL A   1      40.976  36.250  41.282  1.00  0.00    -0.200 F 
ENDBRANCH  30  54
BRANCH  42  65
ATOM     65  C   UNL A   1      44.724  28.181  35.952  1.00  0.00     0.064 A 
ATOM     66  C   UNL A   1      46.067  28.516  35.737  1.00  0.00     0.173 A 
ATOM     67  C   UNL A   1      44.429  27.153  36.859  1.00  0.00     0.173 A 
ATOM     68  F   UNL A   1      46.391  29.481  34.864  1.00  0.00    -0.203 F 
ATOM     69  C   UNL A   1      47.082  27.833  36.398  1.00  0.00     0.198 A 
ATOM     70  C   UNL A   1      45.445  26.495  37.542  1.00  0.00     0.198 A 
ATOM     71  F   UNL A   1      43.155  26.806  37.098  1.00  0.00    -0.203 F 
ATOM     72  F   UNL A   1      48.362  28.138  36.149  1.00  0.00    -0.200 F 
ATOM     73  C   UNL A   1      46.770  26.831  37.306  1.00  0.00     0.200 A 
ATOM     74  F   UNL A   1      45.142  25.539  38.430  1.00  0.00    -0.200 F 
ATOM     75  F   UNL A   1      47.748  26.185  37.953  1.00  0.00    -0.200 F 
ENDBRANCH  42  65
ENDBRANCH  16  17
ENDBRANCH   9  11
ENDBRANCH   8   9
ENDBRANCH   7   8
ENDBRANCH   6   7
ENDBRANCH   5   6
ENDBRANCH   4   5
ENDBRANCH   3   4
ENDBRANCH   2   3
ENDBRANCH   1   2
BRANCH   1  76
ATOM     76  C   UNL A   1      35.944  30.315  28.230  1.00  0.00     0.188 C 
BRANCH  76  77
ATOM     77  O   UNL A   1      35.191  29.858  27.133  1.00  0.00    -0.376 OA
BRANCH  77  78
ATOM     78  C   UNL A   1      33.783  29.977  27.228  1.00  0.00     0.202 C 
BRANCH  78  79
ATOM     79  C   UNL A   1      32.812  29.152  26.348  1.00  0.00     0.261 C 
BRANCH  79  80
ATOM     80  O   UNL A   1      33.108  29.023  24.939  1.00  0.00    -0.463 OA
BRANCH  80  81
ATOM     81  C   UNL A   1      32.142  28.455  24.170  1.00  0.00     0.310 C 
ATOM     82  O   UNL A   1      31.931  28.814  23.010  1.00  0.00    -0.252 OA
BRANCH  81  83
ATOM     83  C   UNL A   1      31.397  27.266  24.756  1.00  0.00     0.119 C 
ATOM     84  C   UNL A   1      32.156  25.903  24.860  1.00  0.00     0.100 C 
ATOM     85  C   UNL A   1      29.927  26.798  24.580  1.00  0.00     0.027 C 
ATOM     86  C   UNL A   1      30.993  24.863  24.976  1.00  0.00     0.025 C 
ATOM     87  C   UNL A   1      29.693  25.897  23.397  1.00  0.00    -0.027 C 
ATOM     88  C   UNL A   1      29.908  25.689  25.667  1.00  0.00     0.017 C 
ATOM     89  C   UNL A   1      30.280  24.721  23.661  1.00  0.00    -0.027 C 
BRANCH  84  90
ATOM     90  C   UNL A   1      33.337  25.361  24.025  1.00  0.00     0.229 C 
ATOM     91  O   UNL A   1      33.608  25.964  22.974  1.00  0.00    -0.274 OA
ATOM     92  N   UNL A   1      34.284  24.471  24.448  1.00  0.00    -0.323 N 
ATOM     93  H   UNL A   1      35.177  24.634  24.067  1.00  0.00     0.170 HD
BRANCH  92  94
ATOM     94  C   UNL A   1      34.238  23.373  25.317  1.00  0.00     0.084 A 
ATOM     95  C   UNL A   1      34.639  23.556  26.644  1.00  0.00     0.030 A 
ATOM     96  C   UNL A   1      33.824  22.110  24.920  1.00  0.00     0.149 A 
ATOM     97  C   UNL A   1      34.373  22.568  27.599  1.00  0.00     0.002 A 
ATOM     98  C   UNL A   1      33.496  21.143  25.872  1.00  0.00     0.049 A 
ATOM     99  C   UNL A   1      33.745  21.384  27.221  1.00  0.00     0.004 A 
BRANCH  96 100
ATOM    100  O   UNL A   1      33.690  21.754  23.621  1.00  0.00    -0.433 OA
BRANCH 100 101
ATOM    101  C   UNL A   1      32.367  21.699  23.092  1.00  0.00     0.542 C 
ATOM    102  F   UNL A   1      32.204  22.568  22.074  1.00  0.00    -0.167 F 
ATOM    103  F   UNL A   1      32.107  20.452  22.634  1.00  0.00    -0.167 F 
ENDBRANCH 100 101
ENDBRANCH  96 100
ENDBRANCH  92  94
ENDBRANCH  84  90
ENDBRANCH  81  83
ENDBRANCH  80  81
ENDBRANCH  79  80
ENDBRANCH  78  79
ENDBRANCH  77  78
ENDBRANCH  76  77
ENDBRANCH   1  76
TORSDOF 24
ENDMDL
MODEL 2
REMARK VINA RESULT:      -9.1      5.062      7.381
REMARK SMILES O=C(OCCOCCOCCOCCOC(=O)[C@@H]1[C@H](C(=O)Nc2ccccc2OC(F)F)[C@@H]2C=C[C@H]1C2)c1ccc(-c2c3nc(c(-c4c(F)c(F)c(F)c(F)c4F)c4ccc([nH]4)c(-c4c(F)c(F)c(F)c(F)c4F)c4nc(c(-c5c(F)c(F)c(F)c(F)c5F)c5ccc2[nH]5)C=C4)C=C3)cc1
REMARK SMILES IDX 10 1 9 2 8 3 7 4 6 5 5 6 4 7 3 8 2 9 1 10 38 11 39 12 100 13
REMARK SMILES IDX 40 14 99 15 41 16 42 17 43 18 93 19 44 20 98 21 92 22 94 23
REMARK SMILES IDX 45 24 97 25 91 26 90 27 46 29 78 30 58 31 77 32 59 33 62 34
REMARK SMILES IDX 76 35 95 36 60 37 61 38 75 40 96 41 63 42 47 43 48 44 56 45
REMARK SMILES IDX 49 46 50 47 54 48 57 49 51 50 52 51 55 52 53 53 79 54 80 55
REMARK SMILES IDX 88 56 81 57 82 58 86 59 89 60 83 61 84 62 87 63 85 64 64 65
REMARK SMILES IDX 65 66 73 67 66 68 67 69 71 70 74 71 68 72 69 73 72 74 70 75
REMARK SMILES IDX 11 76 12 77 13 78 14 79 15 80 16 81 17 82 18 83 19 84 36 85
REMARK SMILES IDX 33 86 35 87 37 88 34 89 20 90 21 91 22 92 23 94 24 95 28 96
REMARK SMILES IDX 25 97 27 98 26 99 29 100 30 101 31 102 32 103
REMARK H PARENT 94 28 62 39 22 93
REMARK Flexibility Score: inf
ROOT
ATOM      1  C   UNL A   1      33.156  32.374  27.274  1.00  0.00     0.188 C 
ENDROOT
BRANCH   1   2
ATOM      2  O   UNL A   1      33.205  33.212  28.434  1.00  0.00    -0.377 OA
BRANCH   2   3
ATOM      3  C   UNL A   1      33.425  34.610  28.249  1.00  0.00     0.188 C 
BRANCH   3   4
ATOM      4  C   UNL A   1      34.762  35.108  28.777  1.00  0.00     0.188 C 
BRANCH   4   5
ATOM      5  O   UNL A   1      35.276  34.153  29.691  1.00  0.00    -0.376 OA
BRANCH   5   6
ATOM      6  C   UNL A   1      36.692  34.031  29.779  1.00  0.00     0.202 C 
BRANCH   6   7
ATOM      7  C   UNL A   1      37.139  33.309  31.043  1.00  0.00     0.261 C 
BRANCH   7   8
ATOM      8  O   UNL A   1      36.230  32.223  31.269  1.00  0.00    -0.460 OA
BRANCH   8   9
ATOM      9  C   UNL A   1      36.599  31.342  32.234  1.00  0.00     0.338 C 
ATOM     10  O   UNL A   1      36.278  31.344  33.408  1.00  0.00    -0.246 OA
BRANCH   9  11
ATOM     11  C   UNL A   1      37.523  30.396  31.589  1.00  0.00     0.060 A 
ATOM     12  C   UNL A   1      38.685  30.032  32.279  1.00  0.00     0.016 A 
ATOM     13  C   UNL A   1      37.311  29.970  30.281  1.00  0.00     0.016 A 
ATOM     14  C   UNL A   1      39.699  29.364  31.647  1.00  0.00     0.010 A 
ATOM     15  C   UNL A   1      38.340  29.290  29.630  1.00  0.00     0.010 A 
ATOM     16  C   UNL A   1      39.550  29.048  30.303  1.00  0.00    -0.014 A 
BRANCH  16  17
ATOM     17  C   UNL A   1      40.798  28.742  29.593  1.00  0.00     0.031 A 
ATOM     18  C   UNL A   1      40.905  27.394  28.949  1.00  0.00     0.074 A 
ATOM     19  C   UNL A   1      41.675  29.724  29.344  1.00  0.00     0.049 A 
ATOM     20  N   UNL A   1      41.926  26.830  28.370  1.00  0.00    -0.248 NA
ATOM     21  C   UNL A   1      39.680  26.571  28.942  1.00  0.00     0.031 C 
ATOM     22  C   UNL A   1      41.504  31.127  29.736  1.00  0.00     0.029 A 
ATOM     23  N   UNL A   1      42.860  29.705  28.668  1.00  0.00    -0.354 N 
ATOM     24  C   UNL A   1      41.488  25.568  27.992  1.00  0.00     0.074 A 
ATOM     25  C   UNL A   1      40.103  25.451  28.380  1.00  0.00     0.031 C 
ATOM     26  C   UNL A   1      42.553  31.834  29.288  1.00  0.00     0.029 A 
ATOM     27  C   UNL A   1      43.502  30.916  28.672  1.00  0.00     0.049 A 
ATOM     28  H   UNL A   1      43.218  28.903  28.223  1.00  0.00     0.167 HD
ATOM     29  C   UNL A   1      42.210  24.593  27.395  1.00  0.00     0.037 A 
ATOM     30  C   UNL A   1      44.753  31.213  28.279  1.00  0.00     0.037 A 
ATOM     31  C   UNL A   1      43.583  24.779  27.019  1.00  0.00     0.049 A 
ATOM     32  C   UNL A   1      45.585  30.083  27.734  1.00  0.00     0.074 A 
ATOM     33  C   UNL A   1      44.481  23.866  26.504  1.00  0.00     0.029 A 
ATOM     34  N   UNL A   1      44.253  25.995  27.120  1.00  0.00    -0.354 N 
ATOM     35  N   UNL A   1      45.239  28.836  27.512  1.00  0.00    -0.248 NA
ATOM     36  C   UNL A   1      46.981  30.388  27.412  1.00  0.00     0.031 C 
ATOM     37  C   UNL A   1      45.708  24.521  26.338  1.00  0.00     0.029 A 
ATOM     38  C   UNL A   1      45.559  25.856  26.693  1.00  0.00     0.049 A 
ATOM     39  H   UNL A   1      43.854  26.833  27.449  1.00  0.00     0.167 HD
ATOM     40  C   UNL A   1      46.366  28.206  27.010  1.00  0.00     0.074 A 
ATOM     41  C   UNL A   1      47.403  29.220  26.946  1.00  0.00     0.031 C 
ATOM     42  C   UNL A   1      46.541  26.913  26.640  1.00  0.00     0.037 A 
BRANCH  29  43
ATOM     43  C   UNL A   1      41.554  23.252  27.246  1.00  0.00     0.064 A 
ATOM     44  C   UNL A   1      42.049  22.097  27.869  1.00  0.00     0.173 A 
ATOM     45  C   UNL A   1      40.448  23.110  26.393  1.00  0.00     0.173 A 
ATOM     46  F   UNL A   1      43.127  22.168  28.666  1.00  0.00    -0.203 F 
ATOM     47  C   UNL A   1      41.488  20.846  27.612  1.00  0.00     0.198 A 
ATOM     48  C   UNL A   1      39.872  21.864  26.161  1.00  0.00     0.198 A 
ATOM     49  F   UNL A   1      39.941  24.179  25.761  1.00  0.00    -0.203 F 
ATOM     50  F   UNL A   1      42.026  19.746  28.159  1.00  0.00    -0.200 F 
ATOM     51  C   UNL A   1      40.400  20.731  26.760  1.00  0.00     0.200 A 
ATOM     52  F   UNL A   1      38.821  21.757  25.336  1.00  0.00    -0.200 F 
ATOM     53  F   UNL A   1      39.873  19.526  26.500  1.00  0.00    -0.200 F 
ENDBRANCH  29  43
BRANCH  30  54
ATOM     54  C   UNL A   1      45.293  32.584  28.475  1.00  0.00     0.064 A 
ATOM     55  C   UNL A   1      45.946  32.948  29.659  1.00  0.00     0.173 A 
ATOM     56  C   UNL A   1      45.177  33.561  27.472  1.00  0.00     0.173 A 
ATOM     57  F   UNL A   1      46.070  32.060  30.656  1.00  0.00    -0.203 F 
ATOM     58  C   UNL A   1      46.451  34.236  29.837  1.00  0.00     0.198 A 
ATOM     59  C   UNL A   1      45.711  34.837  27.636  1.00  0.00     0.198 A 
ATOM     60  F   UNL A   1      44.561  33.270  26.316  1.00  0.00    -0.203 F 
ATOM     61  F   UNL A   1      47.037  34.569  30.995  1.00  0.00    -0.200 F 
ATOM     62  C   UNL A   1      46.341  35.177  28.823  1.00  0.00     0.200 A 
ATOM     63  F   UNL A   1      45.618  35.734  26.645  1.00  0.00    -0.200 F 
ATOM     64  F   UNL A   1      46.835  36.411  28.991  1.00  0.00    -0.200 F 
ENDBRANCH  30  54
BRANCH  42  65
ATOM     65  C   UNL A   1      47.886  26.548  26.094  1.00  0.00     0.064 A 
ATOM     66  C   UNL A   1      48.229  26.800  24.760  1.00  0.00     0.173 A 
ATOM     67  C   UNL A   1      48.859  25.998  26.942  1.00  0.00     0.173 A 
ATOM     68  F   UNL A   1      47.323  27.310  23.913  1.00  0.00    -0.203 F 
ATOM     69  C   UNL A   1      49.501  26.496  24.286  1.00  0.00     0.198 A 
ATOM     70  C   UNL A   1      50.137  25.725  26.472  1.00  0.00     0.198 A 
ATOM     71  F   UNL A   1      48.572  25.749  28.228  1.00  0.00    -0.203 F 
ATOM     72  F   UNL A   1      49.800  26.704  22.997  1.00  0.00    -0.200 F 
ATOM     73  C   UNL A   1      50.455  25.969  25.145  1.00  0.00     0.200 A 
ATOM     74  F   UNL A   1      51.063  25.232  27.305  1.00  0.00    -0.200 F 
ATOM     75  F   UNL A   1      51.684  25.690  24.690  1.00  0.00    -0.200 F 
ENDBRANCH  42  65
ENDBRANCH  16  17
ENDBRANCH   9  11
ENDBRANCH   8   9
ENDBRANCH   7   8
ENDBRANCH   6   7
ENDBRANCH   5   6
ENDBRANCH   4   5
ENDBRANCH   3   4
ENDBRANCH   2   3
ENDBRANCH   1   2
BRANCH   1  76
ATOM     76  C   UNL A   1      33.210  30.843  27.397  1.00  0.00     0.188 C 
BRANCH  76  77
ATOM     77  O   UNL A   1      34.473  30.329  27.742  1.00  0.00    -0.376 OA
BRANCH  77  78
ATOM     78  C   UNL A   1      34.904  29.169  27.051  1.00  0.00     0.202 C 
BRANCH  78  79
ATOM     79  C   UNL A   1      34.037  28.460  25.984  1.00  0.00     0.261 C 
BRANCH  79  80
ATOM     80  O   UNL A   1      33.531  27.139  26.280  1.00  0.00    -0.463 OA
BRANCH  80  81
ATOM     81  C   UNL A   1      32.199  27.046  26.532  1.00  0.00     0.310 C 
ATOM     82  O   UNL A   1      31.704  27.423  27.595  1.00  0.00    -0.252 OA
BRANCH  81  83
ATOM     83  C   UNL A   1      31.310  26.560  25.397  1.00  0.00     0.119 C 
ATOM     84  C   UNL A   1      30.630  25.159  25.547  1.00  0.00     0.100 C 
ATOM     85  C   UNL A   1      31.470  26.672  23.857  1.00  0.00     0.027 C 
ATOM     86  C   UNL A   1      30.277  24.783  24.070  1.00  0.00     0.025 C 
ATOM     87  C   UNL A   1      32.262  25.559  23.226  1.00  0.00    -0.027 C 
ATOM     88  C   UNL A   1      30.064  26.160  23.442  1.00  0.00     0.017 C 
ATOM     89  C   UNL A   1      31.523  24.443  23.301  1.00  0.00    -0.027 C 
BRANCH  84  90
ATOM     90  C   UNL A   1      31.069  23.928  26.370  1.00  0.00     0.229 C 
ATOM     91  O   UNL A   1      30.288  23.531  27.251  1.00  0.00    -0.274 OA
ATOM     92  N   UNL A   1      32.081  23.066  26.055  1.00  0.00    -0.323 N 
ATOM     93  H   UNL A   1      31.902  22.134  26.319  1.00  0.00     0.170 HD
BRANCH  92  94
ATOM     94  C   UNL A   1      33.323  23.243  25.433  1.00  0.00     0.084 A 
ATOM     95  C   UNL A   1      34.111  24.333  25.817  1.00  0.00     0.030 A 
ATOM     96  C   UNL A   1      33.804  22.396  24.445  1.00  0.00     0.149 A 
ATOM     97  C   UNL A   1      35.449  24.407  25.413  1.00  0.00     0.002 A 
ATOM     98  C   UNL A   1      35.153  22.424  24.086  1.00  0.00     0.049 A 
ATOM     99  C   UNL A   1      35.987  23.416  24.595  1.00  0.00     0.004 A 
BRANCH  96 100
ATOM    100  O   UNL A   1      33.023  21.496  23.804  1.00  0.00    -0.433 OA
BRANCH 100 101
ATOM    101  C   UNL A   1      33.083  20.143  24.251  1.00  0.00     0.542 C 
ATOM    102  F   UNL A   1      34.202  19.907  24.966  1.00  0.00    -0.167 F 
ATOM    103  F   UNL A   1      32.012  19.869  25.032  1.00  0.00    -0.167 F 
ENDBRANCH 100 101
ENDBRANCH  96 100
ENDBRANCH  92  94
ENDBRANCH  84  90
ENDBRANCH  81  83
ENDBRANCH  80  81
ENDBRANCH  79  80
ENDBRANCH  78  79
ENDBRANCH  77  78
ENDBRANCH  76  77
ENDBRANCH   1  76
TORSDOF 24
ENDMDL
MODEL 3
REMARK VINA RESULT:      -8.9      4.458      9.142
REMARK SMILES O=C(OCCOCCOCCOCCOC(=O)[C@@H]1[C@H](C(=O)Nc2ccccc2OC(F)F)[C@@H]2C=C[C@H]1C2)c1ccc(-c2c3nc(c(-c4c(F)c(F)c(F)c(F)c4F)c4ccc([nH]4)c(-c4c(F)c(F)c(F)c(F)c4F)c4nc(c(-c5c(F)c(F)c(F)c(F)c5F)c5ccc2[nH]5)C=C4)C=C3)cc1
REMARK SMILES IDX 10 1 9 2 8 3 7 4 6 5 5 6 4 7 3 8 2 9 1 10 38 11 39 12 100 13
REMARK SMILES IDX 40 14 99 15 41 16 42 17 43 18 93 19 44 20 98 21 92 22 94 23
REMARK SMILES IDX 45 24 97 25 91 26 90 27 46 29 78 30 58 31 77 32 59 33 62 34
REMARK SMILES IDX 76 35 95 36 60 37 61 38 75 40 96 41 63 42 47 43 48 44 56 45
REMARK SMILES IDX 49 46 50 47 54 48 57 49 51 50 52 51 55 52 53 53 79 54 80 55
REMARK SMILES IDX 88 56 81 57 82 58 86 59 89 60 83 61 84 62 87 63 85 64 64 65
REMARK SMILES IDX 65 66 73 67 66 68 67 69 71 70 74 71 68 72 69 73 72 74 70 75
REMARK SMILES IDX 11 76 12 77 13 78 14 79 15 80 16 81 17 82 18 83 19 84 36 85
REMARK SMILES IDX 33 86 35 87 37 88 34 89 20 90 21 91 22 92 23 94 24 95 28 96
REMARK SMILES IDX 25 97 27 98 26 99 29 100 30 101 31 102 32 103
REMARK H PARENT 94 28 62 39 22 93
REMARK Flexibility Score: inf
ROOT
ATOM      1  C   UNL A   1      36.093  32.781  28.386  1.00  0.00     0.188 C 
ENDROOT
BRANCH   1   2
ATOM      2  O   UNL A   1      36.464  32.604  29.757  1.00  0.00    -0.377 OA
BRANCH   2   3
ATOM      3  C   UNL A   1      36.096  31.386  30.405  1.00  0.00     0.188 C 
BRANCH   3   4
ATOM      4  C   UNL A   1      35.554  31.567  31.815  1.00  0.00     0.188 C 
BRANCH   4   5
ATOM      5  O   UNL A   1      35.518  32.952  32.117  1.00  0.00    -0.376 OA
BRANCH   5   6
ATOM      6  C   UNL A   1      35.197  33.320  33.454  1.00  0.00     0.202 C 
BRANCH   6   7
ATOM      7  C   UNL A   1      36.417  33.771  34.245  1.00  0.00     0.261 C 
BRANCH   7   8
ATOM      8  O   UNL A   1      37.147  32.598  34.628  1.00  0.00    -0.460 OA
BRANCH   8   9
ATOM      9  C   UNL A   1      38.499  32.721  34.622  1.00  0.00     0.338 C 
ATOM     10  O   UNL A   1      39.192  33.370  35.383  1.00  0.00    -0.246 OA
BRANCH   9  11
ATOM     11  C   UNL A   1      38.973  31.949  33.463  1.00  0.00     0.060 A 
ATOM     12  C   UNL A   1      39.463  30.656  33.684  1.00  0.00     0.016 A 
ATOM     13  C   UNL A   1      39.046  32.529  32.200  1.00  0.00     0.016 A 
ATOM     14  C   UNL A   1      40.144  29.984  32.706  1.00  0.00     0.010 A 
ATOM     15  C   UNL A   1      39.740  31.851  31.198  1.00  0.00     0.010 A 
ATOM     16  C   UNL A   1      40.336  30.609  31.481  1.00  0.00    -0.014 A 
BRANCH  16  17
ATOM     17  C   UNL A   1      41.412  30.047  30.655  1.00  0.00     0.031 A 
ATOM     18  C   UNL A   1      42.736  30.745  30.689  1.00  0.00     0.074 A 
ATOM     19  C   UNL A   1      41.257  28.835  30.103  1.00  0.00     0.049 A 
ATOM     20  N   UNL A   1      43.805  30.533  29.975  1.00  0.00    -0.248 NA
ATOM     21  C   UNL A   1      42.882  31.827  31.683  1.00  0.00     0.031 C 
ATOM     22  C   UNL A   1      40.067  27.990  30.245  1.00  0.00     0.029 A 
ATOM     23  N   UNL A   1      42.115  28.087  29.351  1.00  0.00    -0.354 N 
ATOM     24  C   UNL A   1      44.721  31.492  30.385  1.00  0.00     0.074 A 
ATOM     25  C   UNL A   1      44.101  32.273  31.427  1.00  0.00     0.031 C 
ATOM     26  C   UNL A   1      40.276  26.834  29.597  1.00  0.00     0.029 A 
ATOM     27  C   UNL A   1      41.565  26.907  28.922  1.00  0.00     0.049 A 
ATOM     28  H   UNL A   1      43.035  28.366  29.138  1.00  0.00     0.167 HD
ATOM     29  C   UNL A   1      45.964  31.701  29.896  1.00  0.00     0.037 A 
ATOM     30  C   UNL A   1      42.041  26.029  28.022  1.00  0.00     0.037 A 
ATOM     31  C   UNL A   1      46.531  30.875  28.867  1.00  0.00     0.049 A 
ATOM     32  C   UNL A   1      43.372  26.346  27.395  1.00  0.00     0.074 A 
ATOM     33  C   UNL A   1      47.727  31.013  28.194  1.00  0.00     0.029 A 
ATOM     34  N   UNL A   1      45.915  29.730  28.370  1.00  0.00    -0.354 N 
ATOM     35  N   UNL A   1      44.191  27.340  27.654  1.00  0.00    -0.248 NA
ATOM     36  C   UNL A   1      43.833  25.446  26.335  1.00  0.00     0.031 C 
ATOM     37  C   UNL A   1      47.811  29.976  27.256  1.00  0.00     0.029 A 
ATOM     38  C   UNL A   1      46.696  29.158  27.386  1.00  0.00     0.049 A 
ATOM     39  H   UNL A   1      45.047  29.378  28.676  1.00  0.00     0.167 HD
ATOM     40  C   UNL A   1      45.273  27.180  26.804  1.00  0.00     0.074 A 
ATOM     41  C   UNL A   1      45.009  25.979  26.032  1.00  0.00     0.031 C 
ATOM     42  C   UNL A   1      46.382  27.949  26.663  1.00  0.00     0.037 A 
BRANCH  29  43
ATOM     43  C   UNL A   1      46.695  32.915  30.387  1.00  0.00     0.064 A 
ATOM     44  C   UNL A   1      47.645  32.857  31.419  1.00  0.00     0.173 A 
ATOM     45  C   UNL A   1      46.378  34.178  29.864  1.00  0.00     0.173 A 
ATOM     46  F   UNL A   1      47.960  31.680  31.982  1.00  0.00    -0.203 F 
ATOM     47  C   UNL A   1      48.217  34.020  31.935  1.00  0.00     0.198 A 
ATOM     48  C   UNL A   1      46.972  35.335  30.362  1.00  0.00     0.198 A 
ATOM     49  F   UNL A   1      45.468  34.294  28.885  1.00  0.00    -0.203 F 
ATOM     50  F   UNL A   1      49.064  33.946  32.971  1.00  0.00    -0.200 F 
ATOM     51  C   UNL A   1      47.881  35.256  31.405  1.00  0.00     0.200 A 
ATOM     52  F   UNL A   1      46.644  36.528  29.848  1.00  0.00    -0.200 F 
ATOM     53  F   UNL A   1      48.418  36.375  31.914  1.00  0.00    -0.200 F 
ENDBRANCH  29  43
BRANCH  30  54
ATOM     54  C   UNL A   1      41.224  24.856  27.616  1.00  0.00     0.064 A 
ATOM     55  C   UNL A   1      41.548  23.560  28.036  1.00  0.00     0.173 A 
ATOM     56  C   UNL A   1      40.088  25.008  26.803  1.00  0.00     0.173 A 
ATOM     57  F   UNL A   1      42.631  23.356  28.800  1.00  0.00    -0.203 F 
ATOM     58  C   UNL A   1      40.777  22.463  27.653  1.00  0.00     0.198 A 
ATOM     59  C   UNL A   1      39.298  23.916  26.448  1.00  0.00     0.198 A 
ATOM     60  F   UNL A   1      39.727  26.225  26.369  1.00  0.00    -0.203 F 
ATOM     61  F   UNL A   1      41.132  21.230  28.038  1.00  0.00    -0.200 F 
ATOM     62  C   UNL A   1      39.649  22.642  26.865  1.00  0.00     0.200 A 
ATOM     63  F   UNL A   1      38.200  24.100  25.703  1.00  0.00    -0.200 F 
ATOM     64  F   UNL A   1      38.903  21.589  26.506  1.00  0.00    -0.200 F 
ENDBRANCH  30  54
BRANCH  42  65
ATOM     65  C   UNL A   1      47.399  27.480  25.670  1.00  0.00     0.064 A 
ATOM     66  C   UNL A   1      47.334  27.852  24.321  1.00  0.00     0.173 A 
ATOM     67  C   UNL A   1      48.485  26.701  26.096  1.00  0.00     0.173 A 
ATOM     68  F   UNL A   1      46.303  28.583  23.870  1.00  0.00    -0.203 F 
ATOM     69  C   UNL A   1      48.315  27.443  23.425  1.00  0.00     0.198 A 
ATOM     70  C   UNL A   1      49.480  26.321  25.204  1.00  0.00     0.198 A 
ATOM     71  F   UNL A   1      48.588  26.330  27.381  1.00  0.00    -0.203 F 
ATOM     72  F   UNL A   1      48.215  27.772  22.130  1.00  0.00    -0.200 F 
ATOM     73  C   UNL A   1      49.391  26.687  23.869  1.00  0.00     0.200 A 
ATOM     74  F   UNL A   1      50.526  25.606  25.636  1.00  0.00    -0.200 F 
ATOM     75  F   UNL A   1      50.343  26.307  23.007  1.00  0.00    -0.200 F 
ENDBRANCH  42  65
ENDBRANCH  16  17
ENDBRANCH   9  11
ENDBRANCH   8   9
ENDBRANCH   7   8
ENDBRANCH   6   7
ENDBRANCH   5   6
ENDBRANCH   4   5
ENDBRANCH   3   4
ENDBRANCH   2   3
ENDBRANCH   1   2
BRANCH   1  76
ATOM     76  C   UNL A   1      34.715  33.340  28.001  1.00  0.00     0.188 C 
BRANCH  76  77
ATOM     77  O   UNL A   1      33.735  32.360  27.757  1.00  0.00    -0.376 OA
BRANCH  77  78
ATOM     78  C   UNL A   1      32.480  32.813  27.278  1.00  0.00     0.202 C 
BRANCH  78  79
ATOM     79  C   UNL A   1      31.434  31.864  26.646  1.00  0.00     0.261 C 
BRANCH  79  80
ATOM     80  O   UNL A   1      31.902  30.818  25.765  1.00  0.00    -0.463 OA
BRANCH  80  81
ATOM     81  C   UNL A   1      31.677  29.541  26.172  1.00  0.00     0.310 C 
ATOM     82  O   UNL A   1      31.656  29.226  27.363  1.00  0.00    -0.252 OA
BRANCH  81  83
ATOM     83  C   UNL A   1      31.332  28.520  25.099  1.00  0.00     0.119 C 
ATOM     84  C   UNL A   1      32.130  27.175  25.082  1.00  0.00     0.100 C 
ATOM     85  C   UNL A   1      30.982  28.700  23.597  1.00  0.00     0.027 C 
ATOM     86  C   UNL A   1      31.910  26.657  23.623  1.00  0.00     0.025 C 
ATOM     87  C   UNL A   1      32.170  28.727  22.674  1.00  0.00    -0.027 C 
ATOM     88  C   UNL A   1      30.539  27.243  23.289  1.00  0.00     0.017 C 
ATOM     89  C   UNL A   1      32.689  27.491  22.645  1.00  0.00    -0.027 C 
BRANCH  84  90
ATOM     90  C   UNL A   1      33.549  26.859  25.602  1.00  0.00     0.229 C 
ATOM     91  O   UNL A   1      34.219  27.815  26.028  1.00  0.00    -0.274 OA
ATOM     92  N   UNL A   1      34.043  25.621  25.903  1.00  0.00    -0.323 N 
ATOM     93  H   UNL A   1      34.669  25.619  26.662  1.00  0.00     0.170 HD
BRANCH  92  94
ATOM     94  C   UNL A   1      33.835  24.353  25.344  1.00  0.00     0.084 A 
ATOM     95  C   UNL A   1      34.542  24.011  24.188  1.00  0.00     0.030 A 
ATOM     96  C   UNL A   1      32.952  23.425  25.878  1.00  0.00     0.149 A 
ATOM     97  C   UNL A   1      34.559  22.682  23.745  1.00  0.00     0.002 A 
ATOM     98  C   UNL A   1      33.011  22.087  25.485  1.00  0.00     0.049 A 
ATOM     99  C   UNL A   1      33.840  21.708  24.433  1.00  0.00     0.004 A 
BRANCH  96 100
ATOM    100  O   UNL A   1      32.022  23.745  26.808  1.00  0.00    -0.433 OA
BRANCH 100 101
ATOM    101  C   UNL A   1      30.655  23.709  26.403  1.00  0.00     0.542 C 
ATOM    102  F   UNL A   1      29.932  22.871  27.174  1.00  0.00    -0.167 F 
ATOM    103  F   UNL A   1      30.115  24.947  26.497  1.00  0.00    -0.167 F 
ENDBRANCH 100 101
ENDBRANCH  96 100
ENDBRANCH  92  94
ENDBRANCH  84  90
ENDBRANCH  81  83
ENDBRANCH  80  81
ENDBRANCH  79  80
ENDBRANCH  78  79
ENDBRANCH  77  78
ENDBRANCH  76  77
ENDBRANCH   1  76
TORSDOF 24
ENDMDL
