MODEL 1
REMARK VINA RESULT:     -11.8      0.000      0.000
REMARK SMILES Cc1ccc(C(=O)OCCOCCOCCOCCOC(=O)c2ccc(-c3c4nc(c(-c5c(F)c(F)c(F)c(F)c5F)c5ccc([nH]5)c(-c5c(F)c(F)c(F)c(F)c5F)c5nc(c(-c6c(F)c(F)c(F)c(F)c6F)c6ccc3[nH]6)C=C5)C=C4)cc2)cc1/[NH+]=C1\NCCS1
REMARK SMILES IDX 15 1 14 2 13 3 12 4 11 5 10 6 9 7 8 8 6 9 7 10 5 11 1 12
REMARK SMILES IDX 2 13 3 14 87 15 4 16 86 17 88 18 89 19 90 21 93 22 91 23
REMARK SMILES IDX 92 25 16 26 17 27 18 28 19 29 20 30 21 31 22 32 23 33 24 34
REMARK SMILES IDX 85 35 25 36 84 37 26 38 27 39 28 40 78 41 29 42 83 43 77 44
REMARK SMILES IDX 79 45 30 46 82 47 76 48 75 49 31 51 63 52 43 53 62 54 44 55
REMARK SMILES IDX 47 56 61 57 80 58 45 59 46 60 60 62 81 63 48 64 32 65 33 66
REMARK SMILES IDX 41 67 34 68 35 69 39 70 42 71 36 72 37 73 40 74 38 75 64 76
REMARK SMILES IDX 65 77 73 78 66 79 67 80 71 81 74 82 68 83 69 84 72 85 70 86
REMARK SMILES IDX 49 87 50 88 58 89 51 90 52 91 56 92 59 93 53 94 54 95 57 96
REMARK SMILES IDX 55 97
REMARK H PARENT 88 20 90 24 79 50 47 61
REMARK Flexibility Score: inf
ROOT
ATOM      1  C   UNL A   1      35.365  23.361  25.528  1.00  0.00     0.188 C 
ENDROOT
BRANCH   1   2
ATOM      2  O   UNL A   1      35.145  23.263  26.922  1.00  0.00    -0.377 OA
BRANCH   2   3
ATOM      3  C   UNL A   1      34.206  22.243  27.245  1.00  0.00     0.188 C 
BRANCH   3   4
ATOM      4  C   UNL A   1      32.704  22.456  26.828  1.00  0.00     0.188 C 
BRANCH   4   5
ATOM      5  O   UNL A   1      32.032  21.750  25.623  1.00  0.00    -0.376 OA
BRANCH   5   6
ATOM      6  C   UNL A   1      31.875  22.203  24.047  1.00  0.00     0.202 C 
BRANCH   6   7
ATOM      7  C   UNL A   1      32.913  22.734  22.597  1.00  0.00     0.261 C 
BRANCH   7   8
ATOM      8  O   UNL A   1      33.500  24.373  22.006  1.00  0.00    -0.460 OA
BRANCH   8   9
ATOM      9  C   UNL A   1      33.458  25.972  22.221  1.00  0.00     0.338 C 
ATOM     10  O   UNL A   1      33.786  26.679  21.253  1.00  0.00    -0.246 OA
BRANCH   9  11
ATOM     11  C   UNL A   1      33.161  26.969  23.555  1.00  0.00     0.064 A 
ATOM     12  C   UNL A   1      31.610  28.781  27.272  1.00  0.00     0.049 C 
ATOM     13  C   UNL A   1      32.190  28.208  26.013  1.00  0.00    -0.004 A 
ATOM     14  C   UNL A   1      32.866  26.975  26.009  1.00  0.00     0.008 A 
ATOM     15  C   UNL A   1      32.090  28.889  24.814  1.00  0.00     0.129 A 
ATOM     16  C   UNL A   1      33.290  26.352  24.805  1.00  0.00     0.016 A 
ATOM     17  C   UNL A   1      32.704  28.318  23.683  1.00  0.00     0.067 A 
BRANCH  15  18
ATOM     18  N   UNL A   1      31.146  29.912  24.588  1.00  0.00    -0.235 N 
ATOM     19  C   UNL A   1      30.054  29.775  23.934  1.00  0.00     0.309 C 
ATOM     20  H   UNL A   1      31.341  30.801  24.963  1.00  0.00     0.313 HD
ATOM     21  N   UNL A   1      29.461  28.705  23.344  1.00  0.00    -0.268 N 
ATOM     22  S   UNL A   1      29.069  31.224  23.665  1.00  0.00    -0.035 SA
ATOM     23  C   UNL A   1      28.177  28.931  22.713  1.00  0.00     0.246 C 
ATOM     24  H   UNL A   1      29.884  27.817  23.345  1.00  0.00     0.305 HD
ATOM     25  C   UNL A   1      28.124  30.412  22.340  1.00  0.00     0.128 C 
ENDBRANCH  15  18
ENDBRANCH   9  11
ENDBRANCH   8   9
ENDBRANCH   7   8
ENDBRANCH   6   7
ENDBRANCH   5   6
ENDBRANCH   4   5
ENDBRANCH   3   4
ENDBRANCH   2   3
ENDBRANCH   1   2
BRANCH   1  26
ATOM     26  C   UNL A   1      36.512  22.446  25.085  1.00  0.00     0.188 C 
BRANCH  26  27
ATOM     27  O   UNL A   1      37.418  22.172  26.139  1.00  0.00    -0.376 OA
BRANCH  27  28
ATOM     28  C   UNL A   1      38.707  22.759  26.083  1.00  0.00     0.202 C 
BRANCH  28  29
ATOM     29  C   UNL A   1      38.595  24.188  26.618  1.00  0.00     0.261 C 
BRANCH  29  30
ATOM     30  O   UNL A   1      39.229  24.281  27.919  1.00  0.00    -0.460 OA
BRANCH  30  31
ATOM     31  C   UNL A   1      40.325  25.063  27.983  1.00  0.00     0.338 C 
ATOM     32  O   UNL A   1      41.492  24.644  28.155  1.00  0.00    -0.246 OA
BRANCH  31  33
ATOM     33  C   UNL A   1      39.931  26.497  28.074  1.00  0.00     0.060 A 
ATOM     34  C   UNL A   1      40.670  27.475  27.425  1.00  0.00     0.016 A 
ATOM     35  C   UNL A   1      38.998  26.908  29.037  1.00  0.00     0.016 A 
ATOM     36  C   UNL A   1      40.598  28.796  27.893  1.00  0.00     0.010 A 
ATOM     37  C   UNL A   1      39.106  28.177  29.629  1.00  0.00     0.010 A 
ATOM     38  C   UNL A   1      40.050  29.104  29.166  1.00  0.00    -0.014 A 
BRANCH  38  39
ATOM     39  C   UNL A   1      40.299  30.489  29.996  1.00  0.00     0.031 A 
ATOM     40  C   UNL A   1      41.117  29.575  31.310  1.00  0.00     0.074 A 
ATOM     41  C   UNL A   1      39.648  32.036  29.953  1.00  0.00     0.049 A 
ATOM     42  N   UNL A   1      40.796  29.553  32.593  1.00  0.00    -0.248 NA
ATOM     43  C   UNL A   1      42.148  28.535  31.087  1.00  0.00     0.031 C 
ATOM     44  C   UNL A   1      39.774  33.425  30.922  1.00  0.00     0.029 A 
ATOM     45  N   UNL A   1      38.448  32.721  29.315  1.00  0.00    -0.354 N 
ATOM     46  C   UNL A   1      41.909  29.168  33.278  1.00  0.00     0.074 A 
ATOM     47  C   UNL A   1      42.506  28.237  32.347  1.00  0.00     0.031 C 
ATOM     48  C   UNL A   1      38.842  34.361  30.766  1.00  0.00     0.029 A 
ATOM     49  C   UNL A   1      37.790  33.699  30.115  1.00  0.00     0.049 A 
ATOM     50  H   UNL A   1      38.145  32.501  28.405  1.00  0.00     0.167 HD
ATOM     51  C   UNL A   1      42.433  29.941  34.297  1.00  0.00     0.037 A 
ATOM     52  C   UNL A   1      36.544  33.675  30.699  1.00  0.00     0.037 A 
ATOM     53  C   UNL A   1      41.685  31.223  34.567  1.00  0.00     0.049 A 
ATOM     54  C   UNL A   1      36.675  33.759  32.259  1.00  0.00     0.074 A 
ATOM     55  C   UNL A   1      42.056  32.552  34.360  1.00  0.00     0.029 A 
ATOM     56  N   UNL A   1      40.303  31.294  34.841  1.00  0.00    -0.354 N 
ATOM     57  N   UNL A   1      37.732  33.350  32.925  1.00  0.00    -0.248 NA
ATOM     58  C   UNL A   1      35.678  34.314  33.165  1.00  0.00     0.031 C 
ATOM     59  C   UNL A   1      40.921  33.396  34.445  1.00  0.00     0.029 A 
ATOM     60  C   UNL A   1      39.824  32.617  34.769  1.00  0.00     0.049 A 
ATOM     61  H   UNL A   1      39.742  30.515  35.057  1.00  0.00     0.167 HD
ATOM     62  C   UNL A   1      37.572  33.490  34.278  1.00  0.00     0.074 A 
ATOM     63  C   UNL A   1      36.282  34.166  34.364  1.00  0.00     0.031 C 
ATOM     64  C   UNL A   1      38.484  33.041  35.210  1.00  0.00     0.037 A 
BRANCH  51  65
ATOM     65  C   UNL A   1      43.928  29.758  34.656  1.00  0.00     0.064 A 
ATOM     66  C   UNL A   1      44.979  30.324  33.904  1.00  0.00     0.173 A 
ATOM     67  C   UNL A   1      44.376  28.938  35.711  1.00  0.00     0.173 A 
ATOM     68  F   UNL A   1      44.777  31.345  33.062  1.00  0.00    -0.203 F 
ATOM     69  C   UNL A   1      46.313  29.911  34.033  1.00  0.00     0.198 A 
ATOM     70  C   UNL A   1      45.698  28.484  35.817  1.00  0.00     0.198 A 
ATOM     71  F   UNL A   1      43.554  28.601  36.717  1.00  0.00    -0.203 F 
ATOM     72  F   UNL A   1      47.259  30.464  33.259  1.00  0.00    -0.200 F 
ATOM     73  C   UNL A   1      46.664  28.948  34.952  1.00  0.00     0.200 A 
ATOM     74  F   UNL A   1      46.027  27.602  36.772  1.00  0.00    -0.200 F 
ATOM     75  F   UNL A   1      47.930  28.523  35.050  1.00  0.00    -0.200 F 
ENDBRANCH  51  65
BRANCH  52  76
ATOM     76  C   UNL A   1      35.437  32.973  29.964  1.00  0.00     0.064 A 
ATOM     77  C   UNL A   1      34.477  33.752  29.286  1.00  0.00     0.173 A 
ATOM     78  C   UNL A   1      35.455  31.602  29.660  1.00  0.00     0.173 A 
ATOM     79  F   UNL A   1      34.343  35.055  29.575  1.00  0.00    -0.203 F 
ATOM     80  C   UNL A   1      33.717  33.233  28.235  1.00  0.00     0.198 A 
ATOM     81  C   UNL A   1      34.716  31.091  28.583  1.00  0.00     0.198 A 
ATOM     82  F   UNL A   1      36.336  30.790  30.263  1.00  0.00    -0.203 F 
ATOM     83  F   UNL A   1      32.900  34.037  27.538  1.00  0.00    -0.200 F 
ATOM     84  C   UNL A   1      33.879  31.916  27.848  1.00  0.00     0.200 A 
ATOM     85  F   UNL A   1      34.902  29.822  28.191  1.00  0.00    -0.200 F 
ATOM     86  F   UNL A   1      33.258  31.455  26.752  1.00  0.00    -0.200 F 
ENDBRANCH  52  76
BRANCH  64  87
ATOM     87  C   UNL A   1      38.285  33.118  36.714  1.00  0.00     0.064 A 
ATOM     88  C   UNL A   1      37.835  32.044  37.491  1.00  0.00     0.173 A 
ATOM     89  C   UNL A   1      38.682  34.272  37.443  1.00  0.00     0.173 A 
ATOM     90  F   UNL A   1      37.532  30.864  36.934  1.00  0.00    -0.203 F 
ATOM     91  C   UNL A   1      37.733  32.133  38.883  1.00  0.00     0.198 A 
ATOM     92  C   UNL A   1      38.641  34.334  38.834  1.00  0.00     0.198 A 
ATOM     93  F   UNL A   1      39.131  35.378  36.836  1.00  0.00    -0.203 F 
ATOM     94  F   UNL A   1      37.248  31.095  39.578  1.00  0.00    -0.200 F 
ATOM     95  C   UNL A   1      38.150  33.269  39.554  1.00  0.00     0.200 A 
ATOM     96  F   UNL A   1      39.092  35.427  39.466  1.00  0.00    -0.200 F 
ATOM     97  F   UNL A   1      38.095  33.329  40.891  1.00  0.00    -0.200 F 
ENDBRANCH  64  87
ENDBRANCH  38  39
ENDBRANCH  31  33
ENDBRANCH  30  31
ENDBRANCH  29  30
ENDBRANCH  28  29
ENDBRANCH  27  28
ENDBRANCH  26  27
ENDBRANCH   1  26
TORSDOF 21
ENDMDL
MODEL 2
REMARK VINA RESULT:     -10.9      2.388      4.514
REMARK SMILES Cc1ccc(C(=O)OCCOCCOCCOCCOC(=O)c2ccc(-c3c4nc(c(-c5c(F)c(F)c(F)c(F)c5F)c5ccc([nH]5)c(-c5c(F)c(F)c(F)c(F)c5F)c5nc(c(-c6c(F)c(F)c(F)c(F)c6F)c6ccc3[nH]6)C=C5)C=C4)cc2)cc1/[NH+]=C1\NCCS1
REMARK SMILES IDX 15 1 14 2 13 3 12 4 11 5 10 6 9 7 8 8 6 9 7 10 5 11 1 12
REMARK SMILES IDX 2 13 3 14 87 15 4 16 86 17 88 18 89 19 90 21 93 22 91 23
REMARK SMILES IDX 92 25 16 26 17 27 18 28 19 29 20 30 21 31 22 32 23 33 24 34
REMARK SMILES IDX 85 35 25 36 84 37 26 38 27 39 28 40 78 41 29 42 83 43 77 44
REMARK SMILES IDX 79 45 30 46 82 47 76 48 75 49 31 51 63 52 43 53 62 54 44 55
REMARK SMILES IDX 47 56 61 57 80 58 45 59 46 60 60 62 81 63 48 64 32 65 33 66
REMARK SMILES IDX 41 67 34 68 35 69 39 70 42 71 36 72 37 73 40 74 38 75 64 76
REMARK SMILES IDX 65 77 73 78 66 79 67 80 71 81 74 82 68 83 69 84 72 85 70 86
REMARK SMILES IDX 49 87 50 88 58 89 51 90 52 91 56 92 59 93 53 94 54 95 57 96
REMARK SMILES IDX 55 97
REMARK H PARENT 88 20 90 24 79 50 47 61
REMARK Flexibility Score: inf
ROOT
ATOM      1  C   UNL A   1      45.621  22.350  25.426  1.00  0.00     0.188 C 
ENDROOT
BRANCH   1   2
ATOM      2  O   UNL A   1      46.002  20.992  25.523  1.00  0.00    -0.377 OA
BRANCH   2   3
ATOM      3  C   UNL A   1      45.230  20.157  24.666  1.00  0.00     0.188 C 
BRANCH   3   4
ATOM      4  C   UNL A   1      44.332  19.044  25.324  1.00  0.00     0.188 C 
BRANCH   4   5
ATOM      5  O   UNL A   1      42.790  18.982  25.183  1.00  0.00    -0.376 OA
BRANCH   5   6
ATOM      6  C   UNL A   1      41.586  19.544  26.156  1.00  0.00     0.202 C 
BRANCH   6   7
ATOM      7  C   UNL A   1      40.609  21.094  26.480  1.00  0.00     0.261 C 
BRANCH   7   8
ATOM      8  O   UNL A   1      39.177  21.876  25.635  1.00  0.00    -0.460 OA
BRANCH   8   9
ATOM      9  C   UNL A   1      37.864  22.801  25.794  1.00  0.00     0.338 C 
ATOM     10  O   UNL A   1      37.981  23.831  26.479  1.00  0.00    -0.246 OA
BRANCH   9  11
ATOM     11  C   UNL A   1      36.250  22.641  25.312  1.00  0.00     0.064 A 
ATOM     12  C   UNL A   1      32.461  21.384  23.423  1.00  0.00     0.049 C 
ATOM     13  C   UNL A   1      33.712  21.846  24.110  1.00  0.00    -0.004 A 
ATOM     14  C   UNL A   1      34.424  21.007  24.985  1.00  0.00     0.008 A 
ATOM     15  C   UNL A   1      34.195  23.126  23.913  1.00  0.00     0.129 A 
ATOM     16  C   UNL A   1      35.684  21.378  25.526  1.00  0.00     0.016 A 
ATOM     17  C   UNL A   1      35.343  23.511  24.631  1.00  0.00     0.067 A 
BRANCH  15  18
ATOM     18  N   UNL A   1      33.824  23.927  22.813  1.00  0.00    -0.235 N 
ATOM     19  C   UNL A   1      33.121  24.994  22.882  1.00  0.00     0.309 C 
ATOM     20  H   UNL A   1      34.132  23.644  21.921  1.00  0.00     0.313 HD
ATOM     21  N   UNL A   1      32.591  25.684  23.926  1.00  0.00    -0.268 N 
ATOM     22  S   UNL A   1      32.668  25.782  21.360  1.00  0.00    -0.035 SA
ATOM     23  C   UNL A   1      31.868  26.898  23.612  1.00  0.00     0.246 C 
ATOM     24  H   UNL A   1      32.695  25.372  24.854  1.00  0.00     0.305 HD
ATOM     25  C   UNL A   1      31.365  26.752  22.176  1.00  0.00     0.128 C 
ENDBRANCH  15  18
ENDBRANCH   9  11
ENDBRANCH   8   9
ENDBRANCH   7   8
ENDBRANCH   6   7
ENDBRANCH   5   6
ENDBRANCH   4   5
ENDBRANCH   3   4
ENDBRANCH   2   3
ENDBRANCH   1   2
BRANCH   1  26
ATOM     26  C   UNL A   1      44.096  22.501  25.461  1.00  0.00     0.188 C 
BRANCH  26  27
ATOM     27  O   UNL A   1      43.665  23.336  26.522  1.00  0.00    -0.376 OA
BRANCH  27  28
ATOM     28  C   UNL A   1      43.509  24.720  26.262  1.00  0.00     0.202 C 
BRANCH  28  29
ATOM     29  C   UNL A   1      42.024  24.983  26.000  1.00  0.00     0.261 C 
BRANCH  29  30
ATOM     30  O   UNL A   1      41.289  24.962  27.250  1.00  0.00    -0.460 OA
BRANCH  30  31
ATOM     31  C   UNL A   1      41.853  25.637  28.273  1.00  0.00     0.338 C 
ATOM     32  O   UNL A   1      42.561  25.118  29.166  1.00  0.00    -0.246 OA
BRANCH  31  33
ATOM     33  C   UNL A   1      41.312  27.023  28.336  1.00  0.00     0.060 A 
ATOM     34  C   UNL A   1      42.039  28.088  27.823  1.00  0.00     0.016 A 
ATOM     35  C   UNL A   1      40.216  27.313  29.162  1.00  0.00     0.016 A 
ATOM     36  C   UNL A   1      41.772  29.380  28.303  1.00  0.00     0.010 A 
ATOM     37  C   UNL A   1      40.115  28.564  29.790  1.00  0.00     0.010 A 
ATOM     38  C   UNL A   1      41.021  29.590  29.489  1.00  0.00    -0.014 A 
BRANCH  38  39
ATOM     39  C   UNL A   1      41.013  30.963  30.376  1.00  0.00     0.031 A 
ATOM     40  C   UNL A   1      41.923  30.141  31.689  1.00  0.00     0.074 A 
ATOM     41  C   UNL A   1      40.121  32.385  30.360  1.00  0.00     0.049 A 
ATOM     42  N   UNL A   1      41.568  30.015  32.957  1.00  0.00    -0.248 NA
ATOM     43  C   UNL A   1      43.117  29.290  31.472  1.00  0.00     0.031 C 
ATOM     44  C   UNL A   1      39.987  33.735  31.380  1.00  0.00     0.029 A 
ATOM     45  N   UNL A   1      38.848  32.893  29.699  1.00  0.00    -0.354 N 
ATOM     46  C   UNL A   1      42.704  29.787  33.672  1.00  0.00     0.074 A 
ATOM     47  C   UNL A   1      43.476  29.003  32.734  1.00  0.00     0.031 C 
ATOM     48  C   UNL A   1      38.920  34.515  31.220  1.00  0.00     0.029 A 
ATOM     49  C   UNL A   1      38.013  33.718  30.505  1.00  0.00     0.049 A 
ATOM     50  H   UNL A   1      38.615  32.664  28.770  1.00  0.00     0.167 HD
ATOM     51  C   UNL A   1      43.061  30.593  34.737  1.00  0.00     0.037 A 
ATOM     52  C   UNL A   1      36.768  33.471  31.038  1.00  0.00     0.037 A 
ATOM     53  C   UNL A   1      42.105  31.725  35.021  1.00  0.00     0.049 A 
ATOM     54  C   UNL A   1      36.830  33.512  32.603  1.00  0.00     0.074 A 
ATOM     55  C   UNL A   1      42.262  33.104  34.875  1.00  0.00     0.029 A 
ATOM     56  N   UNL A   1      40.722  31.561  35.242  1.00  0.00    -0.354 N 
ATOM     57  N   UNL A   1      37.917  33.251  33.296  1.00  0.00    -0.248 NA
ATOM     58  C   UNL A   1      35.727  33.861  33.488  1.00  0.00     0.031 C 
ATOM     59  C   UNL A   1      41.002  33.749  34.943  1.00  0.00     0.029 A 
ATOM     60  C   UNL A   1      40.037  32.792  35.197  1.00  0.00     0.049 A 
ATOM     61  H   UNL A   1      40.288  30.694  35.409  1.00  0.00     0.167 HD
ATOM     62  C   UNL A   1      37.691  33.309  34.646  1.00  0.00     0.074 A 
ATOM     63  C   UNL A   1      36.306  33.764  34.704  1.00  0.00     0.031 C 
ATOM     64  C   UNL A   1      38.632  32.975  35.598  1.00  0.00     0.037 A 
BRANCH  51  65
ATOM     65  C   UNL A   1      44.553  30.639  35.149  1.00  0.00     0.064 A 
ATOM     66  C   UNL A   1      45.092  29.860  36.194  1.00  0.00     0.173 A 
ATOM     67  C   UNL A   1      45.486  31.529  34.578  1.00  0.00     0.173 A 
ATOM     68  F   UNL A   1      44.467  28.771  36.659  1.00  0.00    -0.203 F 
ATOM     69  C   UNL A   1      46.342  30.122  36.770  1.00  0.00     0.198 A 
ATOM     70  C   UNL A   1      46.717  31.830  35.175  1.00  0.00     0.198 A 
ATOM     71  F   UNL A   1      45.259  32.089  33.380  1.00  0.00    -0.203 F 
ATOM     72  F   UNL A   1      46.780  29.365  37.787  1.00  0.00    -0.200 F 
ATOM     73  C   UNL A   1      47.132  31.147  36.296  1.00  0.00     0.200 A 
ATOM     74  F   UNL A   1      47.500  32.782  34.647  1.00  0.00    -0.200 F 
ATOM     75  F   UNL A   1      48.310  31.426  36.871  1.00  0.00    -0.200 F 
ENDBRANCH  51  65
BRANCH  52  76
ATOM     76  C   UNL A   1      35.815  32.630  30.235  1.00  0.00     0.064 A 
ATOM     77  C   UNL A   1      34.804  33.275  29.495  1.00  0.00     0.173 A 
ATOM     78  C   UNL A   1      36.038  31.275  29.937  1.00  0.00     0.173 A 
ATOM     79  F   UNL A   1      34.476  34.547  29.771  1.00  0.00    -0.203 F 
ATOM     80  C   UNL A   1      34.190  32.665  28.399  1.00  0.00     0.198 A 
ATOM     81  C   UNL A   1      35.446  30.676  28.816  1.00  0.00     0.198 A 
ATOM     82  F   UNL A   1      36.981  30.587  30.597  1.00  0.00    -0.203 F 
ATOM     83  F   UNL A   1      33.317  33.355  27.649  1.00  0.00    -0.200 F 
ATOM     84  C   UNL A   1      34.553  31.383  28.027  1.00  0.00     0.200 A 
ATOM     85  F   UNL A   1      35.826  29.445  28.441  1.00  0.00    -0.200 F 
ATOM     86  F   UNL A   1      34.072  30.849  26.895  1.00  0.00    -0.200 F 
ENDBRANCH  52  76
BRANCH  64  87
ATOM     87  C   UNL A   1      38.372  32.958  37.094  1.00  0.00     0.064 A 
ATOM     88  C   UNL A   1      38.572  34.066  37.928  1.00  0.00     0.173 A 
ATOM     89  C   UNL A   1      37.774  31.829  37.717  1.00  0.00     0.173 A 
ATOM     90  F   UNL A   1      39.030  35.227  37.440  1.00  0.00    -0.203 F 
ATOM     91  C   UNL A   1      38.253  34.031  39.289  1.00  0.00     0.198 A 
ATOM     92  C   UNL A   1      37.397  31.821  39.058  1.00  0.00     0.198 A 
ATOM     93  F   UNL A   1      37.524  30.696  37.049  1.00  0.00    -0.203 F 
ATOM     94  F   UNL A   1      38.510  35.100  40.054  1.00  0.00    -0.200 F 
ATOM     95  C   UNL A   1      37.653  32.918  39.849  1.00  0.00     0.200 A 
ATOM     96  F   UNL A   1      36.776  30.749  39.569  1.00  0.00    -0.200 F 
ATOM     97  F   UNL A   1      37.305  32.910  41.142  1.00  0.00    -0.200 F 
ENDBRANCH  64  87
ENDBRANCH  38  39
ENDBRANCH  31  33
ENDBRANCH  30  31
ENDBRANCH  29  30
ENDBRANCH  28  29
ENDBRANCH  27  28
ENDBRANCH  26  27
ENDBRANCH   1  26
TORSDOF 21
ENDMDL
MODEL 3
REMARK VINA RESULT:     -10.7      3.410      5.535
REMARK SMILES Cc1ccc(C(=O)OCCOCCOCCOCCOC(=O)c2ccc(-c3c4nc(c(-c5c(F)c(F)c(F)c(F)c5F)c5ccc([nH]5)c(-c5c(F)c(F)c(F)c(F)c5F)c5nc(c(-c6c(F)c(F)c(F)c(F)c6F)c6ccc3[nH]6)C=C5)C=C4)cc2)cc1/[NH+]=C1\NCCS1
REMARK SMILES IDX 15 1 14 2 13 3 12 4 11 5 10 6 9 7 8 8 6 9 7 10 5 11 1 12
REMARK SMILES IDX 2 13 3 14 87 15 4 16 86 17 88 18 89 19 90 21 93 22 91 23
REMARK SMILES IDX 92 25 16 26 17 27 18 28 19 29 20 30 21 31 22 32 23 33 24 34
REMARK SMILES IDX 85 35 25 36 84 37 26 38 27 39 28 40 78 41 29 42 83 43 77 44
REMARK SMILES IDX 79 45 30 46 82 47 76 48 75 49 31 51 63 52 43 53 62 54 44 55
REMARK SMILES IDX 47 56 61 57 80 58 45 59 46 60 60 62 81 63 48 64 32 65 33 66
REMARK SMILES IDX 41 67 34 68 35 69 39 70 42 71 36 72 37 73 40 74 38 75 64 76
REMARK SMILES IDX 65 77 73 78 66 79 67 80 71 81 74 82 68 83 69 84 72 85 70 86
REMARK SMILES IDX 49 87 50 88 58 89 51 90 52 91 56 92 59 93 53 94 54 95 57 96
REMARK SMILES IDX 55 97
REMARK H PARENT 88 20 90 24 79 50 47 61
REMARK Flexibility Score: inf
ROOT
ATOM      1  C   UNL A   1      45.956  22.558  25.377  1.00  0.00     0.188 C 
ENDROOT
BRANCH   1   2
ATOM      2  O   UNL A   1      46.055  21.159  25.192  1.00  0.00    -0.377 OA
BRANCH   2   3
ATOM      3  C   UNL A   1      44.947  20.634  24.469  1.00  0.00     0.188 C 
BRANCH   3   4
ATOM      4  C   UNL A   1      44.384  19.226  24.889  1.00  0.00     0.188 C 
BRANCH   4   5
ATOM      5  O   UNL A   1      42.875  18.892  24.987  1.00  0.00    -0.376 OA
BRANCH   5   6
ATOM      6  C   UNL A   1      41.761  19.225  26.154  1.00  0.00     0.202 C 
BRANCH   6   7
ATOM      7  C   UNL A   1      40.744  20.641  26.805  1.00  0.00     0.261 C 
BRANCH   7   8
ATOM      8  O   UNL A   1      39.731  21.938  25.989  1.00  0.00    -0.460 OA
BRANCH   8   9
ATOM      9  C   UNL A   1      38.266  22.598  25.831  1.00  0.00     0.338 C 
ATOM     10  O   UNL A   1      38.035  23.622  26.496  1.00  0.00    -0.246 OA
BRANCH   9  11
ATOM     11  C   UNL A   1      36.856  22.143  25.013  1.00  0.00     0.064 A 
ATOM     12  C   UNL A   1      32.731  21.812  23.472  1.00  0.00     0.049 C 
ATOM     13  C   UNL A   1      34.153  21.884  23.945  1.00  0.00    -0.004 A 
ATOM     14  C   UNL A   1      34.958  23.007  23.688  1.00  0.00     0.008 A 
ATOM     15  C   UNL A   1      34.721  20.832  24.639  1.00  0.00     0.129 A 
ATOM     16  C   UNL A   1      36.253  23.152  24.253  1.00  0.00     0.016 A 
ATOM     17  C   UNL A   1      36.076  20.945  25.006  1.00  0.00     0.067 A 
BRANCH  15  18
ATOM     18  N   UNL A   1      33.960  19.836  25.284  1.00  0.00    -0.235 N 
ATOM     19  C   UNL A   1      33.902  18.607  24.930  1.00  0.00     0.309 C 
ATOM     20  H   UNL A   1      33.432  20.106  26.071  1.00  0.00     0.313 HD
ATOM     21  N   UNL A   1      34.526  17.899  23.952  1.00  0.00    -0.268 N 
ATOM     22  S   UNL A   1      32.785  17.548  25.810  1.00  0.00    -0.035 SA
ATOM     23  C   UNL A   1      34.230  16.483  23.876  1.00  0.00     0.246 C 
ATOM     24  H   UNL A   1      35.150  18.329  23.325  1.00  0.00     0.305 HD
ATOM     25  C   UNL A   1      32.849  16.288  24.500  1.00  0.00     0.128 C 
ENDBRANCH  15  18
ENDBRANCH   9  11
ENDBRANCH   8   9
ENDBRANCH   7   8
ENDBRANCH   6   7
ENDBRANCH   5   6
ENDBRANCH   4   5
ENDBRANCH   3   4
ENDBRANCH   2   3
ENDBRANCH   1   2
BRANCH   1  26
ATOM     26  C   UNL A   1      44.646  22.931  26.080  1.00  0.00     0.188 C 
BRANCH  26  27
ATOM     27  O   UNL A   1      44.827  23.959  27.039  1.00  0.00    -0.376 OA
BRANCH  27  28
ATOM     28  C   UNL A   1      44.627  25.300  26.627  1.00  0.00     0.202 C 
BRANCH  28  29
ATOM     29  C   UNL A   1      43.140  25.476  26.313  1.00  0.00     0.261 C 
BRANCH  29  30
ATOM     30  O   UNL A   1      42.357  25.339  27.526  1.00  0.00    -0.460 OA
BRANCH  30  31
ATOM     31  C   UNL A   1      42.776  26.069  28.580  1.00  0.00     0.338 C 
ATOM     32  O   UNL A   1      43.417  25.612  29.554  1.00  0.00    -0.246 OA
BRANCH  31  33
ATOM     33  C   UNL A   1      42.158  27.424  28.547  1.00  0.00     0.060 A 
ATOM     34  C   UNL A   1      42.891  28.523  28.124  1.00  0.00     0.016 A 
ATOM     35  C   UNL A   1      40.944  27.657  29.209  1.00  0.00     0.016 A 
ATOM     36  C   UNL A   1      42.491  29.802  28.544  1.00  0.00     0.010 A 
ATOM     37  C   UNL A   1      40.689  28.905  29.798  1.00  0.00     0.010 A 
ATOM     38  C   UNL A   1      41.571  29.978  29.611  1.00  0.00    -0.014 A 
BRANCH  38  39
ATOM     39  C   UNL A   1      41.365  31.354  30.468  1.00  0.00     0.031 A 
ATOM     40  C   UNL A   1      42.373  30.695  31.802  1.00  0.00     0.074 A 
ATOM     41  C   UNL A   1      40.284  32.637  30.418  1.00  0.00     0.049 A 
ATOM     42  N   UNL A   1      42.030  30.547  33.071  1.00  0.00    -0.248 NA
ATOM     43  C   UNL A   1      43.675  30.015  31.608  1.00  0.00     0.031 C 
ATOM     44  C   UNL A   1      39.955  33.977  31.409  1.00  0.00     0.029 A 
ATOM     45  N   UNL A   1      38.957  32.948  29.741  1.00  0.00    -0.354 N 
ATOM     46  C   UNL A   1      43.182  30.495  33.795  1.00  0.00     0.074 A 
ATOM     47  C   UNL A   1      44.062  29.807  32.877  1.00  0.00     0.031 C 
ATOM     48  C   UNL A   1      38.791  34.596  31.227  1.00  0.00     0.029 A 
ATOM     49  C   UNL A   1      38.009  33.666  30.526  1.00  0.00     0.049 A 
ATOM     50  H   UNL A   1      38.764  32.670  28.817  1.00  0.00     0.167 HD
ATOM     51  C   UNL A   1      43.416  31.365  34.844  1.00  0.00     0.037 A 
ATOM     52  C   UNL A   1      36.807  33.257  31.060  1.00  0.00     0.037 A 
ATOM     53  C   UNL A   1      42.309  32.358  35.100  1.00  0.00     0.049 A 
ATOM     54  C   UNL A   1      36.853  33.339  32.624  1.00  0.00     0.074 A 
ATOM     55  C   UNL A   1      42.273  33.742  34.925  1.00  0.00     0.029 A 
ATOM     56  N   UNL A   1      40.961  32.007  35.319  1.00  0.00    -0.354 N 
ATOM     57  N   UNL A   1      37.960  33.248  33.327  1.00  0.00    -0.248 NA
ATOM     58  C   UNL A   1      35.705  33.549  33.497  1.00  0.00     0.031 C 
ATOM     59  C   UNL A   1      40.935  34.207  34.974  1.00  0.00     0.029 A 
ATOM     60  C   UNL A   1      40.111  33.129  35.245  1.00  0.00     0.049 A 
ATOM     61  H   UNL A   1      40.652  31.092  35.503  1.00  0.00     0.167 HD
ATOM     62  C   UNL A   1      37.720  33.302  34.674  1.00  0.00     0.074 A 
ATOM     63  C   UNL A   1      36.284  33.559  34.717  1.00  0.00     0.031 C 
ATOM     64  C   UNL A   1      38.692  33.123  35.637  1.00  0.00     0.037 A 
BRANCH  51  65
ATOM     65  C   UNL A   1      44.883  31.628  35.260  1.00  0.00     0.064 A 
ATOM     66  C   UNL A   1      45.770  32.429  34.509  1.00  0.00     0.173 A 
ATOM     67  C   UNL A   1      45.492  31.019  36.377  1.00  0.00     0.173 A 
ATOM     68  F   UNL A   1      45.331  33.309  33.601  1.00  0.00    -0.203 F 
ATOM     69  C   UNL A   1      47.157  32.415  34.705  1.00  0.00     0.198 A 
ATOM     70  C   UNL A   1      46.881  30.962  36.552  1.00  0.00     0.198 A 
ATOM     71  F   UNL A   1      44.750  30.515  37.375  1.00  0.00    -0.203 F 
ATOM     72  F   UNL A   1      47.947  33.172  33.929  1.00  0.00    -0.200 F 
ATOM     73  C   UNL A   1      47.719  31.635  35.692  1.00  0.00     0.200 A 
ATOM     74  F   UNL A   1      47.398  30.256  37.568  1.00  0.00    -0.200 F 
ATOM     75  F   UNL A   1      49.048  31.589  35.854  1.00  0.00    -0.200 F 
ENDBRANCH  51  65
BRANCH  52  76
ATOM     76  C   UNL A   1      35.987  32.275  30.272  1.00  0.00     0.064 A 
ATOM     77  C   UNL A   1      34.887  32.754  29.532  1.00  0.00     0.173 A 
ATOM     78  C   UNL A   1      36.409  30.966  29.985  1.00  0.00     0.173 A 
ATOM     79  F   UNL A   1      34.374  33.965  29.799  1.00  0.00    -0.203 F 
ATOM     80  C   UNL A   1      34.365  32.048  28.446  1.00  0.00     0.198 A 
ATOM     81  C   UNL A   1      35.907  30.273  28.874  1.00  0.00     0.198 A 
ATOM     82  F   UNL A   1      37.447  30.434  30.646  1.00  0.00    -0.203 F 
ATOM     83  F   UNL A   1      33.395  32.592  27.696  1.00  0.00    -0.200 F 
ATOM     84  C   UNL A   1      34.913  30.831  28.084  1.00  0.00     0.200 A 
ATOM     85  F   UNL A   1      36.464  29.109  28.508  1.00  0.00    -0.200 F 
ATOM     86  F   UNL A   1      34.512  30.219  26.961  1.00  0.00    -0.200 F 
ENDBRANCH  52  76
BRANCH  64  87
ATOM     87  C   UNL A   1      38.427  33.101  37.132  1.00  0.00     0.064 A 
ATOM     88  C   UNL A   1      38.634  34.202  37.971  1.00  0.00     0.173 A 
ATOM     89  C   UNL A   1      37.817  31.974  37.747  1.00  0.00     0.173 A 
ATOM     90  F   UNL A   1      39.104  35.361  37.491  1.00  0.00    -0.203 F 
ATOM     91  C   UNL A   1      38.310  34.164  39.331  1.00  0.00     0.198 A 
ATOM     92  C   UNL A   1      37.435  31.963  39.087  1.00  0.00     0.198 A 
ATOM     93  F   UNL A   1      37.559  30.846  37.072  1.00  0.00    -0.203 F 
ATOM     94  F   UNL A   1      38.574  35.226  40.103  1.00  0.00    -0.200 F 
ATOM     95  C   UNL A   1      37.698  33.053  39.884  1.00  0.00     0.200 A 
ATOM     96  F   UNL A   1      36.802  30.894  39.591  1.00  0.00    -0.200 F 
ATOM     97  F   UNL A   1      37.346  33.042  41.176  1.00  0.00    -0.200 F 
ENDBRANCH  64  87
ENDBRANCH  38  39
ENDBRANCH  31  33
ENDBRANCH  30  31
ENDBRANCH  29  30
ENDBRANCH  28  29
ENDBRANCH  27  28
ENDBRANCH  26  27
ENDBRANCH   1  26
TORSDOF 21
ENDMDL
