MODEL 1
REMARK VINA RESULT:      -7.9      0.000      0.000
REMARK SMILES O=C(CSc1nnc(-c2ccncc2)s1)Nc1cccc(C(=O)OCCOCCOCCOCCOC(=O)c2ccc(-c3c4nc(c(-c5c(F)c(F)c(F)c(F)c5F)c5ccc([nH]5)c(-c5c(F)c(F)c(F)c(F)c5F)c5nc(c(-c6c(F)c(F)c(F)c(F)c6F)c6ccc3[nH]6)C=C5)C=C4)cc2)c1
REMARK SMILES IDX 28 1 27 2 26 3 25 4 24 5 22 6 23 7 21 8 17 9 18 10 102 11
REMARK SMILES IDX 19 12 20 13 16 14 1 15 2 16 3 18 4 19 5 20 6 21 15 22 7 23
REMARK SMILES IDX 8 24 9 25 10 26 14 27 11 28 13 29 12 30 29 31 30 32 31 33
REMARK SMILES IDX 32 34 33 35 34 36 35 37 36 38 37 39 38 40 39 41 40 42 101 43
REMARK SMILES IDX 41 44 100 45 42 46 43 47 44 48 94 49 45 50 99 51 93 52 95 53
REMARK SMILES IDX 46 54 98 55 92 56 91 57 47 59 79 60 59 61 78 62 60 63 63 64
REMARK SMILES IDX 77 65 96 66 61 67 62 68 76 70 97 71 64 72 48 73 49 74 57 75
REMARK SMILES IDX 50 76 51 77 55 78 58 79 52 80 53 81 56 82 54 83 80 84 81 85
REMARK SMILES IDX 89 86 82 87 83 88 87 89 90 90 84 91 85 92 88 93 86 94 65 95
REMARK SMILES IDX 66 96 74 97 67 98 68 99 72 100 75 101 69 102 70 103 73 104
REMARK SMILES IDX 71 105
REMARK H PARENT 16 17 95 58 63 69
REMARK Flexibility Score: inf
ROOT
ATOM      1  C   UNL A   1      39.404  33.054  38.095  1.00  0.00     0.188 C 
ENDROOT
BRANCH   1   2
ATOM      2  O   UNL A   1      39.555  32.065  37.093  1.00  0.00    -0.376 OA
BRANCH   2   3
ATOM      3  C   UNL A   1      39.190  32.368  35.762  1.00  0.00     0.202 C 
BRANCH   3   4
ATOM      4  C   UNL A   1      37.869  31.810  35.214  1.00  0.00     0.261 C 
BRANCH   4   5
ATOM      5  O   UNL A   1      37.492  32.258  33.910  1.00  0.00    -0.460 OA
BRANCH   5   6
ATOM      6  C   UNL A   1      36.195  32.578  33.702  1.00  0.00     0.338 C 
ATOM      7  O   UNL A   1      35.473  33.225  34.439  1.00  0.00    -0.246 OA
BRANCH   6   8
ATOM      8  C   UNL A   1      35.877  32.207  32.301  1.00  0.00     0.062 A 
ATOM      9  C   UNL A   1      36.318  30.841  30.349  1.00  0.00     0.042 A 
ATOM     10  C   UNL A   1      35.497  31.687  29.593  1.00  0.00     0.026 A 
ATOM     11  C   UNL A   1      36.533  31.131  31.695  1.00  0.00     0.041 A 
ATOM     12  C   UNL A   1      34.835  32.761  30.199  1.00  0.00     0.003 A 
ATOM     13  C   UNL A   1      35.005  33.010  31.561  1.00  0.00     0.016 A 
BRANCH   9  14
ATOM     14  N   UNL A   1      36.880  29.717  29.709  1.00  0.00    -0.325 N 
ATOM     15  O   UNL A   1      39.045  30.483  29.320  1.00  0.00    -0.274 OA
ATOM     16  C   UNL A   1      38.192  29.602  29.268  1.00  0.00     0.234 C 
ATOM     17  H   UNL A   1      36.288  28.943  29.563  1.00  0.00     0.169 HD
BRANCH  16  18
ATOM     18  C   UNL A   1      38.532  28.252  28.657  1.00  0.00     0.177 C 
BRANCH  18  19
ATOM     19  S   UNL A   1      39.994  27.499  29.423  1.00  0.00    -0.084 SA
BRANCH  19  20
ATOM     20  C   UNL A   1      40.359  26.252  28.253  1.00  0.00     0.175 A 
ATOM     21  N   UNL A   1      39.564  25.953  27.252  1.00  0.00    -0.131 NA
ATOM     22  S   UNL A   1      41.776  25.301  28.348  1.00  0.00    -0.086 S 
ATOM     23  N   UNL A   1      40.057  24.896  26.502  1.00  0.00    -0.137 NA
ATOM     24  C   UNL A   1      41.192  24.423  26.984  1.00  0.00     0.148 A 
BRANCH  24  25
ATOM     25  C   UNL A   1      41.943  23.287  26.439  1.00  0.00     0.015 A 
ATOM     26  C   UNL A   1      41.547  21.964  26.668  1.00  0.00     0.031 A 
ATOM     27  C   UNL A   1      43.075  23.510  25.650  1.00  0.00     0.031 A 
ATOM     28  C   UNL A   1      42.299  20.938  26.123  1.00  0.00     0.111 A 
ATOM     29  C   UNL A   1      43.766  22.416  25.154  1.00  0.00     0.111 A 
ATOM     30  N   UNL A   1      43.403  21.136  25.377  1.00  0.00    -0.265 NA
ENDBRANCH  24  25
ENDBRANCH  19  20
ENDBRANCH  18  19
ENDBRANCH  16  18
ENDBRANCH   9  14
ENDBRANCH   6   8
ENDBRANCH   5   6
ENDBRANCH   4   5
ENDBRANCH   3   4
ENDBRANCH   2   3
ENDBRANCH   1   2
BRANCH   1  31
ATOM     31  C   UNL A   1      40.424  32.936  39.251  1.00  0.00     0.188 C 
BRANCH  31  32
ATOM     32  O   UNL A   1      40.140  32.110  40.373  1.00  0.00    -0.377 OA
BRANCH  32  33
ATOM     33  C   UNL A   1      39.747  32.697  41.610  1.00  0.00     0.188 C 
BRANCH  33  34
ATOM     34  C   UNL A   1      40.800  33.116  42.664  1.00  0.00     0.188 C 
BRANCH  34  35
ATOM     35  O   UNL A   1      40.879  34.511  42.895  1.00  0.00    -0.376 OA
BRANCH  35  36
ATOM     36  C   UNL A   1      40.381  35.378  41.894  1.00  0.00     0.202 C 
BRANCH  36  37
ATOM     37  C   UNL A   1      41.410  36.184  41.089  1.00  0.00     0.261 C 
BRANCH  37  38
ATOM     38  O   UNL A   1      41.251  36.167  39.663  1.00  0.00    -0.460 OA
BRANCH  38  39
ATOM     39  C   UNL A   1      42.024  37.011  38.951  1.00  0.00     0.338 C 
ATOM     40  O   UNL A   1      42.557  38.038  39.346  1.00  0.00    -0.246 OA
BRANCH  39  41
ATOM     41  C   UNL A   1      42.284  36.392  37.638  1.00  0.00     0.060 A 
ATOM     42  C   UNL A   1      41.198  36.056  36.820  1.00  0.00     0.016 A 
ATOM     43  C   UNL A   1      43.593  36.134  37.221  1.00  0.00     0.016 A 
ATOM     44  C   UNL A   1      41.415  35.410  35.605  1.00  0.00     0.010 A 
ATOM     45  C   UNL A   1      43.809  35.466  36.012  1.00  0.00     0.010 A 
ATOM     46  C   UNL A   1      42.717  35.058  35.224  1.00  0.00    -0.014 A 
BRANCH  46  47
ATOM     47  C   UNL A   1      42.902  34.067  34.138  1.00  0.00     0.031 A 
ATOM     48  C   UNL A   1      43.115  34.580  32.739  1.00  0.00     0.074 A 
ATOM     49  C   UNL A   1      42.942  32.747  34.388  1.00  0.00     0.049 A 
ATOM     50  N   UNL A   1      43.316  33.920  31.628  1.00  0.00    -0.248 NA
ATOM     51  C   UNL A   1      43.096  36.043  32.574  1.00  0.00     0.031 C 
ATOM     52  C   UNL A   1      42.790  32.131  35.702  1.00  0.00     0.029 A 
ATOM     53  N   UNL A   1      43.130  31.688  33.534  1.00  0.00    -0.354 N 
ATOM     54  C   UNL A   1      43.443  34.884  30.636  1.00  0.00     0.074 A 
ATOM     55  C   UNL A   1      43.253  36.171  31.267  1.00  0.00     0.031 C 
ATOM     56  C   UNL A   1      42.885  30.796  35.570  1.00  0.00     0.029 A 
ATOM     57  C   UNL A   1      43.078  30.466  34.158  1.00  0.00     0.049 A 
ATOM     58  H   UNL A   1      43.285  31.795  32.568  1.00  0.00     0.167 HD
ATOM     59  C   UNL A   1      43.707  34.714  29.318  1.00  0.00     0.037 A 
ATOM     60  C   UNL A   1      43.162  29.226  33.639  1.00  0.00     0.037 A 
ATOM     61  C   UNL A   1      43.889  33.431  28.692  1.00  0.00     0.049 A 
ATOM     62  C   UNL A   1      43.391  29.058  32.157  1.00  0.00     0.074 A 
ATOM     63  C   UNL A   1      44.174  33.149  27.368  1.00  0.00     0.029 A 
ATOM     64  N   UNL A   1      43.795  32.212  29.349  1.00  0.00    -0.354 N 
ATOM     65  N   UNL A   1      43.537  29.972  31.229  1.00  0.00    -0.248 NA
ATOM     66  C   UNL A   1      43.479  27.680  31.656  1.00  0.00     0.031 C 
ATOM     67  C   UNL A   1      44.184  31.759  27.210  1.00  0.00     0.029 A 
ATOM     68  C   UNL A   1      43.985  31.173  28.450  1.00  0.00     0.049 A 
ATOM     69  H   UNL A   1      43.617  32.101  30.310  1.00  0.00     0.167 HD
ATOM     70  C   UNL A   1      43.770  29.285  30.043  1.00  0.00     0.074 A 
ATOM     71  C   UNL A   1      43.762  27.875  30.376  1.00  0.00     0.031 C 
ATOM     72  C   UNL A   1      43.975  29.773  28.794  1.00  0.00     0.037 A 
BRANCH  59  73
ATOM     73  C   UNL A   1      43.772  35.948  28.463  1.00  0.00     0.064 A 
ATOM     74  C   UNL A   1      44.979  36.622  28.219  1.00  0.00     0.173 A 
ATOM     75  C   UNL A   1      42.606  36.462  27.874  1.00  0.00     0.173 A 
ATOM     76  F   UNL A   1      46.121  36.185  28.772  1.00  0.00    -0.203 F 
ATOM     77  C   UNL A   1      45.010  37.783  27.449  1.00  0.00     0.198 A 
ATOM     78  C   UNL A   1      42.647  37.601  27.074  1.00  0.00     0.198 A 
ATOM     79  F   UNL A   1      41.425  35.859  28.072  1.00  0.00    -0.203 F 
ATOM     80  F   UNL A   1      46.163  38.445  27.285  1.00  0.00    -0.200 F 
ATOM     81  C   UNL A   1      43.845  38.267  26.872  1.00  0.00     0.200 A 
ATOM     82  F   UNL A   1      41.523  38.059  26.507  1.00  0.00    -0.200 F 
ATOM     83  F   UNL A   1      43.877  39.382  26.130  1.00  0.00    -0.200 F 
ENDBRANCH  59  73
BRANCH  60  84
ATOM     84  C   UNL A   1      43.030  28.039  34.526  1.00  0.00     0.064 A 
ATOM     85  C   UNL A   1      44.104  27.594  35.310  1.00  0.00     0.173 A 
ATOM     86  C   UNL A   1      41.831  27.312  34.591  1.00  0.00     0.173 A 
ATOM     87  F   UNL A   1      45.280  28.237  35.264  1.00  0.00    -0.203 F 
ATOM     88  C   UNL A   1      43.991  26.456  36.108  1.00  0.00     0.198 A 
ATOM     89  C   UNL A   1      41.710  26.194  35.413  1.00  0.00     0.198 A 
ATOM     90  F   UNL A   1      40.775  27.693  33.858  1.00  0.00    -0.203 F 
ATOM     91  F   UNL A   1      45.050  26.021  36.804  1.00  0.00    -0.200 F 
ATOM     92  C   UNL A   1      42.792  25.761  36.164  1.00  0.00     0.200 A 
ATOM     93  F   UNL A   1      40.545  25.533  35.472  1.00  0.00    -0.200 F 
ATOM     94  F   UNL A   1      42.683  24.669  36.931  1.00  0.00    -0.200 F 
ENDBRANCH  60  84
BRANCH  72  95
ATOM     95  C   UNL A   1      44.260  28.778  27.702  1.00  0.00     0.064 A 
ATOM     96  C   UNL A   1      45.537  28.225  27.512  1.00  0.00     0.173 A 
ATOM     97  C   UNL A   1      43.234  28.361  26.839  1.00  0.00     0.173 A 
ATOM     98  F   UNL A   1      46.557  28.592  28.303  1.00  0.00    -0.203 F 
ATOM     99  C   UNL A   1      45.785  27.334  26.470  1.00  0.00     0.198 A 
ATOM    100  C   UNL A   1      43.478  27.438  25.825  1.00  0.00     0.198 A 
ATOM    101  F   UNL A   1      41.992  28.845  26.981  1.00  0.00    -0.203 F 
ATOM    102  F   UNL A   1      47.028  26.876  26.264  1.00  0.00    -0.200 F 
ATOM    103  C   UNL A   1      44.754  26.937  25.632  1.00  0.00     0.200 A 
ATOM    104  F   UNL A   1      42.475  27.042  25.029  1.00  0.00    -0.200 F 
ATOM    105  F   UNL A   1      44.995  26.080  24.630  1.00  0.00    -0.200 F 
ENDBRANCH  72  95
ENDBRANCH  46  47
ENDBRANCH  39  41
ENDBRANCH  38  39
ENDBRANCH  37  38
ENDBRANCH  36  37
ENDBRANCH  35  36
ENDBRANCH  34  35
ENDBRANCH  33  34
ENDBRANCH  32  33
ENDBRANCH  31  32
ENDBRANCH   1  31
TORSDOF 25
ENDMDL
MODEL 2
REMARK VINA RESULT:      -7.6      7.788     12.490
REMARK SMILES O=C(CSc1nnc(-c2ccncc2)s1)Nc1cccc(C(=O)OCCOCCOCCOCCOC(=O)c2ccc(-c3c4nc(c(-c5c(F)c(F)c(F)c(F)c5F)c5ccc([nH]5)c(-c5c(F)c(F)c(F)c(F)c5F)c5nc(c(-c6c(F)c(F)c(F)c(F)c6F)c6ccc3[nH]6)C=C5)C=C4)cc2)c1
REMARK SMILES IDX 28 1 27 2 26 3 25 4 24 5 22 6 23 7 21 8 17 9 18 10 102 11
REMARK SMILES IDX 19 12 20 13 16 14 1 15 2 16 3 18 4 19 5 20 6 21 15 22 7 23
REMARK SMILES IDX 8 24 9 25 10 26 14 27 11 28 13 29 12 30 29 31 30 32 31 33
REMARK SMILES IDX 32 34 33 35 34 36 35 37 36 38 37 39 38 40 39 41 40 42 101 43
REMARK SMILES IDX 41 44 100 45 42 46 43 47 44 48 94 49 45 50 99 51 93 52 95 53
REMARK SMILES IDX 46 54 98 55 92 56 91 57 47 59 79 60 59 61 78 62 60 63 63 64
REMARK SMILES IDX 77 65 96 66 61 67 62 68 76 70 97 71 64 72 48 73 49 74 57 75
REMARK SMILES IDX 50 76 51 77 55 78 58 79 52 80 53 81 56 82 54 83 80 84 81 85
REMARK SMILES IDX 89 86 82 87 83 88 87 89 90 90 84 91 85 92 88 93 86 94 65 95
REMARK SMILES IDX 66 96 74 97 67 98 68 99 72 100 75 101 69 102 70 103 73 104
REMARK SMILES IDX 71 105
REMARK H PARENT 16 17 95 58 63 69
REMARK Flexibility Score: inf
ROOT
ATOM      1  C   UNL A   1      49.477  27.160  41.117  1.00  0.00     0.188 C 
ENDROOT
BRANCH   1   2
ATOM      2  O   UNL A   1      49.931  25.830  41.286  1.00  0.00    -0.376 OA
BRANCH   2   3
ATOM      3  C   UNL A   1      50.847  25.289  40.355  1.00  0.00     0.202 C 
BRANCH   3   4
ATOM      4  C   UNL A   1      50.726  23.806  39.978  1.00  0.00     0.261 C 
BRANCH   4   5
ATOM      5  O   UNL A   1      50.015  23.522  38.770  1.00  0.00    -0.460 OA
BRANCH   5   6
ATOM      6  C   UNL A   1      50.405  22.450  38.045  1.00  0.00     0.338 C 
ATOM      7  O   UNL A   1      51.534  22.192  37.667  1.00  0.00    -0.246 OA
BRANCH   6   8
ATOM      8  C   UNL A   1      49.252  21.519  37.997  1.00  0.00     0.062 A 
ATOM      9  C   UNL A   1      48.038  19.643  38.935  1.00  0.00     0.042 A 
ATOM     10  C   UNL A   1      47.263  19.583  37.770  1.00  0.00     0.026 A 
ATOM     11  C   UNL A   1      49.056  20.591  39.024  1.00  0.00     0.041 A 
ATOM     12  C   UNL A   1      47.454  20.514  36.742  1.00  0.00     0.003 A 
ATOM     13  C   UNL A   1      48.433  21.499  36.863  1.00  0.00     0.016 A 
BRANCH   9  14
ATOM     14  N   UNL A   1      47.735  18.745  39.980  1.00  0.00    -0.325 N 
ATOM     15  O   UNL A   1      45.461  19.168  40.260  1.00  0.00    -0.274 OA
ATOM     16  C   UNL A   1      46.482  18.549  40.547  1.00  0.00     0.234 C 
ATOM     17  H   UNL A   1      48.479  18.209  40.339  1.00  0.00     0.169 HD
BRANCH  16  18
ATOM     18  C   UNL A   1      46.443  17.478  41.625  1.00  0.00     0.177 C 
BRANCH  18  19
ATOM     19  S   UNL A   1      45.786  18.107  43.195  1.00  0.00    -0.084 SA
BRANCH  19  20
ATOM     20  C   UNL A   1      44.800  16.751  43.693  1.00  0.00     0.175 A 
ATOM     21  N   UNL A   1      44.534  16.482  44.949  1.00  0.00    -0.131 NA
ATOM     22  S   UNL A   1      44.134  15.649  42.569  1.00  0.00    -0.086 S 
ATOM     23  N   UNL A   1      43.777  15.327  45.078  1.00  0.00    -0.137 NA
ATOM     24  C   UNL A   1      43.526  14.757  43.914  1.00  0.00     0.148 A 
BRANCH  24  25
ATOM     25  C   UNL A   1      42.784  13.507  43.717  1.00  0.00     0.015 A 
ATOM     26  C   UNL A   1      41.479  13.496  43.211  1.00  0.00     0.031 A 
ATOM     27  C   UNL A   1      43.387  12.281  44.016  1.00  0.00     0.031 A 
ATOM     28  C   UNL A   1      40.836  12.282  43.047  1.00  0.00     0.111 A 
ATOM     29  C   UNL A   1      42.659  11.118  43.823  1.00  0.00     0.111 A 
ATOM     30  N   UNL A   1      41.395  11.094  43.349  1.00  0.00    -0.265 NA
ENDBRANCH  24  25
ENDBRANCH  19  20
ENDBRANCH  18  19
ENDBRANCH  16  18
ENDBRANCH   9  14
ENDBRANCH   6   8
ENDBRANCH   5   6
ENDBRANCH   4   5
ENDBRANCH   3   4
ENDBRANCH   2   3
ENDBRANCH   1   2
BRANCH   1  31
ATOM     31  C   UNL A   1      48.122  27.451  41.803  1.00  0.00     0.188 C 
BRANCH  31  32
ATOM     32  O   UNL A   1      47.244  28.433  41.266  1.00  0.00    -0.377 OA
BRANCH  32  33
ATOM     33  C   UNL A   1      45.893  28.502  41.711  1.00  0.00     0.188 C 
BRANCH  33  34
ATOM     34  C   UNL A   1      44.947  27.285  41.579  1.00  0.00     0.188 C 
BRANCH  34  35
ATOM     35  O   UNL A   1      44.417  27.090  40.279  1.00  0.00    -0.376 OA
BRANCH  35  36
ATOM     36  C   UNL A   1      44.768  25.904  39.592  1.00  0.00     0.202 C 
BRANCH  36  37
ATOM     37  C   UNL A   1      46.248  25.714  39.232  1.00  0.00     0.261 C 
BRANCH  37  38
ATOM     38  O   UNL A   1      46.763  26.574  38.205  1.00  0.00    -0.460 OA
BRANCH  38  39
ATOM     39  C   UNL A   1      47.093  25.995  37.032  1.00  0.00     0.338 C 
ATOM     40  O   UNL A   1      47.957  25.153  36.840  1.00  0.00    -0.246 OA
BRANCH  39  41
ATOM     41  C   UNL A   1      46.101  26.413  36.024  1.00  0.00     0.060 A 
ATOM     42  C   UNL A   1      46.384  27.521  35.213  1.00  0.00     0.016 A 
ATOM     43  C   UNL A   1      44.894  25.724  35.887  1.00  0.00     0.016 A 
ATOM     44  C   UNL A   1      45.436  27.975  34.300  1.00  0.00     0.010 A 
ATOM     45  C   UNL A   1      43.934  26.193  34.985  1.00  0.00     0.010 A 
ATOM     46  C   UNL A   1      44.183  27.350  34.225  1.00  0.00    -0.014 A 
BRANCH  46  47
ATOM     47  C   UNL A   1      43.074  28.051  33.535  1.00  0.00     0.031 A 
ATOM     48  C   UNL A   1      42.826  27.731  32.086  1.00  0.00     0.074 A 
ATOM     49  C   UNL A   1      42.266  28.903  34.188  1.00  0.00     0.049 A 
ATOM     50  N   UNL A   1      41.912  28.195  31.272  1.00  0.00    -0.248 NA
ATOM     51  C   UNL A   1      43.739  26.753  31.472  1.00  0.00     0.031 C 
ATOM     52  C   UNL A   1      42.378  29.263  35.599  1.00  0.00     0.029 A 
ATOM     53  N   UNL A   1      41.182  29.619  33.740  1.00  0.00    -0.354 N 
ATOM     54  C   UNL A   1      42.144  27.569  30.053  1.00  0.00     0.074 A 
ATOM     55  C   UNL A   1      43.308  26.728  30.221  1.00  0.00     0.031 C 
ATOM     56  C   UNL A   1      41.403  30.138  35.903  1.00  0.00     0.029 A 
ATOM     57  C   UNL A   1      40.618  30.418  34.701  1.00  0.00     0.049 A 
ATOM     58  H   UNL A   1      40.844  29.563  32.817  1.00  0.00     0.167 HD
ATOM     59  C   UNL A   1      41.442  27.676  28.900  1.00  0.00     0.037 A 
ATOM     60  C   UNL A   1      39.592  31.288  34.612  1.00  0.00     0.037 A 
ATOM     61  C   UNL A   1      40.287  28.519  28.735  1.00  0.00     0.049 A 
ATOM     62  C   UNL A   1      38.865  31.440  33.299  1.00  0.00     0.074 A 
ATOM     63  C   UNL A   1      39.496  28.690  27.612  1.00  0.00     0.029 A 
ATOM     64  N   UNL A   1      39.764  29.343  29.721  1.00  0.00    -0.354 N 
ATOM     65  N   UNL A   1      39.070  30.826  32.158  1.00  0.00    -0.248 NA
ATOM     66  C   UNL A   1      37.752  32.399  33.268  1.00  0.00     0.031 C 
ATOM     67  C   UNL A   1      38.537  29.667  27.899  1.00  0.00     0.029 A 
ATOM     68  C   UNL A   1      38.678  30.048  29.224  1.00  0.00     0.049 A 
ATOM     69  H   UNL A   1      40.113  29.417  30.638  1.00  0.00     0.167 HD
ATOM     70  C   UNL A   1      38.094  31.296  31.286  1.00  0.00     0.074 A 
ATOM     71  C   UNL A   1      37.286  32.234  32.039  1.00  0.00     0.031 C 
ATOM     72  C   UNL A   1      37.882  30.979  29.984  1.00  0.00     0.037 A 
BRANCH  59  73
ATOM     73  C   UNL A   1      41.933  26.889  27.718  1.00  0.00     0.064 A 
ATOM     74  C   UNL A   1      41.450  25.604  27.425  1.00  0.00     0.173 A 
ATOM     75  C   UNL A   1      42.903  27.433  26.860  1.00  0.00     0.173 A 
ATOM     76  F   UNL A   1      40.536  25.028  28.222  1.00  0.00    -0.203 F 
ATOM     77  C   UNL A   1      41.944  24.880  26.342  1.00  0.00     0.198 A 
ATOM     78  C   UNL A   1      43.367  26.722  25.757  1.00  0.00     0.198 A 
ATOM     79  F   UNL A   1      43.400  28.657  27.091  1.00  0.00    -0.203 F 
ATOM     80  F   UNL A   1      41.515  23.631  26.122  1.00  0.00    -0.200 F 
ATOM     81  C   UNL A   1      42.897  25.442  25.505  1.00  0.00     0.200 A 
ATOM     82  F   UNL A   1      44.277  27.272  24.942  1.00  0.00    -0.200 F 
ATOM     83  F   UNL A   1      43.369  24.746  24.463  1.00  0.00    -0.200 F 
ENDBRANCH  59  73
BRANCH  60  84
ATOM     84  C   UNL A   1      39.187  32.084  35.801  1.00  0.00     0.064 A 
ATOM     85  C   UNL A   1      38.292  31.572  36.750  1.00  0.00     0.173 A 
ATOM     86  C   UNL A   1      39.672  33.387  35.999  1.00  0.00     0.173 A 
ATOM     87  F   UNL A   1      37.779  30.343  36.592  1.00  0.00    -0.203 F 
ATOM     88  C   UNL A   1      37.881  32.338  37.840  1.00  0.00     0.198 A 
ATOM     89  C   UNL A   1      39.285  34.139  37.106  1.00  0.00     0.198 A 
ATOM     90  F   UNL A   1      40.527  33.926  35.118  1.00  0.00    -0.203 F 
ATOM     91  F   UNL A   1      36.983  31.843  38.702  1.00  0.00    -0.200 F 
ATOM     92  C   UNL A   1      38.384  33.618  38.021  1.00  0.00     0.200 A 
ATOM     93  F   UNL A   1      39.782  35.371  37.282  1.00  0.00    -0.200 F 
ATOM     94  F   UNL A   1      37.990  34.352  39.070  1.00  0.00    -0.200 F 
ENDBRANCH  60  84
BRANCH  72  95
ATOM     95  C   UNL A   1      36.698  31.613  29.303  1.00  0.00     0.064 A 
ATOM     96  C   UNL A   1      36.662  32.982  28.994  1.00  0.00     0.173 A 
ATOM     97  C   UNL A   1      35.587  30.833  28.945  1.00  0.00     0.173 A 
ATOM     98  F   UNL A   1      37.693  33.776  29.320  1.00  0.00    -0.203 F 
ATOM     99  C   UNL A   1      35.539  33.552  28.398  1.00  0.00     0.198 A 
ATOM    100  C   UNL A   1      34.484  31.400  28.313  1.00  0.00     0.198 A 
ATOM    101  F   UNL A   1      35.572  29.517  29.204  1.00  0.00    -0.203 F 
ATOM    102  F   UNL A   1      35.498  34.874  28.179  1.00  0.00    -0.200 F 
ATOM    103  C   UNL A   1      34.454  32.760  28.052  1.00  0.00     0.200 A 
ATOM    104  F   UNL A   1      33.446  30.628  27.962  1.00  0.00    -0.200 F 
ATOM    105  F   UNL A   1      33.374  33.311  27.481  1.00  0.00    -0.200 F 
ENDBRANCH  72  95
ENDBRANCH  46  47
ENDBRANCH  39  41
ENDBRANCH  38  39
ENDBRANCH  37  38
ENDBRANCH  36  37
ENDBRANCH  35  36
ENDBRANCH  34  35
ENDBRANCH  33  34
ENDBRANCH  32  33
ENDBRANCH  31  32
ENDBRANCH   1  31
TORSDOF 25
ENDMDL
MODEL 3
REMARK VINA RESULT:      -7.2      5.420     10.168
REMARK SMILES O=C(CSc1nnc(-c2ccncc2)s1)Nc1cccc(C(=O)OCCOCCOCCOCCOC(=O)c2ccc(-c3c4nc(c(-c5c(F)c(F)c(F)c(F)c5F)c5ccc([nH]5)c(-c5c(F)c(F)c(F)c(F)c5F)c5nc(c(-c6c(F)c(F)c(F)c(F)c6F)c6ccc3[nH]6)C=C5)C=C4)cc2)c1
REMARK SMILES IDX 28 1 27 2 26 3 25 4 24 5 22 6 23 7 21 8 17 9 18 10 102 11
REMARK SMILES IDX 19 12 20 13 16 14 1 15 2 16 3 18 4 19 5 20 6 21 15 22 7 23
REMARK SMILES IDX 8 24 9 25 10 26 14 27 11 28 13 29 12 30 29 31 30 32 31 33
REMARK SMILES IDX 32 34 33 35 34 36 35 37 36 38 37 39 38 40 39 41 40 42 101 43
REMARK SMILES IDX 41 44 100 45 42 46 43 47 44 48 94 49 45 50 99 51 93 52 95 53
REMARK SMILES IDX 46 54 98 55 92 56 91 57 47 59 79 60 59 61 78 62 60 63 63 64
REMARK SMILES IDX 77 65 96 66 61 67 62 68 76 70 97 71 64 72 48 73 49 74 57 75
REMARK SMILES IDX 50 76 51 77 55 78 58 79 52 80 53 81 56 82 54 83 80 84 81 85
REMARK SMILES IDX 89 86 82 87 83 88 87 89 90 90 84 91 85 92 88 93 86 94 65 95
REMARK SMILES IDX 66 96 74 97 67 98 68 99 72 100 75 101 69 102 70 103 73 104
REMARK SMILES IDX 71 105
REMARK H PARENT 16 17 95 58 63 69
REMARK Flexibility Score: inf
ROOT
ATOM      1  C   UNL A   1      41.309  34.452  29.777  1.00  0.00     0.188 C 
ENDROOT
BRANCH   1   2
ATOM      2  O   UNL A   1      39.986  34.953  29.717  1.00  0.00    -0.376 OA
BRANCH   2   3
ATOM      3  C   UNL A   1      38.928  34.175  30.240  1.00  0.00     0.202 C 
BRANCH   3   4
ATOM      4  C   UNL A   1      38.474  32.932  29.464  1.00  0.00     0.261 C 
BRANCH   4   5
ATOM      5  O   UNL A   1      38.020  31.831  30.256  1.00  0.00    -0.460 OA
BRANCH   5   6
ATOM      6  C   UNL A   1      36.828  31.952  30.884  1.00  0.00     0.338 C 
ATOM      7  O   UNL A   1      36.643  32.192  32.064  1.00  0.00    -0.246 OA
BRANCH   6   8
ATOM      8  C   UNL A   1      35.785  31.982  29.830  1.00  0.00     0.062 A 
ATOM      9  C   UNL A   1      34.866  31.092  27.772  1.00  0.00     0.042 A 
ATOM     10  C   UNL A   1      34.011  32.199  27.695  1.00  0.00     0.026 A 
ATOM     11  C   UNL A   1      35.777  31.011  28.823  1.00  0.00     0.041 A 
ATOM     12  C   UNL A   1      34.014  33.169  28.704  1.00  0.00     0.003 A 
ATOM     13  C   UNL A   1      34.885  33.051  29.786  1.00  0.00     0.016 A 
BRANCH   9  14
ATOM     14  N   UNL A   1      34.750  30.094  26.782  1.00  0.00    -0.325 N 
ATOM     15  O   UNL A   1      32.966  28.858  27.628  1.00  0.00    -0.274 OA
ATOM     16  C   UNL A   1      33.807  29.075  26.760  1.00  0.00     0.234 C 
ATOM     17  H   UNL A   1      35.396  30.123  26.039  1.00  0.00     0.169 HD
BRANCH  16  18
ATOM     18  C   UNL A   1      33.889  28.171  25.541  1.00  0.00     0.177 C 
BRANCH  18  19
ATOM     19  S   UNL A   1      32.581  26.913  25.528  1.00  0.00    -0.084 SA
BRANCH  19  20
ATOM     20  C   UNL A   1      31.392  27.701  24.515  1.00  0.00     0.175 A 
ATOM     21  N   UNL A   1      30.715  27.071  23.584  1.00  0.00    -0.131 NA
ATOM     22  S   UNL A   1      31.049  29.370  24.645  1.00  0.00    -0.086 S 
ATOM     23  N   UNL A   1      29.876  27.931  22.890  1.00  0.00    -0.137 NA
ATOM     24  C   UNL A   1      29.975  29.179  23.309  1.00  0.00     0.148 A 
BRANCH  24  25
ATOM     25  C   UNL A   1      29.249  30.327  22.755  1.00  0.00     0.015 A 
ATOM     26  C   UNL A   1      28.715  31.327  23.575  1.00  0.00     0.031 A 
ATOM     27  C   UNL A   1      29.095  30.455  21.371  1.00  0.00     0.031 A 
ATOM     28  C   UNL A   1      28.043  32.385  22.988  1.00  0.00     0.111 A 
ATOM     29  C   UNL A   1      28.400  31.548  20.878  1.00  0.00     0.111 A 
ATOM     30  N   UNL A   1      27.868  32.513  21.658  1.00  0.00    -0.265 NA
ENDBRANCH  24  25
ENDBRANCH  19  20
ENDBRANCH  18  19
ENDBRANCH  16  18
ENDBRANCH   9  14
ENDBRANCH   6   8
ENDBRANCH   5   6
ENDBRANCH   4   5
ENDBRANCH   3   4
ENDBRANCH   2   3
ENDBRANCH   1   2
BRANCH   1  31
ATOM     31  C   UNL A   1      42.336  35.299  28.991  1.00  0.00     0.188 C 
BRANCH  31  32
ATOM     32  O   UNL A   1      41.964  35.920  27.767  1.00  0.00    -0.377 OA
BRANCH  32  33
ATOM     33  C   UNL A   1      42.968  36.388  26.871  1.00  0.00     0.188 C 
BRANCH  33  34
ATOM     34  C   UNL A   1      43.695  37.730  27.120  1.00  0.00     0.188 C 
BRANCH  34  35
ATOM     35  O   UNL A   1      45.092  37.613  27.329  1.00  0.00    -0.376 OA
BRANCH  35  36
ATOM     36  C   UNL A   1      45.954  38.300  26.442  1.00  0.00     0.202 C 
BRANCH  36  37
ATOM     37  C   UNL A   1      47.169  37.528  25.907  1.00  0.00     0.261 C 
BRANCH  37  38
ATOM     38  O   UNL A   1      47.430  36.257  26.522  1.00  0.00    -0.460 OA
BRANCH  38  39
ATOM     39  C   UNL A   1      47.113  35.157  25.810  1.00  0.00     0.338 C 
ATOM     40  O   UNL A   1      47.334  34.954  24.625  1.00  0.00    -0.246 OA
BRANCH  39  41
ATOM     41  C   UNL A   1      46.611  34.136  26.749  1.00  0.00     0.060 A 
ATOM     42  C   UNL A   1      46.846  34.303  28.120  1.00  0.00     0.016 A 
ATOM     43  C   UNL A   1      45.921  33.016  26.278  1.00  0.00     0.016 A 
ATOM     44  C   UNL A   1      46.440  33.320  29.020  1.00  0.00     0.010 A 
ATOM     45  C   UNL A   1      45.533  32.020  27.179  1.00  0.00     0.010 A 
ATOM     46  C   UNL A   1      45.836  32.147  28.547  1.00  0.00    -0.014 A 
BRANCH  46  47
ATOM     47  C   UNL A   1      45.746  30.975  29.449  1.00  0.00     0.031 A 
ATOM     48  C   UNL A   1      46.917  30.031  29.503  1.00  0.00     0.074 A 
ATOM     49  C   UNL A   1      44.683  30.780  30.248  1.00  0.00     0.049 A 
ATOM     50  N   UNL A   1      47.088  28.950  30.221  1.00  0.00    -0.248 NA
ATOM     51  C   UNL A   1      48.052  30.354  28.623  1.00  0.00     0.031 C 
ATOM     52  C   UNL A   1      43.508  31.643  30.317  1.00  0.00     0.029 A 
ATOM     53  N   UNL A   1      44.429  29.786  31.161  1.00  0.00    -0.354 N 
ATOM     54  C   UNL A   1      48.343  28.465  29.874  1.00  0.00     0.074 A 
ATOM     55  C   UNL A   1      48.872  29.341  28.854  1.00  0.00     0.031 C 
ATOM     56  C   UNL A   1      42.651  31.138  31.222  1.00  0.00     0.029 A 
ATOM     57  C   UNL A   1      43.208  29.904  31.774  1.00  0.00     0.049 A 
ATOM     58  H   UNL A   1      45.063  29.057  31.355  1.00  0.00     0.167 HD
ATOM     59  C   UNL A   1      49.002  27.391  30.373  1.00  0.00     0.037 A 
ATOM     60  C   UNL A   1      42.606  29.095  32.669  1.00  0.00     0.037 A 
ATOM     61  C   UNL A   1      48.470  26.517  31.385  1.00  0.00     0.049 A 
ATOM     62  C   UNL A   1      43.332  27.868  33.161  1.00  0.00     0.074 A 
ATOM     63  C   UNL A   1      49.061  25.410  31.967  1.00  0.00     0.029 A 
ATOM     64  N   UNL A   1      47.213  26.647  31.959  1.00  0.00    -0.354 N 
ATOM     65  N   UNL A   1      44.528  27.428  32.852  1.00  0.00    -0.248 NA
ATOM     66  C   UNL A   1      42.624  27.031  34.140  1.00  0.00     0.031 C 
ATOM     67  C   UNL A   1      48.137  24.832  32.843  1.00  0.00     0.029 A 
ATOM     68  C   UNL A   1      46.998  25.622  32.867  1.00  0.00     0.049 A 
ATOM     69  H   UNL A   1      46.569  27.361  31.750  1.00  0.00     0.167 HD
ATOM     70  C   UNL A   1      44.731  26.288  33.620  1.00  0.00     0.074 A 
ATOM     71  C   UNL A   1      43.538  26.115  34.424  1.00  0.00     0.031 C 
ATOM     72  C   UNL A   1      45.807  25.461  33.662  1.00  0.00     0.037 A 
BRANCH  59  73
ATOM     73  C   UNL A   1      50.356  27.084  29.795  1.00  0.00     0.064 A 
ATOM     74  C   UNL A   1      51.539  27.571  30.371  1.00  0.00     0.173 A 
ATOM     75  C   UNL A   1      50.469  26.285  28.646  1.00  0.00     0.173 A 
ATOM     76  F   UNL A   1      51.488  28.355  31.460  1.00  0.00    -0.203 F 
ATOM     77  C   UNL A   1      52.781  27.300  29.799  1.00  0.00     0.198 A 
ATOM     78  C   UNL A   1      51.713  25.985  28.099  1.00  0.00     0.198 A 
ATOM     79  F   UNL A   1      49.371  25.792  28.054  1.00  0.00    -0.203 F 
ATOM     80  F   UNL A   1      53.890  27.830  30.330  1.00  0.00    -0.200 F 
ATOM     81  C   UNL A   1      52.867  26.502  28.668  1.00  0.00     0.200 A 
ATOM     82  F   UNL A   1      51.795  25.203  27.015  1.00  0.00    -0.200 F 
ATOM     83  F   UNL A   1      54.061  26.239  28.121  1.00  0.00    -0.200 F 
ENDBRANCH  59  73
BRANCH  60  84
ATOM     84  C   UNL A   1      41.240  29.418  33.161  1.00  0.00     0.064 A 
ATOM     85  C   UNL A   1      40.098  28.996  32.467  1.00  0.00     0.173 A 
ATOM     86  C   UNL A   1      41.051  30.178  34.326  1.00  0.00     0.173 A 
ATOM     87  F   UNL A   1      40.225  28.291  31.333  1.00  0.00    -0.203 F 
ATOM     88  C   UNL A   1      38.819  29.337  32.908  1.00  0.00     0.198 A 
ATOM     89  C   UNL A   1      39.772  30.491  34.783  1.00  0.00     0.198 A 
ATOM     90  F   UNL A   1      42.110  30.610  35.025  1.00  0.00    -0.203 F 
ATOM     91  F   UNL A   1      37.747  28.966  32.195  1.00  0.00    -0.200 F 
ATOM     92  C   UNL A   1      38.658  30.078  34.069  1.00  0.00     0.200 A 
ATOM     93  F   UNL A   1      39.621  31.197  35.911  1.00  0.00    -0.200 F 
ATOM     94  F   UNL A   1      37.430  30.404  34.492  1.00  0.00    -0.200 F 
ENDBRANCH  60  84
BRANCH  72  95
ATOM     95  C   UNL A   1      45.764  24.323  34.646  1.00  0.00     0.064 A 
ATOM     96  C   UNL A   1      45.298  23.048  34.291  1.00  0.00     0.173 A 
ATOM     97  C   UNL A   1      46.210  24.511  35.964  1.00  0.00     0.173 A 
ATOM     98  F   UNL A   1      44.853  22.813  33.047  1.00  0.00    -0.203 F 
ATOM     99  C   UNL A   1      45.232  22.020  35.230  1.00  0.00     0.198 A 
ATOM    100  C   UNL A   1      46.182  23.470  36.888  1.00  0.00     0.198 A 
ATOM    101  F   UNL A   1      46.679  25.704  36.357  1.00  0.00    -0.203 F 
ATOM    102  F   UNL A   1      44.715  20.833  34.886  1.00  0.00    -0.200 F 
ATOM    103  C   UNL A   1      45.680  22.231  36.526  1.00  0.00     0.200 A 
ATOM    104  F   UNL A   1      46.634  23.671  38.134  1.00  0.00    -0.200 F 
ATOM    105  F   UNL A   1      45.616  21.242  37.428  1.00  0.00    -0.200 F 
ENDBRANCH  72  95
ENDBRANCH  46  47
ENDBRANCH  39  41
ENDBRANCH  38  39
ENDBRANCH  37  38
ENDBRANCH  36  37
ENDBRANCH  35  36
ENDBRANCH  34  35
ENDBRANCH  33  34
ENDBRANCH  32  33
ENDBRANCH  31  32
ENDBRANCH   1  31
TORSDOF 25
ENDMDL
