MODEL 1
REMARK VINA RESULT:      -8.6      0.000      0.000
REMARK SMILES C[C@H](Oc1ccc(/C=C\C(=O)c2ccccc2)cc1)C(=O)OCCOCCOCCOCCOC(=O)c1ccc(-c2c3nc(c(-c4c(F)c(F)c(F)c(F)c4F)c4ccc([nH]4)c(-c4c(F)c(F)c(F)c(F)c4F)c4nc(c(-c5c(F)c(F)c(F)c(F)c5F)c5ccc2[nH]5)C=C4)C=C3)cc1
REMARK SMILES IDX 26 1 25 2 24 3 23 4 22 5 20 6 21 7 2 8 1 9 3 10 4 11 5 12
REMARK SMILES IDX 19 13 6 14 18 15 7 16 8 17 9 18 10 19 11 20 12 21 13 22
REMARK SMILES IDX 17 23 14 24 16 25 15 26 27 27 28 28 29 29 30 30 31 31 32 32
REMARK SMILES IDX 33 33 34 34 35 35 36 36 37 37 38 38 99 39 39 40 98 41 40 42
REMARK SMILES IDX 41 43 42 44 92 45 43 46 97 47 91 48 93 49 44 50 96 51 90 52
REMARK SMILES IDX 89 53 45 55 77 56 57 57 76 58 58 59 61 60 75 61 94 62 59 63
REMARK SMILES IDX 60 64 74 66 95 67 62 68 46 69 47 70 55 71 48 72 49 73 53 74
REMARK SMILES IDX 56 75 50 76 51 77 54 78 52 79 78 80 79 81 87 82 80 83 81 84
REMARK SMILES IDX 85 85 88 86 82 87 83 88 86 89 84 90 63 91 64 92 72 93 65 94
REMARK SMILES IDX 66 95 70 96 73 97 67 98 68 99 71 100 69 101
REMARK H PARENT 93 54 61 65
REMARK Flexibility Score: inf
ROOT
ATOM      1  C   UNL A   1      33.584  28.429  25.693  1.00  0.00     0.188 C 
ENDROOT
BRANCH   1   2
ATOM      2  O   UNL A   1      33.816  27.043  25.473  1.00  0.00    -0.376 OA
BRANCH   2   3
ATOM      3  C   UNL A   1      33.553  26.416  24.227  1.00  0.00     0.202 C 
BRANCH   3   4
ATOM      4  C   UNL A   1      33.160  24.941  24.141  1.00  0.00     0.261 C 
BRANCH   4   5
ATOM      5  O   UNL A   1      34.010  24.127  23.328  1.00  0.00    -0.461 OA
BRANCH   5   6
ATOM      6  C   UNL A   1      34.491  22.997  23.905  1.00  0.00     0.347 C 
ATOM      7  O   UNL A   1      33.801  22.065  24.308  1.00  0.00    -0.248 OA
BRANCH   6   8
ATOM      8  C   UNL A   1      35.994  23.089  24.176  1.00  0.00     0.279 C 
ATOM      9  C   UNL A   1      36.560  22.930  22.763  1.00  0.00     0.066 C 
BRANCH   8  10
ATOM     10  O   UNL A   1      36.485  22.123  25.123  1.00  0.00    -0.479 OA
BRANCH  10  11
ATOM     11  C   UNL A   1      37.634  22.516  25.763  1.00  0.00     0.120 A 
ATOM     12  C   UNL A   1      37.693  23.741  26.415  1.00  0.00     0.047 A 
ATOM     13  C   UNL A   1      38.791  21.734  25.691  1.00  0.00     0.047 A 
ATOM     14  C   UNL A   1      38.815  24.096  27.158  1.00  0.00     0.012 A 
ATOM     15  C   UNL A   1      39.929  22.093  26.437  1.00  0.00     0.012 A 
ATOM     16  C   UNL A   1      39.904  23.230  27.255  1.00  0.00    -0.025 A 
BRANCH  16  17
ATOM     17  C   UNL A   1      40.970  23.507  28.225  1.00  0.00     0.012 C 
ATOM     18  C   UNL A   1      41.997  24.360  28.041  1.00  0.00     0.053 C 
BRANCH  18  19
ATOM     19  C   UNL A   1      42.298  25.228  26.859  1.00  0.00     0.185 C 
ATOM     20  O   UNL A   1      43.072  24.814  26.000  1.00  0.00    -0.289 OA
BRANCH  19  21
ATOM     21  C   UNL A   1      41.674  26.568  26.708  1.00  0.00     0.022 A 
ATOM     22  C   UNL A   1      40.606  26.904  27.553  1.00  0.00     0.012 A 
ATOM     23  C   UNL A   1      42.131  27.495  25.766  1.00  0.00     0.012 A 
ATOM     24  C   UNL A   1      40.032  28.175  27.486  1.00  0.00     0.001 A 
ATOM     25  C   UNL A   1      41.555  28.766  25.704  1.00  0.00     0.001 A 
ATOM     26  C   UNL A   1      40.510  29.106  26.564  1.00  0.00     0.000 A 
ENDBRANCH  19  21
ENDBRANCH  18  19
ENDBRANCH  16  17
ENDBRANCH  10  11
ENDBRANCH   8  10
ENDBRANCH   6   8
ENDBRANCH   5   6
ENDBRANCH   4   5
ENDBRANCH   3   4
ENDBRANCH   2   3
ENDBRANCH   1   2
BRANCH   1  27
ATOM     27  C   UNL A   1      34.311  29.208  26.807  1.00  0.00     0.188 C 
BRANCH  27  28
ATOM     28  O   UNL A   1      33.490  30.115  27.516  1.00  0.00    -0.377 OA
BRANCH  28  29
ATOM     29  C   UNL A   1      33.783  31.500  27.373  1.00  0.00     0.188 C 
BRANCH  29  30
ATOM     30  C   UNL A   1      34.752  32.140  28.385  1.00  0.00     0.188 C 
BRANCH  30  31
ATOM     31  O   UNL A   1      34.097  32.719  29.508  1.00  0.00    -0.376 OA
BRANCH  31  32
ATOM     32  C   UNL A   1      34.908  33.358  30.484  1.00  0.00     0.202 C 
BRANCH  32  33
ATOM     33  C   UNL A   1      35.048  32.616  31.823  1.00  0.00     0.261 C 
BRANCH  33  34
ATOM     34  O   UNL A   1      36.395  32.378  32.270  1.00  0.00    -0.460 OA
BRANCH  34  35
ATOM     35  C   UNL A   1      36.853  31.109  32.204  1.00  0.00     0.338 C 
ATOM     36  O   UNL A   1      36.253  30.096  32.498  1.00  0.00    -0.246 OA
BRANCH  35  37
ATOM     37  C   UNL A   1      38.161  31.122  31.511  1.00  0.00     0.060 A 
ATOM     38  C   UNL A   1      39.322  31.133  32.292  1.00  0.00     0.016 A 
ATOM     39  C   UNL A   1      38.245  31.158  30.117  1.00  0.00     0.016 A 
ATOM     40  C   UNL A   1      40.571  31.240  31.681  1.00  0.00     0.010 A 
ATOM     41  C   UNL A   1      39.499  31.283  29.506  1.00  0.00     0.010 A 
ATOM     42  C   UNL A   1      40.663  31.369  30.289  1.00  0.00    -0.014 A 
BRANCH  42  43
ATOM     43  C   UNL A   1      41.959  31.782  29.695  1.00  0.00     0.031 A 
ATOM     44  C   UNL A   1      42.271  33.252  29.595  1.00  0.00     0.074 A 
ATOM     45  C   UNL A   1      42.879  30.871  29.332  1.00  0.00     0.049 A 
ATOM     46  N   UNL A   1      43.356  33.847  29.167  1.00  0.00    -0.248 NA
ATOM     47  C   UNL A   1      41.219  34.177  30.048  1.00  0.00     0.031 C 
ATOM     48  C   UNL A   1      42.708  29.423  29.410  1.00  0.00     0.029 A 
ATOM     49  N   UNL A   1      44.145  31.036  28.830  1.00  0.00    -0.354 N 
ATOM     50  C   UNL A   1      43.121  35.209  29.310  1.00  0.00     0.074 A 
ATOM     51  C   UNL A   1      41.775  35.356  29.820  1.00  0.00     0.031 C 
ATOM     52  C   UNL A   1      43.828  28.828  28.964  1.00  0.00     0.029 A 
ATOM     53  C   UNL A   1      44.785  29.854  28.549  1.00  0.00     0.049 A 
ATOM     54  H   UNL A   1      44.557  31.919  28.684  1.00  0.00     0.167 HD
ATOM     55  C   UNL A   1      43.959  36.243  29.058  1.00  0.00     0.037 A 
ATOM     56  C   UNL A   1      45.998  29.629  28.007  1.00  0.00     0.037 A 
ATOM     57  C   UNL A   1      45.293  36.097  28.538  1.00  0.00     0.049 A 
ATOM     58  C   UNL A   1      46.883  30.803  27.670  1.00  0.00     0.074 A 
ATOM     59  C   UNL A   1      46.217  37.084  28.242  1.00  0.00     0.029 A 
ATOM     60  N   UNL A   1      45.893  34.885  28.232  1.00  0.00    -0.354 N 
ATOM     61  N   UNL A   1      46.663  32.085  27.832  1.00  0.00    -0.248 NA
ATOM     62  C   UNL A   1      48.196  30.494  27.084  1.00  0.00     0.031 C 
ATOM     63  C   UNL A   1      47.356  36.473  27.707  1.00  0.00     0.029 A 
ATOM     64  C   UNL A   1      47.167  35.101  27.729  1.00  0.00     0.049 A 
ATOM     65  H   UNL A   1      45.475  34.002  28.352  1.00  0.00     0.167 HD
ATOM     66  C   UNL A   1      47.813  32.732  27.392  1.00  0.00     0.074 A 
ATOM     67  C   UNL A   1      48.741  31.697  26.987  1.00  0.00     0.031 C 
ATOM     68  C   UNL A   1      48.078  34.060  27.324  1.00  0.00     0.037 A 
BRANCH  55  69
ATOM     69  C   UNL A   1      43.450  37.629  29.331  1.00  0.00     0.064 A 
ATOM     70  C   UNL A   1      43.777  38.313  30.512  1.00  0.00     0.173 A 
ATOM     71  C   UNL A   1      42.666  38.301  28.381  1.00  0.00     0.173 A 
ATOM     72  F   UNL A   1      44.510  37.711  31.461  1.00  0.00    -0.203 F 
ATOM     73  C   UNL A   1      43.320  39.608  30.740  1.00  0.00     0.198 A 
ATOM     74  C   UNL A   1      42.237  39.607  28.599  1.00  0.00     0.198 A 
ATOM     75  F   UNL A   1      42.326  37.693  27.234  1.00  0.00    -0.203 F 
ATOM     76  F   UNL A   1      43.610  40.227  31.894  1.00  0.00    -0.200 F 
ATOM     77  C   UNL A   1      42.560  40.258  29.780  1.00  0.00     0.200 A 
ATOM     78  F   UNL A   1      41.512  40.238  27.665  1.00  0.00    -0.200 F 
ATOM     79  F   UNL A   1      42.131  41.510  29.995  1.00  0.00    -0.200 F 
ENDBRANCH  55  69
BRANCH  56  80
ATOM     80  C   UNL A   1      46.445  28.239  27.725  1.00  0.00     0.064 A 
ATOM     81  C   UNL A   1      46.143  27.603  26.512  1.00  0.00     0.173 A 
ATOM     82  C   UNL A   1      47.148  27.498  28.688  1.00  0.00     0.173 A 
ATOM     83  F   UNL A   1      45.449  28.257  25.569  1.00  0.00    -0.203 F 
ATOM     84  C   UNL A   1      46.497  26.274  26.287  1.00  0.00     0.198 A 
ATOM     85  C   UNL A   1      47.534  26.181  28.448  1.00  0.00     0.198 A 
ATOM     86  F   UNL A   1      47.461  28.055  29.868  1.00  0.00    -0.203 F 
ATOM     87  F   UNL A   1      46.136  25.672  25.146  1.00  0.00    -0.200 F 
ATOM     88  C   UNL A   1      47.196  25.565  27.253  1.00  0.00     0.200 A 
ATOM     89  F   UNL A   1      48.221  25.506  29.380  1.00  0.00    -0.200 F 
ATOM     90  F   UNL A   1      47.535  24.288  27.036  1.00  0.00    -0.200 F 
ENDBRANCH  56  80
BRANCH  68  91
ATOM     91  C   UNL A   1      49.434  34.464  26.817  1.00  0.00     0.064 A 
ATOM     92  C   UNL A   1      49.633  34.878  25.491  1.00  0.00     0.173 A 
ATOM     93  C   UNL A   1      50.550  34.441  27.668  1.00  0.00     0.173 A 
ATOM     94  F   UNL A   1      48.603  34.908  24.631  1.00  0.00    -0.203 F 
ATOM     95  C   UNL A   1      50.903  35.206  25.024  1.00  0.00     0.198 A 
ATOM     96  C   UNL A   1      51.812  34.807  27.208  1.00  0.00     0.198 A 
ATOM     97  F   UNL A   1      50.416  34.066  28.949  1.00  0.00    -0.203 F 
ATOM     98  F   UNL A   1      51.079  35.528  23.735  1.00  0.00    -0.200 F 
ATOM     99  C   UNL A   1      51.991  35.174  25.884  1.00  0.00     0.200 A 
ATOM    100  F   UNL A   1      52.859  34.793  28.046  1.00  0.00    -0.200 F 
ATOM    101  F   UNL A   1      53.214  35.486  25.432  1.00  0.00    -0.200 F 
ENDBRANCH  68  91
ENDBRANCH  42  43
ENDBRANCH  35  37
ENDBRANCH  34  35
ENDBRANCH  33  34
ENDBRANCH  32  33
ENDBRANCH  31  32
ENDBRANCH  30  31
ENDBRANCH  29  30
ENDBRANCH  28  29
ENDBRANCH  27  28
ENDBRANCH   1  27
TORSDOF 25
ENDMDL
MODEL 2
REMARK VINA RESULT:      -8.2      9.731     15.481
REMARK SMILES C[C@H](Oc1ccc(/C=C\C(=O)c2ccccc2)cc1)C(=O)OCCOCCOCCOCCOC(=O)c1ccc(-c2c3nc(c(-c4c(F)c(F)c(F)c(F)c4F)c4ccc([nH]4)c(-c4c(F)c(F)c(F)c(F)c4F)c4nc(c(-c5c(F)c(F)c(F)c(F)c5F)c5ccc2[nH]5)C=C4)C=C3)cc1
REMARK SMILES IDX 26 1 25 2 24 3 23 4 22 5 20 6 21 7 2 8 1 9 3 10 4 11 5 12
REMARK SMILES IDX 19 13 6 14 18 15 7 16 8 17 9 18 10 19 11 20 12 21 13 22
REMARK SMILES IDX 17 23 14 24 16 25 15 26 27 27 28 28 29 29 30 30 31 31 32 32
REMARK SMILES IDX 33 33 34 34 35 35 36 36 37 37 38 38 99 39 39 40 98 41 40 42
REMARK SMILES IDX 41 43 42 44 92 45 43 46 97 47 91 48 93 49 44 50 96 51 90 52
REMARK SMILES IDX 89 53 45 55 77 56 57 57 76 58 58 59 61 60 75 61 94 62 59 63
REMARK SMILES IDX 60 64 74 66 95 67 62 68 46 69 47 70 55 71 48 72 49 73 53 74
REMARK SMILES IDX 56 75 50 76 51 77 54 78 52 79 78 80 79 81 87 82 80 83 81 84
REMARK SMILES IDX 85 85 88 86 82 87 83 88 86 89 84 90 63 91 64 92 72 93 65 94
REMARK SMILES IDX 66 95 70 96 73 97 67 98 68 99 71 100 69 101
REMARK H PARENT 93 54 61 65
REMARK Flexibility Score: inf
ROOT
ATOM      1  C   UNL A   1      51.036  19.805  35.649  1.00  0.00     0.188 C 
ENDROOT
BRANCH   1   2
ATOM      2  O   UNL A   1      50.069  20.480  36.445  1.00  0.00    -0.376 OA
BRANCH   2   3
ATOM      3  C   UNL A   1      48.774  20.801  35.961  1.00  0.00     0.202 C 
BRANCH   3   4
ATOM      4  C   UNL A   1      47.519  20.144  36.536  1.00  0.00     0.261 C 
BRANCH   4   5
ATOM      5  O   UNL A   1      47.650  19.636  37.867  1.00  0.00    -0.461 OA
BRANCH   5   6
ATOM      6  C   UNL A   1      46.525  19.125  38.429  1.00  0.00     0.347 C 
ATOM      7  O   UNL A   1      45.590  18.631  37.805  1.00  0.00    -0.248 OA
BRANCH   6   8
ATOM      8  C   UNL A   1      46.461  19.402  39.932  1.00  0.00     0.279 C 
ATOM      9  C   UNL A   1      46.085  20.885  39.946  1.00  0.00     0.066 C 
BRANCH   8  10
ATOM     10  O   UNL A   1      47.674  19.092  40.643  1.00  0.00    -0.479 OA
BRANCH  10  11
ATOM     11  C   UNL A   1      47.523  18.099  41.579  1.00  0.00     0.120 A 
ATOM     12  C   UNL A   1      47.833  18.336  42.912  1.00  0.00     0.047 A 
ATOM     13  C   UNL A   1      47.143  16.810  41.195  1.00  0.00     0.047 A 
ATOM     14  C   UNL A   1      47.578  17.373  43.882  1.00  0.00     0.012 A 
ATOM     15  C   UNL A   1      46.889  15.831  42.174  1.00  0.00     0.012 A 
ATOM     16  C   UNL A   1      47.012  16.147  43.532  1.00  0.00    -0.025 A 
BRANCH  16  17
ATOM     17  C   UNL A   1      46.530  15.241  44.583  1.00  0.00     0.012 C 
ATOM     18  C   UNL A   1      45.251  14.855  44.761  1.00  0.00     0.053 C 
BRANCH  18  19
ATOM     19  C   UNL A   1      44.041  15.215  43.958  1.00  0.00     0.185 C 
ATOM     20  O   UNL A   1      43.787  16.402  43.765  1.00  0.00    -0.289 OA
BRANCH  19  21
ATOM     21  C   UNL A   1      43.152  14.168  43.392  1.00  0.00     0.022 A 
ATOM     22  C   UNL A   1      42.326  14.509  42.310  1.00  0.00     0.012 A 
ATOM     23  C   UNL A   1      43.130  12.863  43.896  1.00  0.00     0.012 A 
ATOM     24  C   UNL A   1      41.521  13.540  41.709  1.00  0.00     0.001 A 
ATOM     25  C   UNL A   1      42.324  11.896  43.291  1.00  0.00     0.001 A 
ATOM     26  C   UNL A   1      41.524  12.233  42.198  1.00  0.00     0.000 A 
ENDBRANCH  19  21
ENDBRANCH  18  19
ENDBRANCH  16  17
ENDBRANCH  10  11
ENDBRANCH   8  10
ENDBRANCH   6   8
ENDBRANCH   5   6
ENDBRANCH   4   5
ENDBRANCH   3   4
ENDBRANCH   2   3
ENDBRANCH   1   2
BRANCH   1  27
ATOM     27  C   UNL A   1      52.511  20.250  35.611  1.00  0.00     0.188 C 
BRANCH  27  28
ATOM     28  O   UNL A   1      52.701  21.612  35.283  1.00  0.00    -0.377 OA
BRANCH  28  29
ATOM     29  C   UNL A   1      52.124  22.070  34.065  1.00  0.00     0.188 C 
BRANCH  29  30
ATOM     30  C   UNL A   1      51.084  23.205  34.142  1.00  0.00     0.188 C 
BRANCH  30  31
ATOM     31  O   UNL A   1      51.353  24.150  35.170  1.00  0.00    -0.376 OA
BRANCH  31  32
ATOM     32  C   UNL A   1      50.480  24.169  36.290  1.00  0.00     0.202 C 
BRANCH  32  33
ATOM     33  C   UNL A   1      49.516  25.365  36.364  1.00  0.00     0.261 C 
BRANCH  33  34
ATOM     34  O   UNL A   1      48.485  25.401  35.361  1.00  0.00    -0.460 OA
BRANCH  34  35
ATOM     35  C   UNL A   1      47.292  24.857  35.683  1.00  0.00     0.338 C 
ATOM     36  O   UNL A   1      47.094  23.850  36.332  1.00  0.00    -0.246 OA
BRANCH  35  37
ATOM     37  C   UNL A   1      46.226  25.804  35.286  1.00  0.00     0.060 A 
ATOM     38  C   UNL A   1      44.895  25.404  35.441  1.00  0.00     0.016 A 
ATOM     39  C   UNL A   1      46.531  27.052  34.736  1.00  0.00     0.016 A 
ATOM     40  C   UNL A   1      43.863  26.228  34.993  1.00  0.00     0.010 A 
ATOM     41  C   UNL A   1      45.495  27.870  34.270  1.00  0.00     0.010 A 
ATOM     42  C   UNL A   1      44.159  27.441  34.357  1.00  0.00    -0.014 A 
BRANCH  42  43
ATOM     43  C   UNL A   1      43.076  28.146  33.627  1.00  0.00     0.031 A 
ATOM     44  C   UNL A   1      42.882  27.849  32.163  1.00  0.00     0.074 A 
ATOM     45  C   UNL A   1      42.226  28.967  34.267  1.00  0.00     0.049 A 
ATOM     46  N   UNL A   1      41.972  28.298  31.335  1.00  0.00    -0.248 NA
ATOM     47  C   UNL A   1      43.838  26.912  31.552  1.00  0.00     0.031 C 
ATOM     48  C   UNL A   1      42.291  29.309  35.686  1.00  0.00     0.029 A 
ATOM     49  N   UNL A   1      41.136  29.659  33.802  1.00  0.00    -0.354 N 
ATOM     50  C   UNL A   1      42.240  27.690  30.115  1.00  0.00     0.074 A 
ATOM     51  C   UNL A   1      43.422  26.877  30.296  1.00  0.00     0.031 C 
ATOM     52  C   UNL A   1      41.285  30.152  35.977  1.00  0.00     0.029 A 
ATOM     53  C   UNL A   1      40.521  30.426  34.760  1.00  0.00     0.049 A 
ATOM     54  H   UNL A   1      40.823  29.610  32.870  1.00  0.00     0.167 HD
ATOM     55  C   UNL A   1      41.550  27.785  28.953  1.00  0.00     0.037 A 
ATOM     56  C   UNL A   1      39.470  31.264  34.661  1.00  0.00     0.037 A 
ATOM     57  C   UNL A   1      40.380  28.604  28.769  1.00  0.00     0.049 A 
ATOM     58  C   UNL A   1      38.763  31.405  33.335  1.00  0.00     0.074 A 
ATOM     59  C   UNL A   1      39.616  28.774  27.628  1.00  0.00     0.029 A 
ATOM     60  N   UNL A   1      39.809  29.397  29.753  1.00  0.00    -0.354 N 
ATOM     61  N   UNL A   1      39.007  30.807  32.194  1.00  0.00    -0.248 NA
ATOM     62  C   UNL A   1      37.622  32.332  33.290  1.00  0.00     0.031 C 
ATOM     63  C   UNL A   1      38.614  29.709  27.906  1.00  0.00     0.029 A 
ATOM     64  C   UNL A   1      38.714  30.074  29.239  1.00  0.00     0.049 A 
ATOM     65  H   UNL A   1      40.134  29.469  30.680  1.00  0.00     0.167 HD
ATOM     66  C   UNL A   1      38.041  31.265  31.306  1.00  0.00     0.074 A 
ATOM     67  C   UNL A   1      37.187  32.166  32.050  1.00  0.00     0.031 C 
ATOM     68  C   UNL A   1      37.876  30.973  29.991  1.00  0.00     0.037 A 
BRANCH  55  69
ATOM     69  C   UNL A   1      42.052  26.989  27.782  1.00  0.00     0.064 A 
ATOM     70  C   UNL A   1      41.535  25.720  27.480  1.00  0.00     0.173 A 
ATOM     71  C   UNL A   1      43.026  27.521  26.924  1.00  0.00     0.173 A 
ATOM     72  F   UNL A   1      40.613  25.159  28.277  1.00  0.00    -0.203 F 
ATOM     73  C   UNL A   1      41.990  25.005  26.376  1.00  0.00     0.198 A 
ATOM     74  C   UNL A   1      43.457  26.816  25.803  1.00  0.00     0.198 A 
ATOM     75  F   UNL A   1      43.552  28.731  27.166  1.00  0.00    -0.203 F 
ATOM     76  F   UNL A   1      41.512  23.777  26.131  1.00  0.00    -0.200 F 
ATOM     77  C   UNL A   1      42.942  25.557  25.533  1.00  0.00     0.200 A 
ATOM     78  F   UNL A   1      44.369  27.356  24.983  1.00  0.00    -0.200 F 
ATOM     79  F   UNL A   1      43.371  24.873  24.463  1.00  0.00    -0.200 F 
ENDBRANCH  55  69
BRANCH  56  80
ATOM     80  C   UNL A   1      39.030  32.056  35.840  1.00  0.00     0.064 A 
ATOM     81  C   UNL A   1      39.491  33.362  36.060  1.00  0.00     0.173 A 
ATOM     82  C   UNL A   1      38.171  31.501  36.801  1.00  0.00     0.173 A 
ATOM     83  F   UNL A   1      40.336  33.929  35.186  1.00  0.00    -0.203 F 
ATOM     84  C   UNL A   1      39.137  34.068  37.208  1.00  0.00     0.198 A 
ATOM     85  C   UNL A   1      37.787  32.221  37.931  1.00  0.00     0.198 A 
ATOM     86  F   UNL A   1      37.702  30.254  36.644  1.00  0.00    -0.203 F 
ATOM     87  F   UNL A   1      39.645  35.289  37.425  1.00  0.00    -0.200 F 
ATOM     88  C   UNL A   1      38.281  33.499  38.140  1.00  0.00     0.200 A 
ATOM     89  F   UNL A   1      36.951  31.671  38.821  1.00  0.00    -0.200 F 
ATOM     90  F   UNL A   1      37.942  34.178  39.244  1.00  0.00    -0.200 F 
ENDBRANCH  56  80
BRANCH  68  91
ATOM     91  C   UNL A   1      36.714  31.614  29.287  1.00  0.00     0.064 A 
ATOM     92  C   UNL A   1      36.700  32.983  28.979  1.00  0.00     0.173 A 
ATOM     93  C   UNL A   1      35.598  30.849  28.910  1.00  0.00     0.173 A 
ATOM     94  F   UNL A   1      37.736  33.764  29.326  1.00  0.00    -0.203 F 
ATOM     95  C   UNL A   1      35.597  33.571  28.366  1.00  0.00     0.198 A 
ATOM     96  C   UNL A   1      34.512  31.433  28.262  1.00  0.00     0.198 A 
ATOM     97  F   UNL A   1      35.561  29.534  29.167  1.00  0.00    -0.203 F 
ATOM     98  F   UNL A   1      35.579  34.894  28.148  1.00  0.00    -0.200 F 
ATOM     99  C   UNL A   1      34.505  32.795  28.004  1.00  0.00     0.200 A 
ATOM    100  F   UNL A   1      33.467  30.678  27.897  1.00  0.00    -0.200 F 
ATOM    101  F   UNL A   1      33.442  33.363  27.418  1.00  0.00    -0.200 F 
ENDBRANCH  68  91
ENDBRANCH  42  43
ENDBRANCH  35  37
ENDBRANCH  34  35
ENDBRANCH  33  34
ENDBRANCH  32  33
ENDBRANCH  31  32
ENDBRANCH  30  31
ENDBRANCH  29  30
ENDBRANCH  28  29
ENDBRANCH  27  28
ENDBRANCH   1  27
TORSDOF 25
ENDMDL
MODEL 3
REMARK VINA RESULT:      -8.2      1.524      7.234
REMARK SMILES C[C@H](Oc1ccc(/C=C\C(=O)c2ccccc2)cc1)C(=O)OCCOCCOCCOCCOC(=O)c1ccc(-c2c3nc(c(-c4c(F)c(F)c(F)c(F)c4F)c4ccc([nH]4)c(-c4c(F)c(F)c(F)c(F)c4F)c4nc(c(-c5c(F)c(F)c(F)c(F)c5F)c5ccc2[nH]5)C=C4)C=C3)cc1
REMARK SMILES IDX 26 1 25 2 24 3 23 4 22 5 20 6 21 7 2 8 1 9 3 10 4 11 5 12
REMARK SMILES IDX 19 13 6 14 18 15 7 16 8 17 9 18 10 19 11 20 12 21 13 22
REMARK SMILES IDX 17 23 14 24 16 25 15 26 27 27 28 28 29 29 30 30 31 31 32 32
REMARK SMILES IDX 33 33 34 34 35 35 36 36 37 37 38 38 99 39 39 40 98 41 40 42
REMARK SMILES IDX 41 43 42 44 92 45 43 46 97 47 91 48 93 49 44 50 96 51 90 52
REMARK SMILES IDX 89 53 45 55 77 56 57 57 76 58 58 59 61 60 75 61 94 62 59 63
REMARK SMILES IDX 60 64 74 66 95 67 62 68 46 69 47 70 55 71 48 72 49 73 53 74
REMARK SMILES IDX 56 75 50 76 51 77 54 78 52 79 78 80 79 81 87 82 80 83 81 84
REMARK SMILES IDX 85 85 88 86 82 87 83 88 86 89 84 90 63 91 64 92 72 93 65 94
REMARK SMILES IDX 66 95 70 96 73 97 67 98 68 99 71 100 69 101
REMARK H PARENT 93 54 61 65
REMARK Flexibility Score: inf
ROOT
ATOM      1  C   UNL A   1      33.522  29.165  26.593  1.00  0.00     0.188 C 
ENDROOT
BRANCH   1   2
ATOM      2  O   UNL A   1      33.917  27.799  26.629  1.00  0.00    -0.376 OA
BRANCH   2   3
ATOM      3  C   UNL A   1      33.908  26.973  25.474  1.00  0.00     0.202 C 
BRANCH   3   4
ATOM      4  C   UNL A   1      34.002  25.451  25.579  1.00  0.00     0.261 C 
BRANCH   4   5
ATOM      5  O   UNL A   1      35.105  24.857  24.888  1.00  0.00    -0.461 OA
BRANCH   5   6
ATOM      6  C   UNL A   1      35.568  23.684  25.390  1.00  0.00     0.347 C 
ATOM      7  O   UNL A   1      35.006  23.020  26.257  1.00  0.00    -0.248 OA
BRANCH   6   8
ATOM      8  C   UNL A   1      36.977  23.364  24.889  1.00  0.00     0.279 C 
ATOM      9  C   UNL A   1      36.672  22.729  23.530  1.00  0.00     0.066 C 
BRANCH   8  10
ATOM     10  O   UNL A   1      37.744  22.528  25.774  1.00  0.00    -0.479 OA
BRANCH  10  11
ATOM     11  C   UNL A   1      38.732  23.202  26.448  1.00  0.00     0.120 A 
ATOM     12  C   UNL A   1      39.895  22.548  26.833  1.00  0.00     0.047 A 
ATOM     13  C   UNL A   1      38.547  24.532  26.838  1.00  0.00     0.047 A 
ATOM     14  C   UNL A   1      40.945  23.250  27.416  1.00  0.00     0.012 A 
ATOM     15  C   UNL A   1      39.605  25.244  27.433  1.00  0.00     0.012 A 
ATOM     16  C   UNL A   1      40.845  24.624  27.631  1.00  0.00    -0.025 A 
BRANCH  16  17
ATOM     17  C   UNL A   1      42.037  25.388  28.021  1.00  0.00     0.012 C 
ATOM     18  C   UNL A   1      43.018  25.791  27.191  1.00  0.00     0.053 C 
BRANCH  18  19
ATOM     19  C   UNL A   1      43.137  25.594  25.712  1.00  0.00     0.185 C 
ATOM     20  O   UNL A   1      42.398  26.233  24.966  1.00  0.00    -0.289 OA
BRANCH  19  21
ATOM     21  C   UNL A   1      44.131  24.650  25.137  1.00  0.00     0.022 A 
ATOM     22  C   UNL A   1      45.491  24.983  25.220  1.00  0.00     0.012 A 
ATOM     23  C   UNL A   1      43.747  23.447  24.536  1.00  0.00     0.012 A 
ATOM     24  C   UNL A   1      46.460  24.096  24.748  1.00  0.00     0.001 A 
ATOM     25  C   UNL A   1      44.720  22.562  24.066  1.00  0.00     0.001 A 
ATOM     26  C   UNL A   1      46.073  22.884  24.175  1.00  0.00     0.000 A 
ENDBRANCH  19  21
ENDBRANCH  18  19
ENDBRANCH  16  17
ENDBRANCH  10  11
ENDBRANCH   8  10
ENDBRANCH   6   8
ENDBRANCH   5   6
ENDBRANCH   4   5
ENDBRANCH   3   4
ENDBRANCH   2   3
ENDBRANCH   1   2
BRANCH   1  27
ATOM     27  C   UNL A   1      34.365  30.272  27.257  1.00  0.00     0.188 C 
BRANCH  27  28
ATOM     28  O   UNL A   1      33.609  31.230  27.971  1.00  0.00    -0.377 OA
BRANCH  28  29
ATOM     29  C   UNL A   1      34.085  32.571  27.954  1.00  0.00     0.188 C 
BRANCH  29  30
ATOM     30  C   UNL A   1      35.348  32.899  28.773  1.00  0.00     0.188 C 
BRANCH  30  31
ATOM     31  O   UNL A   1      35.117  32.946  30.176  1.00  0.00    -0.376 OA
BRANCH  31  32
ATOM     32  C   UNL A   1      36.194  32.590  31.032  1.00  0.00     0.202 C 
BRANCH  32  33
ATOM     33  C   UNL A   1      36.025  31.270  31.801  1.00  0.00     0.261 C 
BRANCH  33  34
ATOM     34  O   UNL A   1      37.145  30.868  32.609  1.00  0.00    -0.460 OA
BRANCH  34  35
ATOM     35  C   UNL A   1      37.765  29.716  32.276  1.00  0.00     0.338 C 
ATOM     36  O   UNL A   1      37.291  28.598  32.281  1.00  0.00    -0.246 OA
BRANCH  35  37
ATOM     37  C   UNL A   1      39.086  30.049  31.697  1.00  0.00     0.060 A 
ATOM     38  C   UNL A   1      40.105  30.454  32.565  1.00  0.00     0.016 A 
ATOM     39  C   UNL A   1      39.308  29.998  30.319  1.00  0.00     0.016 A 
ATOM     40  C   UNL A   1      41.334  30.867  32.052  1.00  0.00     0.010 A 
ATOM     41  C   UNL A   1      40.537  30.429  29.804  1.00  0.00     0.010 A 
ATOM     42  C   UNL A   1      41.539  30.906  30.666  1.00  0.00    -0.014 A 
BRANCH  42  43
ATOM     43  C   UNL A   1      42.726  31.626  30.142  1.00  0.00     0.031 A 
ATOM     44  C   UNL A   1      44.001  30.854  29.925  1.00  0.00     0.074 A 
ATOM     45  C   UNL A   1      42.651  32.919  29.782  1.00  0.00     0.049 A 
ATOM     46  N   UNL A   1      45.144  31.255  29.427  1.00  0.00    -0.248 NA
ATOM     47  C   UNL A   1      43.981  29.435  30.316  1.00  0.00     0.031 C 
ATOM     48  C   UNL A   1      41.467  33.764  29.913  1.00  0.00     0.029 A 
ATOM     49  N   UNL A   1      43.596  33.745  29.226  1.00  0.00    -0.354 N 
ATOM     50  C   UNL A   1      45.970  30.138  29.433  1.00  0.00     0.074 A 
ATOM     51  C   UNL A   1      45.216  29.055  30.027  1.00  0.00     0.031 C 
ATOM     52  C   UNL A   1      41.757  34.994  29.454  1.00  0.00     0.029 A 
ATOM     53  C   UNL A   1      43.153  35.028  29.019  1.00  0.00     0.049 A 
ATOM     54  H   UNL A   1      44.506  33.446  28.996  1.00  0.00     0.167 HD
ATOM     55  C   UNL A   1      47.237  30.020  28.968  1.00  0.00     0.037 A 
ATOM     56  C   UNL A   1      43.806  36.108  28.546  1.00  0.00     0.037 A 
ATOM     57  C   UNL A   1      47.992  31.100  28.389  1.00  0.00     0.049 A 
ATOM     58  C   UNL A   1      45.241  35.965  28.101  1.00  0.00     0.074 A 
ATOM     59  C   UNL A   1      49.285  31.083  27.896  1.00  0.00     0.029 A 
ATOM     60  N   UNL A   1      47.522  32.395  28.231  1.00  0.00    -0.354 N 
ATOM     61  N   UNL A   1      46.005  34.900  28.087  1.00  0.00    -0.248 NA
ATOM     62  C   UNL A   1      45.899  37.177  27.591  1.00  0.00     0.031 C 
ATOM     63  C   UNL A   1      49.616  32.379  27.488  1.00  0.00     0.029 A 
ATOM     64  C   UNL A   1      48.508  33.191  27.668  1.00  0.00     0.049 A 
ATOM     65  H   UNL A   1      46.622  32.704  28.483  1.00  0.00     0.167 HD
ATOM     66  C   UNL A   1      47.221  35.306  27.549  1.00  0.00     0.074 A 
ATOM     67  C   UNL A   1      47.080  36.708  27.218  1.00  0.00     0.031 C 
ATOM     68  C   UNL A   1      48.355  34.588  27.349  1.00  0.00     0.037 A 
BRANCH  55  69
ATOM     69  C   UNL A   1      47.892  28.673  29.078  1.00  0.00     0.064 A 
ATOM     70  C   UNL A   1      47.822  27.734  28.037  1.00  0.00     0.173 A 
ATOM     71  C   UNL A   1      48.640  28.335  30.216  1.00  0.00     0.173 A 
ATOM     72  F   UNL A   1      47.106  28.001  26.934  1.00  0.00    -0.203 F 
ATOM     73  C   UNL A   1      48.457  26.500  28.141  1.00  0.00     0.198 A 
ATOM     74  C   UNL A   1      49.300  27.112  30.303  1.00  0.00     0.198 A 
ATOM     75  F   UNL A   1      48.742  29.197  31.238  1.00  0.00    -0.203 F 
ATOM     76  F   UNL A   1      48.341  25.602  27.153  1.00  0.00    -0.200 F 
ATOM     77  C   UNL A   1      49.204  26.194  29.269  1.00  0.00     0.200 A 
ATOM     78  F   UNL A   1      50.031  26.823  31.388  1.00  0.00    -0.200 F 
ATOM     79  F   UNL A   1      49.826  25.010  29.362  1.00  0.00    -0.200 F 
ENDBRANCH  55  69
BRANCH  56  80
ATOM     80  C   UNL A   1      43.125  37.429  28.487  1.00  0.00     0.064 A 
ATOM     81  C   UNL A   1      42.361  37.810  27.374  1.00  0.00     0.173 A 
ATOM     82  C   UNL A   1      43.264  38.359  29.529  1.00  0.00     0.173 A 
ATOM     83  F   UNL A   1      42.220  36.968  26.339  1.00  0.00    -0.203 F 
ATOM     84  C   UNL A   1      41.791  39.079  27.292  1.00  0.00     0.198 A 
ATOM     85  C   UNL A   1      42.663  39.615  29.462  1.00  0.00     0.198 A 
ATOM     86  F   UNL A   1      43.986  38.048  30.615  1.00  0.00    -0.203 F 
ATOM     87  F   UNL A   1      41.122  39.440  26.188  1.00  0.00    -0.200 F 
ATOM     88  C   UNL A   1      41.938  39.979  28.338  1.00  0.00     0.200 A 
ATOM     89  F   UNL A   1      42.798  40.474  30.480  1.00  0.00    -0.200 F 
ATOM     90  F   UNL A   1      41.391  41.199  28.257  1.00  0.00    -0.200 F 
ENDBRANCH  56  80
BRANCH  68  91
ATOM     91  C   UNL A   1      49.518  35.303  26.722  1.00  0.00     0.064 A 
ATOM     92  C   UNL A   1      50.585  35.795  27.491  1.00  0.00     0.173 A 
ATOM     93  C   UNL A   1      49.571  35.497  25.333  1.00  0.00     0.173 A 
ATOM     94  F   UNL A   1      50.580  35.646  28.825  1.00  0.00    -0.203 F 
ATOM     95  C   UNL A   1      51.634  36.494  26.900  1.00  0.00     0.198 A 
ATOM     96  C   UNL A   1      50.641  36.164  24.740  1.00  0.00     0.198 A 
ATOM     97  F   UNL A   1      48.586  35.038  24.547  1.00  0.00    -0.203 F 
ATOM     98  F   UNL A   1      52.603  37.016  27.665  1.00  0.00    -0.200 F 
ATOM     99  C   UNL A   1      51.663  36.675  25.525  1.00  0.00     0.200 A 
ATOM    100  F   UNL A   1      50.676  36.322  23.410  1.00  0.00    -0.200 F 
ATOM    101  F   UNL A   1      52.671  37.352  24.958  1.00  0.00    -0.200 F 
ENDBRANCH  68  91
ENDBRANCH  42  43
ENDBRANCH  35  37
ENDBRANCH  34  35
ENDBRANCH  33  34
ENDBRANCH  32  33
ENDBRANCH  31  32
ENDBRANCH  30  31
ENDBRANCH  29  30
ENDBRANCH  28  29
ENDBRANCH  27  28
ENDBRANCH   1  27
TORSDOF 25
ENDMDL
