MODEL 1
REMARK VINA RESULT:     -10.3      0.000      0.000
REMARK SMILES O=C(OCCOCCOCCOCCOC(=O)[C@@H]1CCCCN1c1ncnc2sccc12)c1ccc(-c2c3nc(c(-c4c(F)c(F)c(F)c(F)c4F)c4ccc([nH]4)c(-c4c(F)c(F)c(F)c(F)c4F)c4nc(c(-c5c(F)c(F)c(F)c(F)c5F)c5ccc2[nH]5)C=C4)C=C3)cc1
REMARK SMILES IDX 8 1 7 2 6 3 5 4 4 5 3 6 2 7 1 8 33 9 34 10 95 11 35 12 94 13
REMARK SMILES IDX 36 14 37 15 38 16 88 17 39 18 93 19 87 20 89 21 40 22 92 23
REMARK SMILES IDX 86 24 85 25 41 27 73 28 53 29 72 30 54 31 57 32 71 33 90 34
REMARK SMILES IDX 55 35 56 36 70 38 91 39 58 40 42 41 43 42 51 43 44 44 45 45
REMARK SMILES IDX 49 46 52 47 46 48 47 49 50 50 48 51 74 52 75 53 83 54 76 55
REMARK SMILES IDX 77 56 81 57 84 58 78 59 79 60 82 61 80 62 59 63 60 64 68 65
REMARK SMILES IDX 61 66 62 67 66 68 69 69 63 70 64 71 67 72 65 73 9 74 10 75
REMARK SMILES IDX 11 76 12 77 13 78 14 79 15 80 16 81 17 82 18 83 19 84 23 85
REMARK SMILES IDX 20 86 22 87 21 88 24 89 25 90 32 91 26 92 28 93 31 94 27 95
REMARK SMILES IDX 29 96 30 97
REMARK H PARENT 89 26 57 37
REMARK Flexibility Score: inf
ROOT
ATOM      1  C   UNL A   1      39.879  21.129  26.167  1.00  0.00     0.188 C 
ENDROOT
BRANCH   1   2
ATOM      2  C   UNL A   1      41.261  21.782  26.277  1.00  0.00     0.188 C 
BRANCH   2   3
ATOM      3  O   UNL A   1      42.154  20.871  26.898  1.00  0.00    -0.376 OA
BRANCH   3   4
ATOM      4  C   UNL A   1      41.851  19.489  26.947  1.00  0.00     0.202 C 
BRANCH   4   5
ATOM      5  C   UNL A   1      42.800  18.580  26.182  1.00  0.00     0.261 C 
BRANCH   5   6
ATOM      6  O   UNL A   1      43.157  19.043  24.866  1.00  0.00    -0.460 OA
BRANCH   6   7
ATOM      7  C   UNL A   1      44.306  19.605  24.419  1.00  0.00     0.338 C 
ATOM      8  O   UNL A   1      45.004  18.991  23.616  1.00  0.00    -0.246 OA
BRANCH   7   9
ATOM      9  C   UNL A   1      44.724  20.976  24.793  1.00  0.00     0.060 A 
ATOM     10  C   UNL A   1      45.511  21.277  25.897  1.00  0.00     0.016 A 
ATOM     11  C   UNL A   1      44.407  22.017  23.913  1.00  0.00     0.016 A 
ATOM     12  C   UNL A   1      45.763  22.579  26.275  1.00  0.00     0.010 A 
ATOM     13  C   UNL A   1      44.784  23.332  24.208  1.00  0.00     0.010 A 
ATOM     14  C   UNL A   1      45.400  23.623  25.433  1.00  0.00    -0.014 A 
BRANCH  14  15
ATOM     15  C   UNL A   1      45.541  24.998  25.949  1.00  0.00     0.031 A 
ATOM     16  C   UNL A   1      46.852  25.693  25.730  1.00  0.00     0.074 A 
ATOM     17  C   UNL A   1      44.470  25.653  26.436  1.00  0.00     0.049 A 
ATOM     18  N   UNL A   1      47.261  26.854  26.166  1.00  0.00    -0.248 NA
ATOM     19  C   UNL A   1      47.843  24.983  24.900  1.00  0.00     0.031 C 
ATOM     20  C   UNL A   1      43.116  25.099  26.551  1.00  0.00     0.029 A 
ATOM     21  N   UNL A   1      44.335  26.941  26.880  1.00  0.00    -0.354 N 
ATOM     22  C   UNL A   1      48.564  26.985  25.707  1.00  0.00     0.074 A 
ATOM     23  C   UNL A   1      48.890  25.786  24.972  1.00  0.00     0.031 C 
ATOM     24  C   UNL A   1      42.281  26.055  26.983  1.00  0.00     0.029 A 
ATOM     25  C   UNL A   1      43.057  27.249  27.285  1.00  0.00     0.049 A 
ATOM     26  H   UNL A   1      45.079  27.584  26.908  1.00  0.00     0.167 HD
ATOM     27  C   UNL A   1      49.408  28.024  25.889  1.00  0.00     0.037 A 
ATOM     28  C   UNL A   1      42.590  28.359  27.886  1.00  0.00     0.037 A 
ATOM     29  C   UNL A   1      49.036  29.212  26.607  1.00  0.00     0.049 A 
ATOM     30  C   UNL A   1      43.574  29.463  28.163  1.00  0.00     0.074 A 
ATOM     31  C   UNL A   1      49.813  30.299  26.954  1.00  0.00     0.029 A 
ATOM     32  N   UNL A   1      47.752  29.465  27.076  1.00  0.00    -0.354 N 
ATOM     33  N   UNL A   1      44.846  29.537  27.840  1.00  0.00    -0.248 NA
ATOM     34  C   UNL A   1      43.072  30.624  28.903  1.00  0.00     0.031 C 
ATOM     35  C   UNL A   1      49.006  31.195  27.665  1.00  0.00     0.029 A 
ATOM     36  C   UNL A   1      47.714  30.691  27.714  1.00  0.00     0.049 A 
ATOM     37  H   UNL A   1      46.983  28.859  26.970  1.00  0.00     0.167 HD
ATOM     38  C   UNL A   1      45.294  30.753  28.329  1.00  0.00     0.074 A 
ATOM     39  C   UNL A   1      44.147  31.399  28.939  1.00  0.00     0.031 C 
ATOM     40  C   UNL A   1      46.540  31.290  28.296  1.00  0.00     0.037 A 
BRANCH  27  41
ATOM     41  C   UNL A   1      50.804  27.873  25.362  1.00  0.00     0.064 A 
ATOM     42  C   UNL A   1      51.110  28.046  24.003  1.00  0.00     0.173 A 
ATOM     43  C   UNL A   1      51.846  27.501  26.224  1.00  0.00     0.173 A 
ATOM     44  F   UNL A   1      50.143  28.365  23.128  1.00  0.00    -0.203 F 
ATOM     45  C   UNL A   1      52.399  27.819  23.524  1.00  0.00     0.198 A 
ATOM     46  C   UNL A   1      53.139  27.304  25.747  1.00  0.00     0.198 A 
ATOM     47  F   UNL A   1      51.606  27.308  27.530  1.00  0.00    -0.203 F 
ATOM     48  F   UNL A   1      52.653  27.924  22.212  1.00  0.00    -0.200 F 
ATOM     49  C   UNL A   1      53.413  27.454  24.396  1.00  0.00     0.200 A 
ATOM     50  F   UNL A   1      54.116  26.949  26.593  1.00  0.00    -0.200 F 
ATOM     51  F   UNL A   1      54.650  27.228  23.933  1.00  0.00    -0.200 F 
ENDBRANCH  27  41
BRANCH  28  52
ATOM     52  C   UNL A   1      41.173  28.439  28.340  1.00  0.00     0.064 A 
ATOM     53  C   UNL A   1      40.165  28.957  27.516  1.00  0.00     0.173 A 
ATOM     54  C   UNL A   1      40.800  28.024  29.629  1.00  0.00     0.173 A 
ATOM     55  F   UNL A   1      40.464  29.389  26.281  1.00  0.00    -0.203 F 
ATOM     56  C   UNL A   1      38.852  29.084  27.971  1.00  0.00     0.198 A 
ATOM     57  C   UNL A   1      39.481  28.112  30.069  1.00  0.00     0.198 A 
ATOM     58  F   UNL A   1      41.719  27.521  30.467  1.00  0.00    -0.203 F 
ATOM     59  F   UNL A   1      37.923  29.642  27.183  1.00  0.00    -0.200 F 
ATOM     60  C   UNL A   1      38.509  28.655  29.245  1.00  0.00     0.200 A 
ATOM     61  F   UNL A   1      39.156  27.680  31.295  1.00  0.00    -0.200 F 
ATOM     62  F   UNL A   1      37.249  28.779  29.682  1.00  0.00    -0.200 F 
ENDBRANCH  28  52
BRANCH  40  63
ATOM     63  C   UNL A   1      46.698  32.650  28.906  1.00  0.00     0.064 A 
ATOM     64  C   UNL A   1      46.495  33.818  28.158  1.00  0.00     0.173 A 
ATOM     65  C   UNL A   1      47.029  32.778  30.262  1.00  0.00     0.173 A 
ATOM     66  F   UNL A   1      46.194  33.742  26.853  1.00  0.00    -0.203 F 
ATOM     67  C   UNL A   1      46.651  35.071  28.742  1.00  0.00     0.198 A 
ATOM     68  C   UNL A   1      47.149  34.031  30.850  1.00  0.00     0.198 A 
ATOM     69  F   UNL A   1      47.225  31.686  31.018  1.00  0.00    -0.203 F 
ATOM     70  F   UNL A   1      46.510  36.176  27.997  1.00  0.00    -0.200 F 
ATOM     71  C   UNL A   1      46.970  35.177  30.088  1.00  0.00     0.200 A 
ATOM     72  F   UNL A   1      47.443  34.132  32.154  1.00  0.00    -0.200 F 
ATOM     73  F   UNL A   1      47.114  36.383  30.649  1.00  0.00    -0.200 F 
ENDBRANCH  40  63
ENDBRANCH  14  15
ENDBRANCH   7   9
ENDBRANCH   6   7
ENDBRANCH   5   6
ENDBRANCH   4   5
ENDBRANCH   3   4
ENDBRANCH   2   3
ENDBRANCH   1   2
BRANCH   1  74
ATOM     74  O   UNL A   1      38.812  22.025  25.856  1.00  0.00    -0.377 OA
BRANCH  74  75
ATOM     75  C   UNL A   1      37.710  21.465  25.151  1.00  0.00     0.188 C 
BRANCH  75  76
ATOM     76  C   UNL A   1      36.283  21.618  25.738  1.00  0.00     0.188 C 
BRANCH  76  77
ATOM     77  O   UNL A   1      35.637  22.853  25.454  1.00  0.00    -0.376 OA
BRANCH  77  78
ATOM     78  C   UNL A   1      35.918  23.424  24.178  1.00  0.00     0.202 C 
BRANCH  78  79
ATOM     79  C   UNL A   1      34.793  23.304  23.140  1.00  0.00     0.261 C 
BRANCH  79  80
ATOM     80  O   UNL A   1      34.235  24.542  22.665  1.00  0.00    -0.462 OA
BRANCH  80  81
ATOM     81  C   UNL A   1      32.892  24.728  22.769  1.00  0.00     0.328 C 
ATOM     82  O   UNL A   1      32.175  25.105  21.845  1.00  0.00    -0.250 OA
BRANCH  81  83
ATOM     83  C   UNL A   1      32.402  24.283  24.160  1.00  0.00     0.193 C 
ATOM     84  C   UNL A   1      31.277  23.240  24.070  1.00  0.00     0.037 C 
ATOM     85  N   UNL A   1      31.887  25.332  25.059  1.00  0.00    -0.342 N 
ATOM     86  C   UNL A   1      31.028  22.653  25.463  1.00  0.00     0.005 C 
ATOM     87  C   UNL A   1      31.797  24.905  26.447  1.00  0.00     0.119 C 
ATOM     88  C   UNL A   1      30.773  23.753  26.506  1.00  0.00     0.022 C 
BRANCH  85  89
ATOM     89  C   UNL A   1      32.210  26.623  24.714  1.00  0.00     0.141 A 
ATOM     90  N   UNL A   1      33.486  27.044  24.768  1.00  0.00    -0.219 NA
ATOM     91  C   UNL A   1      31.248  27.430  24.069  1.00  0.00     0.054 A 
ATOM     92  C   UNL A   1      33.800  28.184  24.127  1.00  0.00     0.225 A 
ATOM     93  C   UNL A   1      31.726  28.544  23.405  1.00  0.00     0.128 A 
ATOM     94  C   UNL A   1      29.836  27.260  23.849  1.00  0.00     0.026 A 
ATOM     95  N   UNL A   1      32.998  28.977  23.404  1.00  0.00    -0.225 NA
ATOM     96  S   UNL A   1      30.519  29.309  22.473  1.00  0.00    -0.124 S 
ATOM     97  C   UNL A   1      29.332  28.169  22.946  1.00  0.00     0.068 A 
ENDBRANCH  85  89
ENDBRANCH  81  83
ENDBRANCH  80  81
ENDBRANCH  79  80
ENDBRANCH  78  79
ENDBRANCH  77  78
ENDBRANCH  76  77
ENDBRANCH  75  76
ENDBRANCH  74  75
ENDBRANCH   1  74
TORSDOF 21
ENDMDL
MODEL 2
REMARK VINA RESULT:     -10.2      5.669     11.332
REMARK SMILES O=C(OCCOCCOCCOCCOC(=O)[C@@H]1CCCCN1c1ncnc2sccc12)c1ccc(-c2c3nc(c(-c4c(F)c(F)c(F)c(F)c4F)c4ccc([nH]4)c(-c4c(F)c(F)c(F)c(F)c4F)c4nc(c(-c5c(F)c(F)c(F)c(F)c5F)c5ccc2[nH]5)C=C4)C=C3)cc1
REMARK SMILES IDX 8 1 7 2 6 3 5 4 4 5 3 6 2 7 1 8 33 9 34 10 95 11 35 12 94 13
REMARK SMILES IDX 36 14 37 15 38 16 88 17 39 18 93 19 87 20 89 21 40 22 92 23
REMARK SMILES IDX 86 24 85 25 41 27 73 28 53 29 72 30 54 31 57 32 71 33 90 34
REMARK SMILES IDX 55 35 56 36 70 38 91 39 58 40 42 41 43 42 51 43 44 44 45 45
REMARK SMILES IDX 49 46 52 47 46 48 47 49 50 50 48 51 74 52 75 53 83 54 76 55
REMARK SMILES IDX 77 56 81 57 84 58 78 59 79 60 82 61 80 62 59 63 60 64 68 65
REMARK SMILES IDX 61 66 62 67 66 68 69 69 63 70 64 71 67 72 65 73 9 74 10 75
REMARK SMILES IDX 11 76 12 77 13 78 14 79 15 80 16 81 17 82 18 83 19 84 23 85
REMARK SMILES IDX 20 86 22 87 21 88 24 89 25 90 32 91 26 92 28 93 31 94 27 95
REMARK SMILES IDX 29 96 30 97
REMARK H PARENT 89 26 57 37
REMARK Flexibility Score: inf
ROOT
ATOM      1  C   UNL A   1      31.697  28.862  26.281  1.00  0.00     0.188 C 
ENDROOT
BRANCH   1   2
ATOM      2  C   UNL A   1      32.975  29.421  26.917  1.00  0.00     0.188 C 
BRANCH   2   3
ATOM      3  O   UNL A   1      32.977  30.833  26.782  1.00  0.00    -0.376 OA
BRANCH   3   4
ATOM      4  C   UNL A   1      31.760  31.555  26.761  1.00  0.00     0.202 C 
BRANCH   4   5
ATOM      5  C   UNL A   1      31.891  33.069  26.756  1.00  0.00     0.261 C 
BRANCH   5   6
ATOM      6  O   UNL A   1      32.344  33.643  27.997  1.00  0.00    -0.460 OA
BRANCH   6   7
ATOM      7  C   UNL A   1      33.538  34.193  28.321  1.00  0.00     0.338 C 
ATOM      8  O   UNL A   1      33.649  35.415  28.359  1.00  0.00    -0.246 OA
BRANCH   7   9
ATOM      9  C   UNL A   1      34.711  33.379  28.719  1.00  0.00     0.060 A 
ATOM     10  C   UNL A   1      34.654  32.023  29.011  1.00  0.00     0.016 A 
ATOM     11  C   UNL A   1      35.970  33.987  28.679  1.00  0.00     0.016 A 
ATOM     12  C   UNL A   1      35.747  31.340  29.502  1.00  0.00     0.010 A 
ATOM     13  C   UNL A   1      37.115  33.265  29.035  1.00  0.00     0.010 A 
ATOM     14  C   UNL A   1      36.992  31.955  29.521  1.00  0.00    -0.014 A 
BRANCH  14  15
ATOM     15  C   UNL A   1      38.094  31.250  30.201  1.00  0.00     0.031 A 
ATOM     16  C   UNL A   1      38.264  31.478  31.674  1.00  0.00     0.074 A 
ATOM     17  C   UNL A   1      38.800  30.306  29.549  1.00  0.00     0.049 A 
ATOM     18  N   UNL A   1      39.203  31.059  32.478  1.00  0.00    -0.248 NA
ATOM     19  C   UNL A   1      37.227  32.290  32.337  1.00  0.00     0.031 C 
ATOM     20  C   UNL A   1      38.603  29.914  28.149  1.00  0.00     0.029 A 
ATOM     21  N   UNL A   1      39.791  29.468  29.987  1.00  0.00    -0.354 N 
ATOM     22  C   UNL A   1      38.896  31.597  33.720  1.00  0.00     0.074 A 
ATOM     23  C   UNL A   1      37.696  32.384  33.570  1.00  0.00     0.031 C 
ATOM     24  C   UNL A   1      39.408  28.882  27.860  1.00  0.00     0.029 A 
ATOM     25  C   UNL A   1      40.256  28.615  29.014  1.00  0.00     0.049 A 
ATOM     26  H   UNL A   1      40.137  29.476  30.908  1.00  0.00     0.167 HD
ATOM     27  C   UNL A   1      39.567  31.438  34.882  1.00  0.00     0.037 A 
ATOM     28  C   UNL A   1      41.292  27.757  29.046  1.00  0.00     0.037 A 
ATOM     29  C   UNL A   1      40.746  30.625  34.996  1.00  0.00     0.049 A 
ATOM     30  C   UNL A   1      42.081  27.672  30.325  1.00  0.00     0.074 A 
ATOM     31  C   UNL A   1      41.583  30.451  36.080  1.00  0.00     0.029 A 
ATOM     32  N   UNL A   1      41.242  29.830  33.968  1.00  0.00    -0.354 N 
ATOM     33  N   UNL A   1      41.867  28.280  31.470  1.00  0.00    -0.248 NA
ATOM     34  C   UNL A   1      43.264  26.806  30.314  1.00  0.00     0.031 C 
ATOM     35  C   UNL A   1      42.606  29.577  35.696  1.00  0.00     0.029 A 
ATOM     36  C   UNL A   1      42.377  29.165  34.391  1.00  0.00     0.049 A 
ATOM     37  H   UNL A   1      40.843  29.753  33.072  1.00  0.00     0.167 HD
ATOM     38  C   UNL A   1      42.881  27.864  32.318  1.00  0.00     0.074 A 
ATOM     39  C   UNL A   1      43.689  26.924  31.564  1.00  0.00     0.031 C 
ATOM     40  C   UNL A   1      43.138  28.231  33.600  1.00  0.00     0.037 A 
BRANCH  27  41
ATOM     41  C   UNL A   1      39.071  32.208  36.069  1.00  0.00     0.064 A 
ATOM     42  C   UNL A   1      39.494  33.519  36.337  1.00  0.00     0.173 A 
ATOM     43  C   UNL A   1      38.193  31.606  36.983  1.00  0.00     0.173 A 
ATOM     44  F   UNL A   1      40.363  34.129  35.516  1.00  0.00    -0.203 F 
ATOM     45  C   UNL A   1      39.082  34.184  37.491  1.00  0.00     0.198 A 
ATOM     46  C   UNL A   1      37.759  32.283  38.119  1.00  0.00     0.198 A 
ATOM     47  F   UNL A   1      37.768  30.348  36.783  1.00  0.00    -0.203 F 
ATOM     48  F   UNL A   1      39.553  35.410  37.760  1.00  0.00    -0.200 F 
ATOM     49  C   UNL A   1      38.212  33.568  38.378  1.00  0.00     0.200 A 
ATOM     50  F   UNL A   1      36.920  31.685  38.975  1.00  0.00    -0.200 F 
ATOM     51  F   UNL A   1      37.824  34.206  39.491  1.00  0.00    -0.200 F 
ENDBRANCH  27  41
BRANCH  28  52
ATOM     52  C   UNL A   1      41.689  26.998  27.827  1.00  0.00     0.064 A 
ATOM     53  C   UNL A   1      41.199  25.712  27.569  1.00  0.00     0.173 A 
ATOM     54  C   UNL A   1      42.600  27.537  26.903  1.00  0.00     0.173 A 
ATOM     55  F   UNL A   1      40.342  25.136  28.426  1.00  0.00    -0.203 F 
ATOM     56  C   UNL A   1      41.623  24.985  26.456  1.00  0.00     0.198 A 
ATOM     57  C   UNL A   1      42.993  26.827  25.769  1.00  0.00     0.198 A 
ATOM     58  F   UNL A   1      43.108  28.764  27.094  1.00  0.00    -0.203 F 
ATOM     59  F   UNL A   1      41.185  23.732  26.269  1.00  0.00    -0.200 F 
ATOM     60  C   UNL A   1      42.515  25.546  25.553  1.00  0.00     0.200 A 
ATOM     61  F   UNL A   1      43.841  27.383  24.894  1.00  0.00    -0.200 F 
ATOM     62  F   UNL A   1      42.924  24.847  24.486  1.00  0.00    -0.200 F 
ENDBRANCH  28  52
BRANCH  40  63
ATOM     63  C   UNL A   1      44.317  27.581  34.256  1.00  0.00     0.064 A 
ATOM     64  C   UNL A   1      44.201  26.354  34.925  1.00  0.00     0.173 A 
ATOM     65  C   UNL A   1      45.582  28.182  34.188  1.00  0.00     0.173 A 
ATOM     66  F   UNL A   1      43.006  25.751  35.029  1.00  0.00    -0.203 F 
ATOM     67  C   UNL A   1      45.306  25.768  35.532  1.00  0.00     0.198 A 
ATOM     68  C   UNL A   1      46.690  27.576  34.766  1.00  0.00     0.198 A 
ATOM     69  F   UNL A   1      45.740  29.353  33.552  1.00  0.00    -0.203 F 
ATOM     70  F   UNL A   1      45.163  24.624  36.216  1.00  0.00    -0.200 F 
ATOM     71  C   UNL A   1      46.551  26.375  35.446  1.00  0.00     0.200 A 
ATOM     72  F   UNL A   1      47.895  28.156  34.669  1.00  0.00    -0.200 F 
ATOM     73  F   UNL A   1      47.615  25.807  36.026  1.00  0.00    -0.200 F 
ENDBRANCH  40  63
ENDBRANCH  14  15
ENDBRANCH   7   9
ENDBRANCH   6   7
ENDBRANCH   5   6
ENDBRANCH   4   5
ENDBRANCH   3   4
ENDBRANCH   2   3
ENDBRANCH   1   2
BRANCH   1  74
ATOM     74  O   UNL A   1      31.905  28.051  25.124  1.00  0.00    -0.377 OA
BRANCH  74  75
ATOM     75  C   UNL A   1      32.090  28.748  23.898  1.00  0.00     0.188 C 
BRANCH  75  76
ATOM     76  C   UNL A   1      33.516  28.847  23.295  1.00  0.00     0.188 C 
BRANCH  76  77
ATOM     77  O   UNL A   1      34.038  27.636  22.763  1.00  0.00    -0.376 OA
BRANCH  77  78
ATOM     78  C   UNL A   1      33.126  26.844  22.006  1.00  0.00     0.202 C 
BRANCH  78  79
ATOM     79  C   UNL A   1      32.696  25.524  22.663  1.00  0.00     0.261 C 
BRANCH  79  80
ATOM     80  O   UNL A   1      33.622  24.953  23.602  1.00  0.00    -0.462 OA
BRANCH  80  81
ATOM     81  C   UNL A   1      33.765  23.601  23.630  1.00  0.00     0.328 C 
ATOM     82  O   UNL A   1      34.346  22.952  22.764  1.00  0.00    -0.250 OA
BRANCH  81  83
ATOM     83  C   UNL A   1      33.207  23.037  24.950  1.00  0.00     0.193 C 
ATOM     84  C   UNL A   1      32.110  23.934  25.544  1.00  0.00     0.037 C 
ATOM     85  N   UNL A   1      34.167  22.821  26.048  1.00  0.00    -0.342 N 
ATOM     86  C   UNL A   1      31.424  23.190  26.693  1.00  0.00     0.005 C 
ATOM     87  C   UNL A   1      33.650  21.962  27.101  1.00  0.00     0.119 C 
ATOM     88  C   UNL A   1      32.440  22.684  27.730  1.00  0.00     0.022 C 
BRANCH  85  89
ATOM     89  C   UNL A   1      35.493  22.811  25.686  1.00  0.00     0.141 A 
ATOM     90  N   UNL A   1      36.281  23.869  25.955  1.00  0.00    -0.219 NA
ATOM     91  C   UNL A   1      36.087  21.605  25.259  1.00  0.00     0.054 A 
ATOM     92  C   UNL A   1      37.612  23.696  25.881  1.00  0.00     0.225 A 
ATOM     93  C   UNL A   1      37.468  21.556  25.288  1.00  0.00     0.128 A 
ATOM     94  C   UNL A   1      35.529  20.326  24.905  1.00  0.00     0.026 A 
ATOM     95  N   UNL A   1      38.288  22.577  25.586  1.00  0.00    -0.225 NA
ATOM     96  S   UNL A   1      38.067  19.988  24.980  1.00  0.00    -0.124 S 
ATOM     97  C   UNL A   1      36.489  19.347  24.795  1.00  0.00     0.068 A 
ENDBRANCH  85  89
ENDBRANCH  81  83
ENDBRANCH  80  81
ENDBRANCH  79  80
ENDBRANCH  78  79
ENDBRANCH  77  78
ENDBRANCH  76  77
ENDBRANCH  75  76
ENDBRANCH  74  75
ENDBRANCH   1  74
TORSDOF 21
ENDMDL
MODEL 3
REMARK VINA RESULT:     -10.2      6.221     11.682
REMARK SMILES O=C(OCCOCCOCCOCCOC(=O)[C@@H]1CCCCN1c1ncnc2sccc12)c1ccc(-c2c3nc(c(-c4c(F)c(F)c(F)c(F)c4F)c4ccc([nH]4)c(-c4c(F)c(F)c(F)c(F)c4F)c4nc(c(-c5c(F)c(F)c(F)c(F)c5F)c5ccc2[nH]5)C=C4)C=C3)cc1
REMARK SMILES IDX 8 1 7 2 6 3 5 4 4 5 3 6 2 7 1 8 33 9 34 10 95 11 35 12 94 13
REMARK SMILES IDX 36 14 37 15 38 16 88 17 39 18 93 19 87 20 89 21 40 22 92 23
REMARK SMILES IDX 86 24 85 25 41 27 73 28 53 29 72 30 54 31 57 32 71 33 90 34
REMARK SMILES IDX 55 35 56 36 70 38 91 39 58 40 42 41 43 42 51 43 44 44 45 45
REMARK SMILES IDX 49 46 52 47 46 48 47 49 50 50 48 51 74 52 75 53 83 54 76 55
REMARK SMILES IDX 77 56 81 57 84 58 78 59 79 60 82 61 80 62 59 63 60 64 68 65
REMARK SMILES IDX 61 66 62 67 66 68 69 69 63 70 64 71 67 72 65 73 9 74 10 75
REMARK SMILES IDX 11 76 12 77 13 78 14 79 15 80 16 81 17 82 18 83 19 84 23 85
REMARK SMILES IDX 20 86 22 87 21 88 24 89 25 90 32 91 26 92 28 93 31 94 27 95
REMARK SMILES IDX 29 96 30 97
REMARK H PARENT 89 26 57 37
REMARK Flexibility Score: inf
ROOT
ATOM      1  C   UNL A   1      33.425  29.276  27.078  1.00  0.00     0.188 C 
ENDROOT
BRANCH   1   2
ATOM      2  C   UNL A   1      34.665  30.158  27.264  1.00  0.00     0.188 C 
BRANCH   2   3
ATOM      3  O   UNL A   1      34.251  31.466  27.626  1.00  0.00    -0.376 OA
BRANCH   3   4
ATOM      4  C   UNL A   1      32.878  31.810  27.626  1.00  0.00     0.202 C 
BRANCH   4   5
ATOM      5  C   UNL A   1      32.535  33.150  26.995  1.00  0.00     0.261 C 
BRANCH   5   6
ATOM      6  O   UNL A   1      32.152  34.180  27.927  1.00  0.00    -0.460 OA
BRANCH   6   7
ATOM      7  C   UNL A   1      32.917  34.971  28.717  1.00  0.00     0.338 C 
ATOM      8  O   UNL A   1      32.562  36.126  28.937  1.00  0.00    -0.246 OA
BRANCH   7   9
ATOM      9  C   UNL A   1      34.131  34.476  29.407  1.00  0.00     0.060 A 
ATOM     10  C   UNL A   1      35.415  34.575  28.888  1.00  0.00     0.016 A 
ATOM     11  C   UNL A   1      33.989  33.992  30.712  1.00  0.00     0.016 A 
ATOM     12  C   UNL A   1      36.496  33.983  29.509  1.00  0.00     0.010 A 
ATOM     13  C   UNL A   1      35.102  33.521  31.417  1.00  0.00     0.010 A 
ATOM     14  C   UNL A   1      36.350  33.448  30.782  1.00  0.00    -0.014 A 
BRANCH  14  15
ATOM     15  C   UNL A   1      37.484  32.685  31.338  1.00  0.00     0.031 A 
ATOM     16  C   UNL A   1      37.901  32.984  32.748  1.00  0.00     0.074 A 
ATOM     17  C   UNL A   1      37.999  31.643  30.657  1.00  0.00     0.049 A 
ATOM     18  N   UNL A   1      38.918  32.529  33.428  1.00  0.00    -0.248 NA
ATOM     19  C   UNL A   1      37.051  33.926  33.499  1.00  0.00     0.031 C 
ATOM     20  C   UNL A   1      37.553  31.189  29.335  1.00  0.00     0.029 A 
ATOM     21  N   UNL A   1      38.975  30.745  31.000  1.00  0.00    -0.354 N 
ATOM     22  C   UNL A   1      38.855  33.165  34.659  1.00  0.00     0.074 A 
ATOM     23  C   UNL A   1      37.715  34.050  34.636  1.00  0.00     0.031 C 
ATOM     24  C   UNL A   1      38.216  30.071  29.004  1.00  0.00     0.029 A 
ATOM     25  C   UNL A   1      39.209  29.797  30.032  1.00  0.00     0.049 A 
ATOM     26  H   UNL A   1      39.461  30.776  31.855  1.00  0.00     0.167 HD
ATOM     27  C   UNL A   1      39.685  33.015  35.716  1.00  0.00     0.037 A 
ATOM     28  C   UNL A   1      40.164  28.851  29.969  1.00  0.00     0.037 A 
ATOM     29  C   UNL A   1      40.797  32.105  35.708  1.00  0.00     0.049 A 
ATOM     30  C   UNL A   1      41.134  28.769  31.117  1.00  0.00     0.074 A 
ATOM     31  C   UNL A   1      41.777  31.919  36.663  1.00  0.00     0.029 A 
ATOM     32  N   UNL A   1      41.058  31.208  34.678  1.00  0.00    -0.354 N 
ATOM     33  N   UNL A   1      41.154  29.461  32.234  1.00  0.00    -0.248 NA
ATOM     34  C   UNL A   1      42.226  27.799  30.991  1.00  0.00     0.031 C 
ATOM     35  C   UNL A   1      42.652  30.934  36.194  1.00  0.00     0.029 A 
ATOM     36  C   UNL A   1      42.188  30.467  34.972  1.00  0.00     0.049 A 
ATOM     37  H   UNL A   1      40.518  31.115  33.861  1.00  0.00     0.167 HD
ATOM     38  C   UNL A   1      42.251  29.005  32.947  1.00  0.00     0.074 A 
ATOM     39  C   UNL A   1      42.850  27.952  32.150  1.00  0.00     0.031 C 
ATOM     40  C   UNL A   1      42.736  29.422  34.145  1.00  0.00     0.037 A 
BRANCH  27  41
ATOM     41  C   UNL A   1      39.446  33.897  36.905  1.00  0.00     0.064 A 
ATOM     42  C   UNL A   1      39.974  35.195  36.989  1.00  0.00     0.173 A 
ATOM     43  C   UNL A   1      38.716  33.417  38.002  1.00  0.00     0.173 A 
ATOM     44  F   UNL A   1      40.712  35.689  35.983  1.00  0.00    -0.203 F 
ATOM     45  C   UNL A   1      39.807  35.964  38.139  1.00  0.00     0.198 A 
ATOM     46  C   UNL A   1      38.526  34.199  39.139  1.00  0.00     0.198 A 
ATOM     47  F   UNL A   1      38.201  32.177  37.981  1.00  0.00    -0.203 F 
ATOM     48  F   UNL A   1      40.378  37.174  38.222  1.00  0.00    -0.200 F 
ATOM     49  C   UNL A   1      39.080  35.468  39.210  1.00  0.00     0.200 A 
ATOM     50  F   UNL A   1      37.823  33.716  40.172  1.00  0.00    -0.200 F 
ATOM     51  F   UNL A   1      38.927  36.205  40.318  1.00  0.00    -0.200 F 
ENDBRANCH  27  41
BRANCH  28  52
ATOM     52  C   UNL A   1      40.301  27.987  28.763  1.00  0.00     0.064 A 
ATOM     53  C   UNL A   1      39.674  26.738  28.678  1.00  0.00     0.173 A 
ATOM     54  C   UNL A   1      41.096  28.384  27.675  1.00  0.00     0.173 A 
ATOM     55  F   UNL A   1      38.919  26.295  29.695  1.00  0.00    -0.203 F 
ATOM     56  C   UNL A   1      39.857  25.910  27.569  1.00  0.00     0.198 A 
ATOM     57  C   UNL A   1      41.246  27.575  26.550  1.00  0.00     0.198 A 
ATOM     58  F   UNL A   1      41.726  29.568  27.696  1.00  0.00    -0.203 F 
ATOM     59  F   UNL A   1      39.295  24.694  27.543  1.00  0.00    -0.200 F 
ATOM     60  C   UNL A   1      40.637  26.332  26.503  1.00  0.00     0.200 A 
ATOM     61  F   UNL A   1      41.988  27.998  25.518  1.00  0.00    -0.200 F 
ATOM     62  F   UNL A   1      40.816  25.536  25.440  1.00  0.00    -0.200 F 
ENDBRANCH  28  52
BRANCH  40  63
ATOM     63  C   UNL A   1      43.946  28.706  34.661  1.00  0.00     0.064 A 
ATOM     64  C   UNL A   1      45.243  29.162  34.384  1.00  0.00     0.173 A 
ATOM     65  C   UNL A   1      43.800  27.567  35.465  1.00  0.00     0.173 A 
ATOM     66  F   UNL A   1      45.429  30.239  33.605  1.00  0.00    -0.203 F 
ATOM     67  C   UNL A   1      46.354  28.481  34.869  1.00  0.00     0.198 A 
ATOM     68  C   UNL A   1      44.913  26.910  35.977  1.00  0.00     0.198 A 
ATOM     69  F   UNL A   1      42.578  27.100  35.762  1.00  0.00    -0.203 F 
ATOM     70  F   UNL A   1      47.586  28.899  34.546  1.00  0.00    -0.200 F 
ATOM     71  C   UNL A   1      46.188  27.361  35.671  1.00  0.00     0.200 A 
ATOM     72  F   UNL A   1      44.751  25.837  36.764  1.00  0.00    -0.200 F 
ATOM     73  F   UNL A   1      47.259  26.710  36.141  1.00  0.00    -0.200 F 
ENDBRANCH  40  63
ENDBRANCH  14  15
ENDBRANCH   7   9
ENDBRANCH   6   7
ENDBRANCH   5   6
ENDBRANCH   4   5
ENDBRANCH   3   4
ENDBRANCH   2   3
ENDBRANCH   1   2
BRANCH   1  74
ATOM     74  O   UNL A   1      33.124  28.937  25.724  1.00  0.00    -0.377 OA
BRANCH  74  75
ATOM     75  C   UNL A   1      31.822  28.419  25.484  1.00  0.00     0.188 C 
BRANCH  75  76
ATOM     76  C   UNL A   1      31.326  27.210  26.321  1.00  0.00     0.188 C 
BRANCH  76  77
ATOM     77  O   UNL A   1      32.106  26.027  26.204  1.00  0.00    -0.376 OA
BRANCH  77  78
ATOM     78  C   UNL A   1      31.406  24.799  26.390  1.00  0.00     0.202 C 
BRANCH  78  79
ATOM     79  C   UNL A   1      32.242  23.644  26.962  1.00  0.00     0.261 C 
BRANCH  79  80
ATOM     80  O   UNL A   1      31.888  22.324  26.516  1.00  0.00    -0.462 OA
BRANCH  80  81
ATOM     81  C   UNL A   1      32.865  21.380  26.445  1.00  0.00     0.328 C 
ATOM     82  O   UNL A   1      33.816  21.315  27.219  1.00  0.00    -0.250 OA
BRANCH  81  83
ATOM     83  C   UNL A   1      32.531  20.356  25.345  1.00  0.00     0.193 C 
ATOM     84  C   UNL A   1      32.902  18.922  25.758  1.00  0.00     0.037 C 
ATOM     85  N   UNL A   1      33.163  20.554  24.027  1.00  0.00    -0.342 N 
ATOM     86  C   UNL A   1      32.307  17.941  24.744  1.00  0.00     0.005 C 
ATOM     87  C   UNL A   1      32.527  19.790  22.965  1.00  0.00     0.119 C 
ATOM     88  C   UNL A   1      32.711  18.296  23.304  1.00  0.00     0.022 C 
BRANCH  85  89
ATOM     89  C   UNL A   1      33.699  21.801  23.806  1.00  0.00     0.141 A 
ATOM     90  N   UNL A   1      32.917  22.815  23.394  1.00  0.00    -0.219 NA
ATOM     91  C   UNL A   1      35.010  22.080  24.246  1.00  0.00     0.054 A 
ATOM     92  C   UNL A   1      33.401  24.066  23.501  1.00  0.00     0.225 A 
ATOM     93  C   UNL A   1      35.349  23.415  24.358  1.00  0.00     0.128 A 
ATOM     94  C   UNL A   1      36.064  21.233  24.738  1.00  0.00     0.026 A 
ATOM     95  N   UNL A   1      34.585  24.457  23.992  1.00  0.00    -0.225 NA
ATOM     96  S   UNL A   1      36.862  23.638  25.116  1.00  0.00    -0.124 S 
ATOM     97  C   UNL A   1      37.095  21.951  25.301  1.00  0.00     0.068 A 
ENDBRANCH  85  89
ENDBRANCH  81  83
ENDBRANCH  80  81
ENDBRANCH  79  80
ENDBRANCH  78  79
ENDBRANCH  77  78
ENDBRANCH  76  77
ENDBRANCH  75  76
ENDBRANCH  74  75
ENDBRANCH   1  74
TORSDOF 21
ENDMDL
