MODEL 1
REMARK VINA RESULT:     -10.4      0.000      0.000
REMARK SMILES CCc1ccc2nc(O)c(C(=O)OCCOCCOCCOCCOC(=O)c3ccc(-c4c5nc(c(-c6c(F)c(F)c(F)c(F)c6F)c6ccc([nH]6)c(-c6c(F)c(F)c(F)c(F)c6F)c6nc(c(-c7c(F)c(F)c(F)c(F)c7F)c7ccc4[nH]7)C=C6)C=C5)cc3)cc2c1
REMARK SMILES IDX 20 1 19 2 18 3 17 4 16 5 15 6 14 7 13 8 11 9 12 10 10 11
REMARK SMILES IDX 3 12 4 13 93 14 5 15 92 16 6 17 91 18 7 19 8 20 2 21 1 22
REMARK SMILES IDX 9 23 21 25 22 26 23 27 24 28 25 29 26 30 27 31 28 32 29 33
REMARK SMILES IDX 90 34 30 35 89 36 31 37 32 38 33 39 83 40 34 41 88 42 82 43
REMARK SMILES IDX 84 44 35 45 87 46 81 47 80 48 36 50 68 51 48 52 67 53 49 54
REMARK SMILES IDX 52 55 66 56 85 57 50 58 51 59 65 61 86 62 53 63 37 64 38 65
REMARK SMILES IDX 46 66 39 67 40 68 44 69 47 70 41 71 42 72 45 73 43 74 69 75
REMARK SMILES IDX 70 76 78 77 71 78 72 79 76 80 79 81 73 82 74 83 77 84 75 85
REMARK SMILES IDX 54 86 55 87 63 88 56 89 57 90 61 91 64 92 58 93 59 94 62 95
REMARK SMILES IDX 60 96
REMARK H PARENT 9 24 84 49 52 60
REMARK Flexibility Score: inf
ROOT
ATOM      1  C   UNL A   1      43.942  18.723  25.301  1.00  0.00     0.188 C 
ENDROOT
BRANCH   1   2
ATOM      2  O   UNL A   1      42.599  19.204  25.359  1.00  0.00    -0.377 OA
BRANCH   2   3
ATOM      3  C   UNL A   1      42.262  19.954  26.522  1.00  0.00     0.188 C 
BRANCH   3   4
ATOM      4  C   UNL A   1      40.978  20.777  26.315  1.00  0.00     0.188 C 
BRANCH   4   5
ATOM      5  O   UNL A   1      41.040  22.049  26.948  1.00  0.00    -0.376 OA
BRANCH   5   6
ATOM      6  C   UNL A   1      40.382  23.151  26.337  1.00  0.00     0.202 C 
BRANCH   6   7
ATOM      7  C   UNL A   1      39.097  23.738  26.955  1.00  0.00     0.261 C 
BRANCH   7   8
ATOM      8  O   UNL A   1      38.005  23.998  26.058  1.00  0.00    -0.459 OA
BRANCH   8   9
ATOM      9  C   UNL A   1      37.198  22.963  25.740  1.00  0.00     0.343 C 
ATOM     10  O   UNL A   1      37.549  21.821  25.499  1.00  0.00    -0.246 OA
BRANCH   9  11
ATOM     11  C   UNL A   1      35.798  23.383  25.948  1.00  0.00     0.122 A 
ATOM     12  C   UNL A   1      32.397  26.816  25.448  1.00  0.00    -0.048 A 
ATOM     13  C   UNL A   1      31.505  25.973  26.115  1.00  0.00     0.006 A 
ATOM     14  C   UNL A   1      33.704  26.365  25.234  1.00  0.00     0.014 A 
ATOM     15  C   UNL A   1      31.905  24.692  26.518  1.00  0.00     0.029 A 
ATOM     16  C   UNL A   1      34.110  25.093  25.674  1.00  0.00     0.002 A 
ATOM     17  C   UNL A   1      33.192  24.224  26.298  1.00  0.00     0.074 A 
ATOM     18  C   UNL A   1      35.431  24.660  25.523  1.00  0.00     0.031 A 
ATOM     19  N   UNL A   1      33.533  22.978  26.678  1.00  0.00    -0.213 NA
ATOM     20  C   UNL A   1      34.804  22.570  26.473  1.00  0.00     0.226 A 
BRANCH  12  21
ATOM     21  C   UNL A   1      31.981  28.204  25.026  1.00  0.00     0.032 C 
ATOM     22  C   UNL A   1      32.489  28.594  23.644  1.00  0.00     0.009 C 
ENDBRANCH  12  21
BRANCH  20  23
ATOM     23  O   UNL A   1      35.006  21.255  26.782  1.00  0.00    -0.493 OA
ATOM     24  H   UNL A   1      34.857  20.593  26.136  1.00  0.00     0.295 HD
ENDBRANCH  20  23
ENDBRANCH   9  11
ENDBRANCH   8   9
ENDBRANCH   7   8
ENDBRANCH   6   7
ENDBRANCH   5   6
ENDBRANCH   4   5
ENDBRANCH   3   4
ENDBRANCH   2   3
ENDBRANCH   1   2
BRANCH   1  25
ATOM     25  C   UNL A   1      44.871  19.161  24.147  1.00  0.00     0.188 C 
BRANCH  25  26
ATOM     26  O   UNL A   1      44.590  20.479  23.671  1.00  0.00    -0.376 OA
BRANCH  26  27
ATOM     27  C   UNL A   1      45.044  21.558  24.478  1.00  0.00     0.202 C 
BRANCH  27  28
ATOM     28  C   UNL A   1      44.631  22.940  23.957  1.00  0.00     0.261 C 
BRANCH  28  29
ATOM     29  O   UNL A   1      44.144  23.850  24.957  1.00  0.00    -0.460 OA
BRANCH  29  30
ATOM     30  C   UNL A   1      44.892  24.937  25.242  1.00  0.00     0.338 C 
ATOM     31  O   UNL A   1      45.905  25.307  24.675  1.00  0.00    -0.246 OA
BRANCH  30  32
ATOM     32  C   UNL A   1      44.148  25.734  26.241  1.00  0.00     0.060 A 
ATOM     33  C   UNL A   1      43.275  25.114  27.139  1.00  0.00     0.016 A 
ATOM     34  C   UNL A   1      44.299  27.127  26.249  1.00  0.00     0.016 A 
ATOM     35  C   UNL A   1      42.578  25.886  28.070  1.00  0.00     0.010 A 
ATOM     36  C   UNL A   1      43.591  27.899  27.174  1.00  0.00     0.010 A 
ATOM     37  C   UNL A   1      42.746  27.281  28.106  1.00  0.00    -0.014 A 
BRANCH  37  38
ATOM     38  C   UNL A   1      42.187  28.058  29.238  1.00  0.00     0.031 A 
ATOM     39  C   UNL A   1      40.894  28.806  29.133  1.00  0.00     0.074 A 
ATOM     40  C   UNL A   1      42.891  28.082  30.385  1.00  0.00     0.049 A 
ATOM     41  N   UNL A   1      40.261  29.481  30.059  1.00  0.00    -0.248 NA
ATOM     42  C   UNL A   1      40.227  28.802  27.824  1.00  0.00     0.031 C 
ATOM     43  C   UNL A   1      44.173  27.407  30.590  1.00  0.00     0.029 A 
ATOM     44  N   UNL A   1      42.632  28.685  31.588  1.00  0.00    -0.354 N 
ATOM     45  C   UNL A   1      39.108  29.964  29.458  1.00  0.00     0.074 A 
ATOM     46  C   UNL A   1      39.152  29.542  28.071  1.00  0.00     0.031 C 
ATOM     47  C   UNL A   1      44.581  27.618  31.850  1.00  0.00     0.029 A 
ATOM     48  C   UNL A   1      43.603  28.461  32.532  1.00  0.00     0.049 A 
ATOM     49  H   UNL A   1      41.828  29.229  31.758  1.00  0.00     0.167 HD
ATOM     50  C   UNL A   1      38.102  30.678  30.021  1.00  0.00     0.037 A 
ATOM     51  C   UNL A   1      43.695  28.882  33.806  1.00  0.00     0.037 A 
ATOM     52  C   UNL A   1      38.076  31.108  31.398  1.00  0.00     0.049 A 
ATOM     53  C   UNL A   1      42.589  29.714  34.388  1.00  0.00     0.074 A 
ATOM     54  C   UNL A   1      37.081  31.804  32.065  1.00  0.00     0.029 A 
ATOM     55  N   UNL A   1      39.094  30.897  32.317  1.00  0.00    -0.354 N 
ATOM     56  N   UNL A   1      41.471  30.108  33.829  1.00  0.00    -0.248 NA
ATOM     57  C   UNL A   1      42.755  30.154  35.780  1.00  0.00     0.031 C 
ATOM     58  C   UNL A   1      37.519  32.060  33.369  1.00  0.00     0.029 A 
ATOM     59  C   UNL A   1      38.763  31.475  33.534  1.00  0.00     0.049 A 
ATOM     60  H   UNL A   1      39.928  30.408  32.133  1.00  0.00     0.167 HD
ATOM     61  C   UNL A   1      40.791  30.825  34.803  1.00  0.00     0.074 A 
ATOM     62  C   UNL A   1      41.613  30.795  35.995  1.00  0.00     0.031 C 
ATOM     63  C   UNL A   1      39.591  31.451  34.714  1.00  0.00     0.037 A 
BRANCH  50  64
ATOM     64  C   UNL A   1      36.927  31.038  29.159  1.00  0.00     0.064 A 
ATOM     65  C   UNL A   1      35.937  30.094  28.848  1.00  0.00     0.173 A 
ATOM     66  C   UNL A   1      36.733  32.358  28.726  1.00  0.00     0.173 A 
ATOM     67  F   UNL A   1      36.075  28.817  29.237  1.00  0.00    -0.203 F 
ATOM     68  C   UNL A   1      34.803  30.455  28.124  1.00  0.00     0.198 A 
ATOM     69  C   UNL A   1      35.586  32.722  28.023  1.00  0.00     0.198 A 
ATOM     70  F   UNL A   1      37.642  33.303  29.008  1.00  0.00    -0.203 F 
ATOM     71  F   UNL A   1      33.882  29.532  27.818  1.00  0.00    -0.200 F 
ATOM     72  C   UNL A   1      34.624  31.770  27.721  1.00  0.00     0.200 A 
ATOM     73  F   UNL A   1      35.406  33.996  27.650  1.00  0.00    -0.200 F 
ATOM     74  F   UNL A   1      33.522  32.121  27.042  1.00  0.00    -0.200 F 
ENDBRANCH  50  64
BRANCH  51  75
ATOM     75  C   UNL A   1      44.868  28.481  34.623  1.00  0.00     0.064 A 
ATOM     76  C   UNL A   1      46.026  29.269  34.649  1.00  0.00     0.173 A 
ATOM     77  C   UNL A   1      44.843  27.325  35.417  1.00  0.00     0.173 A 
ATOM     78  F   UNL A   1      46.101  30.374  33.892  1.00  0.00    -0.203 F 
ATOM     79  C   UNL A   1      47.119  28.914  35.435  1.00  0.00     0.198 A 
ATOM     80  C   UNL A   1      45.927  26.986  36.223  1.00  0.00     0.198 A 
ATOM     81  F   UNL A   1      43.754  26.543  35.430  1.00  0.00    -0.203 F 
ATOM     82  F   UNL A   1      48.225  29.668  35.419  1.00  0.00    -0.200 F 
ATOM     83  C   UNL A   1      47.064  27.777  36.227  1.00  0.00     0.200 A 
ATOM     84  F   UNL A   1      45.863  25.896  37.000  1.00  0.00    -0.200 F 
ATOM     85  F   UNL A   1      48.111  27.442  36.994  1.00  0.00    -0.200 F 
ENDBRANCH  51  75
BRANCH  63  86
ATOM     86  C   UNL A   1      39.088  32.153  35.942  1.00  0.00     0.064 A 
ATOM     87  C   UNL A   1      38.214  31.523  36.841  1.00  0.00     0.173 A 
ATOM     88  C   UNL A   1      39.519  33.453  36.250  1.00  0.00     0.173 A 
ATOM     89  F   UNL A   1      37.759  30.287  36.584  1.00  0.00    -0.203 F 
ATOM     90  C   UNL A   1      37.776  32.174  37.991  1.00  0.00     0.198 A 
ATOM     91  C   UNL A   1      39.102  34.090  37.415  1.00  0.00     0.198 A 
ATOM     92  F   UNL A   1      40.359  34.100  35.428  1.00  0.00    -0.203 F 
ATOM     93  F   UNL A   1      36.906  31.568  38.812  1.00  0.00    -0.200 F 
ATOM     94  C   UNL A   1      38.227  33.453  38.282  1.00  0.00     0.200 A 
ATOM     95  F   UNL A   1      39.550  35.321  37.702  1.00  0.00    -0.200 F 
ATOM     96  F   UNL A   1      37.812  34.075  39.394  1.00  0.00    -0.200 F 
ENDBRANCH  63  86
ENDBRANCH  37  38
ENDBRANCH  30  32
ENDBRANCH  29  30
ENDBRANCH  28  29
ENDBRANCH  27  28
ENDBRANCH  26  27
ENDBRANCH  25  26
ENDBRANCH   1  25
TORSDOF 22
ENDMDL
MODEL 2
REMARK VINA RESULT:     -10.3      4.115      9.696
REMARK SMILES CCc1ccc2nc(O)c(C(=O)OCCOCCOCCOCCOC(=O)c3ccc(-c4c5nc(c(-c6c(F)c(F)c(F)c(F)c6F)c6ccc([nH]6)c(-c6c(F)c(F)c(F)c(F)c6F)c6nc(c(-c7c(F)c(F)c(F)c(F)c7F)c7ccc4[nH]7)C=C6)C=C5)cc3)cc2c1
REMARK SMILES IDX 20 1 19 2 18 3 17 4 16 5 15 6 14 7 13 8 11 9 12 10 10 11
REMARK SMILES IDX 3 12 4 13 93 14 5 15 92 16 6 17 91 18 7 19 8 20 2 21 1 22
REMARK SMILES IDX 9 23 21 25 22 26 23 27 24 28 25 29 26 30 27 31 28 32 29 33
REMARK SMILES IDX 90 34 30 35 89 36 31 37 32 38 33 39 83 40 34 41 88 42 82 43
REMARK SMILES IDX 84 44 35 45 87 46 81 47 80 48 36 50 68 51 48 52 67 53 49 54
REMARK SMILES IDX 52 55 66 56 85 57 50 58 51 59 65 61 86 62 53 63 37 64 38 65
REMARK SMILES IDX 46 66 39 67 40 68 44 69 47 70 41 71 42 72 45 73 43 74 69 75
REMARK SMILES IDX 70 76 78 77 71 78 72 79 76 80 79 81 73 82 74 83 77 84 75 85
REMARK SMILES IDX 54 86 55 87 63 88 56 89 57 90 61 91 64 92 58 93 59 94 62 95
REMARK SMILES IDX 60 96
REMARK H PARENT 9 24 84 49 52 60
REMARK Flexibility Score: inf
ROOT
ATOM      1  C   UNL A   1      33.962  29.076  27.216  1.00  0.00     0.188 C 
ENDROOT
BRANCH   1   2
ATOM      2  O   UNL A   1      33.634  28.504  25.949  1.00  0.00    -0.377 OA
BRANCH   2   3
ATOM      3  C   UNL A   1      32.762  29.278  25.131  1.00  0.00     0.188 C 
BRANCH   3   4
ATOM      4  C   UNL A   1      32.969  28.975  23.637  1.00  0.00     0.188 C 
BRANCH   4   5
ATOM      5  O   UNL A   1      31.795  29.210  22.867  1.00  0.00    -0.376 OA
BRANCH   5   6
ATOM      6  C   UNL A   1      30.537  29.237  23.528  1.00  0.00     0.202 C 
BRANCH   6   7
ATOM      7  C   UNL A   1      29.613  28.004  23.506  1.00  0.00     0.261 C 
BRANCH   7   8
ATOM      8  O   UNL A   1      30.250  26.716  23.472  1.00  0.00    -0.459 OA
BRANCH   8   9
ATOM      9  C   UNL A   1      30.654  26.188  24.648  1.00  0.00     0.343 C 
ATOM     10  O   UNL A   1      30.145  26.379  25.738  1.00  0.00    -0.246 OA
BRANCH   9  11
ATOM     11  C   UNL A   1      31.679  25.163  24.370  1.00  0.00     0.122 A 
ATOM     12  C   UNL A   1      36.199  23.535  25.098  1.00  0.00    -0.048 A 
ATOM     13  C   UNL A   1      35.925  22.495  24.206  1.00  0.00     0.006 A 
ATOM     14  C   UNL A   1      35.187  24.463  25.367  1.00  0.00     0.014 A 
ATOM     15  C   UNL A   1      34.654  22.369  23.630  1.00  0.00     0.029 A 
ATOM     16  C   UNL A   1      33.925  24.353  24.758  1.00  0.00     0.002 A 
ATOM     17  C   UNL A   1      33.636  23.273  23.899  1.00  0.00     0.074 A 
ATOM     18  C   UNL A   1      32.930  25.313  24.969  1.00  0.00     0.031 A 
ATOM     19  N   UNL A   1      32.419  23.105  23.347  1.00  0.00    -0.213 NA
ATOM     20  C   UNL A   1      31.463  24.022  23.610  1.00  0.00     0.226 A 
BRANCH  12  21
ATOM     21  C   UNL A   1      37.570  23.690  25.709  1.00  0.00     0.032 C 
ATOM     22  C   UNL A   1      38.293  22.366  25.916  1.00  0.00     0.009 C 
ENDBRANCH  12  21
BRANCH  20  23
ATOM     23  O   UNL A   1      30.240  23.689  23.101  1.00  0.00    -0.493 OA
ATOM     24  H   UNL A   1      29.485  24.197  23.324  1.00  0.00     0.295 HD
ENDBRANCH  20  23
ENDBRANCH   9  11
ENDBRANCH   8   9
ENDBRANCH   7   8
ENDBRANCH   6   7
ENDBRANCH   5   6
ENDBRANCH   4   5
ENDBRANCH   3   4
ENDBRANCH   2   3
ENDBRANCH   1   2
BRANCH   1  25
ATOM     25  C   UNL A   1      35.014  30.203  27.307  1.00  0.00     0.188 C 
BRANCH  25  26
ATOM     26  O   UNL A   1      34.513  31.390  27.923  1.00  0.00    -0.376 OA
BRANCH  26  27
ATOM     27  C   UNL A   1      33.164  31.737  27.635  1.00  0.00     0.202 C 
BRANCH  27  28
ATOM     28  C   UNL A   1      32.967  33.214  27.269  1.00  0.00     0.261 C 
BRANCH  28  29
ATOM     29  O   UNL A   1      32.325  34.013  28.276  1.00  0.00    -0.460 OA
BRANCH  29  30
ATOM     30  C   UNL A   1      32.997  35.078  28.763  1.00  0.00     0.338 C 
ATOM     31  O   UNL A   1      32.645  36.244  28.747  1.00  0.00    -0.246 OA
BRANCH  30  32
ATOM     32  C   UNL A   1      34.157  34.559  29.520  1.00  0.00     0.060 A 
ATOM     33  C   UNL A   1      33.986  34.008  30.793  1.00  0.00     0.016 A 
ATOM     34  C   UNL A   1      35.437  34.663  28.959  1.00  0.00     0.016 A 
ATOM     35  C   UNL A   1      35.096  33.530  31.493  1.00  0.00     0.010 A 
ATOM     36  C   UNL A   1      36.547  34.194  29.666  1.00  0.00     0.010 A 
ATOM     37  C   UNL A   1      36.380  33.602  30.926  1.00  0.00    -0.014 A 
BRANCH  37  38
ATOM     38  C   UNL A   1      37.507  32.887  31.570  1.00  0.00     0.031 A 
ATOM     39  C   UNL A   1      38.055  33.293  32.903  1.00  0.00     0.074 A 
ATOM     40  C   UNL A   1      38.043  31.844  30.908  1.00  0.00     0.049 A 
ATOM     41  N   UNL A   1      39.000  32.723  33.608  1.00  0.00    -0.248 NA
ATOM     42  C   UNL A   1      37.474  34.490  33.525  1.00  0.00     0.031 C 
ATOM     43  C   UNL A   1      37.602  31.376  29.593  1.00  0.00     0.029 A 
ATOM     44  N   UNL A   1      39.062  30.991  31.243  1.00  0.00    -0.354 N 
ATOM     45  C   UNL A   1      39.116  33.475  34.768  1.00  0.00     0.074 A 
ATOM     46  C   UNL A   1      38.172  34.570  34.652  1.00  0.00     0.031 C 
ATOM     47  C   UNL A   1      38.333  30.308  29.242  1.00  0.00     0.029 A 
ATOM     48  C   UNL A   1      39.308  30.033  30.293  1.00  0.00     0.049 A 
ATOM     49  H   UNL A   1      39.569  31.061  32.085  1.00  0.00     0.167 HD
ATOM     50  C   UNL A   1      39.923  33.255  35.835  1.00  0.00     0.037 A 
ATOM     51  C   UNL A   1      40.213  29.039  30.270  1.00  0.00     0.037 A 
ATOM     52  C   UNL A   1      40.871  32.172  35.934  1.00  0.00     0.049 A 
ATOM     53  C   UNL A   1      41.130  28.851  31.444  1.00  0.00     0.074 A 
ATOM     54  C   UNL A   1      41.705  31.850  36.992  1.00  0.00     0.029 A 
ATOM     55  N   UNL A   1      41.122  31.241  34.936  1.00  0.00    -0.354 N 
ATOM     56  N   UNL A   1      41.183  29.527  32.565  1.00  0.00    -0.248 NA
ATOM     57  C   UNL A   1      42.106  27.757  31.353  1.00  0.00     0.031 C 
ATOM     58  C   UNL A   1      42.497  30.759  36.615  1.00  0.00     0.029 A 
ATOM     59  C   UNL A   1      42.119  30.366  35.342  1.00  0.00     0.049 A 
ATOM     60  H   UNL A   1      40.661  31.206  34.067  1.00  0.00     0.167 HD
ATOM     61  C   UNL A   1      42.183  28.931  33.322  1.00  0.00     0.074 A 
ATOM     62  C   UNL A   1      42.696  27.826  32.539  1.00  0.00     0.031 C 
ATOM     63  C   UNL A   1      42.633  29.273  34.554  1.00  0.00     0.037 A 
BRANCH  50  64
ATOM     64  C   UNL A   1      39.820  34.195  37.001  1.00  0.00     0.064 A 
ATOM     65  C   UNL A   1      38.973  33.918  38.085  1.00  0.00     0.173 A 
ATOM     66  C   UNL A   1      40.645  35.327  37.086  1.00  0.00     0.173 A 
ATOM     67  F   UNL A   1      38.162  32.849  38.053  1.00  0.00    -0.203 F 
ATOM     68  C   UNL A   1      38.947  34.746  39.205  1.00  0.00     0.198 A 
ATOM     69  C   UNL A   1      40.635  36.138  38.218  1.00  0.00     0.198 A 
ATOM     70  F   UNL A   1      41.482  35.629  36.083  1.00  0.00    -0.203 F 
ATOM     71  F   UNL A   1      38.114  34.474  40.219  1.00  0.00    -0.200 F 
ATOM     72  C   UNL A   1      39.785  35.849  39.275  1.00  0.00     0.200 A 
ATOM     73  F   UNL A   1      41.457  37.194  38.292  1.00  0.00    -0.200 F 
ATOM     74  F   UNL A   1      39.774  36.634  40.362  1.00  0.00    -0.200 F 
ENDBRANCH  50  64
BRANCH  51  75
ATOM     75  C   UNL A   1      40.262  28.124  29.102  1.00  0.00     0.064 A 
ATOM     76  C   UNL A   1      39.577  26.902  29.120  1.00  0.00     0.173 A 
ATOM     77  C   UNL A   1      40.961  28.467  27.935  1.00  0.00     0.173 A 
ATOM     78  F   UNL A   1      38.909  26.525  30.221  1.00  0.00    -0.203 F 
ATOM     79  C   UNL A   1      39.595  26.053  28.017  1.00  0.00     0.198 A 
ATOM     80  C   UNL A   1      40.955  27.629  26.823  1.00  0.00     0.198 A 
ATOM     81  F   UNL A   1      41.624  29.630  27.868  1.00  0.00    -0.203 F 
ATOM     82  F   UNL A   1      38.958  24.876  28.071  1.00  0.00    -0.200 F 
ATOM     83  C   UNL A   1      40.277  26.421  26.867  1.00  0.00     0.200 A 
ATOM     84  F   UNL A   1      41.601  27.997  25.708  1.00  0.00    -0.200 F 
ATOM     85  F   UNL A   1      40.283  25.609  25.801  1.00  0.00    -0.200 F 
ENDBRANCH  51  75
BRANCH  63  86
ATOM     86  C   UNL A   1      43.735  28.438  35.141  1.00  0.00     0.064 A 
ATOM     87  C   UNL A   1      45.084  28.776  34.962  1.00  0.00     0.173 A 
ATOM     88  C   UNL A   1      43.439  27.315  35.930  1.00  0.00     0.173 A 
ATOM     89  F   UNL A   1      45.421  29.830  34.204  1.00  0.00    -0.203 F 
ATOM     90  C   UNL A   1      46.097  28.010  35.534  1.00  0.00     0.198 A 
ATOM     91  C   UNL A   1      44.452  26.570  36.524  1.00  0.00     0.198 A 
ATOM     92  F   UNL A   1      42.165  26.951  36.137  1.00  0.00    -0.203 F 
ATOM     93  F   UNL A   1      47.381  28.327  35.313  1.00  0.00    -0.200 F 
ATOM     94  C   UNL A   1      45.781  26.913  36.322  1.00  0.00     0.200 A 
ATOM     95  F   UNL A   1      44.144  25.517  37.296  1.00  0.00    -0.200 F 
ATOM     96  F   UNL A   1      46.756  26.183  36.880  1.00  0.00    -0.200 F 
ENDBRANCH  63  86
ENDBRANCH  37  38
ENDBRANCH  30  32
ENDBRANCH  29  30
ENDBRANCH  28  29
ENDBRANCH  27  28
ENDBRANCH  26  27
ENDBRANCH  25  26
ENDBRANCH   1  25
TORSDOF 22
ENDMDL
MODEL 3
REMARK VINA RESULT:     -10.1      3.828      9.617
REMARK SMILES CCc1ccc2nc(O)c(C(=O)OCCOCCOCCOCCOC(=O)c3ccc(-c4c5nc(c(-c6c(F)c(F)c(F)c(F)c6F)c6ccc([nH]6)c(-c6c(F)c(F)c(F)c(F)c6F)c6nc(c(-c7c(F)c(F)c(F)c(F)c7F)c7ccc4[nH]7)C=C6)C=C5)cc3)cc2c1
REMARK SMILES IDX 20 1 19 2 18 3 17 4 16 5 15 6 14 7 13 8 11 9 12 10 10 11
REMARK SMILES IDX 3 12 4 13 93 14 5 15 92 16 6 17 91 18 7 19 8 20 2 21 1 22
REMARK SMILES IDX 9 23 21 25 22 26 23 27 24 28 25 29 26 30 27 31 28 32 29 33
REMARK SMILES IDX 90 34 30 35 89 36 31 37 32 38 33 39 83 40 34 41 88 42 82 43
REMARK SMILES IDX 84 44 35 45 87 46 81 47 80 48 36 50 68 51 48 52 67 53 49 54
REMARK SMILES IDX 52 55 66 56 85 57 50 58 51 59 65 61 86 62 53 63 37 64 38 65
REMARK SMILES IDX 46 66 39 67 40 68 44 69 47 70 41 71 42 72 45 73 43 74 69 75
REMARK SMILES IDX 70 76 78 77 71 78 72 79 76 80 79 81 73 82 74 83 77 84 75 85
REMARK SMILES IDX 54 86 55 87 63 88 56 89 57 90 61 91 64 92 58 93 59 94 62 95
REMARK SMILES IDX 60 96
REMARK H PARENT 9 24 84 49 52 60
REMARK Flexibility Score: inf
ROOT
ATOM      1  C   UNL A   1      33.353  28.961  27.238  1.00  0.00     0.188 C 
ENDROOT
BRANCH   1   2
ATOM      2  O   UNL A   1      33.421  28.099  26.101  1.00  0.00    -0.377 OA
BRANCH   2   3
ATOM      3  C   UNL A   1      33.115  28.704  24.849  1.00  0.00     0.188 C 
BRANCH   3   4
ATOM      4  C   UNL A   1      33.198  27.691  23.694  1.00  0.00     0.188 C 
BRANCH   4   5
ATOM      5  O   UNL A   1      31.915  27.295  23.225  1.00  0.00    -0.376 OA
BRANCH   5   6
ATOM      6  C   UNL A   1      30.779  27.549  24.041  1.00  0.00     0.202 C 
BRANCH   6   7
ATOM      7  C   UNL A   1      29.847  26.398  24.468  1.00  0.00     0.261 C 
BRANCH   7   8
ATOM      8  O   UNL A   1      30.468  25.135  24.762  1.00  0.00    -0.459 OA
BRANCH   8   9
ATOM      9  C   UNL A   1      31.292  25.079  25.830  1.00  0.00     0.343 C 
ATOM     10  O   UNL A   1      31.163  25.692  26.875  1.00  0.00    -0.246 OA
BRANCH   9  11
ATOM     11  C   UNL A   1      32.258  23.983  25.616  1.00  0.00     0.122 A 
ATOM     12  C   UNL A   1      33.044  19.356  24.358  1.00  0.00    -0.048 A 
ATOM     13  C   UNL A   1      34.401  19.556  24.627  1.00  0.00     0.006 A 
ATOM     14  C   UNL A   1      32.167  20.432  24.535  1.00  0.00     0.014 A 
ATOM     15  C   UNL A   1      34.869  20.816  25.022  1.00  0.00     0.029 A 
ATOM     16  C   UNL A   1      32.637  21.684  24.968  1.00  0.00     0.002 A 
ATOM     17  C   UNL A   1      34.013  21.896  25.186  1.00  0.00     0.074 A 
ATOM     18  C   UNL A   1      31.759  22.745  25.210  1.00  0.00     0.031 A 
ATOM     19  N   UNL A   1      34.503  23.099  25.543  1.00  0.00    -0.213 NA
ATOM     20  C   UNL A   1      33.635  24.118  25.721  1.00  0.00     0.226 A 
BRANCH  12  21
ATOM     21  C   UNL A   1      32.528  17.998  23.949  1.00  0.00     0.032 C 
ATOM     22  C   UNL A   1      33.558  16.887  24.104  1.00  0.00     0.009 C 
ENDBRANCH  12  21
BRANCH  20  23
ATOM     23  O   UNL A   1      34.248  25.314  25.961  1.00  0.00    -0.493 OA
ATOM     24  H   UNL A   1      34.619  25.490  26.803  1.00  0.00     0.295 HD
ENDBRANCH  20  23
ENDBRANCH   9  11
ENDBRANCH   8   9
ENDBRANCH   7   8
ENDBRANCH   6   7
ENDBRANCH   5   6
ENDBRANCH   4   5
ENDBRANCH   3   4
ENDBRANCH   2   3
ENDBRANCH   1   2
BRANCH   1  25
ATOM     25  C   UNL A   1      34.459  30.012  27.479  1.00  0.00     0.188 C 
BRANCH  25  26
ATOM     26  O   UNL A   1      33.946  31.291  27.852  1.00  0.00    -0.376 OA
BRANCH  26  27
ATOM     27  C   UNL A   1      32.719  31.685  27.252  1.00  0.00     0.202 C 
BRANCH  27  28
ATOM     28  C   UNL A   1      32.539  33.205  27.145  1.00  0.00     0.261 C 
BRANCH  28  29
ATOM     29  O   UNL A   1      32.172  33.866  28.367  1.00  0.00    -0.460 OA
BRANCH  29  30
ATOM     30  C   UNL A   1      32.903  34.933  28.755  1.00  0.00     0.338 C 
ATOM     31  O   UNL A   1      32.587  36.107  28.691  1.00  0.00    -0.246 OA
BRANCH  30  32
ATOM     32  C   UNL A   1      34.087  34.418  29.476  1.00  0.00     0.060 A 
ATOM     33  C   UNL A   1      33.956  33.861  30.751  1.00  0.00     0.016 A 
ATOM     34  C   UNL A   1      35.349  34.532  28.880  1.00  0.00     0.016 A 
ATOM     35  C   UNL A   1      35.087  33.386  31.417  1.00  0.00     0.010 A 
ATOM     36  C   UNL A   1      36.482  34.066  29.553  1.00  0.00     0.010 A 
ATOM     37  C   UNL A   1      36.354  33.468  30.815  1.00  0.00    -0.014 A 
BRANCH  37  38
ATOM     38  C   UNL A   1      37.504  32.757  31.423  1.00  0.00     0.031 A 
ATOM     39  C   UNL A   1      38.062  33.136  32.759  1.00  0.00     0.074 A 
ATOM     40  C   UNL A   1      38.050  31.744  30.725  1.00  0.00     0.049 A 
ATOM     41  N   UNL A   1      39.028  32.566  33.435  1.00  0.00    -0.248 NA
ATOM     42  C   UNL A   1      37.468  34.305  33.422  1.00  0.00     0.031 C 
ATOM     43  C   UNL A   1      37.599  31.304  29.404  1.00  0.00     0.029 A 
ATOM     44  N   UNL A   1      39.089  30.902  31.023  1.00  0.00    -0.354 N 
ATOM     45  C   UNL A   1      39.146  33.287  34.615  1.00  0.00     0.074 A 
ATOM     46  C   UNL A   1      38.180  34.367  34.541  1.00  0.00     0.031 C 
ATOM     47  C   UNL A   1      38.345  30.260  29.013  1.00  0.00     0.029 A 
ATOM     48  C   UNL A   1      39.340  29.975  30.043  1.00  0.00     0.049 A 
ATOM     49  H   UNL A   1      39.607  30.958  31.859  1.00  0.00     0.167 HD
ATOM     50  C   UNL A   1      39.972  33.053  35.664  1.00  0.00     0.037 A 
ATOM     51  C   UNL A   1      40.264  28.999  29.979  1.00  0.00     0.037 A 
ATOM     52  C   UNL A   1      40.941  31.986  35.720  1.00  0.00     0.049 A 
ATOM     53  C   UNL A   1      41.200  28.796  31.136  1.00  0.00     0.074 A 
ATOM     54  C   UNL A   1      41.796  31.651  36.758  1.00  0.00     0.029 A 
ATOM     55  N   UNL A   1      41.196  31.089  34.693  1.00  0.00    -0.354 N 
ATOM     56  N   UNL A   1      41.256  29.442  32.275  1.00  0.00    -0.248 NA
ATOM     57  C   UNL A   1      42.195  27.724  31.001  1.00  0.00     0.031 C 
ATOM     58  C   UNL A   1      42.602  30.587  36.339  1.00  0.00     0.029 A 
ATOM     59  C   UNL A   1      42.214  30.221  35.061  1.00  0.00     0.049 A 
ATOM     60  H   UNL A   1      40.723  31.069  33.829  1.00  0.00     0.167 HD
ATOM     61  C   UNL A   1      42.277  28.845  33.001  1.00  0.00     0.074 A 
ATOM     62  C   UNL A   1      42.800  27.772  32.181  1.00  0.00     0.031 C 
ATOM     63  C   UNL A   1      42.738  29.161  34.236  1.00  0.00     0.037 A 
BRANCH  50  64
ATOM     64  C   UNL A   1      39.867  33.958  36.857  1.00  0.00     0.064 A 
ATOM     65  C   UNL A   1      39.001  33.661  37.921  1.00  0.00     0.173 A 
ATOM     66  C   UNL A   1      40.707  35.074  36.988  1.00  0.00     0.173 A 
ATOM     67  F   UNL A   1      38.176  32.606  37.845  1.00  0.00    -0.203 F 
ATOM     68  C   UNL A   1      38.973  34.455  39.066  1.00  0.00     0.198 A 
ATOM     69  C   UNL A   1      40.694  35.851  38.144  1.00  0.00     0.198 A 
ATOM     70  F   UNL A   1      41.562  35.395  36.005  1.00  0.00    -0.203 F 
ATOM     71  F   UNL A   1      38.123  34.165  40.060  1.00  0.00    -0.200 F 
ATOM     72  C   UNL A   1      39.826  35.543  39.180  1.00  0.00     0.200 A 
ATOM     73  F   UNL A   1      41.531  36.891  38.261  1.00  0.00    -0.200 F 
ATOM     74  F   UNL A   1      39.813  36.293  40.291  1.00  0.00    -0.200 F 
ENDBRANCH  50  64
BRANCH  51  75
ATOM     75  C   UNL A   1      40.313  28.118  28.786  1.00  0.00     0.064 A 
ATOM     76  C   UNL A   1      41.071  28.475  27.663  1.00  0.00     0.173 A 
ATOM     77  C   UNL A   1      39.635  26.891  28.757  1.00  0.00     0.173 A 
ATOM     78  F   UNL A   1      41.722  29.648  27.639  1.00  0.00    -0.203 F 
ATOM     79  C   UNL A   1      41.144  27.640  26.551  1.00  0.00     0.198 A 
ATOM     80  C   UNL A   1      39.731  26.044  27.656  1.00  0.00     0.198 A 
ATOM     81  F   UNL A   1      38.904  26.503  29.812  1.00  0.00    -0.203 F 
ATOM     82  F   UNL A   1      41.850  28.018  25.478  1.00  0.00    -0.200 F 
ATOM     83  C   UNL A   1      40.480  26.422  26.552  1.00  0.00     0.200 A 
ATOM     84  F   UNL A   1      39.103  24.861  27.668  1.00  0.00    -0.200 F 
ATOM     85  F   UNL A   1      40.562  25.612  25.488  1.00  0.00    -0.200 F 
ENDBRANCH  51  75
BRANCH  63  86
ATOM     86  C   UNL A   1      43.863  28.332  34.785  1.00  0.00     0.064 A 
ATOM     87  C   UNL A   1      43.622  27.135  35.476  1.00  0.00     0.173 A 
ATOM     88  C   UNL A   1      45.199  28.713  34.578  1.00  0.00     0.173 A 
ATOM     89  F   UNL A   1      42.364  26.736  35.715  1.00  0.00    -0.203 F 
ATOM     90  C   UNL A   1      44.675  26.360  35.956  1.00  0.00     0.198 A 
ATOM     91  C   UNL A   1      46.248  27.921  35.034  1.00  0.00     0.198 A 
ATOM     92  F   UNL A   1      45.485  29.845  33.919  1.00  0.00    -0.203 F 
ATOM     93  F   UNL A   1      44.419  25.243  36.652  1.00  0.00    -0.200 F 
ATOM     94  C   UNL A   1      45.987  26.749  35.727  1.00  0.00     0.200 A 
ATOM     95  F   UNL A   1      47.516  28.291  34.800  1.00  0.00    -0.200 F 
ATOM     96  F   UNL A   1      46.999  25.997  36.182  1.00  0.00    -0.200 F 
ENDBRANCH  63  86
ENDBRANCH  37  38
ENDBRANCH  30  32
ENDBRANCH  29  30
ENDBRANCH  28  29
ENDBRANCH  27  28
ENDBRANCH  26  27
ENDBRANCH  25  26
ENDBRANCH   1  25
TORSDOF 22
ENDMDL
