MODEL 1
REMARK VINA RESULT:     -10.1      0.000      0.000
REMARK SMILES CC1(C)[C@H](C(=O)OCCOCCOCCOCCOC(=O)c2ccc(-c3c4nc(c(-c5c(F)c(F)c(F)c(F)c5F)c5ccc([nH]5)c(-c5c(F)c(F)c(F)c(F)c5F)c5nc(c(-c6c(F)c(F)c(F)c(F)c6F)c6ccc3[nH]6)C=C5)C=C4)cc2)[C@@H]1C(=O)Nc1ccc(NC(=O)C2CCC2)cc1
REMARK SMILES IDX 12 1 11 2 10 3 9 4 8 5 7 6 5 7 6 8 4 9 1 10 2 11 3 12 85 13
REMARK SMILES IDX 86 14 87 15 88 16 89 18 90 19 101 20 91 21 100 22 92 23
REMARK SMILES IDX 93 24 94 25 95 27 96 28 97 29 99 30 98 31 13 32 14 33 15 34
REMARK SMILES IDX 16 35 17 36 18 37 19 38 20 39 21 40 22 41 23 42 84 43 24 44
REMARK SMILES IDX 83 45 25 46 26 47 27 48 77 49 28 50 82 51 76 52 78 53 29 54
REMARK SMILES IDX 81 55 75 56 74 57 30 59 62 60 42 61 61 62 43 63 46 64 60 65
REMARK SMILES IDX 79 66 44 67 45 68 59 70 80 71 47 72 31 73 32 74 40 75 33 76
REMARK SMILES IDX 34 77 38 78 41 79 35 80 36 81 39 82 37 83 63 84 64 85 72 86
REMARK SMILES IDX 65 87 66 88 70 89 73 90 67 91 68 92 71 93 69 94 48 95 49 96
REMARK SMILES IDX 57 97 50 98 51 99 55 100 58 101 52 102 53 103 56 104 54 105
REMARK H PARENT 88 17 93 26 78 58 46 69
REMARK Flexibility Score: inf
ROOT
ATOM      1  C   UNL A   1      41.491  22.058  27.771  1.00  0.00     0.188 C 
ENDROOT
BRANCH   1   2
ATOM      2  C   UNL A   1      40.727  23.052  26.882  1.00  0.00     0.188 C 
BRANCH   2   3
ATOM      3  O   UNL A   1      39.393  23.310  27.303  1.00  0.00    -0.376 OA
BRANCH   3   4
ATOM      4  C   UNL A   1      38.430  23.635  26.317  1.00  0.00     0.202 C 
BRANCH   4   5
ATOM      5  C   UNL A   1      37.660  22.476  25.667  1.00  0.00     0.261 C 
BRANCH   5   6
ATOM      6  O   UNL A   1      36.411  22.724  24.992  1.00  0.00    -0.463 OA
BRANCH   6   7
ATOM      7  C   UNL A   1      35.460  21.774  24.935  1.00  0.00     0.310 C 
ATOM      8  O   UNL A   1      35.644  20.582  24.752  1.00  0.00    -0.252 OA
BRANCH   7   9
ATOM      9  C   UNL A   1      34.091  22.216  25.238  1.00  0.00     0.118 C 
ATOM     10  C   UNL A   1      32.631  23.626  26.765  1.00  0.00     0.013 C 
ATOM     11  C   UNL A   1      33.617  23.594  25.618  1.00  0.00    -0.009 C 
ATOM     12  C   UNL A   1      34.574  24.766  25.653  1.00  0.00     0.013 C 
ATOM     13  C   UNL A   1      33.193  22.939  24.275  1.00  0.00     0.100 C 
BRANCH  13  14
ATOM     14  C   UNL A   1      33.555  23.615  23.006  1.00  0.00     0.228 C 
ATOM     15  O   UNL A   1      34.479  23.148  22.340  1.00  0.00    -0.274 OA
ATOM     16  N   UNL A   1      32.908  24.723  22.521  1.00  0.00    -0.326 N 
ATOM     17  H   UNL A   1      33.292  25.079  21.688  1.00  0.00     0.169 HD
BRANCH  16  18
ATOM     18  C   UNL A   1      31.805  25.438  22.992  1.00  0.00     0.041 A 
ATOM     19  C   UNL A   1      31.752  26.771  22.596  1.00  0.00     0.028 A 
ATOM     20  C   UNL A   1      30.749  24.916  23.727  1.00  0.00     0.028 A 
ATOM     21  C   UNL A   1      30.568  27.500  22.725  1.00  0.00     0.028 A 
ATOM     22  C   UNL A   1      29.586  25.693  23.918  1.00  0.00     0.028 A 
ATOM     23  C   UNL A   1      29.447  26.962  23.320  1.00  0.00     0.041 A 
BRANCH  23  24
ATOM     24  N   UNL A   1      28.169  27.546  23.328  1.00  0.00    -0.326 N 
ATOM     25  C   UNL A   1      27.604  28.800  23.220  1.00  0.00     0.227 C 
ATOM     26  H   UNL A   1      27.474  26.859  23.446  1.00  0.00     0.169 HD
ATOM     27  O   UNL A   1      26.354  28.772  23.266  1.00  0.00    -0.274 OA
BRANCH  25  28
ATOM     28  C   UNL A   1      28.278  30.158  22.957  1.00  0.00     0.079 C 
ATOM     29  C   UNL A   1      28.058  30.699  21.495  1.00  0.00     0.013 C 
ATOM     30  C   UNL A   1      27.823  31.569  23.392  1.00  0.00     0.013 C 
ATOM     31  C   UNL A   1      28.317  32.109  22.044  1.00  0.00     0.002 C 
ENDBRANCH  25  28
ENDBRANCH  23  24
ENDBRANCH  16  18
ENDBRANCH  13  14
ENDBRANCH   7   9
ENDBRANCH   6   7
ENDBRANCH   5   6
ENDBRANCH   4   5
ENDBRANCH   3   4
ENDBRANCH   2   3
ENDBRANCH   1   2
BRANCH   1  32
ATOM     32  O   UNL A   1      41.174  20.680  27.640  1.00  0.00    -0.377 OA
BRANCH  32  33
ATOM     33  C   UNL A   1      42.150  19.784  27.120  1.00  0.00     0.188 C 
BRANCH  33  34
ATOM     34  C   UNL A   1      42.621  19.898  25.657  1.00  0.00     0.188 C 
BRANCH  34  35
ATOM     35  O   UNL A   1      43.818  19.192  25.366  1.00  0.00    -0.376 OA
BRANCH  35  36
ATOM     36  C   UNL A   1      44.962  19.970  25.056  1.00  0.00     0.202 C 
BRANCH  36  37
ATOM     37  C   UNL A   1      44.666  21.424  24.671  1.00  0.00     0.261 C 
BRANCH  37  38
ATOM     38  O   UNL A   1      45.539  22.414  25.243  1.00  0.00    -0.460 OA
BRANCH  38  39
ATOM     39  C   UNL A   1      45.191  22.964  26.425  1.00  0.00     0.338 C 
ATOM     40  O   UNL A   1      44.720  22.401  27.396  1.00  0.00    -0.246 OA
BRANCH  39  41
ATOM     41  C   UNL A   1      45.663  24.365  26.431  1.00  0.00     0.060 A 
ATOM     42  C   UNL A   1      45.682  25.073  25.222  1.00  0.00     0.016 A 
ATOM     43  C   UNL A   1      46.070  24.977  27.619  1.00  0.00     0.016 A 
ATOM     44  C   UNL A   1      46.173  26.379  25.187  1.00  0.00     0.010 A 
ATOM     45  C   UNL A   1      46.585  26.275  27.581  1.00  0.00     0.010 A 
ATOM     46  C   UNL A   1      46.686  26.958  26.356  1.00  0.00    -0.014 A 
BRANCH  46  47
ATOM     47  C   UNL A   1      47.594  28.126  26.236  1.00  0.00     0.031 A 
ATOM     48  C   UNL A   1      46.998  29.490  26.459  1.00  0.00     0.074 A 
ATOM     49  C   UNL A   1      48.906  27.993  25.979  1.00  0.00     0.049 A 
ATOM     50  N   UNL A   1      47.566  30.668  26.420  1.00  0.00    -0.248 NA
ATOM     51  C   UNL A   1      45.558  29.528  26.771  1.00  0.00     0.031 C 
ATOM     52  C   UNL A   1      49.609  26.729  25.778  1.00  0.00     0.029 A 
ATOM     53  N   UNL A   1      49.881  28.950  25.841  1.00  0.00    -0.354 N 
ATOM     54  C   UNL A   1      46.558  31.579  26.705  1.00  0.00     0.074 A 
ATOM     55  C   UNL A   1      45.335  30.827  26.877  1.00  0.00     0.031 C 
ATOM     56  C   UNL A   1      50.907  26.989  25.534  1.00  0.00     0.029 A 
ATOM     57  C   UNL A   1      51.118  28.437  25.540  1.00  0.00     0.049 A 
ATOM     58  H   UNL A   1      49.709  29.913  25.948  1.00  0.00     0.167 HD
ATOM     59  C   UNL A   1      46.641  32.924  26.827  1.00  0.00     0.037 A 
ATOM     60  C   UNL A   1      52.281  29.072  25.287  1.00  0.00     0.037 A 
ATOM     61  C   UNL A   1      47.852  33.676  26.647  1.00  0.00     0.049 A 
ATOM     62  C   UNL A   1      52.333  30.579  25.353  1.00  0.00     0.074 A 
ATOM     63  C   UNL A   1      48.044  35.042  26.758  1.00  0.00     0.029 A 
ATOM     64  N   UNL A   1      49.077  33.123  26.308  1.00  0.00    -0.354 N 
ATOM     65  N   UNL A   1      51.384  31.432  25.660  1.00  0.00    -0.248 NA
ATOM     66  C   UNL A   1      53.623  31.212  25.042  1.00  0.00     0.031 C 
ATOM     67  C   UNL A   1      49.375  35.320  26.436  1.00  0.00     0.029 A 
ATOM     68  C   UNL A   1      50.025  34.124  26.178  1.00  0.00     0.049 A 
ATOM     69  H   UNL A   1      49.248  32.162  26.177  1.00  0.00     0.167 HD
ATOM     70  C   UNL A   1      51.968  32.692  25.609  1.00  0.00     0.074 A 
ATOM     71  C   UNL A   1      53.358  32.493  25.256  1.00  0.00     0.031 C 
ATOM     72  C   UNL A   1      51.407  33.906  25.835  1.00  0.00     0.037 A 
BRANCH  59  73
ATOM     73  C   UNL A   1      45.377  33.664  27.146  1.00  0.00     0.064 A 
ATOM     74  C   UNL A   1      44.978  33.903  28.469  1.00  0.00     0.173 A 
ATOM     75  C   UNL A   1      44.559  34.146  26.114  1.00  0.00     0.173 A 
ATOM     76  F   UNL A   1      45.715  33.443  29.492  1.00  0.00    -0.203 F 
ATOM     77  C   UNL A   1      43.793  34.579  28.748  1.00  0.00     0.198 A 
ATOM     78  C   UNL A   1      43.390  34.846  26.397  1.00  0.00     0.198 A 
ATOM     79  F   UNL A   1      44.895  33.939  24.832  1.00  0.00    -0.203 F 
ATOM     80  F   UNL A   1      43.405  34.753  30.019  1.00  0.00    -0.200 F 
ATOM     81  C   UNL A   1      43.004  35.055  27.712  1.00  0.00     0.200 A 
ATOM     82  F   UNL A   1      42.632  35.312  25.394  1.00  0.00    -0.200 F 
ATOM     83  F   UNL A   1      41.865  35.708  27.981  1.00  0.00    -0.200 F 
ENDBRANCH  59  73
BRANCH  60  84
ATOM     84  C   UNL A   1      53.498  28.293  24.937  1.00  0.00     0.064 A 
ATOM     85  C   UNL A   1      54.385  27.851  25.930  1.00  0.00     0.173 A 
ATOM     86  C   UNL A   1      53.821  28.011  23.602  1.00  0.00     0.173 A 
ATOM     87  F   UNL A   1      54.137  28.121  27.219  1.00  0.00    -0.203 F 
ATOM     88  C   UNL A   1      55.558  27.175  25.598  1.00  0.00     0.198 A 
ATOM     89  C   UNL A   1      54.980  27.311  23.273  1.00  0.00     0.198 A 
ATOM     90  F   UNL A   1      53.010  28.416  22.615  1.00  0.00    -0.203 F 
ATOM     91  F   UNL A   1      56.415  26.809  26.561  1.00  0.00    -0.200 F 
ATOM     92  C   UNL A   1      55.853  26.901  24.270  1.00  0.00     0.200 A 
ATOM     93  F   UNL A   1      55.257  27.040  21.991  1.00  0.00    -0.200 F 
ATOM     94  F   UNL A   1      56.980  26.252  23.952  1.00  0.00    -0.200 F 
ENDBRANCH  60  84
BRANCH  72  95
ATOM     95  C   UNL A   1      52.298  35.112  25.744  1.00  0.00     0.064 A 
ATOM     96  C   UNL A   1      52.456  35.824  24.546  1.00  0.00     0.173 A 
ATOM     97  C   UNL A   1      52.965  35.589  26.883  1.00  0.00     0.173 A 
ATOM     98  F   UNL A   1      51.851  35.402  23.426  1.00  0.00    -0.203 F 
ATOM     99  C   UNL A   1      53.270  36.952  24.486  1.00  0.00     0.198 A 
ATOM    100  C   UNL A   1      53.752  36.735  26.827  1.00  0.00     0.198 A 
ATOM    101  F   UNL A   1      52.839  34.951  28.058  1.00  0.00    -0.203 F 
ATOM    102  F   UNL A   1      53.444  37.589  23.320  1.00  0.00    -0.200 F 
ATOM    103  C   UNL A   1      53.910  37.411  25.627  1.00  0.00     0.200 A 
ATOM    104  F   UNL A   1      54.357  37.185  27.935  1.00  0.00    -0.200 F 
ATOM    105  F   UNL A   1      54.686  38.502  25.569  1.00  0.00    -0.200 F 
ENDBRANCH  72  95
ENDBRANCH  46  47
ENDBRANCH  39  41
ENDBRANCH  38  39
ENDBRANCH  37  38
ENDBRANCH  36  37
ENDBRANCH  35  36
ENDBRANCH  34  35
ENDBRANCH  33  34
ENDBRANCH  32  33
ENDBRANCH   1  32
TORSDOF 24
ENDMDL
MODEL 2
REMARK VINA RESULT:      -9.9      6.003     10.649
REMARK SMILES CC1(C)[C@H](C(=O)OCCOCCOCCOCCOC(=O)c2ccc(-c3c4nc(c(-c5c(F)c(F)c(F)c(F)c5F)c5ccc([nH]5)c(-c5c(F)c(F)c(F)c(F)c5F)c5nc(c(-c6c(F)c(F)c(F)c(F)c6F)c6ccc3[nH]6)C=C5)C=C4)cc2)[C@@H]1C(=O)Nc1ccc(NC(=O)C2CCC2)cc1
REMARK SMILES IDX 12 1 11 2 10 3 9 4 8 5 7 6 5 7 6 8 4 9 1 10 2 11 3 12 85 13
REMARK SMILES IDX 86 14 87 15 88 16 89 18 90 19 101 20 91 21 100 22 92 23
REMARK SMILES IDX 93 24 94 25 95 27 96 28 97 29 99 30 98 31 13 32 14 33 15 34
REMARK SMILES IDX 16 35 17 36 18 37 19 38 20 39 21 40 22 41 23 42 84 43 24 44
REMARK SMILES IDX 83 45 25 46 26 47 27 48 77 49 28 50 82 51 76 52 78 53 29 54
REMARK SMILES IDX 81 55 75 56 74 57 30 59 62 60 42 61 61 62 43 63 46 64 60 65
REMARK SMILES IDX 79 66 44 67 45 68 59 70 80 71 47 72 31 73 32 74 40 75 33 76
REMARK SMILES IDX 34 77 38 78 41 79 35 80 36 81 39 82 37 83 63 84 64 85 72 86
REMARK SMILES IDX 65 87 66 88 70 89 73 90 67 91 68 92 71 93 69 94 48 95 49 96
REMARK SMILES IDX 57 97 50 98 51 99 55 100 58 101 52 102 53 103 56 104 54 105
REMARK H PARENT 88 17 93 26 78 58 46 69
REMARK Flexibility Score: inf
ROOT
ATOM      1  C   UNL A   1      36.736  29.337  28.079  1.00  0.00     0.188 C 
ENDROOT
BRANCH   1   2
ATOM      2  C   UNL A   1      38.137  29.828  28.474  1.00  0.00     0.188 C 
BRANCH   2   3
ATOM      3  O   UNL A   1      39.191  28.942  28.118  1.00  0.00    -0.376 OA
BRANCH   3   4
ATOM      4  C   UNL A   1      39.555  27.930  29.040  1.00  0.00     0.202 C 
BRANCH   4   5
ATOM      5  C   UNL A   1      41.035  27.523  29.100  1.00  0.00     0.261 C 
BRANCH   5   6
ATOM      6  O   UNL A   1      41.955  27.983  28.089  1.00  0.00    -0.463 OA
BRANCH   6   7
ATOM      7  C   UNL A   1      43.138  27.369  27.906  1.00  0.00     0.310 C 
ATOM      8  O   UNL A   1      44.132  27.498  28.602  1.00  0.00    -0.252 OA
BRANCH   7   9
ATOM      9  C   UNL A   1      43.181  26.365  26.833  1.00  0.00     0.118 C 
ATOM     10  C   UNL A   1      44.658  25.124  25.181  1.00  0.00     0.013 C 
ATOM     11  C   UNL A   1      44.198  25.276  26.613  1.00  0.00    -0.009 C 
ATOM     12  C   UNL A   1      45.321  25.046  27.602  1.00  0.00     0.013 C 
ATOM     13  C   UNL A   1      42.725  24.940  26.975  1.00  0.00     0.100 C 
BRANCH  13  14
ATOM     14  C   UNL A   1      42.450  24.180  28.217  1.00  0.00     0.228 C 
ATOM     15  O   UNL A   1      43.260  24.257  29.140  1.00  0.00    -0.274 OA
ATOM     16  N   UNL A   1      41.334  23.405  28.404  1.00  0.00    -0.326 N 
ATOM     17  H   UNL A   1      41.315  22.930  29.266  1.00  0.00     0.169 HD
BRANCH  16  18
ATOM     18  C   UNL A   1      40.219  23.166  27.598  1.00  0.00     0.041 A 
ATOM     19  C   UNL A   1      39.316  24.220  27.511  1.00  0.00     0.028 A 
ATOM     20  C   UNL A   1      39.995  22.028  26.835  1.00  0.00     0.028 A 
ATOM     21  C   UNL A   1      38.343  24.237  26.509  1.00  0.00     0.028 A 
ATOM     22  C   UNL A   1      38.956  22.029  25.878  1.00  0.00     0.028 A 
ATOM     23  C   UNL A   1      38.185  23.183  25.634  1.00  0.00     0.041 A 
BRANCH  23  24
ATOM     24  N   UNL A   1      37.368  23.189  24.492  1.00  0.00    -0.326 N 
ATOM     25  C   UNL A   1      36.050  22.951  24.161  1.00  0.00     0.227 C 
ATOM     26  H   UNL A   1      37.889  23.433  23.693  1.00  0.00     0.169 HD
ATOM     27  O   UNL A   1      35.818  23.128  22.944  1.00  0.00    -0.274 OA
BRANCH  25  28
ATOM     28  C   UNL A   1      34.858  22.613  25.074  1.00  0.00     0.079 C 
ATOM     29  C   UNL A   1      34.919  21.161  25.679  1.00  0.00     0.013 C 
ATOM     30  C   UNL A   1      34.598  23.052  26.532  1.00  0.00     0.013 C 
ATOM     31  C   UNL A   1      34.014  21.662  26.813  1.00  0.00     0.002 C 
ENDBRANCH  25  28
ENDBRANCH  23  24
ENDBRANCH  16  18
ENDBRANCH  13  14
ENDBRANCH   7   9
ENDBRANCH   6   7
ENDBRANCH   5   6
ENDBRANCH   4   5
ENDBRANCH   3   4
ENDBRANCH   2   3
ENDBRANCH   1   2
BRANCH   1  32
ATOM     32  O   UNL A   1      35.639  30.200  28.341  1.00  0.00    -0.377 OA
BRANCH  32  33
ATOM     33  C   UNL A   1      35.754  31.588  28.045  1.00  0.00     0.188 C 
BRANCH  33  34
ATOM     34  C   UNL A   1      34.698  32.589  28.552  1.00  0.00     0.188 C 
BRANCH  34  35
ATOM     35  O   UNL A   1      35.225  33.677  29.296  1.00  0.00    -0.376 OA
BRANCH  35  36
ATOM     36  C   UNL A   1      35.860  33.364  30.525  1.00  0.00     0.202 C 
BRANCH  36  37
ATOM     37  C   UNL A   1      35.004  32.550  31.502  1.00  0.00     0.261 C 
BRANCH  37  38
ATOM     38  O   UNL A   1      35.691  31.511  32.222  1.00  0.00    -0.460 OA
BRANCH  38  39
ATOM     39  C   UNL A   1      36.460  31.865  33.273  1.00  0.00     0.338 C 
ATOM     40  O   UNL A   1      36.151  32.568  34.217  1.00  0.00    -0.246 OA
BRANCH  39  41
ATOM     41  C   UNL A   1      37.716  31.088  33.198  1.00  0.00     0.060 A 
ATOM     42  C   UNL A   1      38.812  31.505  33.966  1.00  0.00     0.016 A 
ATOM     43  C   UNL A   1      37.806  29.952  32.390  1.00  0.00     0.016 A 
ATOM     44  C   UNL A   1      40.026  30.823  33.875  1.00  0.00     0.010 A 
ATOM     45  C   UNL A   1      39.028  29.283  32.279  1.00  0.00     0.010 A 
ATOM     46  C   UNL A   1      40.154  29.750  32.981  1.00  0.00    -0.014 A 
BRANCH  46  47
ATOM     47  C   UNL A   1      41.513  29.331  32.558  1.00  0.00     0.031 A 
ATOM     48  C   UNL A   1      42.169  30.123  31.458  1.00  0.00     0.074 A 
ATOM     49  C   UNL A   1      42.167  28.315  33.145  1.00  0.00     0.049 A 
ATOM     50  N   UNL A   1      43.346  29.975  30.908  1.00  0.00    -0.248 NA
ATOM     51  C   UNL A   1      41.383  31.240  30.904  1.00  0.00     0.031 C 
ATOM     52  C   UNL A   1      41.658  27.495  34.240  1.00  0.00     0.029 A 
ATOM     53  N   UNL A   1      43.415  27.802  32.888  1.00  0.00    -0.354 N 
ATOM     54  C   UNL A   1      43.441  30.977  29.952  1.00  0.00     0.074 A 
ATOM     55  C   UNL A   1      42.191  31.705  29.967  1.00  0.00     0.031 C 
ATOM     56  C   UNL A   1      42.585  26.573  34.559  1.00  0.00     0.029 A 
ATOM     57  C   UNL A   1      43.741  26.726  33.675  1.00  0.00     0.049 A 
ATOM     58  H   UNL A   1      44.019  28.173  32.206  1.00  0.00     0.167 HD
ATOM     59  C   UNL A   1      44.481  31.277  29.140  1.00  0.00     0.037 A 
ATOM     60  C   UNL A   1      44.843  25.949  33.667  1.00  0.00     0.037 A 
ATOM     61  C   UNL A   1      45.720  30.551  29.115  1.00  0.00     0.049 A 
ATOM     62  C   UNL A   1      45.960  26.256  32.699  1.00  0.00     0.074 A 
ATOM     63  C   UNL A   1      46.839  30.780  28.335  1.00  0.00     0.029 A 
ATOM     64  N   UNL A   1      45.998  29.443  29.902  1.00  0.00    -0.354 N 
ATOM     65  N   UNL A   1      46.058  27.228  31.823  1.00  0.00    -0.248 NA
ATOM     66  C   UNL A   1      47.123  25.357  32.722  1.00  0.00     0.031 C 
ATOM     67  C   UNL A   1      47.775  29.781  28.615  1.00  0.00     0.029 A 
ATOM     68  C   UNL A   1      47.261  28.962  29.607  1.00  0.00     0.049 A 
ATOM     69  H   UNL A   1      45.386  29.056  30.570  1.00  0.00     0.167 HD
ATOM     70  C   UNL A   1      47.301  27.076  31.217  1.00  0.00     0.074 A 
ATOM     71  C   UNL A   1      47.927  25.926  31.834  1.00  0.00     0.031 C 
ATOM     72  C   UNL A   1      47.873  27.821  30.239  1.00  0.00     0.037 A 
BRANCH  59  73
ATOM     73  C   UNL A   1      44.304  32.427  28.195  1.00  0.00     0.064 A 
ATOM     74  C   UNL A   1      44.023  32.225  26.835  1.00  0.00     0.173 A 
ATOM     75  C   UNL A   1      44.408  33.747  28.656  1.00  0.00     0.173 A 
ATOM     76  F   UNL A   1      43.935  30.981  26.340  1.00  0.00    -0.203 F 
ATOM     77  C   UNL A   1      43.877  33.304  25.967  1.00  0.00     0.198 A 
ATOM     78  C   UNL A   1      44.233  34.823  27.791  1.00  0.00     0.198 A 
ATOM     79  F   UNL A   1      44.680  33.992  29.947  1.00  0.00    -0.203 F 
ATOM     80  F   UNL A   1      43.659  33.088  24.663  1.00  0.00    -0.200 F 
ATOM     81  C   UNL A   1      43.975  34.601  26.447  1.00  0.00     0.200 A 
ATOM     82  F   UNL A   1      44.321  36.076  28.259  1.00  0.00    -0.200 F 
ATOM     83  F   UNL A   1      43.831  35.639  25.612  1.00  0.00    -0.200 F 
ENDBRANCH  59  73
BRANCH  60  84
ATOM     84  C   UNL A   1      44.953  24.796  34.599  1.00  0.00     0.064 A 
ATOM     85  C   UNL A   1      45.465  24.957  35.895  1.00  0.00     0.173 A 
ATOM     86  C   UNL A   1      44.588  23.502  34.200  1.00  0.00     0.173 A 
ATOM     87  F   UNL A   1      45.856  26.170  36.314  1.00  0.00    -0.203 F 
ATOM     88  C   UNL A   1      45.626  23.866  36.747  1.00  0.00     0.198 A 
ATOM     89  C   UNL A   1      44.724  22.416  35.062  1.00  0.00     0.198 A 
ATOM     90  F   UNL A   1      44.099  23.292  32.969  1.00  0.00    -0.203 F 
ATOM     91  F   UNL A   1      46.166  24.040  37.961  1.00  0.00    -0.200 F 
ATOM     92  C   UNL A   1      45.251  22.597  36.331  1.00  0.00     0.200 A 
ATOM     93  F   UNL A   1      44.351  21.193  34.661  1.00  0.00    -0.200 F 
ATOM     94  F   UNL A   1      45.407  21.549  37.150  1.00  0.00    -0.200 F 
ENDBRANCH  60  84
BRANCH  72  95
ATOM     95  C   UNL A   1      49.258  27.442  29.798  1.00  0.00     0.064 A 
ATOM     96  C   UNL A   1      49.477  26.528  28.757  1.00  0.00     0.173 A 
ATOM     97  C   UNL A   1      50.380  28.039  30.393  1.00  0.00     0.173 A 
ATOM     98  F   UNL A   1      48.438  25.920  28.164  1.00  0.00    -0.203 F 
ATOM     99  C   UNL A   1      50.767  26.205  28.347  1.00  0.00     0.198 A 
ATOM    100  C   UNL A   1      51.667  27.738  29.959  1.00  0.00     0.198 A 
ATOM    101  F   UNL A   1      50.226  28.929  31.386  1.00  0.00    -0.203 F 
ATOM    102  F   UNL A   1      50.954  25.294  27.382  1.00  0.00    -0.200 F 
ATOM    103  C   UNL A   1      51.861  26.816  28.942  1.00  0.00     0.200 A 
ATOM    104  F   UNL A   1      52.722  28.342  30.526  1.00  0.00    -0.200 F 
ATOM    105  F   UNL A   1      53.102  26.511  28.540  1.00  0.00    -0.200 F 
ENDBRANCH  72  95
ENDBRANCH  46  47
ENDBRANCH  39  41
ENDBRANCH  38  39
ENDBRANCH  37  38
ENDBRANCH  36  37
ENDBRANCH  35  36
ENDBRANCH  34  35
ENDBRANCH  33  34
ENDBRANCH  32  33
ENDBRANCH   1  32
TORSDOF 24
ENDMDL
MODEL 3
REMARK VINA RESULT:      -9.8      7.772     14.235
REMARK SMILES CC1(C)[C@H](C(=O)OCCOCCOCCOCCOC(=O)c2ccc(-c3c4nc(c(-c5c(F)c(F)c(F)c(F)c5F)c5ccc([nH]5)c(-c5c(F)c(F)c(F)c(F)c5F)c5nc(c(-c6c(F)c(F)c(F)c(F)c6F)c6ccc3[nH]6)C=C5)C=C4)cc2)[C@@H]1C(=O)Nc1ccc(NC(=O)C2CCC2)cc1
REMARK SMILES IDX 12 1 11 2 10 3 9 4 8 5 7 6 5 7 6 8 4 9 1 10 2 11 3 12 85 13
REMARK SMILES IDX 86 14 87 15 88 16 89 18 90 19 101 20 91 21 100 22 92 23
REMARK SMILES IDX 93 24 94 25 95 27 96 28 97 29 99 30 98 31 13 32 14 33 15 34
REMARK SMILES IDX 16 35 17 36 18 37 19 38 20 39 21 40 22 41 23 42 84 43 24 44
REMARK SMILES IDX 83 45 25 46 26 47 27 48 77 49 28 50 82 51 76 52 78 53 29 54
REMARK SMILES IDX 81 55 75 56 74 57 30 59 62 60 42 61 61 62 43 63 46 64 60 65
REMARK SMILES IDX 79 66 44 67 45 68 59 70 80 71 47 72 31 73 32 74 40 75 33 76
REMARK SMILES IDX 34 77 38 78 41 79 35 80 36 81 39 82 37 83 63 84 64 85 72 86
REMARK SMILES IDX 65 87 66 88 70 89 73 90 67 91 68 92 71 93 69 94 48 95 49 96
REMARK SMILES IDX 57 97 50 98 51 99 55 100 58 101 52 102 53 103 56 104 54 105
REMARK H PARENT 88 17 93 26 78 58 46 69
REMARK Flexibility Score: inf
ROOT
ATOM      1  C   UNL A   1      37.346  33.310  34.934  1.00  0.00     0.188 C 
ENDROOT
BRANCH   1   2
ATOM      2  C   UNL A   1      38.079  32.292  35.821  1.00  0.00     0.188 C 
BRANCH   2   3
ATOM      3  O   UNL A   1      39.498  32.370  35.755  1.00  0.00    -0.376 OA
BRANCH   3   4
ATOM      4  C   UNL A   1      40.251  31.260  36.205  1.00  0.00     0.202 C 
BRANCH   4   5
ATOM      5  C   UNL A   1      40.094  29.937  35.440  1.00  0.00     0.261 C 
BRANCH   5   6
ATOM      6  O   UNL A   1      40.799  28.758  35.879  1.00  0.00    -0.463 OA
BRANCH   6   7
ATOM      7  C   UNL A   1      41.536  28.037  35.014  1.00  0.00     0.310 C 
ATOM      8  O   UNL A   1      41.952  28.417  33.932  1.00  0.00    -0.252 OA
BRANCH   7   9
ATOM      9  C   UNL A   1      41.966  26.712  35.485  1.00  0.00     0.118 C 
ATOM     10  C   UNL A   1      42.919  24.456  34.815  1.00  0.00     0.013 C 
ATOM     11  C   UNL A   1      43.180  25.923  35.071  1.00  0.00    -0.009 C 
ATOM     12  C   UNL A   1      44.195  26.501  34.109  1.00  0.00     0.013 C 
ATOM     13  C   UNL A   1      43.033  26.476  36.516  1.00  0.00     0.100 C 
BRANCH  13  14
ATOM     14  C   UNL A   1      44.051  27.427  37.023  1.00  0.00     0.228 C 
ATOM     15  O   UNL A   1      43.731  28.607  37.157  1.00  0.00    -0.274 OA
ATOM     16  N   UNL A   1      45.328  27.062  37.368  1.00  0.00    -0.326 N 
ATOM     17  H   UNL A   1      45.898  27.814  37.649  1.00  0.00     0.169 HD
BRANCH  16  18
ATOM     18  C   UNL A   1      45.968  25.822  37.396  1.00  0.00     0.041 A 
ATOM     19  C   UNL A   1      46.750  25.535  36.282  1.00  0.00     0.028 A 
ATOM     20  C   UNL A   1      45.952  24.920  38.452  1.00  0.00     0.028 A 
ATOM     21  C   UNL A   1      47.680  24.494  36.320  1.00  0.00     0.028 A 
ATOM     22  C   UNL A   1      46.843  23.825  38.442  1.00  0.00     0.028 A 
ATOM     23  C   UNL A   1      47.795  23.665  37.416  1.00  0.00     0.041 A 
BRANCH  23  24
ATOM     24  N   UNL A   1      48.815  22.719  37.618  1.00  0.00    -0.326 N 
ATOM     25  C   UNL A   1      48.956  21.348  37.686  1.00  0.00     0.227 C 
ATOM     26  H   UNL A   1      49.682  23.166  37.749  1.00  0.00     0.169 HD
ATOM     27  O   UNL A   1      50.141  20.994  37.868  1.00  0.00    -0.274 OA
BRANCH  25  28
ATOM     28  C   UNL A   1      47.904  20.245  37.474  1.00  0.00     0.079 C 
ATOM     29  C   UNL A   1      47.786  19.245  38.683  1.00  0.00     0.013 C 
ATOM     30  C   UNL A   1      46.366  20.336  37.587  1.00  0.00     0.013 C 
ATOM     31  C   UNL A   1      46.361  18.933  38.206  1.00  0.00     0.002 C 
ENDBRANCH  25  28
ENDBRANCH  23  24
ENDBRANCH  16  18
ENDBRANCH  13  14
ENDBRANCH   7   9
ENDBRANCH   6   7
ENDBRANCH   5   6
ENDBRANCH   4   5
ENDBRANCH   3   4
ENDBRANCH   2   3
ENDBRANCH   1   2
BRANCH   1  32
ATOM     32  O   UNL A   1      35.927  33.324  34.983  1.00  0.00    -0.377 OA
BRANCH  32  33
ATOM     33  C   UNL A   1      35.201  34.066  34.008  1.00  0.00     0.188 C 
BRANCH  33  34
ATOM     34  C   UNL A   1      34.016  33.428  33.257  1.00  0.00     0.188 C 
BRANCH  34  35
ATOM     35  O   UNL A   1      33.900  33.819  31.897  1.00  0.00    -0.376 OA
BRANCH  35  36
ATOM     36  C   UNL A   1      34.791  33.211  30.977  1.00  0.00     0.202 C 
BRANCH  36  37
ATOM     37  C   UNL A   1      34.447  33.443  29.501  1.00  0.00     0.261 C 
BRANCH  37  38
ATOM     38  O   UNL A   1      35.194  32.660  28.553  1.00  0.00    -0.460 OA
BRANCH  38  39
ATOM     39  C   UNL A   1      34.826  31.376  28.357  1.00  0.00     0.338 C 
ATOM     40  O   UNL A   1      33.742  30.961  27.991  1.00  0.00    -0.246 OA
BRANCH  39  41
ATOM     41  C   UNL A   1      36.037  30.535  28.470  1.00  0.00     0.060 A 
ATOM     42  C   UNL A   1      36.304  29.902  29.692  1.00  0.00     0.016 A 
ATOM     43  C   UNL A   1      36.892  30.361  27.379  1.00  0.00     0.016 A 
ATOM     44  C   UNL A   1      37.467  29.146  29.845  1.00  0.00     0.010 A 
ATOM     45  C   UNL A   1      38.069  29.625  27.539  1.00  0.00     0.010 A 
ATOM     46  C   UNL A   1      38.384  29.061  28.787  1.00  0.00    -0.014 A 
BRANCH  46  47
ATOM     47  C   UNL A   1      39.781  28.658  29.084  1.00  0.00     0.031 A 
ATOM     48  C   UNL A   1      40.608  29.599  29.920  1.00  0.00     0.074 A 
ATOM     49  C   UNL A   1      40.296  27.489  28.669  1.00  0.00     0.049 A 
ATOM     50  N   UNL A   1      41.846  29.488  30.327  1.00  0.00    -0.248 NA
ATOM     51  C   UNL A   1      39.941  30.838  30.356  1.00  0.00     0.031 C 
ATOM     52  C   UNL A   1      39.590  26.480  27.885  1.00  0.00     0.029 A 
ATOM     53  N   UNL A   1      41.550  26.960  28.854  1.00  0.00    -0.354 N 
ATOM     54  C   UNL A   1      42.100  30.635  31.067  1.00  0.00     0.074 A 
ATOM     55  C   UNL A   1      40.906  31.448  31.023  1.00  0.00     0.031 C 
ATOM     56  C   UNL A   1      40.426  25.451  27.649  1.00  0.00     0.029 A 
ATOM     57  C   UNL A   1      41.730  25.743  28.246  1.00  0.00     0.049 A 
ATOM     58  H   UNL A   1      42.252  27.411  29.375  1.00  0.00     0.167 HD
ATOM     59  C   UNL A   1      43.224  30.978  31.738  1.00  0.00     0.037 A 
ATOM     60  C   UNL A   1      42.829  24.965  28.173  1.00  0.00     0.037 A 
ATOM     61  C   UNL A   1      44.417  30.177  31.776  1.00  0.00     0.049 A 
ATOM     62  C   UNL A   1      44.096  25.405  28.865  1.00  0.00     0.074 A 
ATOM     63  C   UNL A   1      45.606  30.432  32.434  1.00  0.00     0.029 A 
ATOM     64  N   UNL A   1      44.572  28.967  31.117  1.00  0.00    -0.354 N 
ATOM     65  N   UNL A   1      44.318  26.473  29.594  1.00  0.00    -0.248 NA
ATOM     66  C   UNL A   1      45.266  24.526  28.727  1.00  0.00     0.031 C 
ATOM     67  C   UNL A   1      46.499  29.400  32.132  1.00  0.00     0.029 A 
ATOM     68  C   UNL A   1      45.847  28.475  31.331  1.00  0.00     0.049 A 
ATOM     69  H   UNL A   1      43.878  28.524  30.576  1.00  0.00     0.167 HD
ATOM     70  C   UNL A   1      45.637  26.378  30.024  1.00  0.00     0.074 A 
ATOM     71  C   UNL A   1      46.162  25.141  29.487  1.00  0.00     0.031 C 
ATOM     72  C   UNL A   1      46.350  27.236  30.796  1.00  0.00     0.037 A 
BRANCH  59  73
ATOM     73  C   UNL A   1      43.218  32.292  32.460  1.00  0.00     0.064 A 
ATOM     74  C   UNL A   1      43.037  32.366  33.849  1.00  0.00     0.173 A 
ATOM     75  C   UNL A   1      43.404  33.489  31.755  1.00  0.00     0.173 A 
ATOM     76  F   UNL A   1      42.833  31.250  34.566  1.00  0.00    -0.203 F 
ATOM     77  C   UNL A   1      43.018  33.595  34.503  1.00  0.00     0.198 A 
ATOM     78  C   UNL A   1      43.414  34.714  32.416  1.00  0.00     0.198 A 
ATOM     79  F   UNL A   1      43.578  33.471  30.425  1.00  0.00    -0.203 F 
ATOM     80  F   UNL A   1      42.794  33.647  35.823  1.00  0.00    -0.200 F 
ATOM     81  C   UNL A   1      43.214  34.766  33.787  1.00  0.00     0.200 A 
ATOM     82  F   UNL A   1      43.611  35.845  31.724  1.00  0.00    -0.200 F 
ATOM     83  F   UNL A   1      43.200  35.949  34.418  1.00  0.00    -0.200 F 
ENDBRANCH  59  73
BRANCH  60  84
ATOM     84  C   UNL A   1      42.794  23.689  27.411  1.00  0.00     0.064 A 
ATOM     85  C   UNL A   1      42.371  22.495  28.014  1.00  0.00     0.173 A 
ATOM     86  C   UNL A   1      43.220  23.629  26.076  1.00  0.00     0.173 A 
ATOM     87  F   UNL A   1      41.982  22.495  29.297  1.00  0.00    -0.203 F 
ATOM     88  C   UNL A   1      42.397  21.288  27.318  1.00  0.00     0.198 A 
ATOM     89  C   UNL A   1      43.220  22.426  25.373  1.00  0.00     0.198 A 
ATOM     90  F   UNL A   1      43.640  24.740  25.454  1.00  0.00    -0.203 F 
ATOM     91  F   UNL A   1      42.038  20.154  27.934  1.00  0.00    -0.200 F 
ATOM     92  C   UNL A   1      42.817  21.255  25.997  1.00  0.00     0.200 A 
ATOM     93  F   UNL A   1      43.617  22.399  24.093  1.00  0.00    -0.200 F 
ATOM     94  F   UNL A   1      42.843  20.094  25.329  1.00  0.00    -0.200 F 
ENDBRANCH  60  84
BRANCH  72  95
ATOM     95  C   UNL A   1      47.763  26.854  31.136  1.00  0.00     0.064 A 
ATOM     96  C   UNL A   1      48.055  25.957  32.173  1.00  0.00     0.173 A 
ATOM     97  C   UNL A   1      48.834  27.356  30.381  1.00  0.00     0.173 A 
ATOM     98  F   UNL A   1      47.067  25.458  32.932  1.00  0.00    -0.203 F 
ATOM     99  C   UNL A   1      49.369  25.597  32.460  1.00  0.00     0.198 A 
ATOM    100  C   UNL A   1      50.144  26.970  30.650  1.00  0.00     0.198 A 
ATOM    101  F   UNL A   1      48.609  28.209  29.370  1.00  0.00    -0.203 F 
ATOM    102  F   UNL A   1      49.629  24.776  33.486  1.00  0.00    -0.200 F 
ATOM    103  C   UNL A   1      50.411  26.098  31.694  1.00  0.00     0.200 A 
ATOM    104  F   UNL A   1      51.148  27.443  29.898  1.00  0.00    -0.200 F 
ATOM    105  F   UNL A   1      51.675  25.744  31.966  1.00  0.00    -0.200 F 
ENDBRANCH  72  95
ENDBRANCH  46  47
ENDBRANCH  39  41
ENDBRANCH  38  39
ENDBRANCH  37  38
ENDBRANCH  36  37
ENDBRANCH  35  36
ENDBRANCH  34  35
ENDBRANCH  33  34
ENDBRANCH  32  33
ENDBRANCH   1  32
TORSDOF 24
ENDMDL
