MODEL 1
REMARK VINA RESULT:     -11.0      0.000      0.000
REMARK SMILES O=C(OCCOCCOCCOCCOC(=O)c1ccc(-c2ccn(C(F)F)c(=O)c2)cc1O)c1ccc(-c2c3nc(c(-c4c(F)c(F)c(F)c(F)c4F)c4ccc([nH]4)c(-c4c(F)c(F)c(F)c(F)c4F)c4nc(c(-c5c(F)c(F)c(F)c(F)c5F)c5ccc2[nH]5)C=C4)C=C3)cc1
REMARK SMILES IDX 9 1 8 2 7 3 6 4 5 5 4 6 3 7 2 8 1 9 35 10 36 11 97 12 37 13
REMARK SMILES IDX 96 14 38 15 39 16 40 17 90 18 41 19 95 20 89 21 91 22 42 23
REMARK SMILES IDX 94 24 88 25 87 26 43 28 75 29 55 30 74 31 56 32 59 33 73 34
REMARK SMILES IDX 92 35 57 36 58 37 72 39 93 40 60 41 44 42 45 43 53 44 46 45
REMARK SMILES IDX 47 46 51 47 54 48 48 49 49 50 52 51 50 52 76 53 77 54 85 55
REMARK SMILES IDX 78 56 79 57 83 58 86 59 80 60 81 61 84 62 82 63 61 64 62 65
REMARK SMILES IDX 70 66 63 67 64 68 68 69 71 70 65 71 66 72 69 73 67 74 10 75
REMARK SMILES IDX 11 76 12 77 13 78 14 79 15 80 16 81 17 82 18 83 19 84 33 85
REMARK SMILES IDX 20 86 32 87 21 88 34 89 22 91 23 92 31 93 24 94 29 95 25 96
REMARK SMILES IDX 30 97 26 98 27 99 28 100
REMARK H PARENT 91 27 59 38 34 90
REMARK Flexibility Score: inf
ROOT
ATOM      1  O   UNL A   1      29.864  27.177  24.934  1.00  0.00    -0.377 OA
ENDROOT
BRANCH   1   2
ATOM      2  C   UNL A   1      30.529  26.071  25.541  1.00  0.00     0.188 C 
BRANCH   2   3
ATOM      3  C   UNL A   1      31.507  26.428  26.661  1.00  0.00     0.188 C 
BRANCH   3   4
ATOM      4  O   UNL A   1      31.032  27.521  27.458  1.00  0.00    -0.376 OA
BRANCH   4   5
ATOM      5  C   UNL A   1      31.949  28.608  27.576  1.00  0.00     0.202 C 
BRANCH   5   6
ATOM      6  C   UNL A   1      31.572  29.861  26.788  1.00  0.00     0.261 C 
BRANCH   6   7
ATOM      7  O   UNL A   1      32.690  30.687  26.445  1.00  0.00    -0.460 OA
BRANCH   7   8
ATOM      8  C   UNL A   1      33.492  31.425  27.250  1.00  0.00     0.338 C 
ATOM      9  O   UNL A   1      33.162  32.595  27.450  1.00  0.00    -0.246 OA
BRANCH   8  10
ATOM     10  C   UNL A   1      34.781  30.957  27.871  1.00  0.00     0.060 A 
ATOM     11  C   UNL A   1      35.771  31.944  28.062  1.00  0.00     0.016 A 
ATOM     12  C   UNL A   1      35.101  29.652  28.254  1.00  0.00     0.016 A 
ATOM     13  C   UNL A   1      37.020  31.636  28.612  1.00  0.00     0.010 A 
ATOM     14  C   UNL A   1      36.350  29.329  28.785  1.00  0.00     0.010 A 
ATOM     15  C   UNL A   1      37.306  30.322  28.983  1.00  0.00    -0.014 A 
BRANCH  15  16
ATOM     16  C   UNL A   1      38.505  29.978  29.766  1.00  0.00     0.031 A 
ATOM     17  C   UNL A   1      39.500  28.980  29.273  1.00  0.00     0.074 A 
ATOM     18  C   UNL A   1      38.574  30.486  31.008  1.00  0.00     0.049 A 
ATOM     19  N   UNL A   1      40.595  28.560  29.853  1.00  0.00    -0.248 NA
ATOM     20  C   UNL A   1      39.220  28.349  27.975  1.00  0.00     0.031 C 
ATOM     21  C   UNL A   1      37.576  31.385  31.595  1.00  0.00     0.029 A 
ATOM     22  N   UNL A   1      39.488  30.300  32.008  1.00  0.00    -0.354 N 
ATOM     23  C   UNL A   1      41.156  27.640  28.979  1.00  0.00     0.074 A 
ATOM     24  C   UNL A   1      40.245  27.513  27.858  1.00  0.00     0.031 C 
ATOM     25  C   UNL A   1      37.930  31.669  32.856  1.00  0.00     0.029 A 
ATOM     26  C   UNL A   1      39.175  30.976  33.160  1.00  0.00     0.049 A 
ATOM     27  H   UNL A   1      40.290  29.738  31.910  1.00  0.00     0.167 HD
ATOM     28  C   UNL A   1      42.335  26.984  29.107  1.00  0.00     0.037 A 
ATOM     29  C   UNL A   1      39.835  31.041  34.329  1.00  0.00     0.037 A 
ATOM     30  C   UNL A   1      43.189  27.104  30.264  1.00  0.00     0.049 A 
ATOM     31  C   UNL A   1      41.140  30.314  34.445  1.00  0.00     0.074 A 
ATOM     32  C   UNL A   1      44.435  26.545  30.485  1.00  0.00     0.029 A 
ATOM     33  N   UNL A   1      42.867  27.822  31.410  1.00  0.00    -0.354 N 
ATOM     34  N   UNL A   1      41.733  29.544  33.564  1.00  0.00    -0.248 NA
ATOM     35  C   UNL A   1      41.878  30.482  35.700  1.00  0.00     0.031 C 
ATOM     36  C   UNL A   1      44.841  26.882  31.782  1.00  0.00     0.029 A 
ATOM     37  C   UNL A   1      43.875  27.696  32.355  1.00  0.00     0.049 A 
ATOM     38  H   UNL A   1      42.042  28.345  31.534  1.00  0.00     0.167 HD
ATOM     39  C   UNL A   1      42.921  29.138  34.150  1.00  0.00     0.074 A 
ATOM     40  C   UNL A   1      42.974  29.776  35.454  1.00  0.00     0.031 C 
ATOM     41  C   UNL A   1      43.879  28.312  33.660  1.00  0.00     0.037 A 
BRANCH  28  42
ATOM     42  C   UNL A   1      42.776  26.104  27.969  1.00  0.00     0.064 A 
ATOM     43  C   UNL A   1      43.636  26.583  26.967  1.00  0.00     0.173 A 
ATOM     44  C   UNL A   1      42.387  24.757  27.901  1.00  0.00     0.173 A 
ATOM     45  F   UNL A   1      44.039  27.862  26.978  1.00  0.00    -0.203 F 
ATOM     46  C   UNL A   1      44.068  25.758  25.932  1.00  0.00     0.198 A 
ATOM     47  C   UNL A   1      42.847  23.926  26.880  1.00  0.00     0.198 A 
ATOM     48  F   UNL A   1      41.574  24.239  28.834  1.00  0.00    -0.203 F 
ATOM     49  F   UNL A   1      44.857  26.253  24.967  1.00  0.00    -0.200 F 
ATOM     50  C   UNL A   1      43.680  24.428  25.893  1.00  0.00     0.200 A 
ATOM     51  F   UNL A   1      42.484  22.635  26.853  1.00  0.00    -0.200 F 
ATOM     52  F   UNL A   1      44.109  23.632  24.903  1.00  0.00    -0.200 F 
ENDBRANCH  28  42
BRANCH  29  53
ATOM     53  C   UNL A   1      39.301  31.911  35.402  1.00  0.00     0.064 A 
ATOM     54  C   UNL A   1      38.512  31.368  36.424  1.00  0.00     0.173 A 
ATOM     55  C   UNL A   1      39.668  33.261  35.505  1.00  0.00     0.173 A 
ATOM     56  F   UNL A   1      38.136  30.081  36.363  1.00  0.00    -0.203 F 
ATOM     57  C   UNL A   1      38.114  32.138  37.513  1.00  0.00     0.198 A 
ATOM     58  C   UNL A   1      39.288  34.026  36.607  1.00  0.00     0.198 A 
ATOM     59  F   UNL A   1      40.443  33.821  34.564  1.00  0.00    -0.203 F 
ATOM     60  F   UNL A   1      37.359  31.592  38.475  1.00  0.00    -0.200 F 
ATOM     61  C   UNL A   1      38.513  33.463  37.610  1.00  0.00     0.200 A 
ATOM     62  F   UNL A   1      39.695  35.299  36.710  1.00  0.00    -0.200 F 
ATOM     63  F   UNL A   1      38.158  34.194  38.676  1.00  0.00    -0.200 F 
ENDBRANCH  29  53
BRANCH  41  64
ATOM     64  C   UNL A   1      45.045  28.033  34.562  1.00  0.00     0.064 A 
ATOM     65  C   UNL A   1      46.173  28.867  34.568  1.00  0.00     0.173 A 
ATOM     66  C   UNL A   1      45.030  26.937  35.437  1.00  0.00     0.173 A 
ATOM     67  F   UNL A   1      46.241  29.917  33.735  1.00  0.00    -0.203 F 
ATOM     68  C   UNL A   1      47.257  28.596  35.396  1.00  0.00     0.198 A 
ATOM     69  C   UNL A   1      46.102  26.689  36.288  1.00  0.00     0.198 A 
ATOM     70  F   UNL A   1      43.972  26.113  35.473  1.00  0.00    -0.203 F 
ATOM     71  F   UNL A   1      48.347  29.374  35.345  1.00  0.00    -0.200 F 
ATOM     72  C   UNL A   1      47.219  27.512  36.261  1.00  0.00     0.200 A 
ATOM     73  F   UNL A   1      46.058  25.649  37.131  1.00  0.00    -0.200 F 
ATOM     74  F   UNL A   1      48.263  27.255  37.060  1.00  0.00    -0.200 F 
ENDBRANCH  41  64
ENDBRANCH  15  16
ENDBRANCH   8  10
ENDBRANCH   7   8
ENDBRANCH   6   7
ENDBRANCH   5   6
ENDBRANCH   4   5
ENDBRANCH   3   4
ENDBRANCH   2   3
ENDBRANCH   1   2
BRANCH   1  75
ATOM     75  C   UNL A   1      29.659  27.121  23.529  1.00  0.00     0.188 C 
BRANCH  75  76
ATOM     76  C   UNL A   1      29.978  28.369  22.678  1.00  0.00     0.188 C 
BRANCH  76  77
ATOM     77  O   UNL A   1      31.355  28.542  22.380  1.00  0.00    -0.376 OA
BRANCH  77  78
ATOM     78  C   UNL A   1      32.169  28.991  23.456  1.00  0.00     0.202 C 
BRANCH  78  79
ATOM     79  C   UNL A   1      33.435  28.178  23.767  1.00  0.00     0.261 C 
BRANCH  79  80
ATOM     80  O   UNL A   1      33.276  26.750  23.765  1.00  0.00    -0.460 OA
BRANCH  80  81
ATOM     81  C   UNL A   1      33.523  26.070  22.621  1.00  0.00     0.341 C 
ATOM     82  O   UNL A   1      34.030  26.500  21.613  1.00  0.00    -0.246 OA
BRANCH  81  83
ATOM     83  C   UNL A   1      33.322  24.624  22.921  1.00  0.00     0.101 A 
ATOM     84  C   UNL A   1      33.299  24.232  24.269  1.00  0.00     0.020 A 
ATOM     85  C   UNL A   1      33.047  23.685  21.923  1.00  0.00     0.130 A 
ATOM     86  C   UNL A   1      33.002  22.908  24.614  1.00  0.00     0.010 A 
ATOM     87  C   UNL A   1      32.771  22.358  22.265  1.00  0.00     0.055 A 
ATOM     88  C   UNL A   1      32.762  21.961  23.612  1.00  0.00    -0.014 A 
BRANCH  85  89
ATOM     89  O   UNL A   1      33.086  24.048  20.607  1.00  0.00    -0.507 OA
ATOM     90  H   UNL A   1      32.466  23.689  20.003  1.00  0.00     0.293 HD
ENDBRANCH  85  89
BRANCH  88  91
ATOM     91  C   UNL A   1      32.707  20.524  23.937  1.00  0.00    -0.011 A 
ATOM     92  C   UNL A   1      32.880  20.094  25.310  1.00  0.00     0.027 A 
ATOM     93  C   UNL A   1      32.529  19.599  22.978  1.00  0.00     0.080 A 
ATOM     94  C   UNL A   1      32.918  18.796  25.623  1.00  0.00     0.095 A 
ATOM     95  C   UNL A   1      32.547  18.141  23.317  1.00  0.00     0.255 A 
ATOM     96  N   UNL A   1      32.770  17.829  24.650  1.00  0.00    -0.258 N 
ATOM     97  O   UNL A   1      32.382  17.328  22.413  1.00  0.00    -0.269 OA
BRANCH  96  98
ATOM     98  C   UNL A   1      32.870  16.434  25.001  1.00  0.00     0.451 C 
ATOM     99  F   UNL A   1      34.156  16.069  25.217  1.00  0.00    -0.185 F 
ATOM    100  F   UNL A   1      32.161  16.168  26.125  1.00  0.00    -0.185 F 
ENDBRANCH  96  98
ENDBRANCH  88  91
ENDBRANCH  81  83
ENDBRANCH  80  81
ENDBRANCH  79  80
ENDBRANCH  78  79
ENDBRANCH  77  78
ENDBRANCH  76  77
ENDBRANCH  75  76
ENDBRANCH   1  75
TORSDOF 23
ENDMDL
MODEL 2
REMARK VINA RESULT:     -10.7      2.000      7.607
REMARK SMILES O=C(OCCOCCOCCOCCOC(=O)c1ccc(-c2ccn(C(F)F)c(=O)c2)cc1O)c1ccc(-c2c3nc(c(-c4c(F)c(F)c(F)c(F)c4F)c4ccc([nH]4)c(-c4c(F)c(F)c(F)c(F)c4F)c4nc(c(-c5c(F)c(F)c(F)c(F)c5F)c5ccc2[nH]5)C=C4)C=C3)cc1
REMARK SMILES IDX 9 1 8 2 7 3 6 4 5 5 4 6 3 7 2 8 1 9 35 10 36 11 97 12 37 13
REMARK SMILES IDX 96 14 38 15 39 16 40 17 90 18 41 19 95 20 89 21 91 22 42 23
REMARK SMILES IDX 94 24 88 25 87 26 43 28 75 29 55 30 74 31 56 32 59 33 73 34
REMARK SMILES IDX 92 35 57 36 58 37 72 39 93 40 60 41 44 42 45 43 53 44 46 45
REMARK SMILES IDX 47 46 51 47 54 48 48 49 49 50 52 51 50 52 76 53 77 54 85 55
REMARK SMILES IDX 78 56 79 57 83 58 86 59 80 60 81 61 84 62 82 63 61 64 62 65
REMARK SMILES IDX 70 66 63 67 64 68 68 69 71 70 65 71 66 72 69 73 67 74 10 75
REMARK SMILES IDX 11 76 12 77 13 78 14 79 15 80 16 81 17 82 18 83 19 84 33 85
REMARK SMILES IDX 20 86 32 87 21 88 34 89 22 91 23 92 31 93 24 94 29 95 25 96
REMARK SMILES IDX 30 97 26 98 27 99 28 100
REMARK H PARENT 91 27 59 38 34 90
REMARK Flexibility Score: inf
ROOT
ATOM      1  O   UNL A   1      32.757  29.187  24.352  1.00  0.00    -0.377 OA
ENDROOT
BRANCH   1   2
ATOM      2  C   UNL A   1      31.683  29.715  25.125  1.00  0.00     0.188 C 
BRANCH   2   3
ATOM      3  C   UNL A   1      31.992  29.949  26.604  1.00  0.00     0.188 C 
BRANCH   3   4
ATOM      4  O   UNL A   1      33.333  30.416  26.803  1.00  0.00    -0.376 OA
BRANCH   4   5
ATOM      5  C   UNL A   1      33.429  31.654  27.508  1.00  0.00     0.202 C 
BRANCH   5   6
ATOM      6  C   UNL A   1      32.237  32.593  27.331  1.00  0.00     0.261 C 
BRANCH   6   7
ATOM      7  O   UNL A   1      32.552  33.973  27.541  1.00  0.00    -0.460 OA
BRANCH   7   8
ATOM      8  C   UNL A   1      33.111  34.573  28.619  1.00  0.00     0.338 C 
ATOM      9  O   UNL A   1      32.607  35.632  28.996  1.00  0.00    -0.246 OA
BRANCH   8  10
ATOM     10  C   UNL A   1      34.331  34.089  29.358  1.00  0.00     0.060 A 
ATOM     11  C   UNL A   1      34.091  33.421  30.577  1.00  0.00     0.016 A 
ATOM     12  C   UNL A   1      35.664  34.253  28.972  1.00  0.00     0.016 A 
ATOM     13  C   UNL A   1      35.139  32.938  31.369  1.00  0.00     0.010 A 
ATOM     14  C   UNL A   1      36.716  33.794  29.763  1.00  0.00     0.010 A 
ATOM     15  C   UNL A   1      36.458  33.119  30.954  1.00  0.00    -0.014 A 
BRANCH  15  16
ATOM     16  C   UNL A   1      37.584  32.446  31.623  1.00  0.00     0.031 A 
ATOM     17  C   UNL A   1      38.100  32.912  32.944  1.00  0.00     0.074 A 
ATOM     18  C   UNL A   1      38.220  31.498  30.914  1.00  0.00     0.049 A 
ATOM     19  N   UNL A   1      39.092  32.434  33.651  1.00  0.00    -0.248 NA
ATOM     20  C   UNL A   1      37.438  34.081  33.540  1.00  0.00     0.031 C 
ATOM     21  C   UNL A   1      37.833  31.068  29.566  1.00  0.00     0.029 A 
ATOM     22  N   UNL A   1      39.332  30.755  31.197  1.00  0.00    -0.354 N 
ATOM     23  C   UNL A   1      39.156  33.221  34.792  1.00  0.00     0.074 A 
ATOM     24  C   UNL A   1      38.144  34.249  34.652  1.00  0.00     0.031 C 
ATOM     25  C   UNL A   1      38.698  30.140  29.138  1.00  0.00     0.029 A 
ATOM     26  C   UNL A   1      39.692  29.910  30.178  1.00  0.00     0.049 A 
ATOM     27  H   UNL A   1      39.824  30.820  32.047  1.00  0.00     0.167 HD
ATOM     28  C   UNL A   1      39.978  33.071  35.859  1.00  0.00     0.037 A 
ATOM     29  C   UNL A   1      40.708  29.032  30.103  1.00  0.00     0.037 A 
ATOM     30  C   UNL A   1      41.005  32.060  35.936  1.00  0.00     0.049 A 
ATOM     31  C   UNL A   1      41.599  28.878  31.297  1.00  0.00     0.074 A 
ATOM     32  C   UNL A   1      41.856  31.764  36.985  1.00  0.00     0.029 A 
ATOM     33  N   UNL A   1      41.333  31.190  34.901  1.00  0.00    -0.354 N 
ATOM     34  N   UNL A   1      41.576  29.539  32.431  1.00  0.00    -0.248 NA
ATOM     35  C   UNL A   1      42.637  27.848  31.216  1.00  0.00     0.031 C 
ATOM     36  C   UNL A   1      42.731  30.753  36.567  1.00  0.00     0.029 A 
ATOM     37  C   UNL A   1      42.394  30.378  35.275  1.00  0.00     0.049 A 
ATOM     38  H   UNL A   1      40.877  31.155  34.029  1.00  0.00     0.167 HD
ATOM     39  C   UNL A   1      42.590  29.001  33.207  1.00  0.00     0.074 A 
ATOM     40  C   UNL A   1      43.188  27.937  32.420  1.00  0.00     0.031 C 
ATOM     41  C   UNL A   1      42.993  29.355  34.452  1.00  0.00     0.037 A 
BRANCH  28  42
ATOM     42  C   UNL A   1      39.788  34.000  37.027  1.00  0.00     0.064 A 
ATOM     43  C   UNL A   1      38.988  33.638  38.125  1.00  0.00     0.173 A 
ATOM     44  C   UNL A   1      40.448  35.237  37.085  1.00  0.00     0.173 A 
ATOM     45  F   UNL A   1      38.331  32.469  38.124  1.00  0.00    -0.203 F 
ATOM     46  C   UNL A   1      38.839  34.487  39.219  1.00  0.00     0.198 A 
ATOM     47  C   UNL A   1      40.320  36.070  38.196  1.00  0.00     0.198 A 
ATOM     48  F   UNL A   1      41.232  35.635  36.072  1.00  0.00    -0.203 F 
ATOM     49  F   UNL A   1      38.038  34.132  40.235  1.00  0.00    -0.200 F 
ATOM     50  C   UNL A   1      39.511  35.698  39.259  1.00  0.00     0.200 A 
ATOM     51  F   UNL A   1      40.983  37.235  38.240  1.00  0.00    -0.200 F 
ATOM     52  F   UNL A   1      39.376  36.507  40.319  1.00  0.00    -0.200 F 
ENDBRANCH  28  42
BRANCH  29  53
ATOM     53  C   UNL A   1      40.830  28.185  28.895  1.00  0.00     0.064 A 
ATOM     54  C   UNL A   1      40.084  27.004  28.783  1.00  0.00     0.173 A 
ATOM     55  C   UNL A   1      41.582  28.592  27.783  1.00  0.00     0.173 A 
ATOM     56  F   UNL A   1      39.352  26.576  29.823  1.00  0.00    -0.203 F 
ATOM     57  C   UNL A   1      40.079  26.265  27.603  1.00  0.00     0.198 A 
ATOM     58  C   UNL A   1      41.559  27.863  26.595  1.00  0.00     0.198 A 
ATOM     59  F   UNL A   1      42.294  29.728  27.833  1.00  0.00    -0.203 F 
ATOM     60  F   UNL A   1      39.357  25.139  27.525  1.00  0.00    -0.200 F 
ATOM     61  C   UNL A   1      40.806  26.701  26.506  1.00  0.00     0.200 A 
ATOM     62  F   UNL A   1      42.243  28.300  25.528  1.00  0.00    -0.200 F 
ATOM     63  F   UNL A   1      40.773  26.008  25.360  1.00  0.00    -0.200 F 
ENDBRANCH  29  53
BRANCH  41  64
ATOM     64  C   UNL A   1      44.159  28.598  35.017  1.00  0.00     0.064 A 
ATOM     65  C   UNL A   1      43.968  27.441  35.788  1.00  0.00     0.173 A 
ATOM     66  C   UNL A   1      45.474  29.018  34.772  1.00  0.00     0.173 A 
ATOM     67  F   UNL A   1      42.727  27.011  36.064  1.00  0.00    -0.203 F 
ATOM     68  C   UNL A   1      45.052  26.751  36.320  1.00  0.00     0.198 A 
ATOM     69  C   UNL A   1      46.557  28.306  35.278  1.00  0.00     0.198 A 
ATOM     70  F   UNL A   1      45.709  30.115  34.036  1.00  0.00    -0.203 F 
ATOM     71  F   UNL A   1      44.844  25.681  37.100  1.00  0.00    -0.200 F 
ATOM     72  C   UNL A   1      46.345  27.178  36.059  1.00  0.00     0.200 A 
ATOM     73  F   UNL A   1      47.806  28.713  35.015  1.00  0.00    -0.200 F 
ATOM     74  F   UNL A   1      47.388  26.510  36.570  1.00  0.00    -0.200 F 
ENDBRANCH  41  64
ENDBRANCH  15  16
ENDBRANCH   8  10
ENDBRANCH   7   8
ENDBRANCH   6   7
ENDBRANCH   5   6
ENDBRANCH   4   5
ENDBRANCH   3   4
ENDBRANCH   2   3
ENDBRANCH   1   2
BRANCH   1  75
ATOM     75  C   UNL A   1      32.508  28.941  22.974  1.00  0.00     0.188 C 
BRANCH  75  76
ATOM     76  C   UNL A   1      31.050  28.960  22.465  1.00  0.00     0.188 C 
BRANCH  76  77
ATOM     77  O   UNL A   1      30.538  27.688  22.098  1.00  0.00    -0.376 OA
BRANCH  77  78
ATOM     78  C   UNL A   1      30.579  26.689  23.110  1.00  0.00     0.202 C 
BRANCH  78  79
ATOM     79  C   UNL A   1      29.595  26.831  24.280  1.00  0.00     0.261 C 
BRANCH  79  80
ATOM     80  O   UNL A   1      29.761  25.889  25.353  1.00  0.00    -0.460 OA
BRANCH  80  81
ATOM     81  C   UNL A   1      30.942  25.859  26.014  1.00  0.00     0.341 C 
ATOM     82  O   UNL A   1      31.313  26.613  26.879  1.00  0.00    -0.246 OA
BRANCH  81  83
ATOM     83  C   UNL A   1      31.591  24.557  25.685  1.00  0.00     0.101 A 
ATOM     84  C   UNL A   1      30.767  23.505  25.253  1.00  0.00     0.020 A 
ATOM     85  C   UNL A   1      32.979  24.393  25.685  1.00  0.00     0.130 A 
ATOM     86  C   UNL A   1      31.332  22.298  24.825  1.00  0.00     0.010 A 
ATOM     87  C   UNL A   1      33.543  23.181  25.277  1.00  0.00     0.055 A 
ATOM     88  C   UNL A   1      32.720  22.123  24.859  1.00  0.00    -0.014 A 
BRANCH  85  89
ATOM     89  O   UNL A   1      33.791  25.401  26.121  1.00  0.00    -0.507 OA
ATOM     90  H   UNL A   1      33.557  26.295  25.960  1.00  0.00     0.293 HD
ENDBRANCH  85  89
BRANCH  88  91
ATOM     91  C   UNL A   1      33.311  20.787  24.664  1.00  0.00    -0.011 A 
ATOM     92  C   UNL A   1      32.458  19.672  24.304  1.00  0.00     0.027 A 
ATOM     93  C   UNL A   1      34.626  20.574  24.843  1.00  0.00     0.080 A 
ATOM     94  C   UNL A   1      32.952  18.435  24.201  1.00  0.00     0.095 A 
ATOM     95  C   UNL A   1      35.198  19.197  24.710  1.00  0.00     0.255 A 
ATOM     96  N   UNL A   1      34.293  18.189  24.413  1.00  0.00    -0.258 N 
ATOM     97  O   UNL A   1      36.403  19.044  24.881  1.00  0.00    -0.269 OA
BRANCH  96  98
ATOM     98  C   UNL A   1      34.794  16.838  24.352  1.00  0.00     0.451 C 
ATOM     99  F   UNL A   1      34.768  16.245  25.569  1.00  0.00    -0.185 F 
ATOM    100  F   UNL A   1      34.055  16.087  23.499  1.00  0.00    -0.185 F 
ENDBRANCH  96  98
ENDBRANCH  88  91
ENDBRANCH  81  83
ENDBRANCH  80  81
ENDBRANCH  79  80
ENDBRANCH  78  79
ENDBRANCH  77  78
ENDBRANCH  76  77
ENDBRANCH  75  76
ENDBRANCH   1  75
TORSDOF 23
ENDMDL
MODEL 3
REMARK VINA RESULT:     -10.2      6.702     13.096
REMARK SMILES O=C(OCCOCCOCCOCCOC(=O)c1ccc(-c2ccn(C(F)F)c(=O)c2)cc1O)c1ccc(-c2c3nc(c(-c4c(F)c(F)c(F)c(F)c4F)c4ccc([nH]4)c(-c4c(F)c(F)c(F)c(F)c4F)c4nc(c(-c5c(F)c(F)c(F)c(F)c5F)c5ccc2[nH]5)C=C4)C=C3)cc1
REMARK SMILES IDX 9 1 8 2 7 3 6 4 5 5 4 6 3 7 2 8 1 9 35 10 36 11 97 12 37 13
REMARK SMILES IDX 96 14 38 15 39 16 40 17 90 18 41 19 95 20 89 21 91 22 42 23
REMARK SMILES IDX 94 24 88 25 87 26 43 28 75 29 55 30 74 31 56 32 59 33 73 34
REMARK SMILES IDX 92 35 57 36 58 37 72 39 93 40 60 41 44 42 45 43 53 44 46 45
REMARK SMILES IDX 47 46 51 47 54 48 48 49 49 50 52 51 50 52 76 53 77 54 85 55
REMARK SMILES IDX 78 56 79 57 83 58 86 59 80 60 81 61 84 62 82 63 61 64 62 65
REMARK SMILES IDX 70 66 63 67 64 68 68 69 71 70 65 71 66 72 69 73 67 74 10 75
REMARK SMILES IDX 11 76 12 77 13 78 14 79 15 80 16 81 17 82 18 83 19 84 33 85
REMARK SMILES IDX 20 86 32 87 21 88 34 89 22 91 23 92 31 93 24 94 29 95 25 96
REMARK SMILES IDX 30 97 26 98 27 99 28 100
REMARK H PARENT 91 27 59 38 34 90
REMARK Flexibility Score: inf
ROOT
ATOM      1  O   UNL A   1      45.539  24.268  24.641  1.00  0.00    -0.377 OA
ENDROOT
BRANCH   1   2
ATOM      2  C   UNL A   1      46.166  23.003  24.448  1.00  0.00     0.188 C 
BRANCH   2   3
ATOM      3  C   UNL A   1      45.239  21.870  24.005  1.00  0.00     0.188 C 
BRANCH   3   4
ATOM      4  O   UNL A   1      45.117  20.855  25.010  1.00  0.00    -0.376 OA
BRANCH   4   5
ATOM      5  C   UNL A   1      44.768  19.566  24.506  1.00  0.00     0.202 C 
BRANCH   5   6
ATOM      6  C   UNL A   1      43.737  18.803  25.338  1.00  0.00     0.261 C 
BRANCH   6   7
ATOM      7  O   UNL A   1      42.394  19.262  25.156  1.00  0.00    -0.460 OA
BRANCH   7   8
ATOM      8  C   UNL A   1      41.637  20.047  25.959  1.00  0.00     0.338 C 
ATOM      9  O   UNL A   1      40.446  19.754  26.070  1.00  0.00    -0.246 OA
BRANCH   8  10
ATOM     10  C   UNL A   1      42.113  21.280  26.681  1.00  0.00     0.060 A 
ATOM     11  C   UNL A   1      42.375  22.407  25.874  1.00  0.00     0.016 A 
ATOM     12  C   UNL A   1      42.340  21.412  28.053  1.00  0.00     0.016 A 
ATOM     13  C   UNL A   1      42.839  23.609  26.419  1.00  0.00     0.010 A 
ATOM     14  C   UNL A   1      42.822  22.599  28.605  1.00  0.00     0.010 A 
ATOM     15  C   UNL A   1      43.055  23.707  27.794  1.00  0.00    -0.014 A 
BRANCH  15  16
ATOM     16  C   UNL A   1      43.326  24.997  28.450  1.00  0.00     0.031 A 
ATOM     17  C   UNL A   1      42.259  26.028  28.616  1.00  0.00     0.074 A 
ATOM     18  C   UNL A   1      44.610  25.259  28.747  1.00  0.00     0.049 A 
ATOM     19  N   UNL A   1      42.345  27.215  29.158  1.00  0.00    -0.248 NA
ATOM     20  C   UNL A   1      40.929  25.699  28.084  1.00  0.00     0.031 C 
ATOM     21  C   UNL A   1      45.723  24.334  28.509  1.00  0.00     0.029 A 
ATOM     22  N   UNL A   1      45.205  26.373  29.270  1.00  0.00    -0.354 N 
ATOM     23  C   UNL A   1      41.076  27.767  29.064  1.00  0.00     0.074 A 
ATOM     24  C   UNL A   1      40.252  26.809  28.352  1.00  0.00     0.031 C 
ATOM     25  C   UNL A   1      46.868  24.923  28.882  1.00  0.00     0.029 A 
ATOM     26  C   UNL A   1      46.567  26.257  29.384  1.00  0.00     0.049 A 
ATOM     27  H   UNL A   1      44.705  27.177  29.539  1.00  0.00     0.167 HD
ATOM     28  C   UNL A   1      40.649  28.958  29.550  1.00  0.00     0.037 A 
ATOM     29  C   UNL A   1      47.470  27.131  29.860  1.00  0.00     0.037 A 
ATOM     30  C   UNL A   1      41.516  29.903  30.211  1.00  0.00     0.049 A 
ATOM     31  C   UNL A   1      46.975  28.438  30.399  1.00  0.00     0.074 A 
ATOM     32  C   UNL A   1      41.193  31.110  30.804  1.00  0.00     0.029 A 
ATOM     33  N   UNL A   1      42.892  29.751  30.345  1.00  0.00    -0.354 N 
ATOM     34  N   UNL A   1      45.749  28.904  30.424  1.00  0.00    -0.248 NA
ATOM     35  C   UNL A   1      47.976  29.326  30.994  1.00  0.00     0.031 C 
ATOM     36  C   UNL A   1      42.378  31.710  31.249  1.00  0.00     0.029 A 
ATOM     37  C   UNL A   1      43.437  30.855  30.982  1.00  0.00     0.049 A 
ATOM     38  H   UNL A   1      43.405  28.971  30.032  1.00  0.00     0.167 HD
ATOM     39  C   UNL A   1      45.824  30.140  31.046  1.00  0.00     0.074 A 
ATOM     40  C   UNL A   1      47.217  30.333  31.408  1.00  0.00     0.031 C 
ATOM     41  C   UNL A   1      44.835  31.035  31.292  1.00  0.00     0.037 A 
BRANCH  28  42
ATOM     42  C   UNL A   1      39.189  29.292  29.404  1.00  0.00     0.064 A 
ATOM     43  C   UNL A   1      38.632  29.598  28.151  1.00  0.00     0.173 A 
ATOM     44  C   UNL A   1      38.323  29.256  30.508  1.00  0.00     0.173 A 
ATOM     45  F   UNL A   1      39.411  29.650  27.060  1.00  0.00    -0.203 F 
ATOM     46  C   UNL A   1      37.274  29.877  28.014  1.00  0.00     0.198 A 
ATOM     47  C   UNL A   1      36.959  29.505  30.361  1.00  0.00     0.198 A 
ATOM     48  F   UNL A   1      38.794  28.962  31.729  1.00  0.00    -0.203 F 
ATOM     49  F   UNL A   1      36.778  30.204  26.812  1.00  0.00    -0.200 F 
ATOM     50  C   UNL A   1      36.437  29.823  29.116  1.00  0.00     0.200 A 
ATOM     51  F   UNL A   1      36.147  29.437  31.426  1.00  0.00    -0.200 F 
ATOM     52  F   UNL A   1      35.128  30.078  28.979  1.00  0.00    -0.200 F 
ENDBRANCH  28  42
BRANCH  29  53
ATOM     53  C   UNL A   1      48.892  26.718  29.931  1.00  0.00     0.064 A 
ATOM     54  C   UNL A   1      49.784  27.084  28.915  1.00  0.00     0.173 A 
ATOM     55  C   UNL A   1      49.415  26.072  31.061  1.00  0.00     0.173 A 
ATOM     56  F   UNL A   1      49.326  27.701  27.816  1.00  0.00    -0.203 F 
ATOM     57  C   UNL A   1      51.147  26.826  29.028  1.00  0.00     0.198 A 
ATOM     58  C   UNL A   1      50.783  25.834  31.183  1.00  0.00     0.198 A 
ATOM     59  F   UNL A   1      48.604  25.723  32.071  1.00  0.00    -0.203 F 
ATOM     60  F   UNL A   1      51.978  27.187  28.040  1.00  0.00    -0.200 F 
ATOM     61  C   UNL A   1      51.647  26.213  30.166  1.00  0.00     0.200 A 
ATOM     62  F   UNL A   1      51.266  25.264  32.295  1.00  0.00    -0.200 F 
ATOM     63  F   UNL A   1      52.964  25.997  30.289  1.00  0.00    -0.200 F 
ENDBRANCH  29  53
BRANCH  41  64
ATOM     64  C   UNL A   1      45.245  32.316  31.958  1.00  0.00     0.064 A 
ATOM     65  C   UNL A   1      45.850  33.351  31.231  1.00  0.00     0.173 A 
ATOM     66  C   UNL A   1      45.015  32.518  33.327  1.00  0.00     0.173 A 
ATOM     67  F   UNL A   1      46.106  33.197  29.922  1.00  0.00    -0.203 F 
ATOM     68  C   UNL A   1      46.239  34.531  31.856  1.00  0.00     0.198 A 
ATOM     69  C   UNL A   1      45.376  33.712  33.942  1.00  0.00     0.198 A 
ATOM     70  F   UNL A   1      44.435  31.560  34.065  1.00  0.00    -0.203 F 
ATOM     71  F   UNL A   1      46.866  35.484  31.153  1.00  0.00    -0.200 F 
ATOM     72  C   UNL A   1      45.996  34.714  33.209  1.00  0.00     0.200 A 
ATOM     73  F   UNL A   1      45.129  33.892  35.247  1.00  0.00    -0.200 F 
ATOM     74  F   UNL A   1      46.369  35.852  33.810  1.00  0.00    -0.200 F 
ENDBRANCH  41  64
ENDBRANCH  15  16
ENDBRANCH   8  10
ENDBRANCH   7   8
ENDBRANCH   6   7
ENDBRANCH   5   6
ENDBRANCH   4   5
ENDBRANCH   3   4
ENDBRANCH   2   3
ENDBRANCH   1   2
BRANCH   1  75
ATOM     75  C   UNL A   1      46.366  25.349  25.046  1.00  0.00     0.188 C 
BRANCH  75  76
ATOM     76  C   UNL A   1      45.797  26.784  24.996  1.00  0.00     0.188 C 
BRANCH  76  77
ATOM     77  O   UNL A   1      45.607  27.388  26.266  1.00  0.00    -0.376 OA
BRANCH  77  78
ATOM     78  C   UNL A   1      46.487  28.460  26.579  1.00  0.00     0.202 C 
BRANCH  78  79
ATOM     79  C   UNL A   1      46.088  29.862  26.096  1.00  0.00     0.261 C 
BRANCH  79  80
ATOM     80  O   UNL A   1      45.574  30.747  27.105  1.00  0.00    -0.460 OA
BRANCH  80  81
ATOM     81  C   UNL A   1      44.243  30.989  27.140  1.00  0.00     0.341 C 
ATOM     82  O   UNL A   1      43.366  30.205  27.411  1.00  0.00    -0.246 OA
BRANCH  81  83
ATOM     83  C   UNL A   1      44.066  32.467  27.062  1.00  0.00     0.101 A 
ATOM     84  C   UNL A   1      43.655  33.140  28.225  1.00  0.00     0.020 A 
ATOM     85  C   UNL A   1      44.402  33.201  25.921  1.00  0.00     0.130 A 
ATOM     86  C   UNL A   1      43.582  34.538  28.242  1.00  0.00     0.010 A 
ATOM     87  C   UNL A   1      44.309  34.595  25.931  1.00  0.00     0.055 A 
ATOM     88  C   UNL A   1      43.884  35.268  27.087  1.00  0.00    -0.014 A 
BRANCH  85  89
ATOM     89  O   UNL A   1      44.784  32.558  24.778  1.00  0.00    -0.507 OA
ATOM     90  H   UNL A   1      44.528  31.669  24.632  1.00  0.00     0.293 HD
ENDBRANCH  85  89
BRANCH  88  91
ATOM     91  C   UNL A   1      43.564  36.705  27.006  1.00  0.00    -0.011 A 
ATOM     92  C   UNL A   1      42.180  37.132  27.012  1.00  0.00     0.027 A 
ATOM     93  C   UNL A   1      44.534  37.630  26.897  1.00  0.00     0.080 A 
ATOM     94  C   UNL A   1      41.858  38.419  26.858  1.00  0.00     0.095 A 
ATOM     95  C   UNL A   1      44.190  39.079  26.745  1.00  0.00     0.255 A 
ATOM     96  N   UNL A   1      42.837  39.381  26.710  1.00  0.00    -0.258 N 
ATOM     97  O   UNL A   1      45.104  39.891  26.647  1.00  0.00    -0.269 OA
BRANCH  96  98
ATOM     98  C   UNL A   1      42.465  40.756  26.488  1.00  0.00     0.451 C 
ATOM     99  F   UNL A   1      42.538  41.083  25.176  1.00  0.00    -0.185 F 
ATOM    100  F   UNL A   1      41.200  40.989  26.913  1.00  0.00    -0.185 F 
ENDBRANCH  96  98
ENDBRANCH  88  91
ENDBRANCH  81  83
ENDBRANCH  80  81
ENDBRANCH  79  80
ENDBRANCH  78  79
ENDBRANCH  77  78
ENDBRANCH  76  77
ENDBRANCH  75  76
ENDBRANCH   1  75
TORSDOF 23
ENDMDL
