MODEL 1
REMARK VINA RESULT:     -10.4      0.000      0.000
REMARK SMILES O=C(OCCOCCOCCOCCOC(=O)[C@H]1CC=CC[C@@H]1C(=O)Nc1ccccc1C(=O)NCc1ccco1)c1ccc(-c2c3nc(c(-c4c(F)c(F)c(F)c(F)c4F)c4ccc([nH]4)c(-c4c(F)c(F)c(F)c(F)c4F)c4nc(c(-c5c(F)c(F)c(F)c(F)c5F)c5ccc2[nH]5)C=C4)C=C3)cc1
REMARK SMILES IDX 10 1 9 2 8 3 7 4 6 5 5 6 4 7 3 8 2 9 1 10 42 11 43 12 104 13
REMARK SMILES IDX 44 14 103 15 45 16 46 17 47 18 97 19 48 20 102 21 96 22
REMARK SMILES IDX 98 23 49 24 101 25 95 26 94 27 50 29 82 30 62 31 81 32 63 33
REMARK SMILES IDX 66 34 80 35 99 36 64 37 65 38 79 40 100 41 67 42 51 43 52 44
REMARK SMILES IDX 60 45 53 46 54 47 58 48 61 49 55 50 56 51 59 52 57 53 83 54
REMARK SMILES IDX 84 55 92 56 85 57 86 58 90 59 93 60 87 61 88 62 91 63 89 64
REMARK SMILES IDX 68 65 69 66 77 67 70 68 71 69 75 70 78 71 72 72 73 73 76 74
REMARK SMILES IDX 74 75 11 76 12 77 13 78 14 79 15 80 16 81 17 82 18 83 19 84
REMARK SMILES IDX 23 85 20 86 22 87 21 88 24 89 25 90 26 91 27 93 28 94 32 95
REMARK SMILES IDX 29 96 31 97 30 98 33 99 34 100 35 101 36 103 37 104 38 105
REMARK SMILES IDX 41 106 39 107 40 108
REMARK H PARENT 98 28 66 39 26 92 35 102
REMARK Flexibility Score: inf
ROOT
ATOM      1  C   UNL A   1      30.331  31.686  24.615  1.00  0.00     0.188 C 
ENDROOT
BRANCH   1   2
ATOM      2  O   UNL A   1      30.289  31.746  26.037  1.00  0.00    -0.377 OA
BRANCH   2   3
ATOM      3  C   UNL A   1      31.541  31.820  26.718  1.00  0.00     0.188 C 
BRANCH   3   4
ATOM      4  C   UNL A   1      32.220  33.187  26.676  1.00  0.00     0.188 C 
BRANCH   4   5
ATOM      5  O   UNL A   1      32.288  33.737  27.989  1.00  0.00    -0.376 OA
BRANCH   5   6
ATOM      6  C   UNL A   1      33.592  34.045  28.475  1.00  0.00     0.202 C 
BRANCH   6   7
ATOM      7  C   UNL A   1      33.629  34.478  29.936  1.00  0.00     0.261 C 
BRANCH   7   8
ATOM      8  O   UNL A   1      34.854  34.113  30.583  1.00  0.00    -0.460 OA
BRANCH   8   9
ATOM      9  C   UNL A   1      35.177  32.904  31.105  1.00  0.00     0.338 C 
ATOM     10  O   UNL A   1      34.388  32.378  31.890  1.00  0.00    -0.246 OA
BRANCH   9  11
ATOM     11  C   UNL A   1      36.410  32.134  30.749  1.00  0.00     0.060 A 
ATOM     12  C   UNL A   1      37.232  31.443  31.641  1.00  0.00     0.016 A 
ATOM     13  C   UNL A   1      36.714  32.046  29.381  1.00  0.00     0.016 A 
ATOM     14  C   UNL A   1      38.354  30.749  31.217  1.00  0.00     0.010 A 
ATOM     15  C   UNL A   1      37.828  31.329  28.937  1.00  0.00     0.010 A 
ATOM     16  C   UNL A   1      38.667  30.707  29.867  1.00  0.00    -0.014 A 
BRANCH  16  17
ATOM     17  C   UNL A   1      39.987  30.182  29.487  1.00  0.00     0.031 A 
ATOM     18  C   UNL A   1      41.152  31.113  29.596  1.00  0.00     0.074 A 
ATOM     19  C   UNL A   1      40.139  28.880  29.195  1.00  0.00     0.049 A 
ATOM     20  N   UNL A   1      42.389  30.949  29.219  1.00  0.00    -0.248 NA
ATOM     21  C   UNL A   1      40.881  32.419  30.226  1.00  0.00     0.031 C 
ATOM     22  C   UNL A   1      39.071  27.878  29.227  1.00  0.00     0.029 A 
ATOM     23  N   UNL A   1      41.253  28.172  28.837  1.00  0.00    -0.354 N 
ATOM     24  C   UNL A   1      43.028  32.145  29.517  1.00  0.00     0.074 A 
ATOM     25  C   UNL A   1      42.049  33.026  30.110  1.00  0.00     0.031 C 
ATOM     26  C   UNL A   1      39.585  26.682  28.902  1.00  0.00     0.029 A 
ATOM     27  C   UNL A   1      40.992  26.854  28.560  1.00  0.00     0.049 A 
ATOM     28  H   UNL A   1      42.152  28.569  28.783  1.00  0.00     0.167 HD
ATOM     29  C   UNL A   1      44.320  32.469  29.290  1.00  0.00     0.037 A 
ATOM     30  C   UNL A   1      41.800  25.917  28.030  1.00  0.00     0.037 A 
ATOM     31  C   UNL A   1      45.259  31.549  28.709  1.00  0.00     0.049 A 
ATOM     32  C   UNL A   1      43.213  26.323  27.703  1.00  0.00     0.074 A 
ATOM     33  C   UNL A   1      46.581  31.751  28.371  1.00  0.00     0.029 A 
ATOM     34  N   UNL A   1      44.951  30.231  28.380  1.00  0.00    -0.354 N 
ATOM     35  N   UNL A   1      43.805  27.479  27.897  1.00  0.00    -0.248 NA
ATOM     36  C   UNL A   1      44.064  25.311  27.069  1.00  0.00     0.031 C 
ATOM     37  C   UNL A   1      47.059  30.571  27.788  1.00  0.00     0.029 A 
ATOM     38  C   UNL A   1      46.054  29.614  27.820  1.00  0.00     0.049 A 
ATOM     39  H   UNL A   1      44.077  29.803  28.525  1.00  0.00     0.167 HD
ATOM     40  C   UNL A   1      45.099  27.335  27.422  1.00  0.00     0.074 A 
ATOM     41  C   UNL A   1      45.210  25.967  26.949  1.00  0.00     0.031 C 
ATOM     42  C   UNL A   1      46.107  28.242  27.372  1.00  0.00     0.037 A 
BRANCH  29  43
ATOM     43  C   UNL A   1      44.728  33.883  29.582  1.00  0.00     0.064 A 
ATOM     44  C   UNL A   1      44.622  34.910  28.630  1.00  0.00     0.173 A 
ATOM     45  C   UNL A   1      45.308  34.200  30.820  1.00  0.00     0.173 A 
ATOM     46  F   UNL A   1      44.107  34.655  27.418  1.00  0.00    -0.203 F 
ATOM     47  C   UNL A   1      45.123  36.184  28.890  1.00  0.00     0.198 A 
ATOM     48  C   UNL A   1      45.778  35.483  31.088  1.00  0.00     0.198 A 
ATOM     49  F   UNL A   1      45.444  33.257  31.765  1.00  0.00    -0.203 F 
ATOM     50  F   UNL A   1      45.085  37.125  27.936  1.00  0.00    -0.200 F 
ATOM     51  C   UNL A   1      45.699  36.470  30.118  1.00  0.00     0.200 A 
ATOM     52  F   UNL A   1      46.331  35.757  32.278  1.00  0.00    -0.200 F 
ATOM     53  F   UNL A   1      46.194  37.691  30.361  1.00  0.00    -0.200 F 
ENDBRANCH  29  43
BRANCH  30  54
ATOM     54  C   UNL A   1      41.269  24.562  27.718  1.00  0.00     0.064 A 
ATOM     55  C   UNL A   1      41.723  23.422  28.394  1.00  0.00     0.173 A 
ATOM     56  C   UNL A   1      40.281  24.382  26.735  1.00  0.00     0.173 A 
ATOM     57  F   UNL A   1      42.681  23.532  29.325  1.00  0.00    -0.203 F 
ATOM     58  C   UNL A   1      41.216  22.156  28.094  1.00  0.00     0.198 A 
ATOM     59  C   UNL A   1      39.752  23.122  26.459  1.00  0.00     0.198 A 
ATOM     60  F   UNL A   1      39.811  25.437  26.052  1.00  0.00    -0.203 F 
ATOM     61  F   UNL A   1      41.698  21.079  28.727  1.00  0.00    -0.200 F 
ATOM     62  C   UNL A   1      40.226  22.008  27.134  1.00  0.00     0.200 A 
ATOM     63  F   UNL A   1      38.784  22.990  25.542  1.00  0.00    -0.200 F 
ATOM     64  F   UNL A   1      39.735  20.794  26.854  1.00  0.00    -0.200 F 
ENDBRANCH  30  54
BRANCH  42  65
ATOM     65  C   UNL A   1      47.415  27.767  26.818  1.00  0.00     0.064 A 
ATOM     66  C   UNL A   1      48.393  27.186  27.637  1.00  0.00     0.173 A 
ATOM     67  C   UNL A   1      47.660  27.836  25.438  1.00  0.00     0.173 A 
ATOM     68  F   UNL A   1      48.207  27.113  28.963  1.00  0.00    -0.203 F 
ATOM     69  C   UNL A   1      49.580  26.708  27.095  1.00  0.00     0.198 A 
ATOM     70  C   UNL A   1      48.834  27.327  24.896  1.00  0.00     0.198 A 
ATOM     71  F   UNL A   1      46.748  28.377  24.616  1.00  0.00    -0.203 F 
ATOM     72  F   UNL A   1      50.522  26.194  27.898  1.00  0.00    -0.200 F 
ATOM     73  C   UNL A   1      49.795  26.769  25.725  1.00  0.00     0.200 A 
ATOM     74  F   UNL A   1      49.032  27.371  23.573  1.00  0.00    -0.200 F 
ATOM     75  F   UNL A   1      50.934  26.294  25.203  1.00  0.00    -0.200 F 
ENDBRANCH  42  65
ENDBRANCH  16  17
ENDBRANCH   9  11
ENDBRANCH   8   9
ENDBRANCH   7   8
ENDBRANCH   6   7
ENDBRANCH   5   6
ENDBRANCH   4   5
ENDBRANCH   3   4
ENDBRANCH   2   3
ENDBRANCH   1   2
BRANCH   1  76
ATOM     76  C   UNL A   1      29.005  31.768  23.816  1.00  0.00     0.188 C 
BRANCH  76  77
ATOM     77  O   UNL A   1      28.592  30.561  23.192  1.00  0.00    -0.376 OA
BRANCH  77  78
ATOM     78  C   UNL A   1      29.636  29.810  22.576  1.00  0.00     0.202 C 
BRANCH  78  79
ATOM     79  C   UNL A   1      29.728  28.335  22.996  1.00  0.00     0.261 C 
BRANCH  79  80
ATOM     80  O   UNL A   1      30.743  27.577  22.307  1.00  0.00    -0.463 OA
BRANCH  80  81
ATOM     81  C   UNL A   1      31.066  26.361  22.815  1.00  0.00     0.310 C 
ATOM     82  O   UNL A   1      30.712  25.303  22.310  1.00  0.00    -0.252 OA
BRANCH  81  83
ATOM     83  C   UNL A   1      31.961  26.508  24.048  1.00  0.00     0.116 C 
ATOM     84  C   UNL A   1      31.072  26.948  25.223  1.00  0.00     0.043 C 
ATOM     85  C   UNL A   1      32.762  25.208  24.384  1.00  0.00     0.097 C 
ATOM     86  C   UNL A   1      30.425  25.793  25.936  1.00  0.00    -0.030 C 
ATOM     87  C   UNL A   1      31.776  24.076  24.715  1.00  0.00     0.041 C 
ATOM     88  C   UNL A   1      30.717  24.507  25.686  1.00  0.00    -0.030 C 
BRANCH  85  89
ATOM     89  C   UNL A   1      33.740  25.479  25.533  1.00  0.00     0.228 C 
ATOM     90  O   UNL A   1      33.773  26.565  26.118  1.00  0.00    -0.274 OA
ATOM     91  N   UNL A   1      34.614  24.528  25.973  1.00  0.00    -0.325 N 
ATOM     92  H   UNL A   1      34.953  24.685  26.884  1.00  0.00     0.169 HD
BRANCH  91  93
ATOM     93  C   UNL A   1      35.119  23.369  25.367  1.00  0.00     0.054 A 
ATOM     94  C   UNL A   1      35.884  23.648  24.214  1.00  0.00     0.027 A 
ATOM     95  C   UNL A   1      34.975  22.040  25.801  1.00  0.00     0.063 A 
ATOM     96  C   UNL A   1      36.655  22.668  23.596  1.00  0.00     0.002 A 
ATOM     97  C   UNL A   1      35.793  21.069  25.165  1.00  0.00     0.016 A 
ATOM     98  C   UNL A   1      36.641  21.379  24.099  1.00  0.00     0.001 A 
BRANCH  95  99
ATOM     99  C   UNL A   1      33.996  21.422  26.762  1.00  0.00     0.253 C 
ATOM    100  O   UNL A   1      34.022  21.812  27.935  1.00  0.00    -0.269 OA
ATOM    101  N   UNL A   1      33.136  20.380  26.521  1.00  0.00    -0.345 N 
ATOM    102  H   UNL A   1      32.810  19.932  27.334  1.00  0.00     0.164 HD
BRANCH 101 103
ATOM    103  C   UNL A   1      32.623  19.820  25.298  1.00  0.00     0.191 C 
BRANCH 103 104
ATOM    104  C   UNL A   1      33.131  18.475  24.961  1.00  0.00     0.122 A 
ATOM    105  C   UNL A   1      33.996  17.911  24.047  1.00  0.00     0.047 A 
ATOM    106  O   UNL A   1      32.597  17.493  25.750  1.00  0.00    -0.467 OA
ATOM    107  C   UNL A   1      33.963  16.510  24.283  1.00  0.00     0.042 A 
ATOM    108  C   UNL A   1      33.099  16.311  25.332  1.00  0.00     0.195 A 
ENDBRANCH 103 104
ENDBRANCH 101 103
ENDBRANCH  95  99
ENDBRANCH  91  93
ENDBRANCH  85  89
ENDBRANCH  81  83
ENDBRANCH  80  81
ENDBRANCH  79  80
ENDBRANCH  78  79
ENDBRANCH  77  78
ENDBRANCH  76  77
ENDBRANCH   1  76
TORSDOF 25
ENDMDL
MODEL 2
REMARK VINA RESULT:     -10.3      4.434     10.566
REMARK SMILES O=C(OCCOCCOCCOCCOC(=O)[C@H]1CC=CC[C@@H]1C(=O)Nc1ccccc1C(=O)NCc1ccco1)c1ccc(-c2c3nc(c(-c4c(F)c(F)c(F)c(F)c4F)c4ccc([nH]4)c(-c4c(F)c(F)c(F)c(F)c4F)c4nc(c(-c5c(F)c(F)c(F)c(F)c5F)c5ccc2[nH]5)C=C4)C=C3)cc1
REMARK SMILES IDX 10 1 9 2 8 3 7 4 6 5 5 6 4 7 3 8 2 9 1 10 42 11 43 12 104 13
REMARK SMILES IDX 44 14 103 15 45 16 46 17 47 18 97 19 48 20 102 21 96 22
REMARK SMILES IDX 98 23 49 24 101 25 95 26 94 27 50 29 82 30 62 31 81 32 63 33
REMARK SMILES IDX 66 34 80 35 99 36 64 37 65 38 79 40 100 41 67 42 51 43 52 44
REMARK SMILES IDX 60 45 53 46 54 47 58 48 61 49 55 50 56 51 59 52 57 53 83 54
REMARK SMILES IDX 84 55 92 56 85 57 86 58 90 59 93 60 87 61 88 62 91 63 89 64
REMARK SMILES IDX 68 65 69 66 77 67 70 68 71 69 75 70 78 71 72 72 73 73 76 74
REMARK SMILES IDX 74 75 11 76 12 77 13 78 14 79 15 80 16 81 17 82 18 83 19 84
REMARK SMILES IDX 23 85 20 86 22 87 21 88 24 89 25 90 26 91 27 93 28 94 32 95
REMARK SMILES IDX 29 96 31 97 30 98 33 99 34 100 35 101 36 103 37 104 38 105
REMARK SMILES IDX 41 106 39 107 40 108
REMARK H PARENT 98 28 66 39 26 92 35 102
REMARK Flexibility Score: inf
ROOT
ATOM      1  C   UNL A   1      39.649  21.291  25.920  1.00  0.00     0.188 C 
ENDROOT
BRANCH   1   2
ATOM      2  O   UNL A   1      40.670  22.155  26.408  1.00  0.00    -0.377 OA
BRANCH   2   3
ATOM      3  C   UNL A   1      42.009  21.863  26.010  1.00  0.00     0.188 C 
BRANCH   3   4
ATOM      4  C   UNL A   1      42.814  23.064  25.518  1.00  0.00     0.188 C 
BRANCH   4   5
ATOM      5  O   UNL A   1      43.100  23.937  26.608  1.00  0.00    -0.376 OA
BRANCH   5   6
ATOM      6  C   UNL A   1      43.236  25.319  26.288  1.00  0.00     0.202 C 
BRANCH   6   7
ATOM      7  C   UNL A   1      41.917  26.083  26.246  1.00  0.00     0.261 C 
BRANCH   7   8
ATOM      8  O   UNL A   1      40.925  25.505  27.103  1.00  0.00    -0.460 OA
BRANCH   8   9
ATOM      9  C   UNL A   1      40.103  26.157  27.963  1.00  0.00     0.338 C 
ATOM     10  O   UNL A   1      39.025  25.635  28.248  1.00  0.00    -0.246 OA
BRANCH   9  11
ATOM     11  C   UNL A   1      40.441  27.449  28.636  1.00  0.00     0.060 A 
ATOM     12  C   UNL A   1      39.843  28.686  28.387  1.00  0.00     0.016 A 
ATOM     13  C   UNL A   1      41.398  27.384  29.663  1.00  0.00     0.016 A 
ATOM     14  C   UNL A   1      40.219  29.833  29.068  1.00  0.00     0.010 A 
ATOM     15  C   UNL A   1      41.768  28.527  30.375  1.00  0.00     0.010 A 
ATOM     16  C   UNL A   1      41.197  29.761  30.049  1.00  0.00    -0.014 A 
BRANCH  16  17
ATOM     17  C   UNL A   1      41.741  31.025  30.565  1.00  0.00     0.031 A 
ATOM     18  C   UNL A   1      41.176  31.541  31.850  1.00  0.00     0.074 A 
ATOM     19  C   UNL A   1      42.798  31.601  29.969  1.00  0.00     0.049 A 
ATOM     20  N   UNL A   1      41.387  32.674  32.459  1.00  0.00    -0.248 NA
ATOM     21  C   UNL A   1      40.239  30.645  32.552  1.00  0.00     0.031 C 
ATOM     22  C   UNL A   1      43.503  31.065  28.803  1.00  0.00     0.029 A 
ATOM     23  N   UNL A   1      43.476  32.749  30.273  1.00  0.00    -0.354 N 
ATOM     24  C   UNL A   1      40.572  32.648  33.582  1.00  0.00     0.074 A 
ATOM     25  C   UNL A   1      39.865  31.389  33.578  1.00  0.00     0.031 C 
ATOM     26  C   UNL A   1      44.518  31.886  28.490  1.00  0.00     0.029 A 
ATOM     27  C   UNL A   1      44.477  33.040  29.381  1.00  0.00     0.049 A 
ATOM     28  H   UNL A   1      43.266  33.311  31.053  1.00  0.00     0.167 HD
ATOM     29  C   UNL A   1      40.425  33.612  34.518  1.00  0.00     0.037 A 
ATOM     30  C   UNL A   1      45.230  34.151  29.275  1.00  0.00     0.037 A 
ATOM     31  C   UNL A   1      41.163  34.845  34.483  1.00  0.00     0.049 A 
ATOM     32  C   UNL A   1      44.989  35.251  30.275  1.00  0.00     0.074 A 
ATOM     33  C   UNL A   1      41.082  35.932  35.328  1.00  0.00     0.029 A 
ATOM     34  N   UNL A   1      42.134  35.141  33.530  1.00  0.00    -0.354 N 
ATOM     35  N   UNL A   1      44.156  35.275  31.290  1.00  0.00    -0.248 NA
ATOM     36  C   UNL A   1      45.771  36.481  30.110  1.00  0.00     0.031 C 
ATOM     37  C   UNL A   1      41.966  36.909  34.853  1.00  0.00     0.029 A 
ATOM     38  C   UNL A   1      42.644  36.406  33.751  1.00  0.00     0.049 A 
ATOM     39  H   UNL A   1      42.415  34.537  32.805  1.00  0.00     0.167 HD
ATOM     40  C   UNL A   1      44.318  36.512  31.894  1.00  0.00     0.074 A 
ATOM     41  C   UNL A   1      45.348  37.203  31.139  1.00  0.00     0.031 C 
ATOM     42  C   UNL A   1      43.678  37.040  32.967  1.00  0.00     0.037 A 
BRANCH  29  43
ATOM     43  C   UNL A   1      39.371  33.390  35.563  1.00  0.00     0.064 A 
ATOM     44  C   UNL A   1      38.008  33.626  35.321  1.00  0.00     0.173 A 
ATOM     45  C   UNL A   1      39.746  33.004  36.859  1.00  0.00     0.173 A 
ATOM     46  F   UNL A   1      37.599  34.029  34.110  1.00  0.00    -0.203 F 
ATOM     47  C   UNL A   1      37.070  33.529  36.348  1.00  0.00     0.198 A 
ATOM     48  C   UNL A   1      38.801  32.877  37.875  1.00  0.00     0.198 A 
ATOM     49  F   UNL A   1      41.035  32.775  37.151  1.00  0.00    -0.203 F 
ATOM     50  F   UNL A   1      35.787  33.838  36.111  1.00  0.00    -0.200 F 
ATOM     51  C   UNL A   1      37.466  33.153  37.622  1.00  0.00     0.200 A 
ATOM     52  F   UNL A   1      39.187  32.511  39.105  1.00  0.00    -0.200 F 
ATOM     53  F   UNL A   1      36.566  33.076  38.611  1.00  0.00    -0.200 F 
ENDBRANCH  29  43
BRANCH  30  54
ATOM     54  C   UNL A   1      46.199  34.293  28.155  1.00  0.00     0.064 A 
ATOM     55  C   UNL A   1      47.572  34.091  28.342  1.00  0.00     0.173 A 
ATOM     56  C   UNL A   1      45.764  34.626  26.860  1.00  0.00     0.173 A 
ATOM     57  F   UNL A   1      48.045  33.794  29.561  1.00  0.00    -0.203 F 
ATOM     58  C   UNL A   1      48.472  34.225  27.284  1.00  0.00     0.198 A 
ATOM     59  C   UNL A   1      46.660  34.726  25.797  1.00  0.00     0.198 A 
ATOM     60  F   UNL A   1      44.461  34.835  26.621  1.00  0.00    -0.203 F 
ATOM     61  F   UNL A   1      49.785  34.066  27.501  1.00  0.00    -0.200 F 
ATOM     62  C   UNL A   1      48.015  34.533  26.011  1.00  0.00     0.200 A 
ATOM     63  F   UNL A   1      46.208  35.009  24.567  1.00  0.00    -0.200 F 
ATOM     64  F   UNL A   1      48.879  34.652  24.995  1.00  0.00    -0.200 F 
ENDBRANCH  30  54
BRANCH  42  65
ATOM     65  C   UNL A   1      44.101  38.411  33.398  1.00  0.00     0.064 A 
ATOM     66  C   UNL A   1      43.566  39.565  32.809  1.00  0.00     0.173 A 
ATOM     67  C   UNL A   1      45.006  38.565  34.459  1.00  0.00     0.173 A 
ATOM     68  F   UNL A   1      42.709  39.464  31.782  1.00  0.00    -0.203 F 
ATOM     69  C   UNL A   1      43.937  40.827  33.256  1.00  0.00     0.198 A 
ATOM     70  C   UNL A   1      45.349  39.829  34.925  1.00  0.00     0.198 A 
ATOM     71  F   UNL A   1      45.537  37.488  35.058  1.00  0.00    -0.203 F 
ATOM     72  F   UNL A   1      43.448  41.920  32.654  1.00  0.00    -0.200 F 
ATOM     73  C   UNL A   1      44.819  40.958  34.319  1.00  0.00     0.200 A 
ATOM     74  F   UNL A   1      46.187  39.954  35.962  1.00  0.00    -0.200 F 
ATOM     75  F   UNL A   1      45.163  42.176  34.759  1.00  0.00    -0.200 F 
ENDBRANCH  42  65
ENDBRANCH  16  17
ENDBRANCH   9  11
ENDBRANCH   8   9
ENDBRANCH   7   8
ENDBRANCH   6   7
ENDBRANCH   5   6
ENDBRANCH   4   5
ENDBRANCH   3   4
ENDBRANCH   2   3
ENDBRANCH   1   2
BRANCH   1  76
ATOM     76  C   UNL A   1      38.213  21.846  25.740  1.00  0.00     0.188 C 
BRANCH  76  77
ATOM     77  O   UNL A   1      37.329  21.022  24.993  1.00  0.00    -0.376 OA
BRANCH  77  78
ATOM     78  C   UNL A   1      36.068  21.611  24.684  1.00  0.00     0.202 C 
BRANCH  78  79
ATOM     79  C   UNL A   1      36.117  22.829  23.749  1.00  0.00     0.261 C 
BRANCH  79  80
ATOM     80  O   UNL A   1      34.892  23.586  23.683  1.00  0.00    -0.463 OA
BRANCH  80  81
ATOM     81  C   UNL A   1      34.517  24.264  24.797  1.00  0.00     0.310 C 
ATOM     82  O   UNL A   1      35.309  24.823  25.546  1.00  0.00    -0.252 OA
BRANCH  81  83
ATOM     83  C   UNL A   1      32.992  24.271  24.941  1.00  0.00     0.116 C 
ATOM     84  C   UNL A   1      32.440  23.080  24.140  1.00  0.00     0.043 C 
ATOM     85  C   UNL A   1      32.516  24.238  26.429  1.00  0.00     0.097 C 
ATOM     86  C   UNL A   1      32.422  21.799  24.927  1.00  0.00    -0.030 C 
ATOM     87  C   UNL A   1      32.991  22.932  27.085  1.00  0.00     0.041 C 
ATOM     88  C   UNL A   1      32.701  21.728  26.239  1.00  0.00    -0.030 C 
BRANCH  85  89
ATOM     89  C   UNL A   1      30.992  24.397  26.494  1.00  0.00     0.228 C 
ATOM     90  O   UNL A   1      30.254  23.462  26.818  1.00  0.00    -0.274 OA
ATOM     91  N   UNL A   1      30.378  25.580  26.206  1.00  0.00    -0.325 N 
ATOM     92  H   UNL A   1      29.470  25.662  26.577  1.00  0.00     0.169 HD
BRANCH  91  93
ATOM     93  C   UNL A   1      30.802  26.702  25.480  1.00  0.00     0.054 A 
ATOM     94  C   UNL A   1      30.648  26.538  24.087  1.00  0.00     0.027 A 
ATOM     95  C   UNL A   1      31.299  27.916  25.986  1.00  0.00     0.063 A 
ATOM     96  C   UNL A   1      30.796  27.605  23.206  1.00  0.00     0.002 A 
ATOM     97  C   UNL A   1      31.417  28.991  25.066  1.00  0.00     0.016 A 
ATOM     98  C   UNL A   1      31.144  28.849  23.703  1.00  0.00     0.001 A 
BRANCH  95  99
ATOM     99  C   UNL A   1      31.859  28.259  27.341  1.00  0.00     0.253 C 
ATOM    100  O   UNL A   1      31.258  27.831  28.333  1.00  0.00    -0.269 OA
ATOM    101  N   UNL A   1      32.910  29.096  27.620  1.00  0.00    -0.345 N 
ATOM    102  H   UNL A   1      32.926  29.424  28.548  1.00  0.00     0.164 HD
BRANCH 101 103
ATOM    103  C   UNL A   1      33.993  29.585  26.808  1.00  0.00     0.191 C 
BRANCH 103 104
ATOM    104  C   UNL A   1      35.050  30.311  27.539  1.00  0.00     0.122 A 
ATOM    105  C   UNL A   1      36.422  30.258  27.668  1.00  0.00     0.047 A 
ATOM    106  O   UNL A   1      34.555  31.310  28.332  1.00  0.00    -0.467 OA
ATOM    107  C   UNL A   1      36.770  31.265  28.608  1.00  0.00     0.042 A 
ATOM    108  C   UNL A   1      35.598  31.877  28.978  1.00  0.00     0.195 A 
ENDBRANCH 103 104
ENDBRANCH 101 103
ENDBRANCH  95  99
ENDBRANCH  91  93
ENDBRANCH  85  89
ENDBRANCH  81  83
ENDBRANCH  80  81
ENDBRANCH  79  80
ENDBRANCH  78  79
ENDBRANCH  77  78
ENDBRANCH  76  77
ENDBRANCH   1  76
TORSDOF 25
ENDMDL
MODEL 3
REMARK VINA RESULT:     -10.2      1.797      3.053
REMARK SMILES O=C(OCCOCCOCCOCCOC(=O)[C@H]1CC=CC[C@@H]1C(=O)Nc1ccccc1C(=O)NCc1ccco1)c1ccc(-c2c3nc(c(-c4c(F)c(F)c(F)c(F)c4F)c4ccc([nH]4)c(-c4c(F)c(F)c(F)c(F)c4F)c4nc(c(-c5c(F)c(F)c(F)c(F)c5F)c5ccc2[nH]5)C=C4)C=C3)cc1
REMARK SMILES IDX 10 1 9 2 8 3 7 4 6 5 5 6 4 7 3 8 2 9 1 10 42 11 43 12 104 13
REMARK SMILES IDX 44 14 103 15 45 16 46 17 47 18 97 19 48 20 102 21 96 22
REMARK SMILES IDX 98 23 49 24 101 25 95 26 94 27 50 29 82 30 62 31 81 32 63 33
REMARK SMILES IDX 66 34 80 35 99 36 64 37 65 38 79 40 100 41 67 42 51 43 52 44
REMARK SMILES IDX 60 45 53 46 54 47 58 48 61 49 55 50 56 51 59 52 57 53 83 54
REMARK SMILES IDX 84 55 92 56 85 57 86 58 90 59 93 60 87 61 88 62 91 63 89 64
REMARK SMILES IDX 68 65 69 66 77 67 70 68 71 69 75 70 78 71 72 72 73 73 76 74
REMARK SMILES IDX 74 75 11 76 12 77 13 78 14 79 15 80 16 81 17 82 18 83 19 84
REMARK SMILES IDX 23 85 20 86 22 87 21 88 24 89 25 90 26 91 27 93 28 94 32 95
REMARK SMILES IDX 29 96 31 97 30 98 33 99 34 100 35 101 36 103 37 104 38 105
REMARK SMILES IDX 41 106 39 107 40 108
REMARK H PARENT 98 28 66 39 26 92 35 102
REMARK Flexibility Score: inf
ROOT
ATOM      1  C   UNL A   1      35.962  30.132  30.157  1.00  0.00     0.188 C 
ENDROOT
BRANCH   1   2
ATOM      2  O   UNL A   1      35.978  31.412  30.780  1.00  0.00    -0.377 OA
BRANCH   2   3
ATOM      3  C   UNL A   1      34.965  32.336  30.386  1.00  0.00     0.188 C 
BRANCH   3   4
ATOM      4  C   UNL A   1      34.403  33.199  31.514  1.00  0.00     0.188 C 
BRANCH   4   5
ATOM      5  O   UNL A   1      34.939  34.517  31.432  1.00  0.00    -0.376 OA
BRANCH   5   6
ATOM      6  C   UNL A   1      34.925  35.277  32.637  1.00  0.00     0.202 C 
BRANCH   6   7
ATOM      7  C   UNL A   1      35.578  34.578  33.825  1.00  0.00     0.261 C 
BRANCH   7   8
ATOM      8  O   UNL A   1      36.902  34.119  33.527  1.00  0.00    -0.460 OA
BRANCH   8   9
ATOM      9  C   UNL A   1      37.469  32.947  33.906  1.00  0.00     0.338 C 
ATOM     10  O   UNL A   1      37.132  32.458  34.984  1.00  0.00    -0.246 OA
BRANCH   9  11
ATOM     11  C   UNL A   1      38.442  32.173  33.074  1.00  0.00     0.060 A 
ATOM     12  C   UNL A   1      39.116  31.014  33.464  1.00  0.00     0.016 A 
ATOM     13  C   UNL A   1      38.629  32.623  31.756  1.00  0.00     0.016 A 
ATOM     14  C   UNL A   1      39.998  30.359  32.620  1.00  0.00     0.010 A 
ATOM     15  C   UNL A   1      39.495  31.958  30.886  1.00  0.00     0.010 A 
ATOM     16  C   UNL A   1      40.206  30.840  31.335  1.00  0.00    -0.014 A 
BRANCH  16  17
ATOM     17  C   UNL A   1      41.324  30.275  30.566  1.00  0.00     0.031 A 
ATOM     18  C   UNL A   1      42.597  31.060  30.529  1.00  0.00     0.074 A 
ATOM     19  C   UNL A   1      41.232  29.040  30.047  1.00  0.00     0.049 A 
ATOM     20  N   UNL A   1      43.683  30.854  29.839  1.00  0.00    -0.248 NA
ATOM     21  C   UNL A   1      42.651  32.247  31.402  1.00  0.00     0.031 C 
ATOM     22  C   UNL A   1      40.076  28.151  30.185  1.00  0.00     0.029 A 
ATOM     23  N   UNL A   1      42.132  28.310  29.320  1.00  0.00    -0.354 N 
ATOM     24  C   UNL A   1      44.526  31.912  30.153  1.00  0.00     0.074 A 
ATOM     25  C   UNL A   1      43.832  32.755  31.098  1.00  0.00     0.031 C 
ATOM     26  C   UNL A   1      40.339  26.993  29.561  1.00  0.00     0.029 A 
ATOM     27  C   UNL A   1      41.642  27.094  28.914  1.00  0.00     0.049 A 
ATOM     28  H   UNL A   1      43.040  28.625  29.110  1.00  0.00     0.167 HD
ATOM     29  C   UNL A   1      45.765  32.151  29.669  1.00  0.00     0.037 A 
ATOM     30  C   UNL A   1      42.178  26.199  28.064  1.00  0.00     0.037 A 
ATOM     31  C   UNL A   1      46.417  31.271  28.739  1.00  0.00     0.049 A 
ATOM     32  C   UNL A   1      43.522  26.527  27.467  1.00  0.00     0.074 A 
ATOM     33  C   UNL A   1      47.643  31.410  28.122  1.00  0.00     0.029 A 
ATOM     34  N   UNL A   1      45.871  30.070  28.295  1.00  0.00    -0.354 N 
ATOM     35  N   UNL A   1      44.291  27.569  27.687  1.00  0.00    -0.248 NA
ATOM     36  C   UNL A   1      44.065  25.574  26.494  1.00  0.00     0.031 C 
ATOM     37  C   UNL A   1      47.816  30.317  27.264  1.00  0.00     0.029 A 
ATOM     38  C   UNL A   1      46.727  29.466  27.393  1.00  0.00     0.049 A 
ATOM     39  H   UNL A   1      45.003  29.704  28.582  1.00  0.00     0.167 HD
ATOM     40  C   UNL A   1      45.413  27.395  26.892  1.00  0.00     0.074 A 
ATOM     41  C   UNL A   1      45.231  26.132  26.199  1.00  0.00     0.031 C 
ATOM     42  C   UNL A   1      46.495  28.200  26.738  1.00  0.00     0.037 A 
BRANCH  29  43
ATOM     43  C   UNL A   1      46.412  33.445  30.068  1.00  0.00     0.064 A 
ATOM     44  C   UNL A   1      46.105  34.665  29.445  1.00  0.00     0.173 A 
ATOM     45  C   UNL A   1      47.418  33.449  31.046  1.00  0.00     0.173 A 
ATOM     46  F   UNL A   1      45.175  34.713  28.479  1.00  0.00    -0.203 F 
ATOM     47  C   UNL A   1      46.811  35.827  29.753  1.00  0.00     0.198 A 
ATOM     48  C   UNL A   1      48.100  34.618  31.375  1.00  0.00     0.198 A 
ATOM     49  F   UNL A   1      47.761  32.310  31.668  1.00  0.00    -0.203 F 
ATOM     50  F   UNL A   1      46.555  36.961  29.086  1.00  0.00    -0.200 F 
ATOM     51  C   UNL A   1      47.806  35.802  30.718  1.00  0.00     0.200 A 
ATOM     52  F   UNL A   1      49.059  34.591  32.310  1.00  0.00    -0.200 F 
ATOM     53  F   UNL A   1      48.495  36.916  31.002  1.00  0.00    -0.200 F 
ENDBRANCH  29  43
BRANCH  30  54
ATOM     54  C   UNL A   1      41.416  24.979  27.684  1.00  0.00     0.064 A 
ATOM     55  C   UNL A   1      41.718  23.725  28.231  1.00  0.00     0.173 A 
ATOM     56  C   UNL A   1      40.352  25.046  26.767  1.00  0.00     0.173 A 
ATOM     57  F   UNL A   1      42.737  23.598  29.093  1.00  0.00    -0.203 F 
ATOM     58  C   UNL A   1      40.994  22.587  27.869  1.00  0.00     0.198 A 
ATOM     59  C   UNL A   1      39.610  23.916  26.433  1.00  0.00     0.198 A 
ATOM     60  F   UNL A   1      40.020  26.220  26.209  1.00  0.00    -0.203 F 
ATOM     61  F   UNL A   1      41.332  21.394  28.377  1.00  0.00    -0.200 F 
ATOM     62  C   UNL A   1      39.936  22.685  26.978  1.00  0.00     0.200 A 
ATOM     63  F   UNL A   1      38.579  24.022  25.583  1.00  0.00    -0.200 F 
ATOM     64  F   UNL A   1      39.237  21.594  26.640  1.00  0.00    -0.200 F 
ENDBRANCH  30  54
BRANCH  42  65
ATOM     65  C   UNL A   1      47.568  27.716  25.812  1.00  0.00     0.064 A 
ATOM     66  C   UNL A   1      48.672  26.992  26.282  1.00  0.00     0.173 A 
ATOM     67  C   UNL A   1      47.451  27.926  24.430  1.00  0.00     0.173 A 
ATOM     68  F   UNL A   1      48.832  26.780  27.597  1.00  0.00    -0.203 F 
ATOM     69  C   UNL A   1      49.633  26.510  25.400  1.00  0.00     0.198 A 
ATOM     70  C   UNL A   1      48.396  27.415  23.548  1.00  0.00     0.198 A 
ATOM     71  F   UNL A   1      46.406  28.607  23.935  1.00  0.00    -0.203 F 
ATOM     72  F   UNL A   1      50.704  25.856  25.871  1.00  0.00    -0.200 F 
ATOM     73  C   UNL A   1      49.489  26.713  24.035  1.00  0.00     0.200 A 
ATOM     74  F   UNL A   1      48.247  27.596  22.230  1.00  0.00    -0.200 F 
ATOM     75  F   UNL A   1      50.408  26.234  23.185  1.00  0.00    -0.200 F 
ENDBRANCH  42  65
ENDBRANCH  16  17
ENDBRANCH   9  11
ENDBRANCH   8   9
ENDBRANCH   7   8
ENDBRANCH   6   7
ENDBRANCH   5   6
ENDBRANCH   4   5
ENDBRANCH   3   4
ENDBRANCH   2   3
ENDBRANCH   1   2
BRANCH   1  76
ATOM     76  C   UNL A   1      36.703  29.939  28.809  1.00  0.00     0.188 C 
BRANCH  76  77
ATOM     77  O   UNL A   1      35.946  30.245  27.647  1.00  0.00    -0.376 OA
BRANCH  77  78
ATOM     78  C   UNL A   1      35.051  29.219  27.220  1.00  0.00     0.202 C 
BRANCH  78  79
ATOM     79  C   UNL A   1      33.557  29.563  27.315  1.00  0.00     0.261 C 
BRANCH  79  80
ATOM     80  O   UNL A   1      32.690  28.678  26.576  1.00  0.00    -0.463 OA
BRANCH  80  81
ATOM     81  C   UNL A   1      31.802  29.245  25.722  1.00  0.00     0.310 C 
ATOM     82  O   UNL A   1      31.534  30.441  25.721  1.00  0.00    -0.252 OA
BRANCH  81  83
ATOM     83  C   UNL A   1      31.243  28.203  24.749  1.00  0.00     0.116 C 
ATOM     84  C   UNL A   1      30.970  28.911  23.410  1.00  0.00     0.043 C 
ATOM     85  C   UNL A   1      32.181  26.966  24.568  1.00  0.00     0.097 C 
ATOM     86  C   UNL A   1      32.180  28.970  22.519  1.00  0.00    -0.030 C 
ATOM     87  C   UNL A   1      33.518  27.427  23.965  1.00  0.00     0.041 C 
ATOM     88  C   UNL A   1      33.331  28.332  22.784  1.00  0.00    -0.030 C 
BRANCH  85  89
ATOM     89  C   UNL A   1      31.490  25.908  23.700  1.00  0.00     0.228 C 
ATOM     90  O   UNL A   1      30.361  26.084  23.234  1.00  0.00    -0.274 OA
ATOM     91  N   UNL A   1      32.092  24.723  23.393  1.00  0.00    -0.325 N 
ATOM     92  H   UNL A   1      31.717  24.275  22.601  1.00  0.00     0.169 HD
BRANCH  91  93
ATOM     93  C   UNL A   1      33.148  24.026  23.997  1.00  0.00     0.054 A 
ATOM     94  C   UNL A   1      34.413  24.445  23.530  1.00  0.00     0.027 A 
ATOM     95  C   UNL A   1      33.067  23.038  24.992  1.00  0.00     0.063 A 
ATOM     96  C   UNL A   1      35.590  24.044  24.155  1.00  0.00     0.002 A 
ATOM     97  C   UNL A   1      34.283  22.668  25.626  1.00  0.00     0.016 A 
ATOM     98  C   UNL A   1      35.522  23.181  25.236  1.00  0.00     0.001 A 
BRANCH  95  99
ATOM     99  C   UNL A   1      31.908  22.188  25.440  1.00  0.00     0.253 C 
ATOM    100  O   UNL A   1      30.807  22.737  25.554  1.00  0.00    -0.269 OA
ATOM    101  N   UNL A   1      31.945  20.879  25.851  1.00  0.00    -0.345 N 
ATOM    102  H   UNL A   1      31.162  20.603  26.381  1.00  0.00     0.164 HD
BRANCH 101 103
ATOM    103  C   UNL A   1      32.916  19.835  25.654  1.00  0.00     0.191 C 
BRANCH 103 104
ATOM    104  C   UNL A   1      32.806  19.107  24.375  1.00  0.00     0.122 A 
ATOM    105  C   UNL A   1      32.333  19.346  23.102  1.00  0.00     0.047 A 
ATOM    106  O   UNL A   1      33.284  17.827  24.452  1.00  0.00    -0.467 OA
ATOM    107  C   UNL A   1      32.515  18.136  22.378  1.00  0.00     0.042 A 
ATOM    108  C   UNL A   1      33.099  17.246  23.246  1.00  0.00     0.195 A 
ENDBRANCH 103 104
ENDBRANCH 101 103
ENDBRANCH  95  99
ENDBRANCH  91  93
ENDBRANCH  85  89
ENDBRANCH  81  83
ENDBRANCH  80  81
ENDBRANCH  79  80
ENDBRANCH  78  79
ENDBRANCH  77  78
ENDBRANCH  76  77
ENDBRANCH   1  76
TORSDOF 25
ENDMDL
