MODEL 1
REMARK VINA RESULT:      -9.2      0.000      0.000
REMARK SMILES CC(C)CN(C)c1cc2c(cc1Cl)C=C(C(=O)OCCOCCOCCOCCOC(=O)c1ccc(-c3c4nc(c(-c5c(F)c(F)c(F)c(F)c5F)c5ccc([nH]5)c(-c5c(F)c(F)c(F)c(F)c5F)c5nc(c(-c6c(F)c(F)c(F)c(F)c6F)c6ccc3[nH]6)C=C5)C=C4)cc1)[C@@H](C(F)(F)F)O2
REMARK SMILES IDX 23 1 22 2 21 3 20 4 19 5 18 6 16 7 17 8 15 9 7 10 8 11 12 12
REMARK SMILES IDX 9 13 11 14 13 15 10 16 101 17 14 18 96 19 5 20 6 21 4 22
REMARK SMILES IDX 2 23 1 24 3 25 97 26 98 27 99 28 100 29 24 30 25 31 26 32
REMARK SMILES IDX 27 33 28 34 29 35 30 36 31 37 32 38 33 39 34 40 95 41 35 42
REMARK SMILES IDX 94 43 36 44 37 45 38 46 88 47 39 48 93 49 87 50 89 51 40 52
REMARK SMILES IDX 92 53 86 54 85 55 41 57 73 58 53 59 72 60 54 61 57 62 71 63
REMARK SMILES IDX 90 64 55 65 56 66 70 68 91 69 58 70 42 71 43 72 51 73 44 74
REMARK SMILES IDX 45 75 49 76 52 77 46 78 47 79 50 80 48 81 74 82 75 83 83 84
REMARK SMILES IDX 76 85 77 86 81 87 84 88 78 89 79 90 82 91 80 92 59 93 60 94
REMARK SMILES IDX 68 95 61 96 62 97 66 98 69 99 63 100 64 101 67 102 65 103
REMARK H PARENT 89 56 57 67
REMARK Flexibility Score: inf
ROOT
ATOM      1  C   UNL A   1      41.239  24.673  27.240  1.00  0.00     0.188 C 
ENDROOT
BRANCH   1   2
ATOM      2  C   UNL A   1      39.933  24.347  26.492  1.00  0.00     0.188 C 
BRANCH   2   3
ATOM      3  O   UNL A   1      39.330  23.136  26.934  1.00  0.00    -0.376 OA
BRANCH   3   4
ATOM      4  C   UNL A   1      39.485  21.979  26.126  1.00  0.00     0.202 C 
BRANCH   4   5
ATOM      5  C   UNL A   1      38.250  21.433  25.386  1.00  0.00     0.261 C 
BRANCH   5   6
ATOM      6  O   UNL A   1      37.010  22.094  25.677  1.00  0.00    -0.460 OA
BRANCH   6   7
ATOM      7  C   UNL A   1      35.893  21.506  25.214  1.00  0.00     0.338 C 
ATOM      8  O   UNL A   1      35.750  20.317  24.984  1.00  0.00    -0.246 OA
BRANCH   7   9
ATOM      9  C   UNL A   1      34.800  22.500  25.181  1.00  0.00     0.087 C 
ATOM     10  C   UNL A   1      32.085  26.686  24.465  1.00  0.00     0.059 A 
ATOM     11  C   UNL A   1      31.810  25.425  25.034  1.00  0.00     0.074 A 
ATOM     12  C   UNL A   1      33.377  26.888  23.932  1.00  0.00     0.065 A 
ATOM     13  C   UNL A   1      32.776  24.408  25.050  1.00  0.00     0.130 A 
ATOM     14  C   UNL A   1      34.297  25.843  23.853  1.00  0.00     0.034 A 
ATOM     15  Cl  UNL A   1      33.944  28.440  23.419  1.00  0.00    -0.082 Cl
ATOM     16  C   UNL A   1      34.001  24.607  24.418  1.00  0.00     0.019 A 
ATOM     17  O   UNL A   1      32.462  23.238  25.691  1.00  0.00    -0.475 OA
ATOM     18  C   UNL A   1      34.998  23.558  24.389  1.00  0.00     0.027 C 
ATOM     19  C   UNL A   1      33.552  22.312  26.006  1.00  0.00     0.316 C 
BRANCH  10  20
ATOM     20  N   UNL A   1      31.121  27.700  24.446  1.00  0.00    -0.373 N 
ATOM     21  C   UNL A   1      30.309  27.784  23.238  1.00  0.00     0.143 C 
BRANCH  20  22
ATOM     22  C   UNL A   1      31.387  28.951  25.186  1.00  0.00     0.119 C 
BRANCH  22  23
ATOM     23  C   UNL A   1      32.243  28.727  26.453  1.00  0.00     0.002 C 
ATOM     24  C   UNL A   1      32.965  30.005  26.895  1.00  0.00     0.009 C 
ATOM     25  C   UNL A   1      31.404  28.210  27.626  1.00  0.00     0.009 C 
ENDBRANCH  22  23
ENDBRANCH  20  22
ENDBRANCH  10  20
BRANCH  19  26
ATOM     26  C   UNL A   1      33.880  22.354  27.505  1.00  0.00     0.430 C 
ATOM     27  F   UNL A   1      32.775  22.585  28.252  1.00  0.00    -0.167 F 
ATOM     28  F   UNL A   1      34.398  21.176  27.930  1.00  0.00    -0.167 F 
ATOM     29  F   UNL A   1      34.781  23.318  27.801  1.00  0.00    -0.167 F 
ENDBRANCH  19  26
ENDBRANCH   7   9
ENDBRANCH   6   7
ENDBRANCH   5   6
ENDBRANCH   4   5
ENDBRANCH   3   4
ENDBRANCH   2   3
ENDBRANCH   1   2
BRANCH   1  30
ATOM     30  O   UNL A   1      41.885  25.847  26.771  1.00  0.00    -0.377 OA
BRANCH  30  31
ATOM     31  C   UNL A   1      42.770  25.733  25.655  1.00  0.00     0.188 C 
BRANCH  31  32
ATOM     32  C   UNL A   1      43.895  26.756  25.366  1.00  0.00     0.188 C 
BRANCH  32  33
ATOM     33  O   UNL A   1      45.187  26.180  25.214  1.00  0.00    -0.376 OA
BRANCH  33  34
ATOM     34  C   UNL A   1      45.253  24.779  25.001  1.00  0.00     0.202 C 
BRANCH  34  35
ATOM     35  C   UNL A   1      46.406  24.083  25.733  1.00  0.00     0.261 C 
BRANCH  35  36
ATOM     36  O   UNL A   1      46.275  24.018  27.162  1.00  0.00    -0.460 OA
BRANCH  36  37
ATOM     37  C   UNL A   1      45.093  23.603  27.668  1.00  0.00     0.338 C 
ATOM     38  O   UNL A   1      44.494  22.578  27.403  1.00  0.00    -0.246 OA
BRANCH  37  39
ATOM     39  C   UNL A   1      44.737  24.532  28.764  1.00  0.00     0.060 A 
ATOM     40  C   UNL A   1      45.067  25.885  28.670  1.00  0.00     0.016 A 
ATOM     41  C   UNL A   1      44.105  24.033  29.910  1.00  0.00     0.016 A 
ATOM     42  C   UNL A   1      44.733  26.749  29.713  1.00  0.00     0.010 A 
ATOM     43  C   UNL A   1      43.774  24.900  30.957  1.00  0.00     0.010 A 
ATOM     44  C   UNL A   1      44.061  26.269  30.851  1.00  0.00    -0.014 A 
BRANCH  44  45
ATOM     45  C   UNL A   1      43.497  27.237  31.824  1.00  0.00     0.031 A 
ATOM     46  C   UNL A   1      44.116  27.479  33.165  1.00  0.00     0.074 A 
ATOM     47  C   UNL A   1      42.401  27.924  31.448  1.00  0.00     0.049 A 
ATOM     48  N   UNL A   1      43.782  28.364  34.073  1.00  0.00    -0.248 NA
ATOM     49  C   UNL A   1      45.252  26.628  33.545  1.00  0.00     0.031 C 
ATOM     50  C   UNL A   1      41.704  27.751  30.171  1.00  0.00     0.029 A 
ATOM     51  N   UNL A   1      41.690  28.909  32.085  1.00  0.00    -0.354 N 
ATOM     52  C   UNL A   1      44.681  28.199  35.116  1.00  0.00     0.074 A 
ATOM     53  C   UNL A   1      45.547  27.094  34.754  1.00  0.00     0.031 C 
ATOM     54  C   UNL A   1      40.688  28.624  30.104  1.00  0.00     0.029 A 
ATOM     55  C   UNL A   1      40.644  29.398  31.341  1.00  0.00     0.049 A 
ATOM     56  H   UNL A   1      41.908  29.234  32.988  1.00  0.00     0.167 HD
ATOM     57  C   UNL A   1      44.783  28.924  36.257  1.00  0.00     0.037 A 
ATOM     58  C   UNL A   1      39.753  30.367  31.620  1.00  0.00     0.037 A 
ATOM     59  C   UNL A   1      43.908  30.013  36.616  1.00  0.00     0.049 A 
ATOM     60  C   UNL A   1      39.858  31.106  32.925  1.00  0.00     0.074 A 
ATOM     61  C   UNL A   1      43.952  30.815  37.746  1.00  0.00     0.029 A 
ATOM     62  N   UNL A   1      42.831  30.449  35.862  1.00  0.00    -0.354 N 
ATOM     63  N   UNL A   1      40.758  30.989  33.871  1.00  0.00    -0.248 NA
ATOM     64  C   UNL A   1      38.826  32.115  33.201  1.00  0.00     0.031 C 
ATOM     65  C   UNL A   1      42.875  31.705  37.695  1.00  0.00     0.029 A 
ATOM     66  C   UNL A   1      42.189  31.493  36.512  1.00  0.00     0.049 A 
ATOM     67  H   UNL A   1      42.560  30.075  34.992  1.00  0.00     0.167 HD
ATOM     68  C   UNL A   1      40.420  31.928  34.835  1.00  0.00     0.074 A 
ATOM     69  C   UNL A   1      39.243  32.620  34.352  1.00  0.00     0.031 C 
ATOM     70  C   UNL A   1      41.028  32.187  36.017  1.00  0.00     0.037 A 
BRANCH  57  71
ATOM     71  C   UNL A   1      45.900  28.603  37.208  1.00  0.00     0.064 A 
ATOM     72  C   UNL A   1      45.739  27.628  38.203  1.00  0.00     0.173 A 
ATOM     73  C   UNL A   1      47.176  29.159  37.033  1.00  0.00     0.173 A 
ATOM     74  F   UNL A   1      44.539  27.065  38.410  1.00  0.00    -0.203 F 
ATOM     75  C   UNL A   1      46.817  27.217  38.985  1.00  0.00     0.198 A 
ATOM     76  C   UNL A   1      48.257  28.730  37.799  1.00  0.00     0.198 A 
ATOM     77  F   UNL A   1      47.385  30.085  36.085  1.00  0.00    -0.203 F 
ATOM     78  F   UNL A   1      46.640  26.285  39.931  1.00  0.00    -0.200 F 
ATOM     79  C   UNL A   1      48.076  27.758  38.773  1.00  0.00     0.200 A 
ATOM     80  F   UNL A   1      49.477  29.239  37.581  1.00  0.00    -0.200 F 
ATOM     81  F   UNL A   1      49.119  27.337  39.502  1.00  0.00    -0.200 F 
ENDBRANCH  57  71
BRANCH  58  82
ATOM     82  C   UNL A   1      38.702  30.719  30.631  1.00  0.00     0.064 A 
ATOM     83  C   UNL A   1      38.771  31.918  29.909  1.00  0.00     0.173 A 
ATOM     84  C   UNL A   1      37.605  29.878  30.397  1.00  0.00     0.173 A 
ATOM     85  F   UNL A   1      39.793  32.765  30.111  1.00  0.00    -0.203 F 
ATOM     86  C   UNL A   1      37.768  32.276  29.011  1.00  0.00     0.198 A 
ATOM     87  C   UNL A   1      36.619  30.221  29.475  1.00  0.00     0.198 A 
ATOM     88  F   UNL A   1      37.495  28.716  31.058  1.00  0.00    -0.203 F 
ATOM     89  F   UNL A   1      37.831  33.453  28.374  1.00  0.00    -0.200 F 
ATOM     90  C   UNL A   1      36.696  31.425  28.791  1.00  0.00     0.200 A 
ATOM     91  F   UNL A   1      35.593  29.388  29.254  1.00  0.00    -0.200 F 
ATOM     92  F   UNL A   1      35.731  31.770  27.927  1.00  0.00    -0.200 F 
ENDBRANCH  58  82
BRANCH  70  93
ATOM     93  C   UNL A   1      40.452  33.281  36.869  1.00  0.00     0.064 A 
ATOM     94  C   UNL A   1      40.971  34.583  36.840  1.00  0.00     0.173 A 
ATOM     95  C   UNL A   1      39.329  33.040  37.676  1.00  0.00     0.173 A 
ATOM     96  F   UNL A   1      42.054  34.862  36.098  1.00  0.00    -0.203 F 
ATOM     97  C   UNL A   1      40.399  35.600  37.599  1.00  0.00     0.198 A 
ATOM     98  C   UNL A   1      38.739  34.066  38.409  1.00  0.00     0.198 A 
ATOM     99  F   UNL A   1      38.789  31.813  37.734  1.00  0.00    -0.203 F 
ATOM    100  F   UNL A   1      40.936  36.828  37.586  1.00  0.00    -0.200 F 
ATOM    101  C   UNL A   1      39.278  35.343  38.375  1.00  0.00     0.200 A 
ATOM    102  F   UNL A   1      37.647  33.819  39.145  1.00  0.00    -0.200 F 
ATOM    103  F   UNL A   1      38.718  36.327  39.091  1.00  0.00    -0.200 F 
ENDBRANCH  70  93
ENDBRANCH  44  45
ENDBRANCH  37  39
ENDBRANCH  36  37
ENDBRANCH  35  36
ENDBRANCH  34  35
ENDBRANCH  33  34
ENDBRANCH  32  33
ENDBRANCH  31  32
ENDBRANCH  30  31
ENDBRANCH   1  30
TORSDOF 24
ENDMDL
MODEL 2
REMARK VINA RESULT:      -9.0      5.873     10.349
REMARK SMILES CC(C)CN(C)c1cc2c(cc1Cl)C=C(C(=O)OCCOCCOCCOCCOC(=O)c1ccc(-c3c4nc(c(-c5c(F)c(F)c(F)c(F)c5F)c5ccc([nH]5)c(-c5c(F)c(F)c(F)c(F)c5F)c5nc(c(-c6c(F)c(F)c(F)c(F)c6F)c6ccc3[nH]6)C=C5)C=C4)cc1)[C@@H](C(F)(F)F)O2
REMARK SMILES IDX 23 1 22 2 21 3 20 4 19 5 18 6 16 7 17 8 15 9 7 10 8 11 12 12
REMARK SMILES IDX 9 13 11 14 13 15 10 16 101 17 14 18 96 19 5 20 6 21 4 22
REMARK SMILES IDX 2 23 1 24 3 25 97 26 98 27 99 28 100 29 24 30 25 31 26 32
REMARK SMILES IDX 27 33 28 34 29 35 30 36 31 37 32 38 33 39 34 40 95 41 35 42
REMARK SMILES IDX 94 43 36 44 37 45 38 46 88 47 39 48 93 49 87 50 89 51 40 52
REMARK SMILES IDX 92 53 86 54 85 55 41 57 73 58 53 59 72 60 54 61 57 62 71 63
REMARK SMILES IDX 90 64 55 65 56 66 70 68 91 69 58 70 42 71 43 72 51 73 44 74
REMARK SMILES IDX 45 75 49 76 52 77 46 78 47 79 50 80 48 81 74 82 75 83 83 84
REMARK SMILES IDX 76 85 77 86 81 87 84 88 78 89 79 90 82 91 80 92 59 93 60 94
REMARK SMILES IDX 68 95 61 96 62 97 66 98 69 99 63 100 64 101 67 102 65 103
REMARK H PARENT 89 56 57 67
REMARK Flexibility Score: inf
ROOT
ATOM      1  C   UNL A   1      34.523  30.813  27.623  1.00  0.00     0.188 C 
ENDROOT
BRANCH   1   2
ATOM      2  C   UNL A   1      33.863  29.503  27.156  1.00  0.00     0.188 C 
BRANCH   2   3
ATOM      3  O   UNL A   1      33.111  29.659  25.958  1.00  0.00    -0.376 OA
BRANCH   3   4
ATOM      4  C   UNL A   1      33.784  29.488  24.720  1.00  0.00     0.202 C 
BRANCH   4   5
ATOM      5  C   UNL A   1      33.089  28.667  23.617  1.00  0.00     0.261 C 
BRANCH   5   6
ATOM      6  O   UNL A   1      31.655  28.726  23.610  1.00  0.00    -0.460 OA
BRANCH   6   7
ATOM      7  C   UNL A   1      31.015  27.690  23.042  1.00  0.00     0.338 C 
ATOM      8  O   UNL A   1      30.200  27.757  22.137  1.00  0.00    -0.246 OA
BRANCH   7   9
ATOM      9  C   UNL A   1      31.571  26.427  23.572  1.00  0.00     0.087 C 
ATOM     10  C   UNL A   1      32.985  21.622  24.137  1.00  0.00     0.059 A 
ATOM     11  C   UNL A   1      33.082  22.774  24.946  1.00  0.00     0.074 A 
ATOM     12  C   UNL A   1      32.398  21.774  22.862  1.00  0.00     0.065 A 
ATOM     13  C   UNL A   1      32.632  24.023  24.491  1.00  0.00     0.130 A 
ATOM     14  C   UNL A   1      32.051  23.032  22.372  1.00  0.00     0.034 A 
ATOM     15  Cl  UNL A   1      31.992  20.427  21.854  1.00  0.00    -0.082 Cl
ATOM     16  C   UNL A   1      32.160  24.154  23.187  1.00  0.00     0.019 A 
ATOM     17  O   UNL A   1      32.687  25.078  25.363  1.00  0.00    -0.475 OA
ATOM     18  C   UNL A   1      31.725  25.440  22.684  1.00  0.00     0.027 C 
ATOM     19  C   UNL A   1      31.926  26.285  25.031  1.00  0.00     0.316 C 
BRANCH  10  20
ATOM     20  N   UNL A   1      33.437  20.377  24.589  1.00  0.00    -0.373 N 
ATOM     21  C   UNL A   1      32.427  19.328  24.678  1.00  0.00     0.143 C 
BRANCH  20  22
ATOM     22  C   UNL A   1      34.565  20.331  25.541  1.00  0.00     0.119 C 
BRANCH  22  23
ATOM     23  C   UNL A   1      35.924  20.647  24.877  1.00  0.00     0.002 C 
ATOM     24  C   UNL A   1      36.696  21.736  25.632  1.00  0.00     0.009 C 
ATOM     25  C   UNL A   1      36.812  19.403  24.772  1.00  0.00     0.009 C 
ENDBRANCH  22  23
ENDBRANCH  20  22
ENDBRANCH  10  20
BRANCH  19  26
ATOM     26  C   UNL A   1      30.671  26.390  25.908  1.00  0.00     0.430 C 
ATOM     27  F   UNL A   1      29.552  26.544  25.164  1.00  0.00    -0.167 F 
ATOM     28  F   UNL A   1      30.494  25.271  26.652  1.00  0.00    -0.167 F 
ATOM     29  F   UNL A   1      30.738  27.433  26.766  1.00  0.00    -0.167 F 
ENDBRANCH  19  26
ENDBRANCH   7   9
ENDBRANCH   6   7
ENDBRANCH   5   6
ENDBRANCH   4   5
ENDBRANCH   3   4
ENDBRANCH   2   3
ENDBRANCH   1   2
BRANCH   1  30
ATOM     30  O   UNL A   1      33.598  31.867  27.845  1.00  0.00    -0.377 OA
BRANCH  30  31
ATOM     31  C   UNL A   1      34.110  33.154  28.198  1.00  0.00     0.188 C 
BRANCH  31  32
ATOM     32  C   UNL A   1      33.218  34.290  28.754  1.00  0.00     0.188 C 
BRANCH  32  33
ATOM     33  O   UNL A   1      33.389  34.544  30.143  1.00  0.00    -0.376 OA
BRANCH  33  34
ATOM     34  C   UNL A   1      34.718  34.657  30.625  1.00  0.00     0.202 C 
BRANCH  34  35
ATOM     35  C   UNL A   1      34.863  34.438  32.135  1.00  0.00     0.261 C 
BRANCH  35  36
ATOM     36  O   UNL A   1      36.004  33.664  32.536  1.00  0.00    -0.460 OA
BRANCH  36  37
ATOM     37  C   UNL A   1      36.011  32.347  32.235  1.00  0.00     0.338 C 
ATOM     38  O   UNL A   1      35.074  31.573  32.286  1.00  0.00    -0.246 OA
BRANCH  37  39
ATOM     39  C   UNL A   1      37.330  32.042  31.639  1.00  0.00     0.060 A 
ATOM     40  C   UNL A   1      38.356  31.525  32.434  1.00  0.00     0.016 A 
ATOM     41  C   UNL A   1      37.552  32.314  30.283  1.00  0.00     0.016 A 
ATOM     42  C   UNL A   1      39.597  31.248  31.862  1.00  0.00     0.010 A 
ATOM     43  C   UNL A   1      38.799  32.040  29.712  1.00  0.00     0.010 A 
ATOM     44  C   UNL A   1      39.821  31.478  30.492  1.00  0.00    -0.014 A 
BRANCH  44  45
ATOM     45  C   UNL A   1      41.052  30.948  29.858  1.00  0.00     0.031 A 
ATOM     46  C   UNL A   1      42.311  31.750  29.756  1.00  0.00     0.074 A 
ATOM     47  C   UNL A   1      41.010  29.686  29.387  1.00  0.00     0.049 A 
ATOM     48  N   UNL A   1      43.486  31.376  29.312  1.00  0.00    -0.248 NA
ATOM     49  C   UNL A   1      42.256  33.148  30.204  1.00  0.00     0.031 C 
ATOM     50  C   UNL A   1      39.828  28.822  29.416  1.00  0.00     0.029 A 
ATOM     51  N   UNL A   1      41.979  28.905  28.809  1.00  0.00    -0.354 N 
ATOM     52  C   UNL A   1      44.318  32.477  29.455  1.00  0.00     0.074 A 
ATOM     53  C   UNL A   1      43.502  33.553  29.980  1.00  0.00     0.031 C 
ATOM     54  C   UNL A   1      40.150  27.621  28.913  1.00  0.00     0.029 A 
ATOM     55  C   UNL A   1      41.550  27.638  28.501  1.00  0.00     0.049 A 
ATOM     56  H   UNL A   1      42.894  29.223  28.633  1.00  0.00     0.167 HD
ATOM     57  C   UNL A   1      45.645  32.565  29.193  1.00  0.00     0.037 A 
ATOM     58  C   UNL A   1      42.211  26.601  27.953  1.00  0.00     0.037 A 
ATOM     59  C   UNL A   1      46.447  31.492  28.657  1.00  0.00     0.049 A 
ATOM     60  C   UNL A   1      43.668  26.758  27.616  1.00  0.00     0.074 A 
ATOM     61  C   UNL A   1      47.804  31.489  28.379  1.00  0.00     0.029 A 
ATOM     62  N   UNL A   1      45.968  30.238  28.312  1.00  0.00    -0.354 N 
ATOM     63  N   UNL A   1      44.460  27.781  27.824  1.00  0.00    -0.248 NA
ATOM     64  C   UNL A   1      44.325  25.613  26.971  1.00  0.00     0.031 C 
ATOM     65  C   UNL A   1      48.137  30.250  27.824  1.00  0.00     0.029 A 
ATOM     66  C   UNL A   1      46.999  29.462  27.802  1.00  0.00     0.049 A 
ATOM     67  H   UNL A   1      45.036  29.940  28.414  1.00  0.00     0.167 HD
ATOM     68  C   UNL A   1      45.710  27.394  27.366  1.00  0.00     0.074 A 
ATOM     69  C   UNL A   1      45.578  26.034  26.886  1.00  0.00     0.031 C 
ATOM     70  C   UNL A   1      46.863  28.104  27.341  1.00  0.00     0.037 A 
BRANCH  57  71
ATOM     71  C   UNL A   1      46.350  33.853  29.507  1.00  0.00     0.064 A 
ATOM     72  C   UNL A   1      46.980  34.044  30.746  1.00  0.00     0.173 A 
ATOM     73  C   UNL A   1      46.525  34.836  28.521  1.00  0.00     0.173 A 
ATOM     74  F   UNL A   1      46.843  33.132  31.721  1.00  0.00    -0.203 F 
ATOM     75  C   UNL A   1      47.765  35.169  30.984  1.00  0.00     0.198 A 
ATOM     76  C   UNL A   1      47.330  35.948  28.754  1.00  0.00     0.198 A 
ATOM     77  F   UNL A   1      45.955  34.693  27.316  1.00  0.00    -0.203 F 
ATOM     78  F   UNL A   1      48.356  35.332  32.175  1.00  0.00    -0.200 F 
ATOM     79  C   UNL A   1      47.951  36.113  29.985  1.00  0.00     0.200 A 
ATOM     80  F   UNL A   1      47.524  36.850  27.782  1.00  0.00    -0.200 F 
ATOM     81  F   UNL A   1      48.734  37.178  30.204  1.00  0.00    -0.200 F 
ENDBRANCH  57  71
BRANCH  58  82
ATOM     82  C   UNL A   1      41.512  25.311  27.722  1.00  0.00     0.064 A 
ATOM     83  C   UNL A   1      41.841  24.173  28.470  1.00  0.00     0.173 A 
ATOM     84  C   UNL A   1      40.516  25.184  26.743  1.00  0.00     0.173 A 
ATOM     85  F   UNL A   1      42.801  24.241  29.406  1.00  0.00    -0.203 F 
ATOM     86  C   UNL A   1      41.222  22.950  28.230  1.00  0.00     0.198 A 
ATOM     87  C   UNL A   1      39.873  23.968  26.525  1.00  0.00     0.198 A 
ATOM     88  F   UNL A   1      40.159  26.245  26.004  1.00  0.00    -0.203 F 
ATOM     89  F   UNL A   1      41.593  21.865  28.922  1.00  0.00    -0.200 F 
ATOM     90  C   UNL A   1      40.234  22.849  27.261  1.00  0.00     0.200 A 
ATOM     91  F   UNL A   1      38.908  23.879  25.599  1.00  0.00    -0.200 F 
ATOM     92  F   UNL A   1      39.637  21.672  27.030  1.00  0.00    -0.200 F 
ENDBRANCH  58  82
BRANCH  70  93
ATOM     93  C   UNL A   1      48.087  27.425  26.798  1.00  0.00     0.064 A 
ATOM     94  C   UNL A   1      48.986  26.754  27.639  1.00  0.00     0.173 A 
ATOM     95  C   UNL A   1      48.328  27.389  25.415  1.00  0.00     0.173 A 
ATOM     96  F   UNL A   1      48.809  26.773  28.969  1.00  0.00    -0.203 F 
ATOM     97  C   UNL A   1      50.092  26.088  27.119  1.00  0.00     0.198 A 
ATOM     98  C   UNL A   1      49.417  26.695  24.896  1.00  0.00     0.198 A 
ATOM     99  F   UNL A   1      47.494  28.008  24.568  1.00  0.00    -0.203 F 
ATOM    100  F   UNL A   1      50.960  25.488  27.944  1.00  0.00    -0.200 F 
ATOM    101  C   UNL A   1      50.301  26.050  25.747  1.00  0.00     0.200 A 
ATOM    102  F   UNL A   1      49.608  26.646  23.570  1.00  0.00    -0.200 F 
ATOM    103  F   UNL A   1      51.356  25.393  25.247  1.00  0.00    -0.200 F 
ENDBRANCH  70  93
ENDBRANCH  44  45
ENDBRANCH  37  39
ENDBRANCH  36  37
ENDBRANCH  35  36
ENDBRANCH  34  35
ENDBRANCH  33  34
ENDBRANCH  32  33
ENDBRANCH  31  32
ENDBRANCH  30  31
ENDBRANCH   1  30
TORSDOF 24
ENDMDL
MODEL 3
REMARK VINA RESULT:      -8.8      6.998     10.148
REMARK SMILES CC(C)CN(C)c1cc2c(cc1Cl)C=C(C(=O)OCCOCCOCCOCCOC(=O)c1ccc(-c3c4nc(c(-c5c(F)c(F)c(F)c(F)c5F)c5ccc([nH]5)c(-c5c(F)c(F)c(F)c(F)c5F)c5nc(c(-c6c(F)c(F)c(F)c(F)c6F)c6ccc3[nH]6)C=C5)C=C4)cc1)[C@@H](C(F)(F)F)O2
REMARK SMILES IDX 23 1 22 2 21 3 20 4 19 5 18 6 16 7 17 8 15 9 7 10 8 11 12 12
REMARK SMILES IDX 9 13 11 14 13 15 10 16 101 17 14 18 96 19 5 20 6 21 4 22
REMARK SMILES IDX 2 23 1 24 3 25 97 26 98 27 99 28 100 29 24 30 25 31 26 32
REMARK SMILES IDX 27 33 28 34 29 35 30 36 31 37 32 38 33 39 34 40 95 41 35 42
REMARK SMILES IDX 94 43 36 44 37 45 38 46 88 47 39 48 93 49 87 50 89 51 40 52
REMARK SMILES IDX 92 53 86 54 85 55 41 57 73 58 53 59 72 60 54 61 57 62 71 63
REMARK SMILES IDX 90 64 55 65 56 66 70 68 91 69 58 70 42 71 43 72 51 73 44 74
REMARK SMILES IDX 45 75 49 76 52 77 46 78 47 79 50 80 48 81 74 82 75 83 83 84
REMARK SMILES IDX 76 85 77 86 81 87 84 88 78 89 79 90 82 91 80 92 59 93 60 94
REMARK SMILES IDX 68 95 61 96 62 97 66 98 69 99 63 100 64 101 67 102 65 103
REMARK H PARENT 89 56 57 67
REMARK Flexibility Score: inf
ROOT
ATOM      1  C   UNL A   1      39.263  28.803  27.895  1.00  0.00     0.188 C 
ENDROOT
BRANCH   1   2
ATOM      2  C   UNL A   1      38.011  28.900  28.785  1.00  0.00     0.188 C 
BRANCH   2   3
ATOM      3  O   UNL A   1      37.493  30.224  28.869  1.00  0.00    -0.376 OA
BRANCH   3   4
ATOM      4  C   UNL A   1      36.726  30.711  27.778  1.00  0.00     0.202 C 
BRANCH   4   5
ATOM      5  C   UNL A   1      35.195  30.554  27.834  1.00  0.00     0.261 C 
BRANCH   5   6
ATOM      6  O   UNL A   1      34.635  29.599  26.920  1.00  0.00    -0.460 OA
BRANCH   6   7
ATOM      7  C   UNL A   1      33.301  29.437  26.964  1.00  0.00     0.338 C 
ATOM      8  O   UNL A   1      32.486  30.277  27.309  1.00  0.00    -0.246 OA
BRANCH   7   9
ATOM      9  C   UNL A   1      32.952  28.131  26.368  1.00  0.00     0.087 C 
ATOM     10  C   UNL A   1      33.175  23.523  24.336  1.00  0.00     0.059 A 
ATOM     11  C   UNL A   1      32.119  24.403  24.657  1.00  0.00     0.074 A 
ATOM     12  C   UNL A   1      34.485  23.944  24.648  1.00  0.00     0.065 A 
ATOM     13  C   UNL A   1      32.364  25.637  25.279  1.00  0.00     0.130 A 
ATOM     14  C   UNL A   1      34.716  25.119  25.362  1.00  0.00     0.034 A 
ATOM     15  Cl  UNL A   1      35.892  23.094  24.108  1.00  0.00    -0.082 Cl
ATOM     16  C   UNL A   1      33.659  25.969  25.670  1.00  0.00     0.019 A 
ATOM     17  O   UNL A   1      31.297  26.470  25.486  1.00  0.00    -0.475 OA
ATOM     18  C   UNL A   1      33.929  27.219  26.347  1.00  0.00     0.027 C 
ATOM     19  C   UNL A   1      31.572  27.871  25.817  1.00  0.00     0.316 C 
BRANCH  10  20
ATOM     20  N   UNL A   1      32.930  22.291  23.718  1.00  0.00    -0.373 N 
ATOM     21  C   UNL A   1      32.524  22.352  22.319  1.00  0.00     0.143 C 
BRANCH  20  22
ATOM     22  C   UNL A   1      32.423  21.171  24.536  1.00  0.00     0.119 C 
BRANCH  22  23
ATOM     23  C   UNL A   1      33.221  19.865  24.327  1.00  0.00     0.002 C 
ATOM     24  C   UNL A   1      34.644  19.961  24.889  1.00  0.00     0.009 C 
ATOM     25  C   UNL A   1      32.523  18.660  24.966  1.00  0.00     0.009 C 
ENDBRANCH  22  23
ENDBRANCH  20  22
ENDBRANCH  10  20
BRANCH  19  26
ATOM     26  C   UNL A   1      31.289  28.776  24.611  1.00  0.00     0.430 C 
ATOM     27  F   UNL A   1      32.407  29.007  23.885  1.00  0.00    -0.167 F 
ATOM     28  F   UNL A   1      30.389  28.210  23.771  1.00  0.00    -0.167 F 
ATOM     29  F   UNL A   1      30.789  29.976  24.984  1.00  0.00    -0.167 F 
ENDBRANCH  19  26
ENDBRANCH   7   9
ENDBRANCH   6   7
ENDBRANCH   5   6
ENDBRANCH   4   5
ENDBRANCH   3   4
ENDBRANCH   2   3
ENDBRANCH   1   2
BRANCH   1  30
ATOM     30  O   UNL A   1      40.079  27.677  28.183  1.00  0.00    -0.377 OA
BRANCH  30  31
ATOM     31  C   UNL A   1      39.440  26.466  28.592  1.00  0.00     0.188 C 
BRANCH  31  32
ATOM     32  C   UNL A   1      40.118  25.078  28.477  1.00  0.00     0.188 C 
BRANCH  32  33
ATOM     33  O   UNL A   1      39.367  24.118  27.743  1.00  0.00    -0.376 OA
BRANCH  33  34
ATOM     34  C   UNL A   1      40.059  22.973  27.272  1.00  0.00     0.202 C 
BRANCH  34  35
ATOM     35  C   UNL A   1      41.292  23.288  26.418  1.00  0.00     0.261 C 
BRANCH  35  36
ATOM     36  O   UNL A   1      42.518  22.689  26.865  1.00  0.00    -0.460 OA
BRANCH  36  37
ATOM     37  C   UNL A   1      42.985  23.042  28.082  1.00  0.00     0.338 C 
ATOM     38  O   UNL A   1      42.897  22.410  29.119  1.00  0.00    -0.246 OA
BRANCH  37  39
ATOM     39  C   UNL A   1      43.805  24.259  27.901  1.00  0.00     0.060 A 
ATOM     40  C   UNL A   1      43.992  25.143  28.967  1.00  0.00     0.016 A 
ATOM     41  C   UNL A   1      44.354  24.538  26.643  1.00  0.00     0.016 A 
ATOM     42  C   UNL A   1      44.760  26.292  28.781  1.00  0.00     0.010 A 
ATOM     43  C   UNL A   1      45.121  25.693  26.458  1.00  0.00     0.010 A 
ATOM     44  C   UNL A   1      45.353  26.562  27.534  1.00  0.00    -0.014 A 
BRANCH  44  45
ATOM     45  C   UNL A   1      46.361  27.644  27.429  1.00  0.00     0.031 A 
ATOM     46  C   UNL A   1      47.830  27.367  27.357  1.00  0.00     0.074 A 
ATOM     47  C   UNL A   1      45.905  28.912  27.374  1.00  0.00     0.049 A 
ATOM     48  N   UNL A   1      48.815  28.212  27.168  1.00  0.00    -0.248 NA
ATOM     49  C   UNL A   1      48.259  25.972  27.517  1.00  0.00     0.031 C 
ATOM     50  C   UNL A   1      44.495  29.296  27.457  1.00  0.00     0.029 A 
ATOM     51  N   UNL A   1      46.568  30.103  27.223  1.00  0.00    -0.354 N 
ATOM     52  C   UNL A   1      49.974  27.452  27.155  1.00  0.00     0.074 A 
ATOM     53  C   UNL A   1      49.580  26.080  27.406  1.00  0.00     0.031 C 
ATOM     54  C   UNL A   1      44.394  30.627  27.320  1.00  0.00     0.029 A 
ATOM     55  C   UNL A   1      45.732  31.191  27.169  1.00  0.00     0.049 A 
ATOM     56  H   UNL A   1      47.548  30.172  27.159  1.00  0.00     0.167 HD
ATOM     57  C   UNL A   1      51.245  27.865  26.929  1.00  0.00     0.037 A 
ATOM     58  C   UNL A   1      46.009  32.499  27.007  1.00  0.00     0.037 A 
ATOM     59  C   UNL A   1      51.631  29.235  26.692  1.00  0.00     0.049 A 
ATOM     60  C   UNL A   1      47.439  32.926  26.824  1.00  0.00     0.074 A 
ATOM     61  C   UNL A   1      52.895  29.741  26.435  1.00  0.00     0.029 A 
ATOM     62  N   UNL A   1      50.764  30.317  26.692  1.00  0.00    -0.354 N 
ATOM     63  N   UNL A   1      48.519  32.188  26.740  1.00  0.00    -0.248 NA
ATOM     64  C   UNL A   1      47.688  34.370  26.706  1.00  0.00     0.031 C 
ATOM     65  C   UNL A   1      52.800  31.131  26.324  1.00  0.00     0.029 A 
ATOM     66  C   UNL A   1      51.470  31.489  26.462  1.00  0.00     0.049 A 
ATOM     67  H   UNL A   1      49.792  30.262  26.834  1.00  0.00     0.167 HD
ATOM     68  C   UNL A   1      49.567  33.072  26.531  1.00  0.00     0.074 A 
ATOM     69  C   UNL A   1      48.993  34.400  26.480  1.00  0.00     0.031 C 
ATOM     70  C   UNL A   1      50.888  32.805  26.398  1.00  0.00     0.037 A 
BRANCH  57  71
ATOM     71  C   UNL A   1      52.334  26.832  26.885  1.00  0.00     0.064 A 
ATOM     72  C   UNL A   1      52.558  26.073  25.727  1.00  0.00     0.173 A 
ATOM     73  C   UNL A   1      53.248  26.705  27.942  1.00  0.00     0.173 A 
ATOM     74  F   UNL A   1      51.714  26.159  24.688  1.00  0.00    -0.203 F 
ATOM     75  C   UNL A   1      53.661  25.227  25.628  1.00  0.00     0.198 A 
ATOM     76  C   UNL A   1      54.362  25.877  27.831  1.00  0.00     0.198 A 
ATOM     77  F   UNL A   1      53.086  27.420  29.065  1.00  0.00    -0.203 F 
ATOM     78  F   UNL A   1      53.855  24.510  24.513  1.00  0.00    -0.200 F 
ATOM     79  C   UNL A   1      54.569  25.141  26.673  1.00  0.00     0.200 A 
ATOM     80  F   UNL A   1      55.249  25.809  28.833  1.00  0.00    -0.200 F 
ATOM     81  F   UNL A   1      55.648  24.353  26.562  1.00  0.00    -0.200 F 
ENDBRANCH  57  71
BRANCH  58  82
ATOM     82  C   UNL A   1      44.908  33.495  26.977  1.00  0.00     0.064 A 
ATOM     83  C   UNL A   1      44.218  33.766  25.788  1.00  0.00     0.173 A 
ATOM     84  C   UNL A   1      44.533  34.206  28.126  1.00  0.00     0.173 A 
ATOM     85  F   UNL A   1      44.554  33.124  24.658  1.00  0.00    -0.203 F 
ATOM     86  C   UNL A   1      43.214  34.729  25.741  1.00  0.00     0.198 A 
ATOM     87  C   UNL A   1      43.507  35.146  28.087  1.00  0.00     0.198 A 
ATOM     88  F   UNL A   1      45.157  33.980  29.292  1.00  0.00    -0.203 F 
ATOM     89  F   UNL A   1      42.608  35.007  24.580  1.00  0.00    -0.200 F 
ATOM     90  C   UNL A   1      42.855  35.415  26.892  1.00  0.00     0.200 A 
ATOM     91  F   UNL A   1      43.152  35.795  29.205  1.00  0.00    -0.200 F 
ATOM     92  F   UNL A   1      41.889  36.342  26.848  1.00  0.00    -0.200 F 
ENDBRANCH  58  82
BRANCH  70  93
ATOM     93  C   UNL A   1      51.812  33.965  26.162  1.00  0.00     0.064 A 
ATOM     94  C   UNL A   1      52.447  34.625  27.224  1.00  0.00     0.173 A 
ATOM     95  C   UNL A   1      52.114  34.381  24.856  1.00  0.00     0.173 A 
ATOM     96  F   UNL A   1      52.179  34.276  28.492  1.00  0.00    -0.203 F 
ATOM     97  C   UNL A   1      53.337  35.669  26.989  1.00  0.00     0.198 A 
ATOM     98  C   UNL A   1      53.029  35.404  24.623  1.00  0.00     0.198 A 
ATOM     99  F   UNL A   1      51.539  33.779  23.804  1.00  0.00    -0.203 F 
ATOM    100  F   UNL A   1      53.902  36.311  28.021  1.00  0.00    -0.200 F 
ATOM    101  C   UNL A   1      53.635  36.051  25.689  1.00  0.00     0.200 A 
ATOM    102  F   UNL A   1      53.327  35.761  23.366  1.00  0.00    -0.200 F 
ATOM    103  F   UNL A   1      54.506  37.044  25.464  1.00  0.00    -0.200 F 
ENDBRANCH  70  93
ENDBRANCH  44  45
ENDBRANCH  37  39
ENDBRANCH  36  37
ENDBRANCH  35  36
ENDBRANCH  34  35
ENDBRANCH  33  34
ENDBRANCH  32  33
ENDBRANCH  31  32
ENDBRANCH  30  31
ENDBRANCH   1  30
TORSDOF 24
ENDMDL
