MODEL 1
REMARK VINA RESULT:     -10.0      0.000      0.000
REMARK SMILES O=C(OCCOCCOCCOCCOC(=O)c1cc(N2CCN(c3ccc(F)cc3)CC2)ccc1NC(=O)C1CCCC1)c1ccc(-c2c3nc(c(-c4c(F)c(F)c(F)c(F)c4F)c4ccc([nH]4)c(-c4c(F)c(F)c(F)c(F)c4F)c4nc(c(-c5c(F)c(F)c(F)c(F)c5F)c5ccc2[nH]5)C=C4)C=C3)cc1
REMARK SMILES IDX 9 1 8 2 7 3 6 4 5 5 4 6 3 7 2 8 1 9 45 10 46 11 107 12 47 13
REMARK SMILES IDX 106 14 48 15 49 16 50 17 100 18 51 19 105 20 99 21 101 22
REMARK SMILES IDX 52 23 104 24 98 25 97 26 53 28 85 29 65 30 84 31 66 32 69 33
REMARK SMILES IDX 83 34 102 35 67 36 68 37 82 39 103 40 70 41 54 42 55 43
REMARK SMILES IDX 63 44 56 45 57 46 61 47 64 48 58 49 59 50 62 51 60 52 86 53
REMARK SMILES IDX 87 54 95 55 88 56 89 57 93 58 96 59 90 60 91 61 94 62 92 63
REMARK SMILES IDX 71 64 72 65 80 66 73 67 74 68 78 69 81 70 75 71 76 72 79 73
REMARK SMILES IDX 77 74 10 75 11 76 12 77 13 78 14 79 15 80 16 81 17 82 18 83
REMARK SMILES IDX 19 84 36 85 20 86 35 87 34 88 37 89 38 90 39 92 40 93 41 94
REMARK SMILES IDX 44 95 42 96 43 97 21 98 22 99 33 100 23 101 32 102 24 103
REMARK SMILES IDX 25 104 26 105 31 106 27 107 30 108 28 109 29 110
REMARK H PARENT 101 27 69 38 37 91
REMARK Flexibility Score: inf
ROOT
ATOM      1  O   UNL A   1      34.983  32.370  27.860  1.00  0.00    -0.377 OA
ENDROOT
BRANCH   1   2
ATOM      2  C   UNL A   1      35.551  32.263  29.163  1.00  0.00     0.188 C 
BRANCH   2   3
ATOM      3  C   UNL A   1      34.944  33.199  30.206  1.00  0.00     0.188 C 
BRANCH   3   4
ATOM      4  O   UNL A   1      34.400  32.444  31.292  1.00  0.00    -0.376 OA
BRANCH   4   5
ATOM      5  C   UNL A   1      34.921  32.769  32.580  1.00  0.00     0.202 C 
BRANCH   5   6
ATOM      6  C   UNL A   1      36.248  32.078  32.884  1.00  0.00     0.261 C 
BRANCH   6   7
ATOM      7  O   UNL A   1      36.287  30.746  32.354  1.00  0.00    -0.460 OA
BRANCH   7   8
ATOM      8  C   UNL A   1      37.342  29.894  32.320  1.00  0.00     0.338 C 
ATOM      9  O   UNL A   1      37.168  28.749  32.734  1.00  0.00    -0.246 OA
BRANCH   8  10
ATOM     10  C   UNL A   1      38.698  30.233  31.774  1.00  0.00     0.060 A 
ATOM     11  C   UNL A   1      39.875  30.393  32.512  1.00  0.00     0.016 A 
ATOM     12  C   UNL A   1      38.791  30.351  30.374  1.00  0.00     0.016 A 
ATOM     13  C   UNL A   1      41.080  30.730  31.906  1.00  0.00     0.010 A 
ATOM     14  C   UNL A   1      40.000  30.674  29.750  1.00  0.00     0.010 A 
ATOM     15  C   UNL A   1      41.139  30.901  30.528  1.00  0.00    -0.014 A 
BRANCH  15  16
ATOM     16  C   UNL A   1      42.348  31.524  29.964  1.00  0.00     0.031 A 
ATOM     17  C   UNL A   1      43.416  30.611  29.443  1.00  0.00     0.074 A 
ATOM     18  C   UNL A   1      42.412  32.856  29.796  1.00  0.00     0.049 A 
ATOM     19  N   UNL A   1      44.585  30.896  28.941  1.00  0.00    -0.248 NA
ATOM     20  C   UNL A   1      43.110  29.169  29.477  1.00  0.00     0.031 C 
ATOM     21  C   UNL A   1      41.350  33.801  30.144  1.00  0.00     0.029 A 
ATOM     22  N   UNL A   1      43.400  33.640  29.265  1.00  0.00    -0.354 N 
ATOM     23  C   UNL A   1      45.163  29.673  28.628  1.00  0.00     0.074 A 
ATOM     24  C   UNL A   1      44.222  28.641  28.993  1.00  0.00     0.031 C 
ATOM     25  C   UNL A   1      41.742  35.041  29.807  1.00  0.00     0.029 A 
ATOM     26  C   UNL A   1      43.103  34.980  29.282  1.00  0.00     0.049 A 
ATOM     27  H   UNL A   1      44.243  33.278  28.907  1.00  0.00     0.167 HD
ATOM     28  C   UNL A   1      46.382  29.443  28.089  1.00  0.00     0.037 A 
ATOM     29  C   UNL A   1      43.873  36.031  28.942  1.00  0.00     0.037 A 
ATOM     30  C   UNL A   1      47.296  30.494  27.742  1.00  0.00     0.049 A 
ATOM     31  C   UNL A   1      45.268  35.750  28.445  1.00  0.00     0.074 A 
ATOM     32  C   UNL A   1      48.588  30.402  27.263  1.00  0.00     0.029 A 
ATOM     33  N   UNL A   1      46.998  31.848  27.844  1.00  0.00    -0.354 N 
ATOM     34  N   UNL A   1      45.849  34.594  28.222  1.00  0.00    -0.248 NA
ATOM     35  C   UNL A   1      46.119  36.912  28.169  1.00  0.00     0.031 C 
ATOM     36  C   UNL A   1      49.086  31.701  27.117  1.00  0.00     0.029 A 
ATOM     37  C   UNL A   1      48.087  32.603  27.454  1.00  0.00     0.049 A 
ATOM     38  H   UNL A   1      46.136  32.215  28.150  1.00  0.00     0.167 HD
ATOM     39  C   UNL A   1      47.126  34.886  27.767  1.00  0.00     0.074 A 
ATOM     40  C   UNL A   1      47.226  36.333  27.725  1.00  0.00     0.031 C 
ATOM     41  C   UNL A   1      48.132  34.044  27.421  1.00  0.00     0.037 A 
BRANCH  28  42
ATOM     42  C   UNL A   1      46.799  28.010  27.935  1.00  0.00     0.064 A 
ATOM     43  C   UNL A   1      47.360  27.278  28.994  1.00  0.00     0.173 A 
ATOM     44  C   UNL A   1      46.683  27.375  26.690  1.00  0.00     0.173 A 
ATOM     45  F   UNL A   1      47.525  27.849  30.196  1.00  0.00    -0.203 F 
ATOM     46  C   UNL A   1      47.822  25.978  28.800  1.00  0.00     0.198 A 
ATOM     47  C   UNL A   1      47.120  26.066  26.507  1.00  0.00     0.198 A 
ATOM     48  F   UNL A   1      46.163  28.033  25.642  1.00  0.00    -0.203 F 
ATOM     49  F   UNL A   1      48.417  25.322  29.807  1.00  0.00    -0.200 F 
ATOM     50  C   UNL A   1      47.699  25.373  27.558  1.00  0.00     0.200 A 
ATOM     51  F   UNL A   1      47.000  25.483  25.305  1.00  0.00    -0.200 F 
ATOM     52  F   UNL A   1      48.155  24.126  27.370  1.00  0.00    -0.200 F 
ENDBRANCH  28  42
BRANCH  29  53
ATOM     53  C   UNL A   1      43.368  37.421  29.109  1.00  0.00     0.064 A 
ATOM     54  C   UNL A   1      43.681  38.183  30.244  1.00  0.00     0.173 A 
ATOM     55  C   UNL A   1      42.543  38.017  28.140  1.00  0.00     0.173 A 
ATOM     56  F   UNL A   1      44.444  37.655  31.213  1.00  0.00    -0.203 F 
ATOM     57  C   UNL A   1      43.179  39.473  30.409  1.00  0.00     0.198 A 
ATOM     58  C   UNL A   1      42.068  39.318  28.291  1.00  0.00     0.198 A 
ATOM     59  F   UNL A   1      42.203  37.335  27.037  1.00  0.00    -0.203 F 
ATOM     60  F   UNL A   1      43.456  40.159  31.527  1.00  0.00    -0.200 F 
ATOM     61  C   UNL A   1      42.379  40.043  29.431  1.00  0.00     0.200 A 
ATOM     62  F   UNL A   1      41.306  39.867  27.336  1.00  0.00    -0.200 F 
ATOM     63  F   UNL A   1      41.900  41.283  29.589  1.00  0.00    -0.200 F 
ENDBRANCH  29  53
BRANCH  41  64
ATOM     64  C   UNL A   1      49.404  34.672  26.937  1.00  0.00     0.064 A 
ATOM     65  C   UNL A   1      50.511  34.829  27.782  1.00  0.00     0.173 A 
ATOM     66  C   UNL A   1      49.532  35.063  25.597  1.00  0.00     0.173 A 
ATOM     67  F   UNL A   1      50.429  34.481  29.076  1.00  0.00    -0.203 F 
ATOM     68  C   UNL A   1      51.698  35.377  27.306  1.00  0.00     0.198 A 
ATOM     69  C   UNL A   1      50.730  35.582  25.117  1.00  0.00     0.198 A 
ATOM     70  F   UNL A   1      48.502  34.922  24.750  1.00  0.00    -0.203 F 
ATOM     71  F   UNL A   1      52.732  35.559  28.139  1.00  0.00    -0.200 F 
ATOM     72  C   UNL A   1      51.808  35.744  25.973  1.00  0.00     0.200 A 
ATOM     73  F   UNL A   1      50.841  35.922  23.825  1.00  0.00    -0.200 F 
ATOM     74  F   UNL A   1      52.956  36.260  25.513  1.00  0.00    -0.200 F 
ENDBRANCH  41  64
ENDBRANCH  15  16
ENDBRANCH   8  10
ENDBRANCH   7   8
ENDBRANCH   6   7
ENDBRANCH   5   6
ENDBRANCH   4   5
ENDBRANCH   3   4
ENDBRANCH   2   3
ENDBRANCH   1   2
BRANCH   1  75
ATOM     75  C   UNL A   1      33.851  31.556  27.578  1.00  0.00     0.188 C 
BRANCH  75  76
ATOM     76  C   UNL A   1      34.077  30.096  27.124  1.00  0.00     0.188 C 
BRANCH  76  77
ATOM     77  O   UNL A   1      33.160  29.617  26.149  1.00  0.00    -0.376 OA
BRANCH  77  78
ATOM     78  C   UNL A   1      33.636  28.550  25.334  1.00  0.00     0.202 C 
BRANCH  78  79
ATOM     79  C   UNL A   1      33.426  27.151  25.930  1.00  0.00     0.261 C 
BRANCH  79  80
ATOM     80  O   UNL A   1      34.358  26.142  25.484  1.00  0.00    -0.460 OA
BRANCH  80  81
ATOM     81  C   UNL A   1      34.019  24.841  25.626  1.00  0.00     0.340 C 
ATOM     82  O   UNL A   1      32.916  24.405  25.911  1.00  0.00    -0.246 OA
BRANCH  81  83
ATOM     83  C   UNL A   1      35.156  24.004  25.158  1.00  0.00     0.085 A 
ATOM     84  C   UNL A   1      36.240  23.866  26.059  1.00  0.00     0.043 A 
ATOM     85  C   UNL A   1      35.153  23.305  23.934  1.00  0.00     0.055 A 
ATOM     86  C   UNL A   1      37.308  23.008  25.782  1.00  0.00     0.038 A 
ATOM     87  C   UNL A   1      36.306  22.609  23.616  1.00  0.00     0.029 A 
ATOM     88  C   UNL A   1      37.332  22.404  24.534  1.00  0.00     0.028 A 
BRANCH  85  89
ATOM     89  N   UNL A   1      33.974  23.183  23.169  1.00  0.00    -0.325 N 
ATOM     90  C   UNL A   1      32.777  22.548  23.299  1.00  0.00     0.227 C 
ATOM     91  H   UNL A   1      34.032  23.686  22.324  1.00  0.00     0.169 HD
ATOM     92  O   UNL A   1      31.852  23.017  22.618  1.00  0.00    -0.274 OA
BRANCH  90  93
ATOM     93  C   UNL A   1      32.497  21.266  24.082  1.00  0.00     0.079 C 
ATOM     94  C   UNL A   1      32.506  20.015  23.209  1.00  0.00     0.013 C 
ATOM     95  C   UNL A   1      33.248  20.916  25.372  1.00  0.00     0.013 C 
ATOM     96  C   UNL A   1      32.584  18.876  24.211  1.00  0.00     0.001 C 
ATOM     97  C   UNL A   1      33.500  19.401  25.309  1.00  0.00     0.001 C 
ENDBRANCH  90  93
ENDBRANCH  85  89
BRANCH  86  98
ATOM     98  N   UNL A   1      38.360  22.877  26.672  1.00  0.00    -0.368 N 
ATOM     99  C   UNL A   1      39.458  21.908  26.425  1.00  0.00     0.138 C 
ATOM    100  C   UNL A   1      38.760  24.135  27.332  1.00  0.00     0.138 C 
ATOM    101  C   UNL A   1      40.775  22.546  25.887  1.00  0.00     0.138 C 
ATOM    102  C   UNL A   1      39.994  24.768  26.659  1.00  0.00     0.138 C 
ATOM    103  N   UNL A   1      41.098  23.805  26.584  1.00  0.00    -0.368 N 
BRANCH 103 104
ATOM    104  C   UNL A   1      42.158  23.897  27.465  1.00  0.00     0.037 A 
ATOM    105  C   UNL A   1      43.172  24.846  27.270  1.00  0.00     0.029 A 
ATOM    106  C   UNL A   1      42.230  23.102  28.622  1.00  0.00     0.029 A 
ATOM    107  C   UNL A   1      44.195  25.020  28.212  1.00  0.00     0.041 A 
ATOM    108  C   UNL A   1      43.254  23.257  29.558  1.00  0.00     0.041 A 
ATOM    109  C   UNL A   1      44.223  24.223  29.348  1.00  0.00     0.123 A 
ATOM    110  F   UNL A   1      45.191  24.394  30.258  1.00  0.00    -0.207 F 
ENDBRANCH 103 104
ENDBRANCH  86  98
ENDBRANCH  81  83
ENDBRANCH  80  81
ENDBRANCH  79  80
ENDBRANCH  78  79
ENDBRANCH  77  78
ENDBRANCH  76  77
ENDBRANCH  75  76
ENDBRANCH   1  75
TORSDOF 24
ENDMDL
MODEL 2
REMARK VINA RESULT:      -9.8      3.087      7.722
REMARK SMILES O=C(OCCOCCOCCOCCOC(=O)c1cc(N2CCN(c3ccc(F)cc3)CC2)ccc1NC(=O)C1CCCC1)c1ccc(-c2c3nc(c(-c4c(F)c(F)c(F)c(F)c4F)c4ccc([nH]4)c(-c4c(F)c(F)c(F)c(F)c4F)c4nc(c(-c5c(F)c(F)c(F)c(F)c5F)c5ccc2[nH]5)C=C4)C=C3)cc1
REMARK SMILES IDX 9 1 8 2 7 3 6 4 5 5 4 6 3 7 2 8 1 9 45 10 46 11 107 12 47 13
REMARK SMILES IDX 106 14 48 15 49 16 50 17 100 18 51 19 105 20 99 21 101 22
REMARK SMILES IDX 52 23 104 24 98 25 97 26 53 28 85 29 65 30 84 31 66 32 69 33
REMARK SMILES IDX 83 34 102 35 67 36 68 37 82 39 103 40 70 41 54 42 55 43
REMARK SMILES IDX 63 44 56 45 57 46 61 47 64 48 58 49 59 50 62 51 60 52 86 53
REMARK SMILES IDX 87 54 95 55 88 56 89 57 93 58 96 59 90 60 91 61 94 62 92 63
REMARK SMILES IDX 71 64 72 65 80 66 73 67 74 68 78 69 81 70 75 71 76 72 79 73
REMARK SMILES IDX 77 74 10 75 11 76 12 77 13 78 14 79 15 80 16 81 17 82 18 83
REMARK SMILES IDX 19 84 36 85 20 86 35 87 34 88 37 89 38 90 39 92 40 93 41 94
REMARK SMILES IDX 44 95 42 96 43 97 21 98 22 99 33 100 23 101 32 102 24 103
REMARK SMILES IDX 25 104 26 105 31 106 27 107 30 108 28 109 29 110
REMARK H PARENT 101 27 69 38 37 91
REMARK Flexibility Score: inf
ROOT
ATOM      1  O   UNL A   1      32.728  30.476  27.179  1.00  0.00    -0.377 OA
ENDROOT
BRANCH   1   2
ATOM      2  C   UNL A   1      34.026  30.847  27.638  1.00  0.00     0.188 C 
BRANCH   2   3
ATOM      3  C   UNL A   1      34.097  32.208  28.328  1.00  0.00     0.188 C 
BRANCH   3   4
ATOM      4  O   UNL A   1      34.921  32.129  29.494  1.00  0.00    -0.376 OA
BRANCH   4   5
ATOM      5  C   UNL A   1      34.741  33.184  30.439  1.00  0.00     0.202 C 
BRANCH   5   6
ATOM      6  C   UNL A   1      34.737  32.701  31.886  1.00  0.00     0.261 C 
BRANCH   6   7
ATOM      7  O   UNL A   1      35.757  31.721  32.123  1.00  0.00    -0.460 OA
BRANCH   7   8
ATOM      8  C   UNL A   1      36.714  31.731  33.084  1.00  0.00     0.338 C 
ATOM      9  O   UNL A   1      36.435  32.242  34.168  1.00  0.00    -0.246 OA
BRANCH   8  10
ATOM     10  C   UNL A   1      38.079  31.124  32.939  1.00  0.00     0.060 A 
ATOM     11  C   UNL A   1      39.221  31.464  33.670  1.00  0.00     0.016 A 
ATOM     12  C   UNL A   1      38.196  30.078  32.004  1.00  0.00     0.016 A 
ATOM     13  C   UNL A   1      40.448  30.852  33.439  1.00  0.00     0.010 A 
ATOM     14  C   UNL A   1      39.420  29.443  31.774  1.00  0.00     0.010 A 
ATOM     15  C   UNL A   1      40.558  29.862  32.470  1.00  0.00    -0.014 A 
BRANCH  15  16
ATOM     16  C   UNL A   1      41.910  29.443  32.065  1.00  0.00     0.031 A 
ATOM     17  C   UNL A   1      42.614  30.281  31.041  1.00  0.00     0.074 A 
ATOM     18  C   UNL A   1      42.530  28.437  32.703  1.00  0.00     0.049 A 
ATOM     19  N   UNL A   1      43.780  30.111  30.483  1.00  0.00    -0.248 NA
ATOM     20  C   UNL A   1      41.904  31.495  30.597  1.00  0.00     0.031 C 
ATOM     21  C   UNL A   1      41.965  27.667  33.812  1.00  0.00     0.029 A 
ATOM     22  N   UNL A   1      43.781  27.909  32.529  1.00  0.00    -0.354 N 
ATOM     23  C   UNL A   1      43.931  31.177  29.606  1.00  0.00     0.074 A 
ATOM     24  C   UNL A   1      42.742  31.990  29.701  1.00  0.00     0.031 C 
ATOM     25  C   UNL A   1      42.874  26.769  34.227  1.00  0.00     0.029 A 
ATOM     26  C   UNL A   1      44.053  26.859  33.371  1.00  0.00     0.049 A 
ATOM     27  H   UNL A   1      44.423  28.248  31.864  1.00  0.00     0.167 HD
ATOM     28  C   UNL A   1      44.976  31.440  28.788  1.00  0.00     0.037 A 
ATOM     29  C   UNL A   1      45.127  26.048  33.408  1.00  0.00     0.037 A 
ATOM     30  C   UNL A   1      46.143  30.606  28.716  1.00  0.00     0.049 A 
ATOM     31  C   UNL A   1      46.231  26.297  32.412  1.00  0.00     0.074 A 
ATOM     32  C   UNL A   1      47.237  30.710  27.880  1.00  0.00     0.029 A 
ATOM     33  N   UNL A   1      46.358  29.499  29.528  1.00  0.00    -0.354 N 
ATOM     34  N   UNL A   1      46.343  27.258  31.524  1.00  0.00    -0.248 NA
ATOM     35  C   UNL A   1      47.347  25.345  32.408  1.00  0.00     0.031 C 
ATOM     36  C   UNL A   1      48.093  29.639  28.157  1.00  0.00     0.029 A 
ATOM     37  C   UNL A   1      47.559  28.899  29.202  1.00  0.00     0.049 A 
ATOM     38  H   UNL A   1      45.744  29.188  30.233  1.00  0.00     0.167 HD
ATOM     39  C   UNL A   1      47.543  27.038  30.866  1.00  0.00     0.074 A 
ATOM     40  C   UNL A   1      48.136  25.861  31.475  1.00  0.00     0.031 C 
ATOM     41  C   UNL A   1      48.109  27.733  29.848  1.00  0.00     0.037 A 
BRANCH  28  42
ATOM     42  C   UNL A   1      44.842  32.619  27.870  1.00  0.00     0.064 A 
ATOM     43  C   UNL A   1      44.199  32.525  26.625  1.00  0.00     0.173 A 
ATOM     44  C   UNL A   1      45.416  33.850  28.220  1.00  0.00     0.173 A 
ATOM     45  F   UNL A   1      43.664  31.362  26.228  1.00  0.00    -0.203 F 
ATOM     46  C   UNL A   1      44.168  33.612  25.752  1.00  0.00     0.198 A 
ATOM     47  C   UNL A   1      45.358  34.941  27.357  1.00  0.00     0.198 A 
ATOM     48  F   UNL A   1      46.051  33.989  29.393  1.00  0.00    -0.203 F 
ATOM     49  F   UNL A   1      43.608  33.480  24.542  1.00  0.00    -0.200 F 
ATOM     50  C   UNL A   1      44.745  34.818  26.121  1.00  0.00     0.200 A 
ATOM     51  F   UNL A   1      45.917  36.106  27.715  1.00  0.00    -0.200 F 
ATOM     52  F   UNL A   1      44.725  35.857  25.274  1.00  0.00    -0.200 F 
ENDBRANCH  28  42
BRANCH  29  53
ATOM     53  C   UNL A   1      45.183  24.913  34.369  1.00  0.00     0.064 A 
ATOM     54  C   UNL A   1      44.718  23.637  34.023  1.00  0.00     0.173 A 
ATOM     55  C   UNL A   1      45.692  25.084  35.667  1.00  0.00     0.173 A 
ATOM     56  F   UNL A   1      44.199  23.422  32.805  1.00  0.00    -0.203 F 
ATOM     57  C   UNL A   1      44.744  22.585  34.938  1.00  0.00     0.198 A 
ATOM     58  C   UNL A   1      45.747  24.025  36.571  1.00  0.00     0.198 A 
ATOM     59  F   UNL A   1      46.145  26.284  36.058  1.00  0.00    -0.203 F 
ATOM     60  F   UNL A   1      44.247  21.389  34.595  1.00  0.00    -0.200 F 
ATOM     61  C   UNL A   1      45.264  22.777  36.209  1.00  0.00     0.200 A 
ATOM     62  F   UNL A   1      46.262  24.215  37.793  1.00  0.00    -0.200 F 
ATOM     63  F   UNL A   1      45.292  21.766  37.087  1.00  0.00    -0.200 F 
ENDBRANCH  29  53
BRANCH  41  64
ATOM     64  C   UNL A   1      49.443  27.255  29.361  1.00  0.00     0.064 A 
ATOM     65  C   UNL A   1      50.627  27.568  30.043  1.00  0.00     0.173 A 
ATOM     66  C   UNL A   1      49.527  26.425  28.234  1.00  0.00     0.173 A 
ATOM     67  F   UNL A   1      50.596  28.370  31.118  1.00  0.00    -0.203 F 
ATOM     68  C   UNL A   1      51.853  27.082  29.600  1.00  0.00     0.198 A 
ATOM     69  C   UNL A   1      50.751  25.917  27.812  1.00  0.00     0.198 A 
ATOM     70  F   UNL A   1      48.418  26.092  27.555  1.00  0.00    -0.203 F 
ATOM     71  F   UNL A   1      52.979  27.426  30.240  1.00  0.00    -0.200 F 
ATOM     72  C   UNL A   1      51.912  26.251  28.490  1.00  0.00     0.200 A 
ATOM     73  F   UNL A   1      50.804  25.101  26.749  1.00  0.00    -0.200 F 
ATOM     74  F   UNL A   1      53.093  25.773  28.072  1.00  0.00    -0.200 F 
ENDBRANCH  41  64
ENDBRANCH  15  16
ENDBRANCH   8  10
ENDBRANCH   7   8
ENDBRANCH   6   7
ENDBRANCH   5   6
ENDBRANCH   4   5
ENDBRANCH   3   4
ENDBRANCH   2   3
ENDBRANCH   1   2
BRANCH   1  75
ATOM     75  C   UNL A   1      32.518  29.103  26.871  1.00  0.00     0.188 C 
BRANCH  75  76
ATOM     76  C   UNL A   1      31.821  28.736  25.542  1.00  0.00     0.188 C 
BRANCH  76  77
ATOM     77  O   UNL A   1      32.250  27.515  24.952  1.00  0.00    -0.376 OA
BRANCH  77  78
ATOM     78  C   UNL A   1      32.610  26.486  25.868  1.00  0.00     0.202 C 
BRANCH  78  79
ATOM     79  C   UNL A   1      34.058  25.995  25.738  1.00  0.00     0.261 C 
BRANCH  79  80
ATOM     80  O   UNL A   1      34.210  24.616  25.342  1.00  0.00    -0.460 OA
BRANCH  80  81
ATOM     81  C   UNL A   1      34.320  23.674  26.305  1.00  0.00     0.340 C 
ATOM     82  O   UNL A   1      33.538  23.478  27.222  1.00  0.00    -0.246 OA
BRANCH  81  83
ATOM     83  C   UNL A   1      35.437  22.759  25.946  1.00  0.00     0.085 A 
ATOM     84  C   UNL A   1      36.740  23.307  26.027  1.00  0.00     0.043 A 
ATOM     85  C   UNL A   1      35.253  21.400  25.623  1.00  0.00     0.055 A 
ATOM     86  C   UNL A   1      37.874  22.512  25.832  1.00  0.00     0.038 A 
ATOM     87  C   UNL A   1      36.385  20.691  25.263  1.00  0.00     0.029 A 
ATOM     88  C   UNL A   1      37.670  21.203  25.423  1.00  0.00     0.028 A 
BRANCH  85  89
ATOM     89  N   UNL A   1      34.012  20.764  25.833  1.00  0.00    -0.325 N 
ATOM     90  C   UNL A   1      33.395  19.636  25.387  1.00  0.00     0.227 C 
ATOM     91  H   UNL A   1      33.445  21.266  26.463  1.00  0.00     0.169 HD
ATOM     92  O   UNL A   1      32.487  19.206  26.114  1.00  0.00    -0.274 OA
BRANCH  90  93
ATOM     93  C   UNL A   1      33.618  18.934  24.048  1.00  0.00     0.079 C 
ATOM     94  C   UNL A   1      34.246  17.551  24.194  1.00  0.00     0.013 C 
ATOM     95  C   UNL A   1      32.512  18.813  22.994  1.00  0.00     0.013 C 
ATOM     96  C   UNL A   1      34.031  16.912  22.832  1.00  0.00     0.001 C 
ATOM     97  C   UNL A   1      32.657  17.405  22.396  1.00  0.00     0.001 C 
ENDBRANCH  90  93
ENDBRANCH  85  89
BRANCH  86  98
ATOM     98  N   UNL A   1      39.143  23.057  25.918  1.00  0.00    -0.368 N 
ATOM     99  C   UNL A   1      39.364  24.394  26.526  1.00  0.00     0.138 C 
ATOM    100  C   UNL A   1      40.216  22.070  26.148  1.00  0.00     0.138 C 
ATOM    101  C   UNL A   1      39.928  24.358  27.979  1.00  0.00     0.138 C 
ATOM    102  C   UNL A   1      40.627  22.005  27.632  1.00  0.00     0.138 C 
ATOM    103  N   UNL A   1      40.982  23.338  28.132  1.00  0.00    -0.368 N 
BRANCH 103 104
ATOM    104  C   UNL A   1      42.310  23.683  28.301  1.00  0.00     0.037 A 
ATOM    105  C   UNL A   1      43.011  23.295  29.451  1.00  0.00     0.029 A 
ATOM    106  C   UNL A   1      43.028  24.369  27.306  1.00  0.00     0.029 A 
ATOM    107  C   UNL A   1      44.383  23.547  29.584  1.00  0.00     0.041 A 
ATOM    108  C   UNL A   1      44.391  24.640  27.437  1.00  0.00     0.041 A 
ATOM    109  C   UNL A   1      45.059  24.216  28.573  1.00  0.00     0.123 A 
ATOM    110  F   UNL A   1      46.373  24.448  28.690  1.00  0.00    -0.207 F 
ENDBRANCH 103 104
ENDBRANCH  86  98
ENDBRANCH  81  83
ENDBRANCH  80  81
ENDBRANCH  79  80
ENDBRANCH  78  79
ENDBRANCH  77  78
ENDBRANCH  76  77
ENDBRANCH  75  76
ENDBRANCH   1  75
TORSDOF 24
ENDMDL
MODEL 3
REMARK VINA RESULT:      -9.7      6.577     11.772
REMARK SMILES O=C(OCCOCCOCCOCCOC(=O)c1cc(N2CCN(c3ccc(F)cc3)CC2)ccc1NC(=O)C1CCCC1)c1ccc(-c2c3nc(c(-c4c(F)c(F)c(F)c(F)c4F)c4ccc([nH]4)c(-c4c(F)c(F)c(F)c(F)c4F)c4nc(c(-c5c(F)c(F)c(F)c(F)c5F)c5ccc2[nH]5)C=C4)C=C3)cc1
REMARK SMILES IDX 9 1 8 2 7 3 6 4 5 5 4 6 3 7 2 8 1 9 45 10 46 11 107 12 47 13
REMARK SMILES IDX 106 14 48 15 49 16 50 17 100 18 51 19 105 20 99 21 101 22
REMARK SMILES IDX 52 23 104 24 98 25 97 26 53 28 85 29 65 30 84 31 66 32 69 33
REMARK SMILES IDX 83 34 102 35 67 36 68 37 82 39 103 40 70 41 54 42 55 43
REMARK SMILES IDX 63 44 56 45 57 46 61 47 64 48 58 49 59 50 62 51 60 52 86 53
REMARK SMILES IDX 87 54 95 55 88 56 89 57 93 58 96 59 90 60 91 61 94 62 92 63
REMARK SMILES IDX 71 64 72 65 80 66 73 67 74 68 78 69 81 70 75 71 76 72 79 73
REMARK SMILES IDX 77 74 10 75 11 76 12 77 13 78 14 79 15 80 16 81 17 82 18 83
REMARK SMILES IDX 19 84 36 85 20 86 35 87 34 88 37 89 38 90 39 92 40 93 41 94
REMARK SMILES IDX 44 95 42 96 43 97 21 98 22 99 33 100 23 101 32 102 24 103
REMARK SMILES IDX 25 104 26 105 31 106 27 107 30 108 28 109 29 110
REMARK H PARENT 101 27 69 38 37 91
REMARK Flexibility Score: inf
ROOT
ATOM      1  O   UNL A   1      33.046  27.373  26.607  1.00  0.00    -0.377 OA
ENDROOT
BRANCH   1   2
ATOM      2  C   UNL A   1      33.921  28.415  26.181  1.00  0.00     0.188 C 
BRANCH   2   3
ATOM      3  C   UNL A   1      33.397  29.830  26.418  1.00  0.00     0.188 C 
BRANCH   3   4
ATOM      4  O   UNL A   1      34.422  30.650  26.984  1.00  0.00    -0.376 OA
BRANCH   4   5
ATOM      5  C   UNL A   1      34.010  31.473  28.075  1.00  0.00     0.202 C 
BRANCH   5   6
ATOM      6  C   UNL A   1      35.167  31.909  28.970  1.00  0.00     0.261 C 
BRANCH   6   7
ATOM      7  O   UNL A   1      34.703  32.437  30.220  1.00  0.00    -0.460 OA
BRANCH   7   8
ATOM      8  C   UNL A   1      35.415  33.120  31.150  1.00  0.00     0.338 C 
ATOM      9  O   UNL A   1      35.106  34.292  31.364  1.00  0.00    -0.246 OA
BRANCH   8  10
ATOM     10  C   UNL A   1      36.528  32.539  31.974  1.00  0.00     0.060 A 
ATOM     11  C   UNL A   1      36.397  31.600  33.002  1.00  0.00     0.016 A 
ATOM     12  C   UNL A   1      37.830  32.952  31.636  1.00  0.00     0.016 A 
ATOM     13  C   UNL A   1      37.495  31.143  33.720  1.00  0.00     0.010 A 
ATOM     14  C   UNL A   1      38.946  32.487  32.339  1.00  0.00     0.010 A 
ATOM     15  C   UNL A   1      38.769  31.608  33.411  1.00  0.00    -0.014 A 
BRANCH  15  16
ATOM     16  C   UNL A   1      39.855  31.320  34.363  1.00  0.00     0.031 A 
ATOM     17  C   UNL A   1      40.037  32.267  35.509  1.00  0.00     0.074 A 
ATOM     18  C   UNL A   1      40.550  30.174  34.275  1.00  0.00     0.049 A 
ATOM     19  N   UNL A   1      40.935  32.270  36.455  1.00  0.00    -0.248 NA
ATOM     20  C   UNL A   1      39.049  33.358  35.613  1.00  0.00     0.031 C 
ATOM     21  C   UNL A   1      40.332  29.131  33.272  1.00  0.00     0.029 A 
ATOM     22  N   UNL A   1      41.560  29.682  35.058  1.00  0.00    -0.354 N 
ATOM     23  C   UNL A   1      40.639  33.372  37.246  1.00  0.00     0.074 A 
ATOM     24  C   UNL A   1      39.481  34.018  36.675  1.00  0.00     0.031 C 
ATOM     25  C   UNL A   1      41.180  28.115  33.507  1.00  0.00     0.029 A 
ATOM     26  C   UNL A   1      42.038  28.467  34.635  1.00  0.00     0.049 A 
ATOM     27  H   UNL A   1      41.909  30.155  35.848  1.00  0.00     0.167 HD
ATOM     28  C   UNL A   1      41.292  33.805  38.348  1.00  0.00     0.037 A 
ATOM     29  C   UNL A   1      43.080  27.751  35.096  1.00  0.00     0.037 A 
ATOM     30  C   UNL A   1      42.445  33.140  38.886  1.00  0.00     0.049 A 
ATOM     31  C   UNL A   1      43.859  28.309  36.259  1.00  0.00     0.074 A 
ATOM     32  C   UNL A   1      43.248  33.511  39.947  1.00  0.00     0.029 A 
ATOM     33  N   UNL A   1      42.958  31.949  38.387  1.00  0.00    -0.354 N 
ATOM     34  N   UNL A   1      43.631  29.395  36.962  1.00  0.00    -0.248 NA
ATOM     35  C   UNL A   1      45.045  27.559  36.685  1.00  0.00     0.031 C 
ATOM     36  C   UNL A   1      44.273  32.566  40.061  1.00  0.00     0.029 A 
ATOM     37  C   UNL A   1      44.078  31.578  39.106  1.00  0.00     0.049 A 
ATOM     38  H   UNL A   1      42.579  31.444  37.631  1.00  0.00     0.167 HD
ATOM     39  C   UNL A   1      44.632  29.452  37.919  1.00  0.00     0.074 A 
ATOM     40  C   UNL A   1      45.458  28.276  37.720  1.00  0.00     0.031 C 
ATOM     41  C   UNL A   1      44.861  30.389  38.874  1.00  0.00     0.037 A 
BRANCH  28  42
ATOM     42  C   UNL A   1      40.812  35.086  38.965  1.00  0.00     0.064 A 
ATOM     43  C   UNL A   1      41.476  36.306  38.762  1.00  0.00     0.173 A 
ATOM     44  C   UNL A   1      39.698  35.080  39.818  1.00  0.00     0.173 A 
ATOM     45  F   UNL A   1      42.566  36.360  37.983  1.00  0.00    -0.203 F 
ATOM     46  C   UNL A   1      41.063  37.464  39.419  1.00  0.00     0.198 A 
ATOM     47  C   UNL A   1      39.272  36.244  40.451  1.00  0.00     0.198 A 
ATOM     48  F   UNL A   1      39.034  33.938  40.054  1.00  0.00    -0.203 F 
ATOM     49  F   UNL A   1      41.753  38.602  39.264  1.00  0.00    -0.200 F 
ATOM     50  C   UNL A   1      39.961  37.432  40.260  1.00  0.00     0.200 A 
ATOM     51  F   UNL A   1      38.206  36.211  41.263  1.00  0.00    -0.200 F 
ATOM     52  F   UNL A   1      39.573  38.543  40.901  1.00  0.00    -0.200 F 
ENDBRANCH  28  42
BRANCH  29  53
ATOM     53  C   UNL A   1      43.473  26.478  34.433  1.00  0.00     0.064 A 
ATOM     54  C   UNL A   1      43.069  25.233  34.937  1.00  0.00     0.173 A 
ATOM     55  C   UNL A   1      44.280  26.476  33.282  1.00  0.00     0.173 A 
ATOM     56  F   UNL A   1      42.319  25.174  36.047  1.00  0.00    -0.203 F 
ATOM     57  C   UNL A   1      43.467  24.043  34.329  1.00  0.00     0.198 A 
ATOM     58  C   UNL A   1      44.651  25.288  32.657  1.00  0.00     0.198 A 
ATOM     59  F   UNL A   1      44.704  27.636  32.758  1.00  0.00    -0.203 F 
ATOM     60  F   UNL A   1      43.106  22.868  34.862  1.00  0.00    -0.200 F 
ATOM     61  C   UNL A   1      44.252  24.070  33.186  1.00  0.00     0.200 A 
ATOM     62  F   UNL A   1      45.399  25.322  31.546  1.00  0.00    -0.200 F 
ATOM     63  F   UNL A   1      44.632  22.927  32.601  1.00  0.00    -0.200 F 
ENDBRANCH  29  53
BRANCH  41  64
ATOM     64  C   UNL A   1      46.025  30.155  39.787  1.00  0.00     0.064 A 
ATOM     65  C   UNL A   1      47.308  30.623  39.473  1.00  0.00     0.173 A 
ATOM     66  C   UNL A   1      45.838  29.508  41.017  1.00  0.00     0.173 A 
ATOM     67  F   UNL A   1      47.537  31.236  38.301  1.00  0.00    -0.203 F 
ATOM     68  C   UNL A   1      48.370  30.432  40.351  1.00  0.00     0.198 A 
ATOM     69  C   UNL A   1      46.896  29.346  41.905  1.00  0.00     0.198 A 
ATOM     70  F   UNL A   1      44.625  29.051  41.363  1.00  0.00    -0.203 F 
ATOM     71  F   UNL A   1      49.599  30.849  40.015  1.00  0.00    -0.200 F 
ATOM     72  C   UNL A   1      48.161  29.802  41.570  1.00  0.00     0.200 A 
ATOM     73  F   UNL A   1      46.688  28.751  43.089  1.00  0.00    -0.200 F 
ATOM     74  F   UNL A   1      49.182  29.630  42.420  1.00  0.00    -0.200 F 
ENDBRANCH  41  64
ENDBRANCH  15  16
ENDBRANCH   8  10
ENDBRANCH   7   8
ENDBRANCH   6   7
ENDBRANCH   5   6
ENDBRANCH   4   5
ENDBRANCH   3   4
ENDBRANCH   2   3
ENDBRANCH   1   2
BRANCH   1  75
ATOM     75  C   UNL A   1      33.243  26.087  26.034  1.00  0.00     0.188 C 
BRANCH  75  76
ATOM     76  C   UNL A   1      32.432  24.892  26.585  1.00  0.00     0.188 C 
BRANCH  76  77
ATOM     77  O   UNL A   1      33.210  23.816  27.094  1.00  0.00    -0.376 OA
BRANCH  77  78
ATOM     78  C   UNL A   1      32.502  22.601  27.316  1.00  0.00     0.202 C 
BRANCH  78  79
ATOM     79  C   UNL A   1      31.014  22.652  26.939  1.00  0.00     0.261 C 
BRANCH  79  80
ATOM     80  O   UNL A   1      30.647  21.896  25.766  1.00  0.00    -0.460 OA
BRANCH  80  81
ATOM     81  C   UNL A   1      31.623  21.275  25.066  1.00  0.00     0.340 C 
ATOM     82  O   UNL A   1      31.890  20.083  25.092  1.00  0.00    -0.246 OA
BRANCH  81  83
ATOM     83  C   UNL A   1      32.183  22.238  24.080  1.00  0.00     0.085 A 
ATOM     84  C   UNL A   1      31.360  23.344  23.755  1.00  0.00     0.043 A 
ATOM     85  C   UNL A   1      33.483  22.135  23.547  1.00  0.00     0.055 A 
ATOM     86  C   UNL A   1      31.825  24.377  22.936  1.00  0.00     0.038 A 
ATOM     87  C   UNL A   1      33.842  23.080  22.602  1.00  0.00     0.029 A 
ATOM     88  C   UNL A   1      33.069  24.210  22.347  1.00  0.00     0.028 A 
BRANCH  85  89
ATOM     89  N   UNL A   1      34.419  21.225  24.082  1.00  0.00    -0.325 N 
ATOM     90  C   UNL A   1      35.538  21.303  24.853  1.00  0.00     0.227 C 
ATOM     91  H   UNL A   1      34.209  20.295  23.833  1.00  0.00     0.169 HD
ATOM     92  O   UNL A   1      35.841  20.260  25.452  1.00  0.00    -0.274 OA
BRANCH  90  93
ATOM     93  C   UNL A   1      36.506  22.481  24.953  1.00  0.00     0.079 C 
ATOM     94  C   UNL A   1      36.044  23.555  25.933  1.00  0.00     0.013 C 
ATOM     95  C   UNL A   1      38.009  22.286  25.179  1.00  0.00     0.013 C 
ATOM     96  C   UNL A   1      37.286  24.403  26.150  1.00  0.00     0.001 C 
ATOM     97  C   UNL A   1      38.434  23.401  26.148  1.00  0.00     0.001 C 
ENDBRANCH  90  93
ENDBRANCH  85  89
BRANCH  86  98
ATOM     98  N   UNL A   1      31.014  25.455  22.628  1.00  0.00    -0.368 N 
ATOM     99  C   UNL A   1      29.912  25.869  23.535  1.00  0.00     0.138 C 
ATOM    100  C   UNL A   1      31.703  26.554  21.923  1.00  0.00     0.138 C 
ATOM    101  C   UNL A   1      30.230  27.119  24.410  1.00  0.00     0.138 C 
ATOM    102  C   UNL A   1      32.097  27.694  22.883  1.00  0.00     0.138 C 
ATOM    103  N   UNL A   1      30.930  28.164  23.640  1.00  0.00    -0.368 N 
BRANCH 103 104
ATOM    104  C   UNL A   1      30.311  29.350  23.292  1.00  0.00     0.037 A 
ATOM    105  C   UNL A   1      29.880  29.575  21.976  1.00  0.00     0.029 A 
ATOM    106  C   UNL A   1      30.025  30.341  24.245  1.00  0.00     0.029 A 
ATOM    107  C   UNL A   1      29.159  30.727  21.636  1.00  0.00     0.041 A 
ATOM    108  C   UNL A   1      29.322  31.500  23.912  1.00  0.00     0.041 A 
ATOM    109  C   UNL A   1      28.885  31.677  22.610  1.00  0.00     0.123 A 
ATOM    110  F   UNL A   1      28.185  32.774  22.293  1.00  0.00    -0.207 F 
ENDBRANCH 103 104
ENDBRANCH  86  98
ENDBRANCH  81  83
ENDBRANCH  80  81
ENDBRANCH  79  80
ENDBRANCH  78  79
ENDBRANCH  77  78
ENDBRANCH  76  77
ENDBRANCH  75  76
ENDBRANCH   1  75
TORSDOF 24
ENDMDL
