MODEL 1
REMARK VINA RESULT:      -9.8      0.000      0.000
REMARK SMILES CCC(CC)([NH2+]CC(=O)Nc1ccc(C)cc1)C(=O)OCCOCCOCCOCCOC(=O)c1ccc(-c2c3nc(c(-c4c(F)c(F)c(F)c(F)c4F)c4ccc([nH]4)c(-c4c(F)c(F)c(F)c(F)c4F)c4nc(c(-c5c(F)c(F)c(F)c(F)c5F)c5ccc2[nH]5)C=C4)C=C3)cc1
REMARK SMILES IDX 25 1 24 2 23 3 22 4 21 5 20 6 18 7 19 8 3 9 2 10 1 11 4 12
REMARK SMILES IDX 5 13 6 14 7 17 8 18 9 19 10 20 11 22 12 23 17 24 13 25 16 26
REMARK SMILES IDX 14 27 15 28 26 29 27 30 28 31 29 32 30 33 31 34 32 35 33 36
REMARK SMILES IDX 34 37 35 38 36 39 97 40 37 41 96 42 38 43 39 44 40 45 90 46
REMARK SMILES IDX 41 47 95 48 89 49 91 50 42 51 94 52 88 53 87 54 43 56 75 57
REMARK SMILES IDX 55 58 74 59 56 60 59 61 73 62 92 63 57 64 58 65 72 67 93 68
REMARK SMILES IDX 60 69 44 70 45 71 53 72 46 73 47 74 51 75 54 76 48 77 49 78
REMARK SMILES IDX 52 79 50 80 76 81 77 82 85 83 78 84 79 85 83 86 86 87 80 88
REMARK SMILES IDX 81 89 84 90 82 91 61 92 62 93 70 94 63 95 64 96 68 97 71 98
REMARK SMILES IDX 65 99 66 100 69 101 67 102
REMARK H PARENT 6 15 6 16 10 21 91 55 59 66
REMARK Flexibility Score: inf
ROOT
ATOM      1  C   UNL A   1      31.371  22.476  25.381  1.00  0.00     0.188 C 
ENDROOT
BRANCH   1   2
ATOM      2  C   UNL A   1      31.450  23.616  24.351  1.00  0.00     0.188 C 
BRANCH   2   3
ATOM      3  O   UNL A   1      30.252  24.314  24.037  1.00  0.00    -0.376 OA
BRANCH   3   4
ATOM      4  C   UNL A   1      30.332  25.737  24.131  1.00  0.00     0.202 C 
BRANCH   4   5
ATOM      5  C   UNL A   1      30.297  26.303  25.550  1.00  0.00     0.261 C 
BRANCH   5   6
ATOM      6  O   UNL A   1      30.916  27.603  25.642  1.00  0.00    -0.459 OA
BRANCH   6   7
ATOM      7  C   UNL A   1      31.678  27.864  26.754  1.00  0.00     0.368 C 
ATOM      8  O   UNL A   1      31.337  27.524  27.863  1.00  0.00    -0.245 OA
BRANCH   7   9
ATOM      9  C   UNL A   1      33.137  28.408  26.426  1.00  0.00     0.194 C 
BRANCH   9  10
ATOM     10  C   UNL A   1      32.896  29.087  25.022  1.00  0.00     0.077 C 
ATOM     11  C   UNL A   1      33.628  28.384  23.845  1.00  0.00     0.011 C 
ENDBRANCH   9  10
BRANCH   9  12
ATOM     12  C   UNL A   1      34.296  27.404  26.178  1.00  0.00     0.077 C 
ATOM     13  C   UNL A   1      33.910  25.958  25.843  1.00  0.00     0.011 C 
ENDBRANCH   9  12
BRANCH   9  14
ATOM     14  N   UNL A   1      33.601  29.346  27.491  1.00  0.00    -0.324 N 
ATOM     15  H   UNL A   1      34.273  28.842  28.069  1.00  0.00     0.347 HD
ATOM     16  H   UNL A   1      32.747  29.640  27.965  1.00  0.00     0.347 HD
BRANCH  14  17
ATOM     17  C   UNL A   1      34.255  30.628  27.057  1.00  0.00     0.363 C 
BRANCH  17  18
ATOM     18  C   UNL A   1      35.625  31.009  27.680  1.00  0.00     0.279 C 
ATOM     19  O   UNL A   1      36.581  30.229  27.560  1.00  0.00    -0.268 OA
ATOM     20  N   UNL A   1      35.854  32.172  28.409  1.00  0.00    -0.321 N 
ATOM     21  H   UNL A   1      36.797  32.391  28.587  1.00  0.00     0.170 HD
BRANCH  20  22
ATOM     22  C   UNL A   1      34.901  33.071  28.924  1.00  0.00     0.041 A 
ATOM     23  C   UNL A   1      34.331  34.079  28.141  1.00  0.00     0.026 A 
ATOM     24  C   UNL A   1      34.513  33.000  30.230  1.00  0.00     0.026 A 
ATOM     25  C   UNL A   1      33.702  35.183  28.746  1.00  0.00     0.005 A 
ATOM     26  C   UNL A   1      33.943  34.107  30.836  1.00  0.00     0.005 A 
ATOM     27  C   UNL A   1      33.585  35.242  30.129  1.00  0.00    -0.051 A 
ATOM     28  C   UNL A   1      33.145  36.464  30.883  1.00  0.00     0.044 C 
ENDBRANCH  20  22
ENDBRANCH  17  18
ENDBRANCH  14  17
ENDBRANCH   9  14
ENDBRANCH   7   9
ENDBRANCH   6   7
ENDBRANCH   5   6
ENDBRANCH   4   5
ENDBRANCH   3   4
ENDBRANCH   2   3
ENDBRANCH   1   2
BRANCH   1  29
ATOM     29  O   UNL A   1      32.282  21.398  25.178  1.00  0.00    -0.377 OA
BRANCH  29  30
ATOM     30  C   UNL A   1      33.544  21.834  24.677  1.00  0.00     0.188 C 
BRANCH  30  31
ATOM     31  C   UNL A   1      34.733  21.153  25.363  1.00  0.00     0.188 C 
BRANCH  31  32
ATOM     32  O   UNL A   1      35.823  20.831  24.514  1.00  0.00    -0.376 OA
BRANCH  32  33
ATOM     33  C   UNL A   1      36.981  21.657  24.524  1.00  0.00     0.202 C 
BRANCH  33  34
ATOM     34  C   UNL A   1      37.868  21.477  25.759  1.00  0.00     0.261 C 
BRANCH  34  35
ATOM     35  O   UNL A   1      39.235  21.732  25.395  1.00  0.00    -0.460 OA
BRANCH  35  36
ATOM     36  C   UNL A   1      40.141  20.921  26.003  1.00  0.00     0.338 C 
ATOM     37  O   UNL A   1      39.975  19.738  26.250  1.00  0.00    -0.246 OA
BRANCH  36  38
ATOM     38  C   UNL A   1      41.235  21.743  26.599  1.00  0.00     0.060 A 
ATOM     39  C   UNL A   1      41.247  21.947  27.986  1.00  0.00     0.016 A 
ATOM     40  C   UNL A   1      42.034  22.546  25.784  1.00  0.00     0.016 A 
ATOM     41  C   UNL A   1      41.939  23.039  28.532  1.00  0.00     0.010 A 
ATOM     42  C   UNL A   1      42.660  23.663  26.325  1.00  0.00     0.010 A 
ATOM     43  C   UNL A   1      42.571  23.969  27.693  1.00  0.00    -0.014 A 
BRANCH  43  44
ATOM     44  C   UNL A   1      42.862  25.369  28.102  1.00  0.00     0.031 A 
ATOM     45  C   UNL A   1      41.792  26.426  28.305  1.00  0.00     0.074 A 
ATOM     46  C   UNL A   1      44.099  25.607  28.607  1.00  0.00     0.049 A 
ATOM     47  N   UNL A   1      41.999  27.651  28.704  1.00  0.00    -0.248 NA
ATOM     48  C   UNL A   1      40.378  26.193  28.012  1.00  0.00     0.031 C 
ATOM     49  C   UNL A   1      44.391  26.584  29.639  1.00  0.00     0.029 A 
ATOM     50  N   UNL A   1      45.338  24.962  28.421  1.00  0.00    -0.354 N 
ATOM     51  C   UNL A   1      40.781  28.248  28.973  1.00  0.00     0.074 A 
ATOM     52  C   UNL A   1      39.809  27.328  28.439  1.00  0.00     0.031 C 
ATOM     53  C   UNL A   1      45.675  26.515  29.983  1.00  0.00     0.029 A 
ATOM     54  C   UNL A   1      46.332  25.804  28.952  1.00  0.00     0.049 A 
ATOM     55  H   UNL A   1      45.481  24.084  27.999  1.00  0.00     0.167 HD
ATOM     56  C   UNL A   1      40.683  29.410  29.692  1.00  0.00     0.037 A 
ATOM     57  C   UNL A   1      47.238  26.478  28.192  1.00  0.00     0.037 A 
ATOM     58  C   UNL A   1      41.954  30.170  29.819  1.00  0.00     0.049 A 
ATOM     59  C   UNL A   1      47.086  27.999  28.143  1.00  0.00     0.074 A 
ATOM     60  C   UNL A   1      42.451  31.080  30.743  1.00  0.00     0.029 A 
ATOM     61  N   UNL A   1      42.999  30.008  28.887  1.00  0.00    -0.354 N 
ATOM     62  N   UNL A   1      45.957  28.662  28.314  1.00  0.00    -0.248 NA
ATOM     63  C   UNL A   1      48.229  28.889  27.987  1.00  0.00     0.031 C 
ATOM     64  C   UNL A   1      43.803  31.368  30.431  1.00  0.00     0.029 A 
ATOM     65  C   UNL A   1      44.116  30.735  29.241  1.00  0.00     0.049 A 
ATOM     66  H   UNL A   1      42.939  29.445  28.081  1.00  0.00     0.167 HD
ATOM     67  C   UNL A   1      46.201  30.023  28.235  1.00  0.00     0.074 A 
ATOM     68  C   UNL A   1      47.642  30.096  28.061  1.00  0.00     0.031 C 
ATOM     69  C   UNL A   1      45.243  31.003  28.347  1.00  0.00     0.037 A 
BRANCH  56  70
ATOM     70  C   UNL A   1      39.401  29.808  30.478  1.00  0.00     0.064 A 
ATOM     71  C   UNL A   1      38.846  31.110  30.397  1.00  0.00     0.173 A 
ATOM     72  C   UNL A   1      38.793  29.006  31.478  1.00  0.00     0.173 A 
ATOM     73  F   UNL A   1      39.220  31.966  29.437  1.00  0.00    -0.203 F 
ATOM     74  C   UNL A   1      37.882  31.595  31.299  1.00  0.00     0.198 A 
ATOM     75  C   UNL A   1      37.748  29.459  32.303  1.00  0.00     0.198 A 
ATOM     76  F   UNL A   1      39.221  27.769  31.752  1.00  0.00    -0.203 F 
ATOM     77  F   UNL A   1      37.514  32.885  31.252  1.00  0.00    -0.200 F 
ATOM     78  C   UNL A   1      37.324  30.766  32.246  1.00  0.00     0.200 A 
ATOM     79  F   UNL A   1      37.186  28.617  33.184  1.00  0.00    -0.200 F 
ATOM     80  F   UNL A   1      36.395  31.222  33.097  1.00  0.00    -0.200 F 
ENDBRANCH  56  70
BRANCH  57  81
ATOM     81  C   UNL A   1      48.058  25.523  27.403  1.00  0.00     0.064 A 
ATOM     82  C   UNL A   1      47.907  25.684  26.005  1.00  0.00     0.173 A 
ATOM     83  C   UNL A   1      49.344  25.242  27.886  1.00  0.00     0.173 A 
ATOM     84  F   UNL A   1      46.689  25.923  25.493  1.00  0.00    -0.203 F 
ATOM     85  C   UNL A   1      49.020  25.881  25.191  1.00  0.00     0.198 A 
ATOM     86  C   UNL A   1      50.455  25.425  27.061  1.00  0.00     0.198 A 
ATOM     87  F   UNL A   1      49.534  25.040  29.198  1.00  0.00    -0.203 F 
ATOM     88  F   UNL A   1      48.857  26.291  23.924  1.00  0.00    -0.200 F 
ATOM     89  C   UNL A   1      50.292  25.808  25.735  1.00  0.00     0.200 A 
ATOM     90  F   UNL A   1      51.688  25.380  27.587  1.00  0.00    -0.200 F 
ATOM     91  F   UNL A   1      51.353  26.185  25.008  1.00  0.00    -0.200 F 
ENDBRANCH  57  81
BRANCH  69  92
ATOM     92  C   UNL A   1      45.283  32.467  27.861  1.00  0.00     0.064 A 
ATOM     93  C   UNL A   1      46.098  33.500  28.334  1.00  0.00     0.173 A 
ATOM     94  C   UNL A   1      44.411  32.862  26.796  1.00  0.00     0.173 A 
ATOM     95  F   UNL A   1      47.070  33.290  29.222  1.00  0.00    -0.203 F 
ATOM     96  C   UNL A   1      45.976  34.820  27.871  1.00  0.00     0.198 A 
ATOM     97  C   UNL A   1      44.263  34.178  26.364  1.00  0.00     0.198 A 
ATOM     98  F   UNL A   1      43.704  31.966  26.090  1.00  0.00    -0.203 F 
ATOM     99  F   UNL A   1      46.790  35.764  28.365  1.00  0.00    -0.200 F 
ATOM    100  C   UNL A   1      45.043  35.165  26.911  1.00  0.00     0.200 A 
ATOM    101  F   UNL A   1      43.377  34.471  25.402  1.00  0.00    -0.200 F 
ATOM    102  F   UNL A   1      44.930  36.430  26.489  1.00  0.00    -0.200 F 
ENDBRANCH  69  92
ENDBRANCH  43  44
ENDBRANCH  36  38
ENDBRANCH  35  36
ENDBRANCH  34  35
ENDBRANCH  33  34
ENDBRANCH  32  33
ENDBRANCH  31  32
ENDBRANCH  30  31
ENDBRANCH  29  30
ENDBRANCH   1  29
TORSDOF 26
ENDMDL
MODEL 2
REMARK VINA RESULT:      -9.6      3.931      9.843
REMARK SMILES CCC(CC)([NH2+]CC(=O)Nc1ccc(C)cc1)C(=O)OCCOCCOCCOCCOC(=O)c1ccc(-c2c3nc(c(-c4c(F)c(F)c(F)c(F)c4F)c4ccc([nH]4)c(-c4c(F)c(F)c(F)c(F)c4F)c4nc(c(-c5c(F)c(F)c(F)c(F)c5F)c5ccc2[nH]5)C=C4)C=C3)cc1
REMARK SMILES IDX 25 1 24 2 23 3 22 4 21 5 20 6 18 7 19 8 3 9 2 10 1 11 4 12
REMARK SMILES IDX 5 13 6 14 7 17 8 18 9 19 10 20 11 22 12 23 17 24 13 25 16 26
REMARK SMILES IDX 14 27 15 28 26 29 27 30 28 31 29 32 30 33 31 34 32 35 33 36
REMARK SMILES IDX 34 37 35 38 36 39 97 40 37 41 96 42 38 43 39 44 40 45 90 46
REMARK SMILES IDX 41 47 95 48 89 49 91 50 42 51 94 52 88 53 87 54 43 56 75 57
REMARK SMILES IDX 55 58 74 59 56 60 59 61 73 62 92 63 57 64 58 65 72 67 93 68
REMARK SMILES IDX 60 69 44 70 45 71 53 72 46 73 47 74 51 75 54 76 48 77 49 78
REMARK SMILES IDX 52 79 50 80 76 81 77 82 85 83 78 84 79 85 83 86 86 87 80 88
REMARK SMILES IDX 81 89 84 90 82 91 61 92 62 93 70 94 63 95 64 96 68 97 71 98
REMARK SMILES IDX 65 99 66 100 69 101 67 102
REMARK H PARENT 6 15 6 16 10 21 91 55 59 66
REMARK Flexibility Score: inf
ROOT
ATOM      1  C   UNL A   1      40.441  20.338  26.398  1.00  0.00     0.188 C 
ENDROOT
BRANCH   1   2
ATOM      2  C   UNL A   1      39.481  21.500  26.085  1.00  0.00     0.188 C 
BRANCH   2   3
ATOM      3  O   UNL A   1      38.355  21.229  25.260  1.00  0.00    -0.376 OA
BRANCH   3   4
ATOM      4  C   UNL A   1      37.137  21.851  25.669  1.00  0.00     0.202 C 
BRANCH   4   5
ATOM      5  C   UNL A   1      35.858  21.123  25.256  1.00  0.00     0.261 C 
BRANCH   5   6
ATOM      6  O   UNL A   1      35.032  21.913  24.376  1.00  0.00    -0.459 OA
BRANCH   6   7
ATOM      7  C   UNL A   1      33.673  21.868  24.573  1.00  0.00     0.368 C 
ATOM      8  O   UNL A   1      33.122  20.900  25.044  1.00  0.00    -0.245 OA
BRANCH   7   9
ATOM      9  C   UNL A   1      32.944  23.268  24.376  1.00  0.00     0.194 C 
BRANCH   9  10
ATOM     10  C   UNL A   1      33.537  24.089  25.585  1.00  0.00     0.077 C 
ATOM     11  C   UNL A   1      34.449  25.273  25.160  1.00  0.00     0.011 C 
ENDBRANCH   9  10
BRANCH   9  12
ATOM     12  C   UNL A   1      31.405  23.368  24.556  1.00  0.00     0.077 C 
ATOM     13  C   UNL A   1      30.891  23.922  25.892  1.00  0.00     0.011 C 
ENDBRANCH   9  12
BRANCH   9  14
ATOM     14  N   UNL A   1      33.257  23.840  23.032  1.00  0.00    -0.324 N 
ATOM     15  H   UNL A   1      33.461  23.059  22.409  1.00  0.00     0.347 HD
ATOM     16  H   UNL A   1      34.031  24.483  23.200  1.00  0.00     0.347 HD
BRANCH  14  17
ATOM     17  C   UNL A   1      32.204  24.681  22.367  1.00  0.00     0.363 C 
BRANCH  17  18
ATOM     18  C   UNL A   1      32.657  25.869  21.477  1.00  0.00     0.279 C 
ATOM     19  O   UNL A   1      33.153  25.636  20.365  1.00  0.00    -0.268 OA
ATOM     20  N   UNL A   1      32.577  27.205  21.859  1.00  0.00    -0.321 N 
ATOM     21  H   UNL A   1      32.715  27.868  21.144  1.00  0.00     0.170 HD
BRANCH  20  22
ATOM     22  C   UNL A   1      32.324  27.724  23.143  1.00  0.00     0.041 A 
ATOM     23  C   UNL A   1      33.239  28.544  23.807  1.00  0.00     0.026 A 
ATOM     24  C   UNL A   1      31.167  27.420  23.799  1.00  0.00     0.026 A 
ATOM     25  C   UNL A   1      33.155  28.726  25.200  1.00  0.00     0.005 A 
ATOM     26  C   UNL A   1      31.106  27.549  25.176  1.00  0.00     0.005 A 
ATOM     27  C   UNL A   1      32.117  28.140  25.914  1.00  0.00    -0.051 A 
ATOM     28  C   UNL A   1      32.060  28.077  27.413  1.00  0.00     0.044 C 
ENDBRANCH  20  22
ENDBRANCH  17  18
ENDBRANCH  14  17
ENDBRANCH   9  14
ENDBRANCH   7   9
ENDBRANCH   6   7
ENDBRANCH   5   6
ENDBRANCH   4   5
ENDBRANCH   3   4
ENDBRANCH   2   3
ENDBRANCH   1   2
BRANCH   1  29
ATOM     29  O   UNL A   1      41.804  20.552  26.037  1.00  0.00    -0.377 OA
BRANCH  29  30
ATOM     30  C   UNL A   1      42.105  21.929  25.826  1.00  0.00     0.188 C 
BRANCH  30  31
ATOM     31  C   UNL A   1      43.162  22.471  26.795  1.00  0.00     0.188 C 
BRANCH  31  32
ATOM     32  O   UNL A   1      43.684  23.750  26.474  1.00  0.00    -0.376 OA
BRANCH  32  33
ATOM     33  C   UNL A   1      43.406  24.314  25.198  1.00  0.00     0.202 C 
BRANCH  33  34
ATOM     34  C   UNL A   1      42.587  25.606  25.249  1.00  0.00     0.261 C 
BRANCH  34  35
ATOM     35  O   UNL A   1      42.105  25.803  26.590  1.00  0.00    -0.460 OA
BRANCH  35  36
ATOM     36  C   UNL A   1      40.757  25.693  26.725  1.00  0.00     0.338 C 
ATOM     37  O   UNL A   1      40.066  24.820  26.228  1.00  0.00    -0.246 OA
BRANCH  36  38
ATOM     38  C   UNL A   1      40.204  26.952  27.305  1.00  0.00     0.060 A 
ATOM     39  C   UNL A   1      40.665  28.181  26.813  1.00  0.00     0.016 A 
ATOM     40  C   UNL A   1      39.497  26.921  28.507  1.00  0.00     0.016 A 
ATOM     41  C   UNL A   1      40.546  29.343  27.593  1.00  0.00     0.010 A 
ATOM     42  C   UNL A   1      39.442  28.061  29.301  1.00  0.00     0.010 A 
ATOM     43  C   UNL A   1      40.022  29.273  28.892  1.00  0.00    -0.014 A 
BRANCH  43  44
ATOM     44  C   UNL A   1      40.320  30.280  29.946  1.00  0.00     0.031 A 
ATOM     45  C   UNL A   1      41.607  30.299  30.751  1.00  0.00     0.074 A 
ATOM     46  C   UNL A   1      39.542  31.392  29.958  1.00  0.00     0.049 A 
ATOM     47  N   UNL A   1      41.928  31.186  31.651  1.00  0.00    -0.248 NA
ATOM     48  C   UNL A   1      42.631  29.261  30.638  1.00  0.00     0.031 C 
ATOM     49  C   UNL A   1      40.003  32.712  30.346  1.00  0.00     0.029 A 
ATOM     50  N   UNL A   1      38.227  31.632  29.514  1.00  0.00    -0.354 N 
ATOM     51  C   UNL A   1      43.249  31.001  32.014  1.00  0.00     0.074 A 
ATOM     52  C   UNL A   1      43.606  29.738  31.422  1.00  0.00     0.031 C 
ATOM     53  C   UNL A   1      39.033  33.605  30.165  1.00  0.00     0.029 A 
ATOM     54  C   UNL A   1      37.828  32.875  30.040  1.00  0.00     0.049 A 
ATOM     55  H   UNL A   1      37.687  31.041  28.942  1.00  0.00     0.167 HD
ATOM     56  C   UNL A   1      43.955  31.954  32.700  1.00  0.00     0.037 A 
ATOM     57  C   UNL A   1      36.894  33.018  31.020  1.00  0.00     0.037 A 
ATOM     58  C   UNL A   1      43.121  32.997  33.351  1.00  0.00     0.049 A 
ATOM     59  C   UNL A   1      37.404  33.494  32.380  1.00  0.00     0.074 A 
ATOM     60  C   UNL A   1      43.339  34.312  33.738  1.00  0.00     0.029 A 
ATOM     61  N   UNL A   1      41.770  32.754  33.678  1.00  0.00    -0.354 N 
ATOM     62  N   UNL A   1      38.624  33.305  32.850  1.00  0.00    -0.248 NA
ATOM     63  C   UNL A   1      36.589  34.305  33.276  1.00  0.00     0.031 C 
ATOM     64  C   UNL A   1      42.118  34.877  34.181  1.00  0.00     0.029 A 
ATOM     65  C   UNL A   1      41.158  33.879  34.189  1.00  0.00     0.049 A 
ATOM     66  H   UNL A   1      41.320  31.887  33.557  1.00  0.00     0.167 HD
ATOM     67  C   UNL A   1      38.738  33.898  34.097  1.00  0.00     0.074 A 
ATOM     68  C   UNL A   1      37.444  34.530  34.288  1.00  0.00     0.031 C 
ATOM     69  C   UNL A   1      39.869  33.875  34.880  1.00  0.00     0.037 A 
BRANCH  56  70
ATOM     70  C   UNL A   1      45.507  32.055  32.643  1.00  0.00     0.064 A 
ATOM     71  C   UNL A   1      46.186  32.502  31.482  1.00  0.00     0.173 A 
ATOM     72  C   UNL A   1      46.381  31.537  33.633  1.00  0.00     0.173 A 
ATOM     73  F   UNL A   1      45.534  33.122  30.490  1.00  0.00    -0.203 F 
ATOM     74  C   UNL A   1      47.568  32.331  31.283  1.00  0.00     0.198 A 
ATOM     75  C   UNL A   1      47.776  31.473  33.476  1.00  0.00     0.198 A 
ATOM     76  F   UNL A   1      45.925  31.007  34.774  1.00  0.00    -0.203 F 
ATOM     77  F   UNL A   1      48.116  32.642  30.098  1.00  0.00    -0.200 F 
ATOM     78  C   UNL A   1      48.367  31.827  32.285  1.00  0.00     0.200 A 
ATOM     79  F   UNL A   1      48.538  31.025  34.487  1.00  0.00    -0.200 F 
ATOM     80  F   UNL A   1      49.686  31.676  32.104  1.00  0.00    -0.200 F 
ENDBRANCH  56  70
BRANCH  57  81
ATOM     81  C   UNL A   1      35.592  32.461  30.572  1.00  0.00     0.064 A 
ATOM     82  C   UNL A   1      34.887  33.326  29.702  1.00  0.00     0.173 A 
ATOM     83  C   UNL A   1      35.554  31.088  30.289  1.00  0.00     0.173 A 
ATOM     84  F   UNL A   1      34.868  34.645  29.952  1.00  0.00    -0.203 F 
ATOM     85  C   UNL A   1      34.458  32.880  28.455  1.00  0.00     0.198 A 
ATOM     86  C   UNL A   1      35.107  30.644  29.043  1.00  0.00     0.198 A 
ATOM     87  F   UNL A   1      36.172  30.222  31.104  1.00  0.00    -0.203 F 
ATOM     88  F   UNL A   1      34.029  33.763  27.540  1.00  0.00    -0.200 F 
ATOM     89  C   UNL A   1      34.623  31.550  28.106  1.00  0.00     0.200 A 
ATOM     90  F   UNL A   1      35.287  29.363  28.690  1.00  0.00    -0.200 F 
ATOM     91  F   UNL A   1      34.392  31.155  26.846  1.00  0.00    -0.200 F 
ENDBRANCH  57  81
BRANCH  69  92
ATOM     92  C   UNL A   1      40.007  34.091  36.401  1.00  0.00     0.064 A 
ATOM     93  C   UNL A   1      40.377  33.149  37.366  1.00  0.00     0.173 A 
ATOM     94  C   UNL A   1      39.748  35.394  36.937  1.00  0.00     0.173 A 
ATOM     95  F   UNL A   1      40.792  31.924  37.042  1.00  0.00    -0.203 F 
ATOM     96  C   UNL A   1      40.378  33.446  38.738  1.00  0.00     0.198 A 
ATOM     97  C   UNL A   1      39.711  35.678  38.300  1.00  0.00     0.198 A 
ATOM     98  F   UNL A   1      39.575  36.464  36.145  1.00  0.00    -0.203 F 
ATOM     99  F   UNL A   1      40.744  32.497  39.613  1.00  0.00    -0.200 F 
ATOM    100  C   UNL A   1      40.019  34.695  39.207  1.00  0.00     0.200 A 
ATOM    101  F   UNL A   1      39.399  36.913  38.719  1.00  0.00    -0.200 F 
ATOM    102  F   UNL A   1      40.012  34.959  40.519  1.00  0.00    -0.200 F 
ENDBRANCH  69  92
ENDBRANCH  43  44
ENDBRANCH  36  38
ENDBRANCH  35  36
ENDBRANCH  34  35
ENDBRANCH  33  34
ENDBRANCH  32  33
ENDBRANCH  31  32
ENDBRANCH  30  31
ENDBRANCH  29  30
ENDBRANCH   1  29
TORSDOF 26
ENDMDL
MODEL 3
REMARK VINA RESULT:      -8.8      3.397      7.999
REMARK SMILES CCC(CC)([NH2+]CC(=O)Nc1ccc(C)cc1)C(=O)OCCOCCOCCOCCOC(=O)c1ccc(-c2c3nc(c(-c4c(F)c(F)c(F)c(F)c4F)c4ccc([nH]4)c(-c4c(F)c(F)c(F)c(F)c4F)c4nc(c(-c5c(F)c(F)c(F)c(F)c5F)c5ccc2[nH]5)C=C4)C=C3)cc1
REMARK SMILES IDX 25 1 24 2 23 3 22 4 21 5 20 6 18 7 19 8 3 9 2 10 1 11 4 12
REMARK SMILES IDX 5 13 6 14 7 17 8 18 9 19 10 20 11 22 12 23 17 24 13 25 16 26
REMARK SMILES IDX 14 27 15 28 26 29 27 30 28 31 29 32 30 33 31 34 32 35 33 36
REMARK SMILES IDX 34 37 35 38 36 39 97 40 37 41 96 42 38 43 39 44 40 45 90 46
REMARK SMILES IDX 41 47 95 48 89 49 91 50 42 51 94 52 88 53 87 54 43 56 75 57
REMARK SMILES IDX 55 58 74 59 56 60 59 61 73 62 92 63 57 64 58 65 72 67 93 68
REMARK SMILES IDX 60 69 44 70 45 71 53 72 46 73 47 74 51 75 54 76 48 77 49 78
REMARK SMILES IDX 52 79 50 80 76 81 77 82 85 83 78 84 79 85 83 86 86 87 80 88
REMARK SMILES IDX 81 89 84 90 82 91 61 92 62 93 70 94 63 95 64 96 68 97 71 98
REMARK SMILES IDX 65 99 66 100 69 101 67 102
REMARK H PARENT 6 15 6 16 10 21 91 55 59 66
REMARK Flexibility Score: inf
ROOT
ATOM      1  C   UNL A   1      40.282  20.060  25.818  1.00  0.00     0.188 C 
ENDROOT
BRANCH   1   2
ATOM      2  C   UNL A   1      39.048  20.922  25.495  1.00  0.00     0.188 C 
BRANCH   2   3
ATOM      3  O   UNL A   1      37.764  20.363  25.738  1.00  0.00    -0.376 OA
BRANCH   3   4
ATOM      4  C   UNL A   1      36.685  20.989  25.044  1.00  0.00     0.202 C 
BRANCH   4   5
ATOM      5  C   UNL A   1      36.320  22.392  25.528  1.00  0.00     0.261 C 
BRANCH   5   6
ATOM      6  O   UNL A   1      35.054  22.845  25.006  1.00  0.00    -0.459 OA
BRANCH   6   7
ATOM      7  C   UNL A   1      34.071  23.160  25.912  1.00  0.00     0.368 C 
ATOM      8  O   UNL A   1      34.183  22.922  27.093  1.00  0.00    -0.245 OA
BRANCH   7   9
ATOM      9  C   UNL A   1      32.915  24.080  25.321  1.00  0.00     0.194 C 
BRANCH   9  10
ATOM     10  C   UNL A   1      33.347  25.495  25.869  1.00  0.00     0.077 C 
ATOM     11  C   UNL A   1      32.179  26.325  26.469  1.00  0.00     0.011 C 
ENDBRANCH   9  10
BRANCH   9  12
ATOM     12  C   UNL A   1      31.455  23.899  25.818  1.00  0.00     0.077 C 
ATOM     13  C   UNL A   1      30.872  22.481  25.775  1.00  0.00     0.011 C 
ENDBRANCH   9  12
BRANCH   9  14
ATOM     14  N   UNL A   1      32.877  23.984  23.831  1.00  0.00    -0.324 N 
ATOM     15  H   UNL A   1      32.663  23.015  23.594  1.00  0.00     0.347 HD
ATOM     16  H   UNL A   1      33.791  24.319  23.528  1.00  0.00     0.347 HD
BRANCH  14  17
ATOM     17  C   UNL A   1      31.892  24.853  23.099  1.00  0.00     0.363 C 
BRANCH  17  18
ATOM     18  C   UNL A   1      32.407  25.735  21.931  1.00  0.00     0.279 C 
ATOM     19  O   UNL A   1      33.275  25.283  21.170  1.00  0.00    -0.268 OA
ATOM     20  N   UNL A   1      31.982  27.038  21.691  1.00  0.00    -0.321 N 
ATOM     21  H   UNL A   1      32.234  27.422  20.821  1.00  0.00     0.170 HD
BRANCH  20  22
ATOM     22  C   UNL A   1      31.234  27.874  22.543  1.00  0.00     0.041 A 
ATOM     23  C   UNL A   1      29.861  28.070  22.374  1.00  0.00     0.026 A 
ATOM     24  C   UNL A   1      31.840  28.547  23.563  1.00  0.00     0.026 A 
ATOM     25  C   UNL A   1      29.220  29.176  22.962  1.00  0.00     0.005 A 
ATOM     26  C   UNL A   1      31.231  29.667  24.101  1.00  0.00     0.005 A 
ATOM     27  C   UNL A   1      29.941  30.046  23.770  1.00  0.00    -0.051 A 
ATOM     28  C   UNL A   1      29.420  31.368  24.254  1.00  0.00     0.044 C 
ENDBRANCH  20  22
ENDBRANCH  17  18
ENDBRANCH  14  17
ENDBRANCH   9  14
ENDBRANCH   7   9
ENDBRANCH   6   7
ENDBRANCH   5   6
ENDBRANCH   4   5
ENDBRANCH   3   4
ENDBRANCH   2   3
ENDBRANCH   1   2
BRANCH   1  29
ATOM     29  O   UNL A   1      40.924  20.346  27.058  1.00  0.00    -0.377 OA
BRANCH  29  30
ATOM     30  C   UNL A   1      42.346  20.357  26.950  1.00  0.00     0.188 C 
BRANCH  30  31
ATOM     31  C   UNL A   1      42.854  19.784  25.622  1.00  0.00     0.188 C 
BRANCH  31  32
ATOM     32  O   UNL A   1      43.890  20.523  24.996  1.00  0.00    -0.376 OA
BRANCH  32  33
ATOM     33  C   UNL A   1      44.482  21.614  25.690  1.00  0.00     0.202 C 
BRANCH  33  34
ATOM     34  C   UNL A   1      45.357  22.514  24.813  1.00  0.00     0.261 C 
BRANCH  34  35
ATOM     35  O   UNL A   1      45.215  23.876  25.250  1.00  0.00    -0.460 OA
BRANCH  35  36
ATOM     36  C   UNL A   1      46.218  24.703  24.851  1.00  0.00     0.338 C 
ATOM     37  O   UNL A   1      47.170  24.377  24.161  1.00  0.00    -0.246 OA
BRANCH  36  38
ATOM     38  C   UNL A   1      46.157  25.978  25.623  1.00  0.00     0.060 A 
ATOM     39  C   UNL A   1      46.187  25.922  27.023  1.00  0.00     0.016 A 
ATOM     40  C   UNL A   1      45.764  27.161  24.996  1.00  0.00     0.016 A 
ATOM     41  C   UNL A   1      45.685  26.990  27.783  1.00  0.00     0.010 A 
ATOM     42  C   UNL A   1      45.207  28.186  25.753  1.00  0.00     0.010 A 
ATOM     43  C   UNL A   1      45.096  28.095  27.150  1.00  0.00    -0.014 A 
BRANCH  43  44
ATOM     44  C   UNL A   1      44.110  28.987  27.818  1.00  0.00     0.031 A 
ATOM     45  C   UNL A   1      44.454  30.358  28.369  1.00  0.00     0.074 A 
ATOM     46  C   UNL A   1      42.800  28.678  27.643  1.00  0.00     0.049 A 
ATOM     47  N   UNL A   1      43.614  31.189  28.921  1.00  0.00    -0.248 NA
ATOM     48  C   UNL A   1      45.817  30.889  28.388  1.00  0.00     0.031 C 
ATOM     49  C   UNL A   1      41.729  29.656  27.567  1.00  0.00     0.029 A 
ATOM     50  N   UNL A   1      42.141  27.464  27.366  1.00  0.00    -0.354 N 
ATOM     51  C   UNL A   1      44.240  32.407  29.105  1.00  0.00     0.074 A 
ATOM     52  C   UNL A   1      45.630  32.135  28.841  1.00  0.00     0.031 C 
ATOM     53  C   UNL A   1      40.575  29.048  27.300  1.00  0.00     0.029 A 
ATOM     54  C   UNL A   1      40.767  27.675  27.580  1.00  0.00     0.049 A 
ATOM     55  H   UNL A   1      42.564  26.624  27.076  1.00  0.00     0.167 HD
ATOM     56  C   UNL A   1      43.539  33.553  29.375  1.00  0.00     0.037 A 
ATOM     57  C   UNL A   1      40.070  27.135  28.617  1.00  0.00     0.037 A 
ATOM     58  C   UNL A   1      42.143  33.333  29.833  1.00  0.00     0.049 A 
ATOM     59  C   UNL A   1      39.584  28.109  29.690  1.00  0.00     0.074 A 
ATOM     60  C   UNL A   1      40.980  34.090  29.795  1.00  0.00     0.029 A 
ATOM     61  N   UNL A   1      41.752  32.115  30.426  1.00  0.00    -0.354 N 
ATOM     62  N   UNL A   1      40.152  29.262  29.992  1.00  0.00    -0.248 NA
ATOM     63  C   UNL A   1      38.354  27.888  30.441  1.00  0.00     0.031 C 
ATOM     64  C   UNL A   1      39.895  33.301  30.252  1.00  0.00     0.029 A 
ATOM     65  C   UNL A   1      40.399  32.089  30.692  1.00  0.00     0.049 A 
ATOM     66  H   UNL A   1      42.368  31.375  30.626  1.00  0.00     0.167 HD
ATOM     67  C   UNL A   1      39.424  29.892  30.988  1.00  0.00     0.074 A 
ATOM     68  C   UNL A   1      38.300  28.996  31.199  1.00  0.00     0.031 C 
ATOM     69  C   UNL A   1      39.747  31.103  31.555  1.00  0.00     0.037 A 
BRANCH  56  70
ATOM     70  C   UNL A   1      44.086  34.972  29.044  1.00  0.00     0.064 A 
ATOM     71  C   UNL A   1      44.543  35.314  27.747  1.00  0.00     0.173 A 
ATOM     72  C   UNL A   1      44.367  35.969  30.013  1.00  0.00     0.173 A 
ATOM     73  F   UNL A   1      44.268  34.544  26.687  1.00  0.00    -0.203 F 
ATOM     74  C   UNL A   1      45.307  36.464  27.477  1.00  0.00     0.198 A 
ATOM     75  C   UNL A   1      45.031  37.172  29.716  1.00  0.00     0.198 A 
ATOM     76  F   UNL A   1      44.072  35.802  31.307  1.00  0.00    -0.203 F 
ATOM     77  F   UNL A   1      45.832  36.646  26.255  1.00  0.00    -0.200 F 
ATOM     78  C   UNL A   1      45.542  37.400  28.459  1.00  0.00     0.200 A 
ATOM     79  F   UNL A   1      45.203  38.090  30.679  1.00  0.00    -0.200 F 
ATOM     80  F   UNL A   1      46.257  38.504  28.202  1.00  0.00    -0.200 F 
ENDBRANCH  56  70
BRANCH  57  81
ATOM     81  C   UNL A   1      40.130  25.651  28.557  1.00  0.00     0.064 A 
ATOM     82  C   UNL A   1      39.278  25.099  27.572  1.00  0.00     0.173 A 
ATOM     83  C   UNL A   1      41.391  25.062  28.726  1.00  0.00     0.173 A 
ATOM     84  F   UNL A   1      38.049  25.611  27.396  1.00  0.00    -0.203 F 
ATOM     85  C   UNL A   1      39.784  24.237  26.601  1.00  0.00     0.198 A 
ATOM     86  C   UNL A   1      41.887  24.185  27.758  1.00  0.00     0.198 A 
ATOM     87  F   UNL A   1      42.221  25.521  29.673  1.00  0.00    -0.203 F 
ATOM     88  F   UNL A   1      39.039  23.929  25.528  1.00  0.00    -0.200 F 
ATOM     89  C   UNL A   1      41.105  23.829  26.665  1.00  0.00     0.200 A 
ATOM     90  F   UNL A   1      43.172  23.806  27.801  1.00  0.00    -0.200 F 
ATOM     91  F   UNL A   1      41.650  23.161  25.638  1.00  0.00    -0.200 F 
ENDBRANCH  57  81
BRANCH  69  92
ATOM     92  C   UNL A   1      39.311  31.692  32.911  1.00  0.00     0.064 A 
ATOM     93  C   UNL A   1      38.186  32.480  33.177  1.00  0.00     0.173 A 
ATOM     94  C   UNL A   1      40.110  31.421  34.068  1.00  0.00     0.173 A 
ATOM     95  F   UNL A   1      37.251  32.718  32.257  1.00  0.00    -0.203 F 
ATOM     96  C   UNL A   1      37.945  33.036  34.443  1.00  0.00     0.198 A 
ATOM     97  C   UNL A   1      39.893  32.005  35.314  1.00  0.00     0.198 A 
ATOM     98  F   UNL A   1      41.111  30.527  34.044  1.00  0.00    -0.203 F 
ATOM     99  F   UNL A   1      36.847  33.782  34.632  1.00  0.00    -0.200 F 
ATOM    100  C   UNL A   1      38.809  32.824  35.501  1.00  0.00     0.200 A 
ATOM    101  F   UNL A   1      40.728  31.744  36.331  1.00  0.00    -0.200 F 
ATOM    102  F   UNL A   1      38.572  33.373  36.699  1.00  0.00    -0.200 F 
ENDBRANCH  69  92
ENDBRANCH  43  44
ENDBRANCH  36  38
ENDBRANCH  35  36
ENDBRANCH  34  35
ENDBRANCH  33  34
ENDBRANCH  32  33
ENDBRANCH  31  32
ENDBRANCH  30  31
ENDBRANCH  29  30
ENDBRANCH   1  29
TORSDOF 26
ENDMDL
