MODEL 1
REMARK VINA RESULT:     -11.3      0.000      0.000
REMARK SMILES CC1=C(CC(=O)OCCOCCOCCOCCOC(=O)c2ccc(-c3c4nc(c(-c5c(F)c(F)c(F)c(F)c5F)c5ccc([nH]5)c(-c5c(F)c(F)c(F)c(F)c5F)c5nc(c(-c6c(F)c(F)c(F)c(F)c6F)c6ccc3[nH]6)C=C5)C=C4)cc2)c2cc(F)ccc2/C1=C\c1cccc(OCc2ccccc2)c1
REMARK SMILES IDX 11 1 10 2 9 3 8 4 7 5 5 6 6 7 4 8 3 9 1 10 2 11 92 12 85 13
REMARK SMILES IDX 91 14 93 15 86 16 90 17 87 18 89 19 88 20 94 21 95 22 107 23
REMARK SMILES IDX 96 24 98 25 97 26 99 27 100 28 101 29 102 30 106 31 103 32
REMARK SMILES IDX 105 33 104 34 12 35 13 36 14 37 15 38 16 39 17 40 18 41
REMARK SMILES IDX 19 42 20 43 21 44 22 45 23 46 84 47 24 48 83 49 25 50 26 51
REMARK SMILES IDX 27 52 77 53 28 54 82 55 76 56 78 57 29 58 81 59 75 60 74 61
REMARK SMILES IDX 30 63 62 64 42 65 61 66 43 67 46 68 60 69 79 70 44 71 45 72
REMARK SMILES IDX 59 74 80 75 47 76 31 77 32 78 40 79 33 80 34 81 38 82 41 83
REMARK SMILES IDX 35 84 36 85 39 86 37 87 63 88 64 89 72 90 65 91 66 92 70 93
REMARK SMILES IDX 73 94 67 95 68 96 71 97 69 98 48 99 49 100 57 101 50 102
REMARK SMILES IDX 51 103 55 104 58 105 52 106 53 107 56 108 54 109
REMARK H PARENT 78 62 46 73
REMARK Flexibility Score: inf
ROOT
ATOM      1  C   UNL A   1      34.651  29.190  26.994  1.00  0.00     0.188 C 
ENDROOT
BRANCH   1   2
ATOM      2  O   UNL A   1      33.752  29.634  26.002  1.00  0.00    -0.376 OA
BRANCH   2   3
ATOM      3  C   UNL A   1      32.461  29.065  25.954  1.00  0.00     0.202 C 
BRANCH   3   4
ATOM      4  C   UNL A   1      31.343  29.677  25.087  1.00  0.00     0.261 C 
BRANCH   4   5
ATOM      5  O   UNL A   1      31.477  29.595  23.653  1.00  0.00    -0.463 OA
BRANCH   5   6
ATOM      6  C   UNL A   1      30.393  29.245  22.923  1.00  0.00     0.310 C 
ATOM      7  O   UNL A   1      29.566  30.056  22.515  1.00  0.00    -0.252 OA
BRANCH   6   8
ATOM      8  C   UNL A   1      30.273  27.738  22.618  1.00  0.00     0.159 C 
BRANCH   8   9
ATOM      9  C   UNL A   1      31.241  26.728  23.177  1.00  0.00    -0.025 C 
ATOM     10  C   UNL A   1      33.243  27.032  21.626  1.00  0.00     0.045 C 
ATOM     11  C   UNL A   1      32.497  26.426  22.767  1.00  0.00    -0.039 C 
ATOM     12  C   UNL A   1      33.082  25.385  23.634  1.00  0.00    -0.014 C 
ATOM     13  C   UNL A   1      30.985  25.926  24.401  1.00  0.00    -0.011 A 
ATOM     14  C   UNL A   1      32.075  25.071  24.659  1.00  0.00    -0.010 A 
ATOM     15  C   UNL A   1      34.312  24.854  23.490  1.00  0.00     0.017 C 
ATOM     16  C   UNL A   1      29.858  25.876  25.215  1.00  0.00     0.048 A 
ATOM     17  C   UNL A   1      32.035  24.146  25.698  1.00  0.00     0.012 A 
ATOM     18  C   UNL A   1      29.828  24.944  26.253  1.00  0.00     0.123 A 
ATOM     19  C   UNL A   1      30.896  24.083  26.499  1.00  0.00     0.040 A 
ATOM     20  F   UNL A   1      28.727  24.841  27.009  1.00  0.00    -0.207 F 
BRANCH  15  21
ATOM     21  C   UNL A   1      34.926  23.839  24.356  1.00  0.00    -0.021 A 
ATOM     22  C   UNL A   1      35.846  24.210  25.342  1.00  0.00     0.008 A 
ATOM     23  C   UNL A   1      34.626  22.482  24.162  1.00  0.00     0.054 A 
ATOM     24  C   UNL A   1      36.469  23.230  26.115  1.00  0.00     0.004 A 
ATOM     25  C   UNL A   1      35.224  21.498  24.951  1.00  0.00     0.120 A 
ATOM     26  C   UNL A   1      36.157  21.883  25.918  1.00  0.00     0.046 A 
BRANCH  25  27
ATOM     27  O   UNL A   1      34.995  20.151  24.880  1.00  0.00    -0.489 OA
BRANCH  27  28
ATOM     28  C   UNL A   1      33.666  19.685  24.618  1.00  0.00     0.265 C 
BRANCH  28  29
ATOM     29  C   UNL A   1      33.541  18.182  24.735  1.00  0.00    -0.011 A 
ATOM     30  C   UNL A   1      34.408  17.341  24.025  1.00  0.00     0.007 A 
ATOM     31  C   UNL A   1      32.574  17.607  25.573  1.00  0.00     0.007 A 
ATOM     32  C   UNL A   1      34.332  15.955  24.178  1.00  0.00     0.000 A 
ATOM     33  C   UNL A   1      32.513  16.224  25.741  1.00  0.00     0.000 A 
ATOM     34  C   UNL A   1      33.393  15.399  25.046  1.00  0.00     0.000 A 
ENDBRANCH  28  29
ENDBRANCH  27  28
ENDBRANCH  25  27
ENDBRANCH  15  21
ENDBRANCH   8   9
ENDBRANCH   6   8
ENDBRANCH   5   6
ENDBRANCH   4   5
ENDBRANCH   3   4
ENDBRANCH   2   3
ENDBRANCH   1   2
BRANCH   1  35
ATOM     35  C   UNL A   1      34.858  30.212  28.128  1.00  0.00     0.188 C 
BRANCH  35  36
ATOM     36  O   UNL A   1      34.502  31.584  28.024  1.00  0.00    -0.377 OA
BRANCH  36  37
ATOM     37  C   UNL A   1      35.521  32.559  28.008  1.00  0.00     0.188 C 
BRANCH  37  38
ATOM     38  C   UNL A   1      35.252  33.871  28.759  1.00  0.00     0.188 C 
BRANCH  38  39
ATOM     39  O   UNL A   1      33.908  34.029  29.199  1.00  0.00    -0.376 OA
BRANCH  39  40
ATOM     40  C   UNL A   1      33.250  35.232  28.818  1.00  0.00     0.202 C 
BRANCH  40  41
ATOM     41  C   UNL A   1      32.635  36.061  29.954  1.00  0.00     0.261 C 
BRANCH  41  42
ATOM     42  O   UNL A   1      32.295  35.340  31.144  1.00  0.00    -0.460 OA
BRANCH  42  43
ATOM     43  C   UNL A   1      32.793  35.778  32.316  1.00  0.00     0.338 C 
ATOM     44  O   UNL A   1      32.264  36.525  33.121  1.00  0.00    -0.246 OA
BRANCH  43  45
ATOM     45  C   UNL A   1      34.038  35.021  32.546  1.00  0.00     0.060 A 
ATOM     46  C   UNL A   1      35.268  35.558  32.153  1.00  0.00     0.016 A 
ATOM     47  C   UNL A   1      33.959  33.733  33.088  1.00  0.00     0.016 A 
ATOM     48  C   UNL A   1      36.428  34.803  32.313  1.00  0.00     0.010 A 
ATOM     49  C   UNL A   1      35.118  32.969  33.224  1.00  0.00     0.010 A 
ATOM     50  C   UNL A   1      36.360  33.510  32.859  1.00  0.00    -0.014 A 
BRANCH  50  51
ATOM     51  C   UNL A   1      37.602  32.812  33.254  1.00  0.00     0.031 A 
ATOM     52  C   UNL A   1      38.326  33.118  34.525  1.00  0.00     0.074 A 
ATOM     53  C   UNL A   1      38.077  31.889  32.399  1.00  0.00     0.049 A 
ATOM     54  N   UNL A   1      39.396  32.544  35.015  1.00  0.00    -0.248 NA
ATOM     55  C   UNL A   1      37.790  34.207  35.350  1.00  0.00     0.031 C 
ATOM     56  C   UNL A   1      37.447  31.538  31.124  1.00  0.00     0.029 A 
ATOM     57  N   UNL A   1      39.178  31.080  32.466  1.00  0.00    -0.354 N 
ATOM     58  C   UNL A   1      39.649  33.181  36.221  1.00  0.00     0.074 A 
ATOM     59  C   UNL A   1      38.651  34.223  36.361  1.00  0.00     0.031 C 
ATOM     60  C   UNL A   1      38.158  30.564  30.541  1.00  0.00     0.029 A 
ATOM     61  C   UNL A   1      39.302  30.243  31.387  1.00  0.00     0.049 A 
ATOM     62  H   UNL A   1      39.817  31.098  33.214  1.00  0.00     0.167 HD
ATOM     63  C   UNL A   1      40.617  32.900  37.129  1.00  0.00     0.037 A 
ATOM     64  C   UNL A   1      40.232  29.310  31.114  1.00  0.00     0.037 A 
ATOM     65  C   UNL A   1      41.625  31.883  36.952  1.00  0.00     0.049 A 
ATOM     66  C   UNL A   1      41.332  29.069  32.103  1.00  0.00     0.074 A 
ATOM     67  C   UNL A   1      42.640  31.509  37.817  1.00  0.00     0.029 A 
ATOM     68  N   UNL A   1      41.758  31.085  35.821  1.00  0.00    -0.354 N 
ATOM     69  N   UNL A   1      41.529  29.630  33.270  1.00  0.00    -0.248 NA
ATOM     70  C   UNL A   1      42.335  28.061  31.739  1.00  0.00     0.031 C 
ATOM     71  C   UNL A   1      43.415  30.526  37.190  1.00  0.00     0.029 A 
ATOM     72  C   UNL A   1      42.854  30.244  35.955  1.00  0.00     0.049 A 
ATOM     73  H   UNL A   1      41.160  31.112  35.038  1.00  0.00     0.167 HD
ATOM     74  C   UNL A   1      42.668  29.036  33.792  1.00  0.00     0.074 A 
ATOM     75  C   UNL A   1      43.107  28.056  32.819  1.00  0.00     0.031 C 
ATOM     76  C   UNL A   1      43.289  29.282  34.971  1.00  0.00     0.037 A 
BRANCH  63  77
ATOM     77  C   UNL A   1      40.631  33.700  38.401  1.00  0.00     0.064 A 
ATOM     78  C   UNL A   1      41.463  34.821  38.548  1.00  0.00     0.173 A 
ATOM     79  C   UNL A   1      39.768  33.386  39.462  1.00  0.00     0.173 A 
ATOM     80  F   UNL A   1      42.309  35.167  37.565  1.00  0.00    -0.203 F 
ATOM     81  C   UNL A   1      41.451  35.579  39.717  1.00  0.00     0.198 A 
ATOM     82  C   UNL A   1      39.737  34.163  40.619  1.00  0.00     0.198 A 
ATOM     83  F   UNL A   1      38.940  32.334  39.374  1.00  0.00    -0.203 F 
ATOM     84  F   UNL A   1      42.287  36.618  39.848  1.00  0.00    -0.200 F 
ATOM     85  C   UNL A   1      40.583  35.254  40.749  1.00  0.00     0.200 A 
ATOM     86  F   UNL A   1      38.886  33.858  41.608  1.00  0.00    -0.200 F 
ATOM     87  F   UNL A   1      40.568  35.988  41.869  1.00  0.00    -0.200 F 
ENDBRANCH  63  77
BRANCH  64  88
ATOM     88  C   UNL A   1      40.097  28.504  29.876  1.00  0.00     0.064 A 
ATOM     89  C   UNL A   1      40.691  28.934  28.683  1.00  0.00     0.173 A 
ATOM     90  C   UNL A   1      39.453  27.258  29.878  1.00  0.00     0.173 A 
ATOM     91  F   UNL A   1      41.309  30.123  28.633  1.00  0.00    -0.203 F 
ATOM     92  C   UNL A   1      40.650  28.144  27.536  1.00  0.00     0.198 A 
ATOM     93  C   UNL A   1      39.434  26.459  28.738  1.00  0.00     0.198 A 
ATOM     94  F   UNL A   1      38.882  26.799  31.002  1.00  0.00    -0.203 F 
ATOM     95  F   UNL A   1      41.214  28.583  26.404  1.00  0.00    -0.200 F 
ATOM     96  C   UNL A   1      40.031  26.903  27.569  1.00  0.00     0.200 A 
ATOM     97  F   UNL A   1      38.855  25.251  28.779  1.00  0.00    -0.200 F 
ATOM     98  F   UNL A   1      40.014  26.134  26.472  1.00  0.00    -0.200 F 
ENDBRANCH  64  88
BRANCH  76  99
ATOM     99  C   UNL A   1      44.518  28.475  35.280  1.00  0.00     0.064 A 
ATOM    100  C   UNL A   1      45.799  28.929  34.935  1.00  0.00     0.173 A 
ATOM    101  C   UNL A   1      44.417  27.260  35.976  1.00  0.00     0.173 A 
ATOM    102  F   UNL A   1      45.946  30.076  34.253  1.00  0.00    -0.203 F 
ATOM    103  C   UNL A   1      46.933  28.191  35.261  1.00  0.00     0.198 A 
ATOM    104  C   UNL A   1      45.555  26.540  36.328  1.00  0.00     0.198 A 
ATOM    105  F   UNL A   1      43.215  26.782  36.333  1.00  0.00    -0.203 F 
ATOM    106  F   UNL A   1      48.143  28.626  34.885  1.00  0.00    -0.200 F 
ATOM    107  C   UNL A   1      46.811  27.003  35.965  1.00  0.00     0.200 A 
ATOM    108  F   UNL A   1      45.437  25.398  37.020  1.00  0.00    -0.200 F 
ATOM    109  F   UNL A   1      47.905  26.301  36.291  1.00  0.00    -0.200 F 
ENDBRANCH  76  99
ENDBRANCH  50  51
ENDBRANCH  43  45
ENDBRANCH  42  43
ENDBRANCH  41  42
ENDBRANCH  40  41
ENDBRANCH  39  40
ENDBRANCH  38  39
ENDBRANCH  37  38
ENDBRANCH  36  37
ENDBRANCH  35  36
ENDBRANCH   1  35
TORSDOF 25
ENDMDL
MODEL 2
REMARK VINA RESULT:     -11.3      0.561      6.632
REMARK SMILES CC1=C(CC(=O)OCCOCCOCCOCCOC(=O)c2ccc(-c3c4nc(c(-c5c(F)c(F)c(F)c(F)c5F)c5ccc([nH]5)c(-c5c(F)c(F)c(F)c(F)c5F)c5nc(c(-c6c(F)c(F)c(F)c(F)c6F)c6ccc3[nH]6)C=C5)C=C4)cc2)c2cc(F)ccc2/C1=C\c1cccc(OCc2ccccc2)c1
REMARK SMILES IDX 11 1 10 2 9 3 8 4 7 5 5 6 6 7 4 8 3 9 1 10 2 11 92 12 85 13
REMARK SMILES IDX 91 14 93 15 86 16 90 17 87 18 89 19 88 20 94 21 95 22 107 23
REMARK SMILES IDX 96 24 98 25 97 26 99 27 100 28 101 29 102 30 106 31 103 32
REMARK SMILES IDX 105 33 104 34 12 35 13 36 14 37 15 38 16 39 17 40 18 41
REMARK SMILES IDX 19 42 20 43 21 44 22 45 23 46 84 47 24 48 83 49 25 50 26 51
REMARK SMILES IDX 27 52 77 53 28 54 82 55 76 56 78 57 29 58 81 59 75 60 74 61
REMARK SMILES IDX 30 63 62 64 42 65 61 66 43 67 46 68 60 69 79 70 44 71 45 72
REMARK SMILES IDX 59 74 80 75 47 76 31 77 32 78 40 79 33 80 34 81 38 82 41 83
REMARK SMILES IDX 35 84 36 85 39 86 37 87 63 88 64 89 72 90 65 91 66 92 70 93
REMARK SMILES IDX 73 94 67 95 68 96 71 97 69 98 48 99 49 100 57 101 50 102
REMARK SMILES IDX 51 103 55 104 58 105 52 106 53 107 56 108 54 109
REMARK H PARENT 78 62 46 73
REMARK Flexibility Score: inf
ROOT
ATOM      1  C   UNL A   1      34.751  29.110  26.875  1.00  0.00     0.188 C 
ENDROOT
BRANCH   1   2
ATOM      2  O   UNL A   1      33.809  29.574  25.933  1.00  0.00    -0.376 OA
BRANCH   2   3
ATOM      3  C   UNL A   1      32.572  28.901  25.823  1.00  0.00     0.202 C 
BRANCH   3   4
ATOM      4  C   UNL A   1      31.378  29.529  25.078  1.00  0.00     0.261 C 
BRANCH   4   5
ATOM      5  O   UNL A   1      31.420  29.559  23.637  1.00  0.00    -0.463 OA
BRANCH   5   6
ATOM      6  C   UNL A   1      30.317  29.182  22.951  1.00  0.00     0.310 C 
ATOM      7  O   UNL A   1      29.407  29.954  22.662  1.00  0.00    -0.252 OA
BRANCH   6   8
ATOM      8  C   UNL A   1      30.286  27.697  22.535  1.00  0.00     0.159 C 
BRANCH   8   9
ATOM      9  C   UNL A   1      31.249  26.685  23.101  1.00  0.00    -0.025 C 
ATOM     10  C   UNL A   1      33.241  26.947  21.530  1.00  0.00     0.045 C 
ATOM     11  C   UNL A   1      32.499  26.366  22.686  1.00  0.00    -0.039 C 
ATOM     12  C   UNL A   1      33.081  25.332  23.564  1.00  0.00    -0.014 C 
ATOM     13  C   UNL A   1      30.995  25.904  24.338  1.00  0.00    -0.011 A 
ATOM     14  C   UNL A   1      32.079  25.043  24.601  1.00  0.00    -0.010 A 
ATOM     15  C   UNL A   1      34.304  24.787  23.418  1.00  0.00     0.017 C 
ATOM     16  C   UNL A   1      29.874  25.878  25.162  1.00  0.00     0.048 A 
ATOM     17  C   UNL A   1      32.039  24.134  25.654  1.00  0.00     0.012 A 
ATOM     18  C   UNL A   1      29.843  24.962  26.214  1.00  0.00     0.123 A 
ATOM     19  C   UNL A   1      30.906  24.094  26.465  1.00  0.00     0.040 A 
ATOM     20  F   UNL A   1      28.748  24.881  26.981  1.00  0.00    -0.207 F 
BRANCH  15  21
ATOM     21  C   UNL A   1      34.916  23.779  24.294  1.00  0.00    -0.021 A 
ATOM     22  C   UNL A   1      35.785  24.164  25.319  1.00  0.00     0.008 A 
ATOM     23  C   UNL A   1      34.665  22.417  24.072  1.00  0.00     0.054 A 
ATOM     24  C   UNL A   1      36.408  23.193  26.104  1.00  0.00     0.004 A 
ATOM     25  C   UNL A   1      35.262  21.441  24.871  1.00  0.00     0.120 A 
ATOM     26  C   UNL A   1      36.145  21.840  25.878  1.00  0.00     0.046 A 
BRANCH  25  27
ATOM     27  O   UNL A   1      35.078  20.088  24.774  1.00  0.00    -0.489 OA
BRANCH  27  28
ATOM     28  C   UNL A   1      33.751  19.579  24.592  1.00  0.00     0.265 C 
BRANCH  28  29
ATOM     29  C   UNL A   1      33.662  18.086  24.818  1.00  0.00    -0.011 A 
ATOM     30  C   UNL A   1      34.748  17.257  24.509  1.00  0.00     0.007 A 
ATOM     31  C   UNL A   1      32.505  17.513  25.363  1.00  0.00     0.007 A 
ATOM     32  C   UNL A   1      34.689  15.887  24.772  1.00  0.00     0.000 A 
ATOM     33  C   UNL A   1      32.455  16.147  25.645  1.00  0.00     0.000 A 
ATOM     34  C   UNL A   1      33.547  15.336  25.352  1.00  0.00     0.000 A 
ENDBRANCH  28  29
ENDBRANCH  27  28
ENDBRANCH  25  27
ENDBRANCH  15  21
ENDBRANCH   8   9
ENDBRANCH   6   8
ENDBRANCH   5   6
ENDBRANCH   4   5
ENDBRANCH   3   4
ENDBRANCH   2   3
ENDBRANCH   1   2
BRANCH   1  35
ATOM     35  C   UNL A   1      35.021  30.117  28.010  1.00  0.00     0.188 C 
BRANCH  35  36
ATOM     36  O   UNL A   1      34.901  31.524  27.857  1.00  0.00    -0.377 OA
BRANCH  36  37
ATOM     37  C   UNL A   1      36.045  32.333  28.019  1.00  0.00     0.188 C 
BRANCH  37  38
ATOM     38  C   UNL A   1      35.874  33.648  28.794  1.00  0.00     0.188 C 
BRANCH  38  39
ATOM     39  O   UNL A   1      34.536  33.923  29.192  1.00  0.00    -0.376 OA
BRANCH  39  40
ATOM     40  C   UNL A   1      33.957  35.122  28.690  1.00  0.00     0.202 C 
BRANCH  40  41
ATOM     41  C   UNL A   1      32.952  35.830  29.611  1.00  0.00     0.261 C 
BRANCH  41  42
ATOM     42  O   UNL A   1      32.544  35.099  30.772  1.00  0.00    -0.460 OA
BRANCH  42  43
ATOM     43  C   UNL A   1      32.821  35.623  31.982  1.00  0.00     0.338 C 
ATOM     44  O   UNL A   1      32.143  36.397  32.635  1.00  0.00    -0.246 OA
BRANCH  43  45
ATOM     45  C   UNL A   1      34.026  34.925  32.469  1.00  0.00     0.060 A 
ATOM     46  C   UNL A   1      33.914  33.671  33.077  1.00  0.00     0.016 A 
ATOM     47  C   UNL A   1      35.265  35.572  32.385  1.00  0.00     0.016 A 
ATOM     48  C   UNL A   1      35.051  33.055  33.595  1.00  0.00     0.010 A 
ATOM     49  C   UNL A   1      36.398  34.965  32.926  1.00  0.00     0.010 A 
ATOM     50  C   UNL A   1      36.300  33.694  33.512  1.00  0.00    -0.014 A 
BRANCH  50  51
ATOM     51  C   UNL A   1      37.532  32.944  33.835  1.00  0.00     0.031 A 
ATOM     52  C   UNL A   1      38.103  31.907  32.924  1.00  0.00     0.074 A 
ATOM     53  C   UNL A   1      38.120  33.222  35.013  1.00  0.00     0.049 A 
ATOM     54  N   UNL A   1      39.205  31.212  33.062  1.00  0.00    -0.248 NA
ATOM     55  C   UNL A   1      37.343  31.601  31.706  1.00  0.00     0.031 C 
ATOM     56  C   UNL A   1      37.623  34.206  35.976  1.00  0.00     0.029 A 
ATOM     57  N   UNL A   1      39.250  32.718  35.597  1.00  0.00    -0.354 N 
ATOM     58  C   UNL A   1      39.290  30.406  31.938  1.00  0.00     0.074 A 
ATOM     59  C   UNL A   1      38.097  30.658  31.153  1.00  0.00     0.031 C 
ATOM     60  C   UNL A   1      38.460  34.255  37.021  1.00  0.00     0.029 A 
ATOM     61  C   UNL A   1      39.534  33.290  36.810  1.00  0.00     0.049 A 
ATOM     62  H   UNL A   1      39.804  32.016  35.186  1.00  0.00     0.167 HD
ATOM     63  C   UNL A   1      40.285  29.552  31.593  1.00  0.00     0.037 A 
ATOM     64  C   UNL A   1      40.554  33.068  37.658  1.00  0.00     0.037 A 
ATOM     65  C   UNL A   1      41.446  29.288  32.408  1.00  0.00     0.049 A 
ATOM     66  C   UNL A   1      41.605  32.066  37.284  1.00  0.00     0.074 A 
ATOM     67  C   UNL A   1      42.519  28.453  32.143  1.00  0.00     0.029 A 
ATOM     68  N   UNL A   1      41.679  29.843  33.661  1.00  0.00    -0.354 N 
ATOM     69  N   UNL A   1      41.712  31.352  36.190  1.00  0.00    -0.248 NA
ATOM     70  C   UNL A   1      42.678  31.842  38.259  1.00  0.00     0.031 C 
ATOM     71  C   UNL A   1      43.370  28.462  33.254  1.00  0.00     0.029 A 
ATOM     72  C   UNL A   1      42.861  29.346  34.192  1.00  0.00     0.049 A 
ATOM     73  H   UNL A   1      41.091  30.496  34.107  1.00  0.00     0.167 HD
ATOM     74  C   UNL A   1      42.871  30.606  36.333  1.00  0.00     0.074 A 
ATOM     75  C   UNL A   1      43.442  30.969  37.616  1.00  0.00     0.031 C 
ATOM     76  C   UNL A   1      43.411  29.704  35.477  1.00  0.00     0.037 A 
BRANCH  63  77
ATOM     77  C   UNL A   1      40.168  28.843  30.273  1.00  0.00     0.064 A 
ATOM     78  C   UNL A   1      40.746  29.372  29.108  1.00  0.00     0.173 A 
ATOM     79  C   UNL A   1      39.527  27.599  30.174  1.00  0.00     0.173 A 
ATOM     80  F   UNL A   1      41.372  30.559  29.143  1.00  0.00    -0.203 F 
ATOM     81  C   UNL A   1      40.663  28.697  27.892  1.00  0.00     0.198 A 
ATOM     82  C   UNL A   1      39.470  26.912  28.963  1.00  0.00     0.198 A 
ATOM     83  F   UNL A   1      38.967  27.038  31.257  1.00  0.00    -0.203 F 
ATOM     84  F   UNL A   1      41.186  29.245  26.786  1.00  0.00    -0.200 F 
ATOM     85  C   UNL A   1      40.031  27.465  27.822  1.00  0.00     0.200 A 
ATOM     86  F   UNL A   1      38.873  25.714  28.900  1.00  0.00    -0.200 F 
ATOM     87  F   UNL A   1      39.958  26.813  26.653  1.00  0.00    -0.200 F 
ENDBRANCH  63  77
BRANCH  64  88
ATOM     88  C   UNL A   1      40.642  33.872  38.901  1.00  0.00     0.064 A 
ATOM     89  C   UNL A   1      41.353  35.079  38.914  1.00  0.00     0.173 A 
ATOM     90  C   UNL A   1      39.955  33.501  40.066  1.00  0.00     0.173 A 
ATOM     91  F   UNL A   1      42.032  35.468  37.826  1.00  0.00    -0.203 F 
ATOM     92  C   UNL A   1      41.368  35.889  40.047  1.00  0.00     0.198 A 
ATOM     93  C   UNL A   1      39.951  34.323  41.189  1.00  0.00     0.198 A 
ATOM     94  F   UNL A   1      39.249  32.359  40.094  1.00  0.00    -0.203 F 
ATOM     95  F   UNL A   1      42.066  37.032  40.040  1.00  0.00    -0.200 F 
ATOM     96  C   UNL A   1      40.659  35.515  41.179  1.00  0.00     0.200 A 
ATOM     97  F   UNL A   1      39.247  33.970  42.273  1.00  0.00    -0.200 F 
ATOM     98  F   UNL A   1      40.655  36.307  42.260  1.00  0.00    -0.200 F 
ENDBRANCH  64  88
BRANCH  76  99
ATOM     99  C   UNL A   1      44.691  29.041  35.898  1.00  0.00     0.064 A 
ATOM    100  C   UNL A   1      45.941  29.600  35.594  1.00  0.00     0.173 A 
ATOM    101  C   UNL A   1      44.667  27.863  36.661  1.00  0.00     0.173 A 
ATOM    102  F   UNL A   1      46.018  30.716  34.852  1.00  0.00    -0.203 F 
ATOM    103  C   UNL A   1      47.119  28.997  36.024  1.00  0.00     0.198 A 
ATOM    104  C   UNL A   1      45.847  27.279  37.115  1.00  0.00     0.198 A 
ATOM    105  F   UNL A   1      43.498  27.289  36.983  1.00  0.00    -0.203 F 
ATOM    106  F   UNL A   1      48.302  29.528  35.687  1.00  0.00    -0.200 F 
ATOM    107  C   UNL A   1      47.071  27.844  36.792  1.00  0.00     0.200 A 
ATOM    108  F   UNL A   1      45.798  26.172  37.869  1.00  0.00    -0.200 F 
ATOM    109  F   UNL A   1      48.207  27.272  37.217  1.00  0.00    -0.200 F 
ENDBRANCH  76  99
ENDBRANCH  50  51
ENDBRANCH  43  45
ENDBRANCH  42  43
ENDBRANCH  41  42
ENDBRANCH  40  41
ENDBRANCH  39  40
ENDBRANCH  38  39
ENDBRANCH  37  38
ENDBRANCH  36  37
ENDBRANCH  35  36
ENDBRANCH   1  35
TORSDOF 25
ENDMDL
MODEL 3
REMARK VINA RESULT:     -10.4      1.239      2.260
REMARK SMILES CC1=C(CC(=O)OCCOCCOCCOCCOC(=O)c2ccc(-c3c4nc(c(-c5c(F)c(F)c(F)c(F)c5F)c5ccc([nH]5)c(-c5c(F)c(F)c(F)c(F)c5F)c5nc(c(-c6c(F)c(F)c(F)c(F)c6F)c6ccc3[nH]6)C=C5)C=C4)cc2)c2cc(F)ccc2/C1=C\c1cccc(OCc2ccccc2)c1
REMARK SMILES IDX 11 1 10 2 9 3 8 4 7 5 5 6 6 7 4 8 3 9 1 10 2 11 92 12 85 13
REMARK SMILES IDX 91 14 93 15 86 16 90 17 87 18 89 19 88 20 94 21 95 22 107 23
REMARK SMILES IDX 96 24 98 25 97 26 99 27 100 28 101 29 102 30 106 31 103 32
REMARK SMILES IDX 105 33 104 34 12 35 13 36 14 37 15 38 16 39 17 40 18 41
REMARK SMILES IDX 19 42 20 43 21 44 22 45 23 46 84 47 24 48 83 49 25 50 26 51
REMARK SMILES IDX 27 52 77 53 28 54 82 55 76 56 78 57 29 58 81 59 75 60 74 61
REMARK SMILES IDX 30 63 62 64 42 65 61 66 43 67 46 68 60 69 79 70 44 71 45 72
REMARK SMILES IDX 59 74 80 75 47 76 31 77 32 78 40 79 33 80 34 81 38 82 41 83
REMARK SMILES IDX 35 84 36 85 39 86 37 87 63 88 64 89 72 90 65 91 66 92 70 93
REMARK SMILES IDX 73 94 67 95 68 96 71 97 69 98 48 99 49 100 57 101 50 102
REMARK SMILES IDX 51 103 55 104 58 105 52 106 53 107 56 108 54 109
REMARK H PARENT 78 62 46 73
REMARK Flexibility Score: inf
ROOT
ATOM      1  C   UNL A   1      34.958  29.906  27.143  1.00  0.00     0.188 C 
ENDROOT
BRANCH   1   2
ATOM      2  O   UNL A   1      33.972  30.582  26.395  1.00  0.00    -0.376 OA
BRANCH   2   3
ATOM      3  C   UNL A   1      32.654  30.631  26.900  1.00  0.00     0.202 C 
BRANCH   3   4
ATOM      4  C   UNL A   1      31.432  30.634  25.960  1.00  0.00     0.261 C 
BRANCH   4   5
ATOM      5  O   UNL A   1      31.614  30.158  24.611  1.00  0.00    -0.463 OA
BRANCH   5   6
ATOM      6  C   UNL A   1      30.577  29.544  23.998  1.00  0.00     0.310 C 
ATOM      7  O   UNL A   1      29.899  30.078  23.124  1.00  0.00    -0.252 OA
BRANCH   6   8
ATOM      8  C   UNL A   1      30.309  28.099  24.466  1.00  0.00     0.159 C 
BRANCH   8   9
ATOM      9  C   UNL A   1      31.404  27.069  24.555  1.00  0.00    -0.025 C 
ATOM     10  C   UNL A   1      31.872  27.043  27.062  1.00  0.00     0.045 C 
ATOM     11  C   UNL A   1      32.066  26.614  25.647  1.00  0.00    -0.039 C 
ATOM     12  C   UNL A   1      33.044  25.579  25.259  1.00  0.00    -0.014 C 
ATOM     13  C   UNL A   1      31.889  26.274  23.398  1.00  0.00    -0.011 A 
ATOM     14  C   UNL A   1      32.919  25.402  23.804  1.00  0.00    -0.010 A 
ATOM     15  C   UNL A   1      33.872  24.935  26.105  1.00  0.00     0.017 C 
ATOM     16  C   UNL A   1      31.520  26.333  22.058  1.00  0.00     0.048 A 
ATOM     17  C   UNL A   1      33.606  24.619  22.881  1.00  0.00     0.012 A 
ATOM     18  C   UNL A   1      32.216  25.545  21.141  1.00  0.00     0.123 A 
ATOM     19  C   UNL A   1      33.250  24.697  21.536  1.00  0.00     0.040 A 
ATOM     20  F   UNL A   1      31.915  25.634  19.839  1.00  0.00    -0.207 F 
BRANCH  15  21
ATOM     21  C   UNL A   1      34.832  23.883  25.746  1.00  0.00    -0.021 A 
ATOM     22  C   UNL A   1      36.142  24.211  25.387  1.00  0.00     0.008 A 
ATOM     23  C   UNL A   1      34.419  22.542  25.717  1.00  0.00     0.054 A 
ATOM     24  C   UNL A   1      37.026  23.207  24.989  1.00  0.00     0.004 A 
ATOM     25  C   UNL A   1      35.305  21.529  25.347  1.00  0.00     0.120 A 
ATOM     26  C   UNL A   1      36.606  21.875  24.970  1.00  0.00     0.046 A 
BRANCH  25  27
ATOM     27  O   UNL A   1      35.034  20.188  25.305  1.00  0.00    -0.489 OA
BRANCH  27  28
ATOM     28  C   UNL A   1      33.892  19.734  24.569  1.00  0.00     0.265 C 
BRANCH  28  29
ATOM     29  C   UNL A   1      33.665  18.245  24.706  1.00  0.00    -0.011 A 
ATOM     30  C   UNL A   1      32.776  17.749  25.669  1.00  0.00     0.007 A 
ATOM     31  C   UNL A   1      34.316  17.340  23.855  1.00  0.00     0.007 A 
ATOM     32  C   UNL A   1      32.520  16.379  25.756  1.00  0.00     0.000 A 
ATOM     33  C   UNL A   1      34.044  15.974  23.930  1.00  0.00     0.000 A 
ATOM     34  C   UNL A   1      33.144  15.495  24.878  1.00  0.00     0.000 A 
ENDBRANCH  28  29
ENDBRANCH  27  28
ENDBRANCH  25  27
ENDBRANCH  15  21
ENDBRANCH   8   9
ENDBRANCH   6   8
ENDBRANCH   5   6
ENDBRANCH   4   5
ENDBRANCH   3   4
ENDBRANCH   2   3
ENDBRANCH   1   2
BRANCH   1  35
ATOM     35  C   UNL A   1      34.948  30.279  28.638  1.00  0.00     0.188 C 
BRANCH  35  36
ATOM     36  O   UNL A   1      35.435  31.515  29.143  1.00  0.00    -0.377 OA
BRANCH  36  37
ATOM     37  C   UNL A   1      35.958  32.466  28.243  1.00  0.00     0.188 C 
BRANCH  37  38
ATOM     38  C   UNL A   1      35.241  33.821  28.155  1.00  0.00     0.188 C 
BRANCH  38  39
ATOM     39  O   UNL A   1      33.830  33.750  28.323  1.00  0.00    -0.376 OA
BRANCH  39  40
ATOM     40  C   UNL A   1      33.124  34.985  28.312  1.00  0.00     0.202 C 
BRANCH  40  41
ATOM     41  C   UNL A   1      32.913  35.661  29.675  1.00  0.00     0.261 C 
BRANCH  41  42
ATOM     42  O   UNL A   1      32.886  34.788  30.810  1.00  0.00    -0.460 OA
BRANCH  42  43
ATOM     43  C   UNL A   1      33.084  35.326  32.029  1.00  0.00     0.338 C 
ATOM     44  O   UNL A   1      32.322  36.030  32.668  1.00  0.00    -0.246 OA
BRANCH  43  45
ATOM     45  C   UNL A   1      34.334  34.737  32.544  1.00  0.00     0.060 A 
ATOM     46  C   UNL A   1      34.289  33.663  33.438  1.00  0.00     0.016 A 
ATOM     47  C   UNL A   1      35.556  35.321  32.186  1.00  0.00     0.016 A 
ATOM     48  C   UNL A   1      35.476  33.162  33.969  1.00  0.00     0.010 A 
ATOM     49  C   UNL A   1      36.741  34.835  32.740  1.00  0.00     0.010 A 
ATOM     50  C   UNL A   1      36.707  33.738  33.615  1.00  0.00    -0.014 A 
BRANCH  50  51
ATOM     51  C   UNL A   1      37.969  33.060  33.981  1.00  0.00     0.031 A 
ATOM     52  C   UNL A   1      38.689  33.339  35.259  1.00  0.00     0.074 A 
ATOM     53  C   UNL A   1      38.463  32.179  33.092  1.00  0.00     0.049 A 
ATOM     54  N   UNL A   1      39.776  32.777  35.726  1.00  0.00    -0.248 NA
ATOM     55  C   UNL A   1      38.129  34.385  36.123  1.00  0.00     0.031 C 
ATOM     56  C   UNL A   1      37.837  31.856  31.808  1.00  0.00     0.029 A 
ATOM     57  N   UNL A   1      39.585  31.396  33.128  1.00  0.00    -0.354 N 
ATOM     58  C   UNL A   1      40.018  33.377  36.952  1.00  0.00     0.074 A 
ATOM     59  C   UNL A   1      38.994  34.388  37.131  1.00  0.00     0.031 C 
ATOM     60  C   UNL A   1      38.570  30.921  31.189  1.00  0.00     0.029 A 
ATOM     61  C   UNL A   1      39.726  30.601  32.021  1.00  0.00     0.049 A 
ATOM     62  H   UNL A   1      40.227  31.405  33.874  1.00  0.00     0.167 HD
ATOM     63  C   UNL A   1      40.996  33.090  37.846  1.00  0.00     0.037 A 
ATOM     64  C   UNL A   1      40.678  29.702  31.711  1.00  0.00     0.037 A 
ATOM     65  C   UNL A   1      42.029  32.107  37.631  1.00  0.00     0.049 A 
ATOM     66  C   UNL A   1      41.788  29.455  32.688  1.00  0.00     0.074 A 
ATOM     67  C   UNL A   1      43.057  31.729  38.479  1.00  0.00     0.029 A 
ATOM     68  N   UNL A   1      42.178  31.352  36.472  1.00  0.00    -0.354 N 
ATOM     69  N   UNL A   1      41.976  29.981  33.874  1.00  0.00    -0.248 NA
ATOM     70  C   UNL A   1      42.815  28.487  32.287  1.00  0.00     0.031 C 
ATOM     71  C   UNL A   1      43.854  30.789  37.816  1.00  0.00     0.029 A 
ATOM     72  C   UNL A   1      43.296  30.535  36.574  1.00  0.00     0.049 A 
ATOM     73  H   UNL A   1      41.576  31.391  35.693  1.00  0.00     0.167 HD
ATOM     74  C   UNL A   1      43.131  29.398  34.371  1.00  0.00     0.074 A 
ATOM     75  C   UNL A   1      43.591  28.464  33.362  1.00  0.00     0.031 C 
ATOM     76  C   UNL A   1      43.751  29.619  35.556  1.00  0.00     0.037 A 
BRANCH  63  77
ATOM     77  C   UNL A   1      40.995  33.846  39.146  1.00  0.00     0.064 A 
ATOM     78  C   UNL A   1      40.228  33.414  40.239  1.00  0.00     0.173 A 
ATOM     79  C   UNL A   1      41.808  34.976  39.326  1.00  0.00     0.173 A 
ATOM     80  F   UNL A   1      39.432  32.340  40.123  1.00  0.00    -0.203 F 
ATOM     81  C   UNL A   1      40.253  34.098  41.452  1.00  0.00     0.198 A 
ATOM     82  C   UNL A   1      41.853  35.642  40.550  1.00  0.00     0.198 A 
ATOM     83  F   UNL A   1      42.573  35.427  38.321  1.00  0.00    -0.203 F 
ATOM     84  F   UNL A   1      39.478  33.690  42.466  1.00  0.00    -0.200 F 
ATOM     85  C   UNL A   1      41.071  35.208  41.609  1.00  0.00     0.200 A 
ATOM     86  F   UNL A   1      42.656  36.703  40.705  1.00  0.00    -0.200 F 
ATOM     87  F   UNL A   1      41.099  35.861  42.779  1.00  0.00    -0.200 F 
ENDBRANCH  63  77
BRANCH  64  88
ATOM     88  C   UNL A   1      40.559  28.936  30.447  1.00  0.00     0.064 A 
ATOM     89  C   UNL A   1      39.799  27.761  30.401  1.00  0.00     0.173 A 
ATOM     90  C   UNL A   1      41.122  29.402  29.251  1.00  0.00     0.173 A 
ATOM     91  F   UNL A   1      39.250  27.273  31.523  1.00  0.00    -0.203 F 
ATOM     92  C   UNL A   1      39.603  27.080  29.201  1.00  0.00     0.198 A 
ATOM     93  C   UNL A   1      40.906  28.735  28.048  1.00  0.00     0.198 A 
ATOM     94  F   UNL A   1      41.846  30.532  29.245  1.00  0.00    -0.203 F 
ATOM     95  F   UNL A   1      38.884  25.951  29.185  1.00  0.00    -0.200 F 
ATOM     96  C   UNL A   1      40.148  27.574  28.025  1.00  0.00     0.200 A 
ATOM     97  F   UNL A   1      41.415  29.226  26.910  1.00  0.00    -0.200 F 
ATOM     98  F   UNL A   1      39.938  26.932  26.868  1.00  0.00    -0.200 F 
ENDBRANCH  64  88
BRANCH  76  99
ATOM     99  C   UNL A   1      45.001  28.834  35.832  1.00  0.00     0.064 A 
ATOM    100  C   UNL A   1      46.269  29.335  35.504  1.00  0.00     0.173 A 
ATOM    101  C   UNL A   1      44.934  27.591  36.481  1.00  0.00     0.173 A 
ATOM    102  F   UNL A   1      46.385  30.511  34.866  1.00  0.00    -0.203 F 
ATOM    103  C   UNL A   1      47.423  28.616  35.800  1.00  0.00     0.198 A 
ATOM    104  C   UNL A   1      46.092  26.888  36.804  1.00  0.00     0.198 A 
ATOM    105  F   UNL A   1      43.746  27.068  36.821  1.00  0.00    -0.203 F 
ATOM    106  F   UNL A   1      48.621  29.096  35.441  1.00  0.00    -0.200 F 
ATOM    107  C   UNL A   1      47.334  27.398  36.459  1.00  0.00     0.200 A 
ATOM    108  F   UNL A   1      46.005  25.718  37.452  1.00  0.00    -0.200 F 
ATOM    109  F   UNL A   1      48.447  26.713  36.756  1.00  0.00    -0.200 F 
ENDBRANCH  76  99
ENDBRANCH  50  51
ENDBRANCH  43  45
ENDBRANCH  42  43
ENDBRANCH  41  42
ENDBRANCH  40  41
ENDBRANCH  39  40
ENDBRANCH  38  39
ENDBRANCH  37  38
ENDBRANCH  36  37
ENDBRANCH  35  36
ENDBRANCH   1  35
TORSDOF 25
ENDMDL
