MODEL 1
REMARK VINA RESULT:     -11.9      0.000      0.000
REMARK SMILES Cc1onc(-c2ccccc2Cl)c1C(=O)N1CCCC[C@@H]1C(=O)OCCOCCOCCOCCOC(=O)c1ccc(-c2c3nc(c(-c4c(F)c(F)c(F)c(F)c4F)c4ccc([nH]4)c(-c4c(F)c(F)c(F)c(F)c4F)c4nc(c(-c5c(F)c(F)c(F)c(F)c5F)c5ccc2[nH]5)C=C4)C=C3)cc1
REMARK SMILES IDX 29 1 28 2 27 3 26 4 25 5 24 6 22 7 23 8 21 9 16 10 17 11
REMARK SMILES IDX 18 12 20 13 19 14 14 15 15 16 13 17 1 18 2 19 3 20 4 21 5 22
REMARK SMILES IDX 6 23 7 24 11 25 8 26 10 27 12 28 9 29 30 30 31 31 32 32
REMARK SMILES IDX 33 33 34 34 35 35 36 36 37 37 38 38 39 39 40 40 101 41 41 42
REMARK SMILES IDX 100 43 42 44 43 45 44 46 94 47 45 48 99 49 93 50 95 51 46 52
REMARK SMILES IDX 98 53 92 54 91 55 47 57 79 58 59 59 78 60 60 61 63 62 77 63
REMARK SMILES IDX 96 64 61 65 62 66 76 68 97 69 64 70 48 71 49 72 57 73 50 74
REMARK SMILES IDX 51 75 55 76 58 77 52 78 53 79 56 80 54 81 80 82 81 83 89 84
REMARK SMILES IDX 82 85 83 86 87 87 90 88 84 89 85 90 88 91 86 92 65 93 66 94
REMARK SMILES IDX 74 95 67 96 68 97 72 98 75 99 69 100 70 101 73 102 71 103
REMARK H PARENT 95 56 63 67
REMARK Flexibility Score: inf
ROOT
ATOM      1  C   UNL A   1      41.365  20.010  27.244  1.00  0.00     0.188 C 
ENDROOT
BRANCH   1   2
ATOM      2  C   UNL A   1      40.412  20.488  26.137  1.00  0.00     0.188 C 
BRANCH   2   3
ATOM      3  O   UNL A   1      39.980  21.821  26.301  1.00  0.00    -0.376 OA
BRANCH   3   4
ATOM      4  C   UNL A   1      38.723  22.265  25.848  1.00  0.00     0.202 C 
BRANCH   4   5
ATOM      5  C   UNL A   1      37.618  21.330  25.322  1.00  0.00     0.261 C 
BRANCH   5   6
ATOM      6  O   UNL A   1      36.576  21.818  24.471  1.00  0.00    -0.462 OA
BRANCH   6   7
ATOM      7  C   UNL A   1      35.336  21.750  24.989  1.00  0.00     0.328 C 
ATOM      8  O   UNL A   1      35.108  21.323  26.115  1.00  0.00    -0.250 OA
BRANCH   7   9
ATOM      9  C   UNL A   1      34.218  22.192  24.035  1.00  0.00     0.195 C 
ATOM     10  N   UNL A   1      33.831  23.625  24.069  1.00  0.00    -0.325 N 
ATOM     11  C   UNL A   1      32.940  24.049  22.992  1.00  0.00     0.121 C 
ATOM     12  C   UNL A   1      31.727  23.136  22.822  1.00  0.00     0.022 C 
ATOM     13  C   UNL A   1      32.977  21.288  23.951  1.00  0.00     0.037 C 
ATOM     14  C   UNL A   1      32.147  21.674  22.721  1.00  0.00     0.005 C 
BRANCH  10  15
ATOM     15  C   UNL A   1      33.781  24.349  25.261  1.00  0.00     0.260 C 
ATOM     16  O   UNL A   1      34.779  24.886  25.735  1.00  0.00    -0.269 OA
BRANCH  15  17
ATOM     17  C   UNL A   1      32.525  24.319  25.993  1.00  0.00     0.110 A 
ATOM     18  C   UNL A   1      32.741  22.277  27.697  1.00  0.00     0.092 C 
ATOM     19  C   UNL A   1      32.148  23.449  27.008  1.00  0.00     0.147 A 
ATOM     20  O   UNL A   1      30.892  23.755  27.421  1.00  0.00    -0.360 OA
ATOM     21  N   UNL A   1      30.448  24.873  26.764  1.00  0.00    -0.079 NA
ATOM     22  C   UNL A   1      31.443  25.255  25.945  1.00  0.00     0.128 A 
BRANCH  22  23
ATOM     23  C   UNL A   1      31.329  26.537  25.259  1.00  0.00     0.023 A 
ATOM     24  C   UNL A   1      30.381  26.610  24.222  1.00  0.00     0.012 A 
ATOM     25  C   UNL A   1      32.109  27.668  25.531  1.00  0.00     0.050 A 
ATOM     26  C   UNL A   1      30.217  27.776  23.474  1.00  0.00     0.001 A 
ATOM     27  C   UNL A   1      31.958  28.829  24.763  1.00  0.00     0.021 A 
ATOM     28  Cl  UNL A   1      33.295  27.729  26.778  1.00  0.00    -0.084 Cl
ATOM     29  C   UNL A   1      31.012  28.884  23.740  1.00  0.00     0.002 A 
ENDBRANCH  22  23
ENDBRANCH  15  17
ENDBRANCH  10  15
ENDBRANCH   7   9
ENDBRANCH   6   7
ENDBRANCH   5   6
ENDBRANCH   4   5
ENDBRANCH   3   4
ENDBRANCH   2   3
ENDBRANCH   1   2
BRANCH   1  30
ATOM     30  O   UNL A   1      42.701  19.693  26.879  1.00  0.00    -0.377 OA
BRANCH  30  31
ATOM     31  C   UNL A   1      42.965  18.816  25.783  1.00  0.00     0.188 C 
BRANCH  31  32
ATOM     32  C   UNL A   1      44.109  19.090  24.781  1.00  0.00     0.188 C 
BRANCH  32  33
ATOM     33  O   UNL A   1      44.315  20.457  24.475  1.00  0.00    -0.376 OA
BRANCH  33  34
ATOM     34  C   UNL A   1      45.403  21.127  25.085  1.00  0.00     0.202 C 
BRANCH  34  35
ATOM     35  C   UNL A   1      45.081  22.183  26.154  1.00  0.00     0.261 C 
BRANCH  35  36
ATOM     36  O   UNL A   1      43.905  22.979  25.934  1.00  0.00    -0.460 OA
BRANCH  36  37
ATOM     37  C   UNL A   1      44.064  24.201  25.392  1.00  0.00     0.338 C 
ATOM     38  O   UNL A   1      44.633  24.484  24.346  1.00  0.00    -0.246 OA
BRANCH  37  39
ATOM     39  C   UNL A   1      43.259  25.155  26.178  1.00  0.00     0.060 A 
ATOM     40  C   UNL A   1      43.661  26.498  26.246  1.00  0.00     0.016 A 
ATOM     41  C   UNL A   1      42.124  24.719  26.864  1.00  0.00     0.016 A 
ATOM     42  C   UNL A   1      42.965  27.394  27.052  1.00  0.00     0.010 A 
ATOM     43  C   UNL A   1      41.443  25.611  27.693  1.00  0.00     0.010 A 
ATOM     44  C   UNL A   1      41.894  26.936  27.830  1.00  0.00    -0.014 A 
BRANCH  44  45
ATOM     45  C   UNL A   1      41.437  27.756  28.976  1.00  0.00     0.031 A 
ATOM     46  C   UNL A   1      42.200  27.637  30.267  1.00  0.00     0.074 A 
ATOM     47  C   UNL A   1      40.405  28.609  28.871  1.00  0.00     0.049 A 
ATOM     48  N   UNL A   1      41.977  28.202  31.426  1.00  0.00    -0.248 NA
ATOM     49  C   UNL A   1      43.379  26.754  30.247  1.00  0.00     0.031 C 
ATOM     50  C   UNL A   1      39.628  28.853  27.659  1.00  0.00     0.029 A 
ATOM     51  N   UNL A   1      39.832  29.425  29.813  1.00  0.00    -0.354 N 
ATOM     52  C   UNL A   1      42.977  27.734  32.269  1.00  0.00     0.074 A 
ATOM     53  C   UNL A   1      43.787  26.814  31.504  1.00  0.00     0.031 C 
ATOM     54  C   UNL A   1      38.667  29.753  27.934  1.00  0.00     0.029 A 
ATOM     55  C   UNL A   1      38.742  30.117  29.349  1.00  0.00     0.049 A 
ATOM     56  H   UNL A   1      40.170  29.506  30.734  1.00  0.00     0.167 HD
ATOM     57  C   UNL A   1      43.204  28.051  33.566  1.00  0.00     0.037 A 
ATOM     58  C   UNL A   1      37.891  30.931  30.004  1.00  0.00     0.037 A 
ATOM     59  C   UNL A   1      42.393  28.966  34.323  1.00  0.00     0.049 A 
ATOM     60  C   UNL A   1      38.116  31.205  31.471  1.00  0.00     0.074 A 
ATOM     61  C   UNL A   1      42.538  29.360  35.640  1.00  0.00     0.029 A 
ATOM     62  N   UNL A   1      41.275  29.622  33.828  1.00  0.00    -0.354 N 
ATOM     63  N   UNL A   1      39.068  30.771  32.262  1.00  0.00    -0.248 NA
ATOM     64  C   UNL A   1      37.148  32.091  32.134  1.00  0.00     0.031 C 
ATOM     65  C   UNL A   1      41.472  30.207  35.961  1.00  0.00     0.029 A 
ATOM     66  C   UNL A   1      40.705  30.400  34.822  1.00  0.00     0.049 A 
ATOM     67  H   UNL A   1      40.937  29.546  32.906  1.00  0.00     0.167 HD
ATOM     68  C   UNL A   1      38.838  31.361  33.500  1.00  0.00     0.074 A 
ATOM     69  C   UNL A   1      37.661  32.191  33.351  1.00  0.00     0.031 C 
ATOM     70  C   UNL A   1      39.541  31.233  34.653  1.00  0.00     0.037 A 
BRANCH  57  71
ATOM     71  C   UNL A   1      44.355  27.371  34.252  1.00  0.00     0.064 A 
ATOM     72  C   UNL A   1      45.617  27.972  34.360  1.00  0.00     0.173 A 
ATOM     73  C   UNL A   1      44.183  26.101  34.824  1.00  0.00     0.173 A 
ATOM     74  F   UNL A   1      45.840  29.178  33.815  1.00  0.00    -0.203 F 
ATOM     75  C   UNL A   1      46.674  27.314  34.985  1.00  0.00     0.198 A 
ATOM     76  C   UNL A   1      45.232  25.461  35.479  1.00  0.00     0.198 A 
ATOM     77  F   UNL A   1      42.997  25.479  34.750  1.00  0.00    -0.203 F 
ATOM     78  F   UNL A   1      47.887  27.884  35.024  1.00  0.00    -0.200 F 
ATOM     79  C   UNL A   1      46.478  26.064  35.551  1.00  0.00     0.200 A 
ATOM     80  F   UNL A   1      45.037  24.259  36.037  1.00  0.00    -0.200 F 
ATOM     81  F   UNL A   1      47.494  25.434  36.158  1.00  0.00    -0.200 F 
ENDBRANCH  57  71
BRANCH  58  82
ATOM     82  C   UNL A   1      36.739  31.540  29.285  1.00  0.00     0.064 A 
ATOM     83  C   UNL A   1      36.710  32.910  28.991  1.00  0.00     0.173 A 
ATOM     84  C   UNL A   1      35.631  30.770  28.903  1.00  0.00     0.173 A 
ATOM     85  F   UNL A   1      37.733  33.695  29.360  1.00  0.00    -0.203 F 
ATOM     86  C   UNL A   1      35.611  33.490  28.361  1.00  0.00     0.198 A 
ATOM     87  C   UNL A   1      34.546  31.344  28.243  1.00  0.00     0.198 A 
ATOM     88  F   UNL A   1      35.605  29.454  29.164  1.00  0.00    -0.203 F 
ATOM     89  F   UNL A   1      35.587  34.811  28.141  1.00  0.00    -0.200 F 
ATOM     90  C   UNL A   1      34.532  32.704  27.981  1.00  0.00     0.200 A 
ATOM     91  F   UNL A   1      33.512  30.579  27.867  1.00  0.00    -0.200 F 
ATOM     92  F   UNL A   1      33.476  33.262  27.373  1.00  0.00    -0.200 F 
ENDBRANCH  58  82
BRANCH  70  93
ATOM     93  C   UNL A   1      39.099  32.055  35.833  1.00  0.00     0.064 A 
ATOM     94  C   UNL A   1      38.257  31.539  36.828  1.00  0.00     0.173 A 
ATOM     95  C   UNL A   1      39.562  33.372  35.986  1.00  0.00     0.173 A 
ATOM     96  F   UNL A   1      37.777  30.289  36.726  1.00  0.00    -0.203 F 
ATOM     97  C   UNL A   1      37.868  32.320  37.913  1.00  0.00     0.198 A 
ATOM     98  C   UNL A   1      39.202  34.137  37.091  1.00  0.00     0.198 A 
ATOM     99  F   UNL A   1      40.379  33.913  35.069  1.00  0.00    -0.203 F 
ATOM    100  F   UNL A   1      37.016  31.824  38.822  1.00  0.00    -0.200 F 
ATOM    101  C   UNL A   1      38.347  33.615  38.048  1.00  0.00     0.200 A 
ATOM    102  F   UNL A   1      39.682  35.380  37.229  1.00  0.00    -0.200 F 
ATOM    103  F   UNL A   1      37.977  34.362  39.098  1.00  0.00    -0.200 F 
ENDBRANCH  70  93
ENDBRANCH  44  45
ENDBRANCH  37  39
ENDBRANCH  36  37
ENDBRANCH  35  36
ENDBRANCH  34  35
ENDBRANCH  33  34
ENDBRANCH  32  33
ENDBRANCH  31  32
ENDBRANCH  30  31
ENDBRANCH   1  30
TORSDOF 23
ENDMDL
MODEL 2
REMARK VINA RESULT:     -10.7      4.335      7.141
REMARK SMILES Cc1onc(-c2ccccc2Cl)c1C(=O)N1CCCC[C@@H]1C(=O)OCCOCCOCCOCCOC(=O)c1ccc(-c2c3nc(c(-c4c(F)c(F)c(F)c(F)c4F)c4ccc([nH]4)c(-c4c(F)c(F)c(F)c(F)c4F)c4nc(c(-c5c(F)c(F)c(F)c(F)c5F)c5ccc2[nH]5)C=C4)C=C3)cc1
REMARK SMILES IDX 29 1 28 2 27 3 26 4 25 5 24 6 22 7 23 8 21 9 16 10 17 11
REMARK SMILES IDX 18 12 20 13 19 14 14 15 15 16 13 17 1 18 2 19 3 20 4 21 5 22
REMARK SMILES IDX 6 23 7 24 11 25 8 26 10 27 12 28 9 29 30 30 31 31 32 32
REMARK SMILES IDX 33 33 34 34 35 35 36 36 37 37 38 38 39 39 40 40 101 41 41 42
REMARK SMILES IDX 100 43 42 44 43 45 44 46 94 47 45 48 99 49 93 50 95 51 46 52
REMARK SMILES IDX 98 53 92 54 91 55 47 57 79 58 59 59 78 60 60 61 63 62 77 63
REMARK SMILES IDX 96 64 61 65 62 66 76 68 97 69 64 70 48 71 49 72 57 73 50 74
REMARK SMILES IDX 51 75 55 76 58 77 52 78 53 79 56 80 54 81 80 82 81 83 89 84
REMARK SMILES IDX 82 85 83 86 87 87 90 88 84 89 85 90 88 91 86 92 65 93 66 94
REMARK SMILES IDX 74 95 67 96 68 97 72 98 75 99 69 100 70 101 73 102 71 103
REMARK H PARENT 95 56 63 67
REMARK Flexibility Score: inf
ROOT
ATOM      1  C   UNL A   1      33.654  21.077  26.783  1.00  0.00     0.188 C 
ENDROOT
BRANCH   1   2
ATOM      2  C   UNL A   1      33.029  20.864  25.394  1.00  0.00     0.188 C 
BRANCH   2   3
ATOM      3  O   UNL A   1      31.794  21.526  25.223  1.00  0.00    -0.376 OA
BRANCH   3   4
ATOM      4  C   UNL A   1      31.524  22.776  25.813  1.00  0.00     0.202 C 
BRANCH   4   5
ATOM      5  C   UNL A   1      32.310  24.063  25.498  1.00  0.00     0.261 C 
BRANCH   5   6
ATOM      6  O   UNL A   1      31.987  25.303  26.138  1.00  0.00    -0.462 OA
BRANCH   6   7
ATOM      7  C   UNL A   1      32.968  26.224  26.126  1.00  0.00     0.328 C 
ATOM      8  O   UNL A   1      34.155  25.930  26.047  1.00  0.00    -0.250 OA
BRANCH   7   9
ATOM      9  C   UNL A   1      32.488  27.673  26.282  1.00  0.00     0.195 C 
ATOM     10  N   UNL A   1      32.145  28.406  25.038  1.00  0.00    -0.325 N 
ATOM     11  C   UNL A   1      31.474  29.687  25.242  1.00  0.00     0.121 C 
ATOM     12  C   UNL A   1      32.187  30.584  26.253  1.00  0.00     0.022 C 
ATOM     13  C   UNL A   1      33.280  28.568  27.249  1.00  0.00     0.037 C 
ATOM     14  C   UNL A   1      32.471  29.835  27.550  1.00  0.00     0.005 C 
BRANCH  10  15
ATOM     15  C   UNL A   1      32.881  28.251  23.862  1.00  0.00     0.260 C 
ATOM     16  O   UNL A   1      33.883  28.922  23.633  1.00  0.00    -0.269 OA
BRANCH  15  17
ATOM     17  C   UNL A   1      32.325  27.361  22.854  1.00  0.00     0.110 A 
ATOM     18  C   UNL A   1      34.027  25.312  22.697  1.00  0.00     0.092 C 
ATOM     19  C   UNL A   1      32.831  26.144  22.418  1.00  0.00     0.147 A 
ATOM     20  O   UNL A   1      32.014  25.634  21.461  1.00  0.00    -0.360 OA
ATOM     21  N   UNL A   1      30.919  26.444  21.307  1.00  0.00    -0.079 NA
ATOM     22  C   UNL A   1      31.067  27.455  22.179  1.00  0.00     0.128 A 
BRANCH  22  23
ATOM     23  C   UNL A   1      29.951  28.373  22.378  1.00  0.00     0.023 A 
ATOM     24  C   UNL A   1      30.079  29.649  21.797  1.00  0.00     0.012 A 
ATOM     25  C   UNL A   1      28.800  28.092  23.123  1.00  0.00     0.050 A 
ATOM     26  C   UNL A   1      29.089  30.618  21.958  1.00  0.00     0.001 A 
ATOM     27  C   UNL A   1      27.819  29.076  23.302  1.00  0.00     0.021 A 
ATOM     28  Cl  UNL A   1      28.500  26.573  23.876  1.00  0.00    -0.084 Cl
ATOM     29  C   UNL A   1      27.962  30.334  22.718  1.00  0.00     0.002 A 
ENDBRANCH  22  23
ENDBRANCH  15  17
ENDBRANCH  10  15
ENDBRANCH   7   9
ENDBRANCH   6   7
ENDBRANCH   5   6
ENDBRANCH   4   5
ENDBRANCH   3   4
ENDBRANCH   2   3
ENDBRANCH   1   2
BRANCH   1  30
ATOM     30  O   UNL A   1      34.820  21.883  26.870  1.00  0.00    -0.377 OA
BRANCH  30  31
ATOM     31  C   UNL A   1      35.574  22.197  25.698  1.00  0.00     0.188 C 
BRANCH  31  32
ATOM     32  C   UNL A   1      37.000  21.642  25.477  1.00  0.00     0.188 C 
BRANCH  32  33
ATOM     33  O   UNL A   1      37.064  20.472  24.684  1.00  0.00    -0.376 OA
BRANCH  33  34
ATOM     34  C   UNL A   1      38.135  19.572  24.897  1.00  0.00     0.202 C 
BRANCH  34  35
ATOM     35  C   UNL A   1      39.071  19.845  26.086  1.00  0.00     0.261 C 
BRANCH  35  36
ATOM     36  O   UNL A   1      40.411  20.253  25.765  1.00  0.00    -0.460 OA
BRANCH  36  37
ATOM     37  C   UNL A   1      41.298  20.349  26.773  1.00  0.00     0.338 C 
ATOM     38  O   UNL A   1      42.090  19.496  27.152  1.00  0.00    -0.246 OA
BRANCH  37  39
ATOM     39  C   UNL A   1      41.304  21.748  27.242  1.00  0.00     0.060 A 
ATOM     40  C   UNL A   1      40.584  22.714  26.523  1.00  0.00     0.016 A 
ATOM     41  C   UNL A   1      42.036  22.106  28.375  1.00  0.00     0.016 A 
ATOM     42  C   UNL A   1      40.646  24.052  26.899  1.00  0.00     0.010 A 
ATOM     43  C   UNL A   1      42.121  23.452  28.735  1.00  0.00     0.010 A 
ATOM     44  C   UNL A   1      41.469  24.433  27.966  1.00  0.00    -0.014 A 
BRANCH  44  45
ATOM     45  C   UNL A   1      41.866  25.854  28.096  1.00  0.00     0.031 A 
ATOM     46  C   UNL A   1      43.195  26.264  27.521  1.00  0.00     0.074 A 
ATOM     47  C   UNL A   1      41.062  26.766  28.667  1.00  0.00     0.049 A 
ATOM     48  N   UNL A   1      43.796  27.425  27.546  1.00  0.00    -0.248 NA
ATOM     49  C   UNL A   1      43.953  25.211  26.822  1.00  0.00     0.031 C 
ATOM     50  C   UNL A   1      39.731  26.502  29.206  1.00  0.00     0.029 A 
ATOM     51  N   UNL A   1      41.261  28.104  28.893  1.00  0.00    -0.354 N 
ATOM     52  C   UNL A   1      45.001  27.239  26.880  1.00  0.00     0.074 A 
ATOM     53  C   UNL A   1      45.065  25.848  26.493  1.00  0.00     0.031 C 
ATOM     54  C   UNL A   1      39.235  27.644  29.713  1.00  0.00     0.029 A 
ATOM     55  C   UNL A   1      40.229  28.707  29.566  1.00  0.00     0.049 A 
ATOM     56  H   UNL A   1      42.069  28.587  28.600  1.00  0.00     0.167 HD
ATOM     57  C   UNL A   1      45.965  28.150  26.608  1.00  0.00     0.037 A 
ATOM     58  C   UNL A   1      40.117  29.967  30.030  1.00  0.00     0.037 A 
ATOM     59  C   UNL A   1      45.897  29.531  26.999  1.00  0.00     0.049 A 
ATOM     60  C   UNL A   1      41.241  30.944  29.787  1.00  0.00     0.074 A 
ATOM     61  C   UNL A   1      46.816  30.539  26.770  1.00  0.00     0.029 A 
ATOM     62  N   UNL A   1      44.849  30.097  27.710  1.00  0.00    -0.354 N 
ATOM     63  N   UNL A   1      42.373  30.768  29.147  1.00  0.00    -0.248 NA
ATOM     64  C   UNL A   1      41.066  32.300  30.327  1.00  0.00     0.031 C 
ATOM     65  C   UNL A   1      46.354  31.700  27.397  1.00  0.00     0.029 A 
ATOM     66  C   UNL A   1      45.111  31.436  27.952  1.00  0.00     0.049 A 
ATOM     67  H   UNL A   1      44.039  29.619  28.002  1.00  0.00     0.167 HD
ATOM     68  C   UNL A   1      43.024  31.996  29.172  1.00  0.00     0.074 A 
ATOM     69  C   UNL A   1      42.156  32.911  29.883  1.00  0.00     0.031 C 
ATOM     70  C   UNL A   1      44.228  32.338  28.649  1.00  0.00     0.037 A 
BRANCH  57  71
ATOM     71  C   UNL A   1      47.190  27.664  25.887  1.00  0.00     0.064 A 
ATOM     72  C   UNL A   1      48.333  27.227  26.573  1.00  0.00     0.173 A 
ATOM     73  C   UNL A   1      47.213  27.623  24.484  1.00  0.00     0.173 A 
ATOM     74  F   UNL A   1      48.371  27.263  27.914  1.00  0.00    -0.203 F 
ATOM     75  C   UNL A   1      49.464  26.799  25.883  1.00  0.00     0.198 A 
ATOM     76  C   UNL A   1      48.333  27.160  23.798  1.00  0.00     0.198 A 
ATOM     77  F   UNL A   1      46.148  28.029  23.777  1.00  0.00    -0.203 F 
ATOM     78  F   UNL A   1      50.566  26.442  26.559  1.00  0.00    -0.200 F 
ATOM     79  C   UNL A   1      49.460  26.757  24.497  1.00  0.00     0.200 A 
ATOM     80  F   UNL A   1      48.321  27.108  22.459  1.00  0.00    -0.200 F 
ATOM     81  F   UNL A   1      50.547  26.338  23.834  1.00  0.00    -0.200 F 
ENDBRANCH  57  71
BRANCH  58  82
ATOM     82  C   UNL A   1      38.901  30.380  30.780  1.00  0.00     0.064 A 
ATOM     83  C   UNL A   1      37.763  30.855  30.114  1.00  0.00     0.173 A 
ATOM     84  C   UNL A   1      38.860  30.334  32.182  1.00  0.00     0.173 A 
ATOM     85  F   UNL A   1      37.761  30.945  28.776  1.00  0.00    -0.203 F 
ATOM     86  C   UNL A   1      36.641  31.288  30.818  1.00  0.00     0.198 A 
ATOM     87  C   UNL A   1      37.726  30.735  32.885  1.00  0.00     0.198 A 
ATOM     88  F   UNL A   1      39.922  29.891  32.871  1.00  0.00    -0.203 F 
ATOM     89  F   UNL A   1      35.589  31.789  30.157  1.00  0.00    -0.200 F 
ATOM     90  C   UNL A   1      36.622  31.221  32.204  1.00  0.00     0.200 A 
ATOM     91  F   UNL A   1      37.706  30.657  34.222  1.00  0.00    -0.200 F 
ATOM     92  F   UNL A   1      35.541  31.634  32.881  1.00  0.00    -0.200 F 
ENDBRANCH  58  82
BRANCH  70  93
ATOM     93  C   UNL A   1      44.655  33.775  28.766  1.00  0.00     0.064 A 
ATOM     94  C   UNL A   1      45.344  34.260  29.886  1.00  0.00     0.173 A 
ATOM     95  C   UNL A   1      44.401  34.672  27.715  1.00  0.00     0.173 A 
ATOM     96  F   UNL A   1      45.604  33.448  30.923  1.00  0.00    -0.203 F 
ATOM     97  C   UNL A   1      45.734  35.594  29.966  1.00  0.00     0.198 A 
ATOM     98  C   UNL A   1      44.826  35.996  27.782  1.00  0.00     0.198 A 
ATOM     99  F   UNL A   1      43.755  34.260  26.615  1.00  0.00    -0.203 F 
ATOM    100  F   UNL A   1      46.341  36.048  31.072  1.00  0.00    -0.200 F 
ATOM    101  C   UNL A   1      45.481  36.459  28.911  1.00  0.00     0.200 A 
ATOM    102  F   UNL A   1      44.598  36.824  26.753  1.00  0.00    -0.200 F 
ATOM    103  F   UNL A   1      45.865  37.741  28.987  1.00  0.00    -0.200 F 
ENDBRANCH  70  93
ENDBRANCH  44  45
ENDBRANCH  37  39
ENDBRANCH  36  37
ENDBRANCH  35  36
ENDBRANCH  34  35
ENDBRANCH  33  34
ENDBRANCH  32  33
ENDBRANCH  31  32
ENDBRANCH  30  31
ENDBRANCH   1  30
TORSDOF 23
ENDMDL
MODEL 3
REMARK VINA RESULT:     -10.6      4.358      7.294
REMARK SMILES Cc1onc(-c2ccccc2Cl)c1C(=O)N1CCCC[C@@H]1C(=O)OCCOCCOCCOCCOC(=O)c1ccc(-c2c3nc(c(-c4c(F)c(F)c(F)c(F)c4F)c4ccc([nH]4)c(-c4c(F)c(F)c(F)c(F)c4F)c4nc(c(-c5c(F)c(F)c(F)c(F)c5F)c5ccc2[nH]5)C=C4)C=C3)cc1
REMARK SMILES IDX 29 1 28 2 27 3 26 4 25 5 24 6 22 7 23 8 21 9 16 10 17 11
REMARK SMILES IDX 18 12 20 13 19 14 14 15 15 16 13 17 1 18 2 19 3 20 4 21 5 22
REMARK SMILES IDX 6 23 7 24 11 25 8 26 10 27 12 28 9 29 30 30 31 31 32 32
REMARK SMILES IDX 33 33 34 34 35 35 36 36 37 37 38 38 39 39 40 40 101 41 41 42
REMARK SMILES IDX 100 43 42 44 43 45 44 46 94 47 45 48 99 49 93 50 95 51 46 52
REMARK SMILES IDX 98 53 92 54 91 55 47 57 79 58 59 59 78 60 60 61 63 62 77 63
REMARK SMILES IDX 96 64 61 65 62 66 76 68 97 69 64 70 48 71 49 72 57 73 50 74
REMARK SMILES IDX 51 75 55 76 58 77 52 78 53 79 56 80 54 81 80 82 81 83 89 84
REMARK SMILES IDX 82 85 83 86 87 87 90 88 84 89 85 90 88 91 86 92 65 93 66 94
REMARK SMILES IDX 74 95 67 96 68 97 72 98 75 99 69 100 70 101 73 102 71 103
REMARK H PARENT 95 56 63 67
REMARK Flexibility Score: inf
ROOT
ATOM      1  C   UNL A   1      33.657  20.982  26.823  1.00  0.00     0.188 C 
ENDROOT
BRANCH   1   2
ATOM      2  C   UNL A   1      32.706  21.372  25.679  1.00  0.00     0.188 C 
BRANCH   2   3
ATOM      3  O   UNL A   1      31.714  22.299  26.061  1.00  0.00    -0.376 OA
BRANCH   3   4
ATOM      4  C   UNL A   1      31.988  23.383  26.917  1.00  0.00     0.202 C 
BRANCH   4   5
ATOM      5  C   UNL A   1      32.932  24.546  26.558  1.00  0.00     0.261 C 
BRANCH   5   6
ATOM      6  O   UNL A   1      32.468  25.900  26.547  1.00  0.00    -0.462 OA
BRANCH   6   7
ATOM      7  C   UNL A   1      33.310  26.789  25.989  1.00  0.00     0.328 C 
ATOM      8  O   UNL A   1      34.104  26.487  25.106  1.00  0.00    -0.250 OA
BRANCH   7   9
ATOM      9  C   UNL A   1      33.242  28.200  26.588  1.00  0.00     0.195 C 
ATOM     10  N   UNL A   1      32.374  29.185  25.895  1.00  0.00    -0.325 N 
ATOM     11  C   UNL A   1      32.153  30.432  26.622  1.00  0.00     0.121 C 
ATOM     12  C   UNL A   1      33.447  31.070  27.127  1.00  0.00     0.022 C 
ATOM     13  C   UNL A   1      34.574  28.840  27.011  1.00  0.00     0.037 C 
ATOM     14  C   UNL A   1      34.295  30.061  27.894  1.00  0.00     0.005 C 
BRANCH  10  15
ATOM     15  C   UNL A   1      32.274  29.231  24.503  1.00  0.00     0.260 C 
ATOM     16  O   UNL A   1      33.209  29.599  23.798  1.00  0.00    -0.269 OA
BRANCH  15  17
ATOM     17  C   UNL A   1      30.964  28.960  23.931  1.00  0.00     0.110 A 
ATOM     18  C   UNL A   1      29.645  31.277  24.043  1.00  0.00     0.092 C 
ATOM     19  C   UNL A   1      29.913  29.849  23.747  1.00  0.00     0.147 A 
ATOM     20  O   UNL A   1      28.863  29.194  23.187  1.00  0.00    -0.360 OA
ATOM     21  N   UNL A   1      29.219  27.900  22.908  1.00  0.00    -0.079 NA
ATOM     22  C   UNL A   1      30.498  27.764  23.298  1.00  0.00     0.128 A 
BRANCH  22  23
ATOM     23  C   UNL A   1      31.209  26.541  22.944  1.00  0.00     0.023 A 
ATOM     24  C   UNL A   1      32.194  26.656  21.946  1.00  0.00     0.012 A 
ATOM     25  C   UNL A   1      30.957  25.277  23.491  1.00  0.00     0.050 A 
ATOM     26  C   UNL A   1      32.906  25.542  21.502  1.00  0.00     0.001 A 
ATOM     27  C   UNL A   1      31.659  24.157  23.026  1.00  0.00     0.021 A 
ATOM     28  Cl  UNL A   1      29.795  24.988  24.727  1.00  0.00    -0.084 Cl
ATOM     29  C   UNL A   1      32.632  24.290  22.037  1.00  0.00     0.002 A 
ENDBRANCH  22  23
ENDBRANCH  15  17
ENDBRANCH  10  15
ENDBRANCH   7   9
ENDBRANCH   6   7
ENDBRANCH   5   6
ENDBRANCH   4   5
ENDBRANCH   3   4
ENDBRANCH   2   3
ENDBRANCH   1   2
BRANCH   1  30
ATOM     30  O   UNL A   1      34.954  21.559  26.834  1.00  0.00    -0.377 OA
BRANCH  30  31
ATOM     31  C   UNL A   1      35.580  21.960  25.614  1.00  0.00     0.188 C 
BRANCH  31  32
ATOM     32  C   UNL A   1      37.036  21.563  25.280  1.00  0.00     0.188 C 
BRANCH  32  33
ATOM     33  O   UNL A   1      37.181  20.282  24.695  1.00  0.00    -0.376 OA
BRANCH  33  34
ATOM     34  C   UNL A   1      38.364  19.551  24.960  1.00  0.00     0.202 C 
BRANCH  34  35
ATOM     35  C   UNL A   1      39.261  20.038  26.110  1.00  0.00     0.261 C 
BRANCH  35  36
ATOM     36  O   UNL A   1      40.655  20.207  25.806  1.00  0.00    -0.460 OA
BRANCH  36  37
ATOM     37  C   UNL A   1      41.513  20.335  26.837  1.00  0.00     0.338 C 
ATOM     38  O   UNL A   1      42.304  19.499  27.254  1.00  0.00    -0.246 OA
BRANCH  37  39
ATOM     39  C   UNL A   1      41.488  21.742  27.278  1.00  0.00     0.060 A 
ATOM     40  C   UNL A   1      40.833  22.696  26.486  1.00  0.00     0.016 A 
ATOM     41  C   UNL A   1      42.129  22.119  28.460  1.00  0.00     0.016 A 
ATOM     42  C   UNL A   1      40.872  24.042  26.840  1.00  0.00     0.010 A 
ATOM     43  C   UNL A   1      42.191  23.472  28.799  1.00  0.00     0.010 A 
ATOM     44  C   UNL A   1      41.609  24.440  27.963  1.00  0.00    -0.014 A 
BRANCH  44  45
ATOM     45  C   UNL A   1      42.001  25.862  28.097  1.00  0.00     0.031 A 
ATOM     46  C   UNL A   1      43.325  26.279  27.516  1.00  0.00     0.074 A 
ATOM     47  C   UNL A   1      41.198  26.767  28.678  1.00  0.00     0.049 A 
ATOM     48  N   UNL A   1      43.922  27.442  27.543  1.00  0.00    -0.248 NA
ATOM     49  C   UNL A   1      44.082  25.233  26.807  1.00  0.00     0.031 C 
ATOM     50  C   UNL A   1      39.871  26.496  29.224  1.00  0.00     0.029 A 
ATOM     51  N   UNL A   1      41.393  28.106  28.909  1.00  0.00    -0.354 N 
ATOM     52  C   UNL A   1      45.123  27.264  26.868  1.00  0.00     0.074 A 
ATOM     53  C   UNL A   1      45.189  25.876  26.473  1.00  0.00     0.031 C 
ATOM     54  C   UNL A   1      39.374  27.633  29.740  1.00  0.00     0.029 A 
ATOM     55  C   UNL A   1      40.362  28.701  29.592  1.00  0.00     0.049 A 
ATOM     56  H   UNL A   1      42.196  28.593  28.614  1.00  0.00     0.167 HD
ATOM     57  C   UNL A   1      46.082  28.180  26.594  1.00  0.00     0.037 A 
ATOM     58  C   UNL A   1      40.249  29.958  30.063  1.00  0.00     0.037 A 
ATOM     59  C   UNL A   1      46.010  29.560  26.992  1.00  0.00     0.049 A 
ATOM     60  C   UNL A   1      41.367  30.941  29.818  1.00  0.00     0.074 A 
ATOM     61  C   UNL A   1      46.924  30.572  26.763  1.00  0.00     0.029 A 
ATOM     62  N   UNL A   1      44.965  30.118  27.714  1.00  0.00    -0.354 N 
ATOM     63  N   UNL A   1      42.496  30.772  29.170  1.00  0.00    -0.248 NA
ATOM     64  C   UNL A   1      41.191  32.294  30.365  1.00  0.00     0.031 C 
ATOM     65  C   UNL A   1      46.462  31.728  27.399  1.00  0.00     0.029 A 
ATOM     66  C   UNL A   1      45.224  31.457  27.960  1.00  0.00     0.049 A 
ATOM     67  H   UNL A   1      44.159  29.636  28.008  1.00  0.00     0.167 HD
ATOM     68  C   UNL A   1      43.143  32.002  29.197  1.00  0.00     0.074 A 
ATOM     69  C   UNL A   1      42.275  32.910  29.918  1.00  0.00     0.031 C 
ATOM     70  C   UNL A   1      44.342  32.352  28.667  1.00  0.00     0.037 A 
BRANCH  57  71
ATOM     71  C   UNL A   1      47.304  27.703  25.863  1.00  0.00     0.064 A 
ATOM     72  C   UNL A   1      48.450  27.259  26.540  1.00  0.00     0.173 A 
ATOM     73  C   UNL A   1      47.321  27.677  24.460  1.00  0.00     0.173 A 
ATOM     74  F   UNL A   1      48.493  27.280  27.881  1.00  0.00    -0.203 F 
ATOM     75  C   UNL A   1      49.578  26.838  25.840  1.00  0.00     0.198 A 
ATOM     76  C   UNL A   1      48.438  27.222  23.764  1.00  0.00     0.198 A 
ATOM     77  F   UNL A   1      46.253  28.091  23.762  1.00  0.00    -0.203 F 
ATOM     78  F   UNL A   1      50.682  26.474  26.508  1.00  0.00    -0.200 F 
ATOM     79  C   UNL A   1      49.568  26.812  24.454  1.00  0.00     0.200 A 
ATOM     80  F   UNL A   1      48.421  27.185  22.425  1.00  0.00    -0.200 F 
ATOM     81  F   UNL A   1      50.653  26.401  23.782  1.00  0.00    -0.200 F 
ENDBRANCH  57  71
BRANCH  58  82
ATOM     82  C   UNL A   1      39.036  30.363  30.823  1.00  0.00     0.064 A 
ATOM     83  C   UNL A   1      37.920  30.907  30.173  1.00  0.00     0.173 A 
ATOM     84  C   UNL A   1      38.978  30.239  32.219  1.00  0.00     0.173 A 
ATOM     85  F   UNL A   1      37.936  31.072  28.842  1.00  0.00    -0.203 F 
ATOM     86  C   UNL A   1      36.803  31.331  30.889  1.00  0.00     0.198 A 
ATOM     87  C   UNL A   1      37.847  30.632  32.933  1.00  0.00     0.198 A 
ATOM     88  F   UNL A   1      40.019  29.728  32.893  1.00  0.00    -0.203 F 
ATOM     89  F   UNL A   1      35.773  31.899  30.247  1.00  0.00    -0.200 F 
ATOM     90  C   UNL A   1      36.765  31.187  32.269  1.00  0.00     0.200 A 
ATOM     91  F   UNL A   1      37.810  30.479  34.263  1.00  0.00    -0.200 F 
ATOM     92  F   UNL A   1      35.689  31.592  32.957  1.00  0.00    -0.200 F 
ENDBRANCH  58  82
BRANCH  70  93
ATOM     93  C   UNL A   1      44.764  33.790  28.788  1.00  0.00     0.064 A 
ATOM     94  C   UNL A   1      44.411  34.754  27.833  1.00  0.00     0.173 A 
ATOM     95  C   UNL A   1      45.502  34.215  29.905  1.00  0.00     0.173 A 
ATOM     96  F   UNL A   1      43.715  34.400  26.742  1.00  0.00    -0.203 F 
ATOM     97  C   UNL A   1      44.809  36.081  27.974  1.00  0.00     0.198 A 
ATOM     98  C   UNL A   1      45.866  35.549  30.061  1.00  0.00     0.198 A 
ATOM     99  F   UNL A   1      45.858  33.337  30.855  1.00  0.00    -0.203 F 
ATOM    100  F   UNL A   1      44.509  36.973  27.019  1.00  0.00    -0.200 F 
ATOM    101  C   UNL A   1      45.530  36.479  29.091  1.00  0.00     0.200 A 
ATOM    102  F   UNL A   1      46.544  35.934  31.151  1.00  0.00    -0.200 F 
ATOM    103  F   UNL A   1      45.905  37.758  29.228  1.00  0.00    -0.200 F 
ENDBRANCH  70  93
ENDBRANCH  44  45
ENDBRANCH  37  39
ENDBRANCH  36  37
ENDBRANCH  35  36
ENDBRANCH  34  35
ENDBRANCH  33  34
ENDBRANCH  32  33
ENDBRANCH  31  32
ENDBRANCH  30  31
ENDBRANCH   1  30
TORSDOF 23
ENDMDL
