MODEL 1
REMARK VINA RESULT:     -12.1      0.000      0.000
REMARK SMILES O=C(OCCOCCOCCOCCOC(=O)c1nnn(-c2cccc(Br)c2)c1[C@@H]1COc2ccccc2O1)c1ccc(-c2c3nc(c(-c4c(F)c(F)c(F)c(F)c4F)c4ccc([nH]4)c(-c4c(F)c(F)c(F)c(F)c4F)c4nc(c(-c5c(F)c(F)c(F)c(F)c5F)c5ccc2[nH]5)C=C4)C=C3)cc1
REMARK SMILES IDX 8 1 7 2 6 3 5 4 4 5 3 6 2 7 1 8 40 9 41 10 102 11 42 12
REMARK SMILES IDX 101 13 43 14 44 15 45 16 95 17 46 18 100 19 94 20 96 21
REMARK SMILES IDX 47 22 99 23 93 24 92 25 48 27 80 28 60 29 79 30 61 31 64 32
REMARK SMILES IDX 78 33 97 34 62 35 63 36 77 38 98 39 65 40 49 41 50 42 58 43
REMARK SMILES IDX 51 44 52 45 56 46 59 47 53 48 54 49 57 50 55 51 81 52 82 53
REMARK SMILES IDX 90 54 83 55 84 56 88 57 91 58 85 59 86 60 89 61 87 62 66 63
REMARK SMILES IDX 67 64 75 65 68 66 69 67 73 68 76 69 70 70 71 71 74 72 72 73
REMARK SMILES IDX 9 74 10 75 11 76 12 77 13 78 14 79 15 80 16 81 17 82 18 83
REMARK SMILES IDX 19 84 29 85 20 86 21 87 30 88 31 89 39 90 32 91 38 92 33 93
REMARK SMILES IDX 37 94 34 95 36 96 35 97 22 98 23 99 28 100 24 101 26 102
REMARK SMILES IDX 25 103 27 104
REMARK H PARENT 96 26 64 37
REMARK Flexibility Score: inf
ROOT
ATOM      1  C   UNL A   1      43.059  18.158  26.989  1.00  0.00     0.188 C 
ENDROOT
BRANCH   1   2
ATOM      2  C   UNL A   1      43.806  18.358  25.658  1.00  0.00     0.188 C 
BRANCH   2   3
ATOM      3  O   UNL A   1      45.153  18.003  25.416  1.00  0.00    -0.376 OA
BRANCH   3   4
ATOM      4  C   UNL A   1      46.320  18.772  25.617  1.00  0.00     0.202 C 
BRANCH   4   5
ATOM      5  C   UNL A   1      46.910  19.767  24.620  1.00  0.00     0.261 C 
BRANCH   5   6
ATOM      6  O   UNL A   1      46.381  21.084  24.659  1.00  0.00    -0.460 OA
BRANCH   6   7
ATOM      7  C   UNL A   1      45.101  21.436  24.421  1.00  0.00     0.338 C 
ATOM      8  O   UNL A   1      44.548  21.030  23.401  1.00  0.00    -0.246 OA
BRANCH   7   9
ATOM      9  C   UNL A   1      44.391  22.470  25.227  1.00  0.00     0.060 A 
ATOM     10  C   UNL A   1      43.257  23.184  24.839  1.00  0.00     0.016 A 
ATOM     11  C   UNL A   1      44.986  22.755  26.475  1.00  0.00     0.016 A 
ATOM     12  C   UNL A   1      42.835  24.263  25.592  1.00  0.00     0.010 A 
ATOM     13  C   UNL A   1      44.559  23.825  27.240  1.00  0.00     0.010 A 
ATOM     14  C   UNL A   1      43.551  24.630  26.731  1.00  0.00    -0.014 A 
BRANCH  14  15
ATOM     15  C   UNL A   1      43.272  25.953  27.257  1.00  0.00     0.031 A 
ATOM     16  C   UNL A   1      44.291  26.992  26.968  1.00  0.00     0.074 A 
ATOM     17  C   UNL A   1      42.203  26.167  28.047  1.00  0.00     0.049 A 
ATOM     18  N   UNL A   1      45.068  27.598  27.805  1.00  0.00    -0.248 NA
ATOM     19  C   UNL A   1      44.551  27.311  25.558  1.00  0.00     0.031 C 
ATOM     20  C   UNL A   1      41.028  25.315  28.256  1.00  0.00     0.029 A 
ATOM     21  N   UNL A   1      41.925  27.259  28.805  1.00  0.00    -0.354 N 
ATOM     22  C   UNL A   1      45.816  28.495  27.049  1.00  0.00     0.074 A 
ATOM     23  C   UNL A   1      45.538  28.200  25.666  1.00  0.00     0.031 C 
ATOM     24  C   UNL A   1      40.073  26.022  28.900  1.00  0.00     0.029 A 
ATOM     25  C   UNL A   1      40.625  27.311  29.277  1.00  0.00     0.049 A 
ATOM     26  H   UNL A   1      42.593  27.956  29.002  1.00  0.00     0.167 HD
ATOM     27  C   UNL A   1      46.464  29.545  27.622  1.00  0.00     0.037 A 
ATOM     28  C   UNL A   1      40.034  28.376  29.869  1.00  0.00     0.037 A 
ATOM     29  C   UNL A   1      46.721  29.317  29.018  1.00  0.00     0.049 A 
ATOM     30  C   UNL A   1      41.114  29.254  30.387  1.00  0.00     0.074 A 
ATOM     31  C   UNL A   1      47.465  28.387  29.719  1.00  0.00     0.029 A 
ATOM     32  N   UNL A   1      45.897  29.901  29.947  1.00  0.00    -0.354 N 
ATOM     33  N   UNL A   1      41.889  28.936  31.387  1.00  0.00    -0.248 NA
ATOM     34  C   UNL A   1      41.628  30.288  29.500  1.00  0.00     0.031 C 
ATOM     35  C   UNL A   1      46.704  28.113  30.892  1.00  0.00     0.029 A 
ATOM     36  C   UNL A   1      45.574  28.929  30.860  1.00  0.00     0.049 A 
ATOM     37  H   UNL A   1      45.595  30.838  29.957  1.00  0.00     0.167 HD
ATOM     38  C   UNL A   1      43.142  29.410  31.027  1.00  0.00     0.074 A 
ATOM     39  C   UNL A   1      42.904  30.301  29.895  1.00  0.00     0.031 C 
ATOM     40  C   UNL A   1      44.283  28.825  31.497  1.00  0.00     0.037 A 
BRANCH  27  41
ATOM     41  C   UNL A   1      46.570  30.903  26.981  1.00  0.00     0.064 A 
ATOM     42  C   UNL A   1      47.817  31.554  26.921  1.00  0.00     0.173 A 
ATOM     43  C   UNL A   1      45.445  31.707  26.694  1.00  0.00     0.173 A 
ATOM     44  F   UNL A   1      48.949  30.893  27.205  1.00  0.00    -0.203 F 
ATOM     45  C   UNL A   1      47.919  32.924  26.655  1.00  0.00     0.198 A 
ATOM     46  C   UNL A   1      45.555  33.059  26.379  1.00  0.00     0.198 A 
ATOM     47  F   UNL A   1      44.194  31.247  26.816  1.00  0.00    -0.203 F 
ATOM     48  F   UNL A   1      49.114  33.527  26.725  1.00  0.00    -0.200 F 
ATOM     49  C   UNL A   1      46.788  33.675  26.390  1.00  0.00     0.200 A 
ATOM     50  F   UNL A   1      44.446  33.774  26.147  1.00  0.00    -0.200 F 
ATOM     51  F   UNL A   1      46.879  34.996  26.196  1.00  0.00    -0.200 F 
ENDBRANCH  27  41
BRANCH  28  52
ATOM     52  C   UNL A   1      38.644  28.843  29.667  1.00  0.00     0.064 A 
ATOM     53  C   UNL A   1      37.820  29.161  30.757  1.00  0.00     0.173 A 
ATOM     54  C   UNL A   1      38.188  29.249  28.396  1.00  0.00     0.173 A 
ATOM     55  F   UNL A   1      38.206  28.852  32.004  1.00  0.00    -0.203 F 
ATOM     56  C   UNL A   1      36.622  29.863  30.588  1.00  0.00     0.198 A 
ATOM     57  C   UNL A   1      36.991  29.943  28.228  1.00  0.00     0.198 A 
ATOM     58  F   UNL A   1      38.943  29.068  27.302  1.00  0.00    -0.203 F 
ATOM     59  F   UNL A   1      35.890  30.203  31.658  1.00  0.00    -0.200 F 
ATOM     60  C   UNL A   1      36.214  30.261  29.325  1.00  0.00     0.200 A 
ATOM     61  F   UNL A   1      36.628  30.355  27.005  1.00  0.00    -0.200 F 
ATOM     62  F   UNL A   1      35.097  30.986  29.170  1.00  0.00    -0.200 F 
ENDBRANCH  28  52
BRANCH  40  63
ATOM     63  C   UNL A   1      44.147  27.806  32.592  1.00  0.00     0.064 A 
ATOM     64  C   UNL A   1      43.987  26.428  32.361  1.00  0.00     0.173 A 
ATOM     65  C   UNL A   1      44.346  28.218  33.917  1.00  0.00     0.173 A 
ATOM     66  F   UNL A   1      43.898  25.946  31.114  1.00  0.00    -0.203 F 
ATOM     67  C   UNL A   1      43.984  25.514  33.414  1.00  0.00     0.198 A 
ATOM     68  C   UNL A   1      44.379  27.299  34.963  1.00  0.00     0.198 A 
ATOM     69  F   UNL A   1      44.565  29.514  34.191  1.00  0.00    -0.203 F 
ATOM     70  F   UNL A   1      43.825  24.205  33.167  1.00  0.00    -0.200 F 
ATOM     71  C   UNL A   1      44.188  25.950  34.712  1.00  0.00     0.200 A 
ATOM     72  F   UNL A   1      44.629  27.719  36.210  1.00  0.00    -0.200 F 
ATOM     73  F   UNL A   1      44.232  25.067  35.720  1.00  0.00    -0.200 F 
ENDBRANCH  40  63
ENDBRANCH  14  15
ENDBRANCH   7   9
ENDBRANCH   6   7
ENDBRANCH   5   6
ENDBRANCH   4   5
ENDBRANCH   3   4
ENDBRANCH   2   3
ENDBRANCH   1   2
BRANCH   1  74
ATOM     74  O   UNL A   1      42.093  19.112  27.376  1.00  0.00    -0.377 OA
BRANCH  74  75
ATOM     75  C   UNL A   1      41.606  19.926  26.329  1.00  0.00     0.188 C 
BRANCH  75  76
ATOM     76  C   UNL A   1      40.064  19.903  26.199  1.00  0.00     0.188 C 
BRANCH  76  77
ATOM     77  O   UNL A   1      39.337  21.106  25.967  1.00  0.00    -0.376 OA
BRANCH  77  78
ATOM     78  C   UNL A   1      38.205  21.084  25.106  1.00  0.00     0.202 C 
BRANCH  78  79
ATOM     79  C   UNL A   1      37.310  19.836  25.043  1.00  0.00     0.261 C 
BRANCH  79  80
ATOM     80  O   UNL A   1      35.943  20.100  24.708  1.00  0.00    -0.458 OA
BRANCH  80  81
ATOM     81  C   UNL A   1      35.342  21.156  25.312  1.00  0.00     0.361 C 
ATOM     82  O   UNL A   1      35.253  21.324  26.524  1.00  0.00    -0.244 OA
BRANCH  81  83
ATOM     83  C   UNL A   1      34.910  22.157  24.352  1.00  0.00     0.198 A 
ATOM     84  N   UNL A   1      35.797  23.040  23.776  1.00  0.00    -0.122 NA
ATOM     85  C   UNL A   1      33.651  22.385  23.827  1.00  0.00     0.123 A 
ATOM     86  N   UNL A   1      35.136  23.790  22.905  1.00  0.00    -0.061 NA
ATOM     87  N   UNL A   1      33.823  23.536  23.078  1.00  0.00    -0.213 N 
BRANCH  85  88
ATOM     88  C   UNL A   1      32.353  21.651  23.897  1.00  0.00     0.262 C 
ATOM     89  C   UNL A   1      31.822  21.378  25.302  1.00  0.00     0.281 C 
ATOM     90  O   UNL A   1      32.473  20.502  23.056  1.00  0.00    -0.477 OA
ATOM     91  O   UNL A   1      32.407  20.253  25.951  1.00  0.00    -0.485 OA
ATOM     92  C   UNL A   1      32.617  19.319  23.719  1.00  0.00     0.162 A 
ATOM     93  C   UNL A   1      32.556  19.190  25.104  1.00  0.00     0.161 A 
ATOM     94  C   UNL A   1      32.885  18.201  22.927  1.00  0.00     0.050 A 
ATOM     95  C   UNL A   1      32.756  17.945  25.700  1.00  0.00     0.050 A 
ATOM     96  C   UNL A   1      33.102  16.957  23.523  1.00  0.00     0.004 A 
ATOM     97  C   UNL A   1      33.033  16.828  24.910  1.00  0.00     0.004 A 
ENDBRANCH  85  88
BRANCH  87  98
ATOM     98  C   UNL A   1      32.855  24.491  22.704  1.00  0.00     0.068 A 
ATOM     99  C   UNL A   1      32.932  25.064  21.426  1.00  0.00     0.028 A 
ATOM    100  C   UNL A   1      31.826  24.837  23.584  1.00  0.00     0.044 A 
ATOM    101  C   UNL A   1      32.009  26.030  21.042  1.00  0.00     0.003 A 
ATOM    102  C   UNL A   1      30.929  25.834  23.197  1.00  0.00     0.020 A 
ATOM    103  C   UNL A   1      31.017  26.432  21.936  1.00  0.00     0.016 A 
ATOM    104  Br  UNL A   1      29.590  26.414  24.400  1.00  0.00    -0.051 Br
ENDBRANCH  87  98
ENDBRANCH  81  83
ENDBRANCH  80  81
ENDBRANCH  79  80
ENDBRANCH  78  79
ENDBRANCH  77  78
ENDBRANCH  76  77
ENDBRANCH  75  76
ENDBRANCH  74  75
ENDBRANCH   1  74
TORSDOF 22
ENDMDL
MODEL 2
REMARK VINA RESULT:     -11.9      3.777      9.272
REMARK SMILES O=C(OCCOCCOCCOCCOC(=O)c1nnn(-c2cccc(Br)c2)c1[C@@H]1COc2ccccc2O1)c1ccc(-c2c3nc(c(-c4c(F)c(F)c(F)c(F)c4F)c4ccc([nH]4)c(-c4c(F)c(F)c(F)c(F)c4F)c4nc(c(-c5c(F)c(F)c(F)c(F)c5F)c5ccc2[nH]5)C=C4)C=C3)cc1
REMARK SMILES IDX 8 1 7 2 6 3 5 4 4 5 3 6 2 7 1 8 40 9 41 10 102 11 42 12
REMARK SMILES IDX 101 13 43 14 44 15 45 16 95 17 46 18 100 19 94 20 96 21
REMARK SMILES IDX 47 22 99 23 93 24 92 25 48 27 80 28 60 29 79 30 61 31 64 32
REMARK SMILES IDX 78 33 97 34 62 35 63 36 77 38 98 39 65 40 49 41 50 42 58 43
REMARK SMILES IDX 51 44 52 45 56 46 59 47 53 48 54 49 57 50 55 51 81 52 82 53
REMARK SMILES IDX 90 54 83 55 84 56 88 57 91 58 85 59 86 60 89 61 87 62 66 63
REMARK SMILES IDX 67 64 75 65 68 66 69 67 73 68 76 69 70 70 71 71 74 72 72 73
REMARK SMILES IDX 9 74 10 75 11 76 12 77 13 78 14 79 15 80 16 81 17 82 18 83
REMARK SMILES IDX 19 84 29 85 20 86 21 87 30 88 31 89 39 90 32 91 38 92 33 93
REMARK SMILES IDX 37 94 34 95 36 96 35 97 22 98 23 99 28 100 24 101 26 102
REMARK SMILES IDX 25 103 27 104
REMARK H PARENT 96 26 64 37
REMARK Flexibility Score: inf
ROOT
ATOM      1  C   UNL A   1      33.149  29.374  24.635  1.00  0.00     0.188 C 
ENDROOT
BRANCH   1   2
ATOM      2  C   UNL A   1      32.694  28.948  26.042  1.00  0.00     0.188 C 
BRANCH   2   3
ATOM      3  O   UNL A   1      32.132  29.808  27.013  1.00  0.00    -0.376 OA
BRANCH   3   4
ATOM      4  C   UNL A   1      32.070  31.219  27.015  1.00  0.00     0.202 C 
BRANCH   4   5
ATOM      5  C   UNL A   1      33.124  32.153  27.604  1.00  0.00     0.261 C 
BRANCH   5   6
ATOM      6  O   UNL A   1      34.471  31.711  27.523  1.00  0.00    -0.460 OA
BRANCH   6   7
ATOM      7  C   UNL A   1      35.320  31.546  28.557  1.00  0.00     0.338 C 
ATOM      8  O   UNL A   1      35.065  32.085  29.632  1.00  0.00    -0.246 OA
BRANCH   7   9
ATOM      9  C   UNL A   1      36.663  30.918  28.400  1.00  0.00     0.060 A 
ATOM     10  C   UNL A   1      36.957  29.770  27.665  1.00  0.00     0.016 A 
ATOM     11  C   UNL A   1      37.698  31.555  29.119  1.00  0.00     0.016 A 
ATOM     12  C   UNL A   1      38.200  29.178  27.785  1.00  0.00     0.010 A 
ATOM     13  C   UNL A   1      38.948  30.974  29.230  1.00  0.00     0.010 A 
ATOM     14  C   UNL A   1      39.148  29.734  28.643  1.00  0.00    -0.014 A 
BRANCH  14  15
ATOM     15  C   UNL A   1      40.272  28.883  28.986  1.00  0.00     0.031 A 
ATOM     16  C   UNL A   1      40.550  28.732  30.435  1.00  0.00     0.074 A 
ATOM     17  C   UNL A   1      41.059  28.365  28.024  1.00  0.00     0.049 A 
ATOM     18  N   UNL A   1      41.581  29.152  31.094  1.00  0.00    -0.248 NA
ATOM     19  C   UNL A   1      39.497  28.138  31.268  1.00  0.00     0.031 C 
ATOM     20  C   UNL A   1      40.806  28.262  26.583  1.00  0.00     0.029 A 
ATOM     21  N   UNL A   1      42.266  27.758  28.165  1.00  0.00    -0.354 N 
ATOM     22  C   UNL A   1      41.384  28.740  32.409  1.00  0.00     0.074 A 
ATOM     23  C   UNL A   1      40.042  28.220  32.481  1.00  0.00     0.031 C 
ATOM     24  C   UNL A   1      41.718  27.433  26.028  1.00  0.00     0.029 A 
ATOM     25  C   UNL A   1      42.697  27.077  27.040  1.00  0.00     0.049 A 
ATOM     26  H   UNL A   1      42.790  27.799  28.998  1.00  0.00     0.167 HD
ATOM     27  C   UNL A   1      42.412  28.681  33.298  1.00  0.00     0.037 A 
ATOM     28  C   UNL A   1      43.746  26.223  26.979  1.00  0.00     0.037 A 
ATOM     29  C   UNL A   1      43.499  29.539  32.917  1.00  0.00     0.049 A 
ATOM     30  C   UNL A   1      44.640  26.532  28.124  1.00  0.00     0.074 A 
ATOM     31  C   UNL A   1      43.633  30.905  32.750  1.00  0.00     0.029 A 
ATOM     32  N   UNL A   1      44.596  28.987  32.302  1.00  0.00    -0.354 N 
ATOM     33  N   UNL A   1      45.341  27.628  28.220  1.00  0.00    -0.248 NA
ATOM     34  C   UNL A   1      44.400  25.830  29.376  1.00  0.00     0.031 C 
ATOM     35  C   UNL A   1      44.505  31.057  31.633  1.00  0.00     0.029 A 
ATOM     36  C   UNL A   1      44.889  29.781  31.223  1.00  0.00     0.049 A 
ATOM     37  H   UNL A   1      45.079  28.176  32.582  1.00  0.00     0.167 HD
ATOM     38  C   UNL A   1      45.274  27.974  29.562  1.00  0.00     0.074 A 
ATOM     39  C   UNL A   1      44.749  26.790  30.237  1.00  0.00     0.031 C 
ATOM     40  C   UNL A   1      45.383  29.273  29.965  1.00  0.00     0.037 A 
BRANCH  27  41
ATOM     41  C   UNL A   1      42.548  27.598  34.335  1.00  0.00     0.064 A 
ATOM     42  C   UNL A   1      43.107  26.355  33.980  1.00  0.00     0.173 A 
ATOM     43  C   UNL A   1      41.883  27.637  35.580  1.00  0.00     0.173 A 
ATOM     44  F   UNL A   1      43.735  26.197  32.806  1.00  0.00    -0.203 F 
ATOM     45  C   UNL A   1      42.952  25.222  34.786  1.00  0.00     0.198 A 
ATOM     46  C   UNL A   1      41.775  26.519  36.404  1.00  0.00     0.198 A 
ATOM     47  F   UNL A   1      41.217  28.721  35.995  1.00  0.00    -0.203 F 
ATOM     48  F   UNL A   1      43.396  24.033  34.355  1.00  0.00    -0.200 F 
ATOM     49  C   UNL A   1      42.282  25.304  35.994  1.00  0.00     0.200 A 
ATOM     50  F   UNL A   1      41.103  26.615  37.559  1.00  0.00    -0.200 F 
ATOM     51  F   UNL A   1      42.080  24.209  36.737  1.00  0.00    -0.200 F 
ENDBRANCH  27  41
BRANCH  28  52
ATOM     52  C   UNL A   1      43.807  24.946  26.232  1.00  0.00     0.064 A 
ATOM     53  C   UNL A   1      44.705  24.771  25.168  1.00  0.00     0.173 A 
ATOM     54  C   UNL A   1      43.180  23.783  26.723  1.00  0.00     0.173 A 
ATOM     55  F   UNL A   1      45.378  25.821  24.676  1.00  0.00    -0.203 F 
ATOM     56  C   UNL A   1      44.976  23.503  24.642  1.00  0.00     0.198 A 
ATOM     57  C   UNL A   1      43.446  22.522  26.194  1.00  0.00     0.198 A 
ATOM     58  F   UNL A   1      42.372  23.835  27.792  1.00  0.00    -0.203 F 
ATOM     59  F   UNL A   1      45.885  23.365  23.667  1.00  0.00    -0.200 F 
ATOM     60  C   UNL A   1      44.354  22.379  25.162  1.00  0.00     0.200 A 
ATOM     61  F   UNL A   1      42.866  21.440  26.732  1.00  0.00    -0.200 F 
ATOM     62  F   UNL A   1      44.659  21.159  24.698  1.00  0.00    -0.200 F 
ENDBRANCH  28  52
BRANCH  40  63
ATOM     63  C   UNL A   1      45.811  30.289  28.945  1.00  0.00     0.064 A 
ATOM     64  C   UNL A   1      44.923  30.930  28.063  1.00  0.00     0.173 A 
ATOM     65  C   UNL A   1      47.136  30.745  28.970  1.00  0.00     0.173 A 
ATOM     66  F   UNL A   1      43.619  30.624  28.056  1.00  0.00    -0.203 F 
ATOM     67  C   UNL A   1      45.356  31.950  27.216  1.00  0.00     0.198 A 
ATOM     68  C   UNL A   1      47.557  31.788  28.149  1.00  0.00     0.198 A 
ATOM     69  F   UNL A   1      48.013  30.212  29.835  1.00  0.00    -0.203 F 
ATOM     70  F   UNL A   1      44.490  32.542  26.380  1.00  0.00    -0.200 F 
ATOM     71  C   UNL A   1      46.670  32.383  27.266  1.00  0.00     0.200 A 
ATOM     72  F   UNL A   1      48.815  32.239  28.238  1.00  0.00    -0.200 F 
ATOM     73  F   UNL A   1      47.076  33.395  26.486  1.00  0.00    -0.200 F 
ENDBRANCH  40  63
ENDBRANCH  14  15
ENDBRANCH   7   9
ENDBRANCH   6   7
ENDBRANCH   5   6
ENDBRANCH   4   5
ENDBRANCH   3   4
ENDBRANCH   2   3
ENDBRANCH   1   2
BRANCH   1  74
ATOM     74  O   UNL A   1      32.303  29.107  23.537  1.00  0.00    -0.377 OA
BRANCH  74  75
ATOM     75  C   UNL A   1      31.460  27.984  23.692  1.00  0.00     0.188 C 
BRANCH  75  76
ATOM     76  C   UNL A   1      30.700  27.603  22.399  1.00  0.00     0.188 C 
BRANCH  76  77
ATOM     77  O   UNL A   1      31.226  26.620  21.512  1.00  0.00    -0.376 OA
BRANCH  77  78
ATOM     78  C   UNL A   1      32.531  26.100  21.737  1.00  0.00     0.202 C 
BRANCH  78  79
ATOM     79  C   UNL A   1      32.751  24.581  21.816  1.00  0.00     0.261 C 
BRANCH  79  80
ATOM     80  O   UNL A   1      32.217  23.963  22.993  1.00  0.00    -0.458 OA
BRANCH  80  81
ATOM     81  C   UNL A   1      32.843  22.852  23.456  1.00  0.00     0.361 C 
ATOM     82  O   UNL A   1      32.327  21.746  23.581  1.00  0.00    -0.244 OA
BRANCH  81  83
ATOM     83  C   UNL A   1      34.259  23.083  23.683  1.00  0.00     0.198 A 
ATOM     84  N   UNL A   1      35.167  23.100  22.646  1.00  0.00    -0.122 NA
ATOM     85  C   UNL A   1      34.928  23.353  24.863  1.00  0.00     0.123 A 
ATOM     86  N   UNL A   1      36.362  23.389  23.140  1.00  0.00    -0.061 NA
ATOM     87  N   UNL A   1      36.259  23.344  24.484  1.00  0.00    -0.213 N 
BRANCH  85  88
ATOM     88  C   UNL A   1      34.485  23.661  26.255  1.00  0.00     0.262 C 
ATOM     89  C   UNL A   1      33.971  22.472  27.064  1.00  0.00     0.281 C 
ATOM     90  O   UNL A   1      33.596  24.776  26.178  1.00  0.00    -0.477 OA
ATOM     91  O   UNL A   1      32.621  22.110  26.795  1.00  0.00    -0.485 OA
ATOM     92  C   UNL A   1      32.278  24.472  26.348  1.00  0.00     0.162 A 
ATOM     93  C   UNL A   1      31.808  23.202  26.674  1.00  0.00     0.161 A 
ATOM     94  C   UNL A   1      31.374  25.514  26.131  1.00  0.00     0.050 A 
ATOM     95  C   UNL A   1      30.437  22.972  26.789  1.00  0.00     0.050 A 
ATOM     96  C   UNL A   1      30.001  25.281  26.229  1.00  0.00     0.004 A 
ATOM     97  C   UNL A   1      29.533  24.011  26.563  1.00  0.00     0.004 A 
ENDBRANCH  85  88
BRANCH  87  98
ATOM     98  C   UNL A   1      37.395  23.095  25.281  1.00  0.00     0.068 A 
ATOM     99  C   UNL A   1      38.018  21.841  25.195  1.00  0.00     0.028 A 
ATOM    100  C   UNL A   1      37.903  24.091  26.119  1.00  0.00     0.044 A 
ATOM    101  C   UNL A   1      39.122  21.559  25.992  1.00  0.00     0.003 A 
ATOM    102  C   UNL A   1      38.990  23.780  26.938  1.00  0.00     0.020 A 
ATOM    103  C   UNL A   1      39.597  22.522  26.881  1.00  0.00     0.016 A 
ATOM    104  Br  UNL A   1      39.637  25.061  28.169  1.00  0.00    -0.051 Br
ENDBRANCH  87  98
ENDBRANCH  81  83
ENDBRANCH  80  81
ENDBRANCH  79  80
ENDBRANCH  78  79
ENDBRANCH  77  78
ENDBRANCH  76  77
ENDBRANCH  75  76
ENDBRANCH  74  75
ENDBRANCH   1  74
TORSDOF 22
ENDMDL
MODEL 3
REMARK VINA RESULT:     -11.8      3.097      5.067
REMARK SMILES O=C(OCCOCCOCCOCCOC(=O)c1nnn(-c2cccc(Br)c2)c1[C@@H]1COc2ccccc2O1)c1ccc(-c2c3nc(c(-c4c(F)c(F)c(F)c(F)c4F)c4ccc([nH]4)c(-c4c(F)c(F)c(F)c(F)c4F)c4nc(c(-c5c(F)c(F)c(F)c(F)c5F)c5ccc2[nH]5)C=C4)C=C3)cc1
REMARK SMILES IDX 8 1 7 2 6 3 5 4 4 5 3 6 2 7 1 8 40 9 41 10 102 11 42 12
REMARK SMILES IDX 101 13 43 14 44 15 45 16 95 17 46 18 100 19 94 20 96 21
REMARK SMILES IDX 47 22 99 23 93 24 92 25 48 27 80 28 60 29 79 30 61 31 64 32
REMARK SMILES IDX 78 33 97 34 62 35 63 36 77 38 98 39 65 40 49 41 50 42 58 43
REMARK SMILES IDX 51 44 52 45 56 46 59 47 53 48 54 49 57 50 55 51 81 52 82 53
REMARK SMILES IDX 90 54 83 55 84 56 88 57 91 58 85 59 86 60 89 61 87 62 66 63
REMARK SMILES IDX 67 64 75 65 68 66 69 67 73 68 76 69 70 70 71 71 74 72 72 73
REMARK SMILES IDX 9 74 10 75 11 76 12 77 13 78 14 79 15 80 16 81 17 82 18 83
REMARK SMILES IDX 19 84 29 85 20 86 21 87 30 88 31 89 39 90 32 91 38 92 33 93
REMARK SMILES IDX 37 94 34 95 36 96 35 97 22 98 23 99 28 100 24 101 26 102
REMARK SMILES IDX 25 103 27 104
REMARK H PARENT 96 26 64 37
REMARK Flexibility Score: inf
ROOT
ATOM      1  C   UNL A   1      37.445  20.574  24.916  1.00  0.00     0.188 C 
ENDROOT
BRANCH   1   2
ATOM      2  C   UNL A   1      38.385  19.449  25.386  1.00  0.00     0.188 C 
BRANCH   2   3
ATOM      3  O   UNL A   1      39.785  19.424  25.200  1.00  0.00    -0.376 OA
BRANCH   3   4
ATOM      4  C   UNL A   1      40.807  19.612  26.156  1.00  0.00     0.202 C 
BRANCH   4   5
ATOM      5  C   UNL A   1      40.788  20.639  27.287  1.00  0.00     0.261 C 
BRANCH   5   6
ATOM      6  O   UNL A   1      41.071  21.981  26.920  1.00  0.00    -0.460 OA
BRANCH   6   7
ATOM      7  C   UNL A   1      40.239  23.035  27.046  1.00  0.00     0.338 C 
ATOM      8  O   UNL A   1      39.055  22.902  26.742  1.00  0.00    -0.246 OA
BRANCH   7   9
ATOM      9  C   UNL A   1      40.728  24.414  27.333  1.00  0.00     0.060 A 
ATOM     10  C   UNL A   1      41.552  24.794  28.392  1.00  0.00     0.016 A 
ATOM     11  C   UNL A   1      40.248  25.405  26.449  1.00  0.00     0.016 A 
ATOM     12  C   UNL A   1      41.748  26.135  28.662  1.00  0.00     0.010 A 
ATOM     13  C   UNL A   1      40.453  26.747  26.706  1.00  0.00     0.010 A 
ATOM     14  C   UNL A   1      41.115  27.096  27.873  1.00  0.00    -0.014 A 
BRANCH  14  15
ATOM     15  C   UNL A   1      41.076  28.439  28.419  1.00  0.00     0.031 A 
ATOM     16  C   UNL A   1      42.262  29.285  28.140  1.00  0.00     0.074 A 
ATOM     17  C   UNL A   1      40.062  28.828  29.215  1.00  0.00     0.049 A 
ATOM     18  N   UNL A   1      43.135  29.732  28.983  1.00  0.00    -0.248 NA
ATOM     19  C   UNL A   1      42.573  29.573  26.734  1.00  0.00     0.031 C 
ATOM     20  C   UNL A   1      38.755  28.195  29.417  1.00  0.00     0.029 A 
ATOM     21  N   UNL A   1      39.984  29.941  29.989  1.00  0.00    -0.354 N 
ATOM     22  C   UNL A   1      44.029  30.494  28.236  1.00  0.00     0.074 A 
ATOM     23  C   UNL A   1      43.702  30.271  26.850  1.00  0.00     0.031 C 
ATOM     24  C   UNL A   1      37.942  29.051  30.075  1.00  0.00     0.029 A 
ATOM     25  C   UNL A   1      38.713  30.215  30.467  1.00  0.00     0.049 A 
ATOM     26  H   UNL A   1      40.765  30.506  30.193  1.00  0.00     0.167 HD
ATOM     27  C   UNL A   1      44.854  31.404  28.821  1.00  0.00     0.037 A 
ATOM     28  C   UNL A   1      38.322  31.360  31.075  1.00  0.00     0.037 A 
ATOM     29  C   UNL A   1      45.068  31.114  30.213  1.00  0.00     0.049 A 
ATOM     30  C   UNL A   1      39.540  32.026  31.602  1.00  0.00     0.074 A 
ATOM     31  C   UNL A   1      45.637  30.057  30.898  1.00  0.00     0.029 A 
ATOM     32  N   UNL A   1      44.362  31.821  31.153  1.00  0.00    -0.354 N 
ATOM     33  N   UNL A   1      40.248  31.561  32.594  1.00  0.00    -0.248 NA
ATOM     34  C   UNL A   1      40.228  32.964  30.727  1.00  0.00     0.031 C 
ATOM     35  C   UNL A   1      44.840  29.905  32.070  1.00  0.00     0.029 A 
ATOM     36  C   UNL A   1      43.872  30.909  32.053  1.00  0.00     0.049 A 
ATOM     37  H   UNL A   1      44.230  32.797  31.177  1.00  0.00     0.167 HD
ATOM     38  C   UNL A   1      41.565  31.810  32.237  1.00  0.00     0.074 A 
ATOM     39  C   UNL A   1      41.487  32.746  31.118  1.00  0.00     0.031 C 
ATOM     40  C   UNL A   1      42.584  31.026  32.693  1.00  0.00     0.037 A 
BRANCH  27  41
ATOM     41  C   UNL A   1      45.198  32.730  28.199  1.00  0.00     0.064 A 
ATOM     42  C   UNL A   1      44.192  33.697  28.009  1.00  0.00     0.173 A 
ATOM     43  C   UNL A   1      46.412  32.969  27.518  1.00  0.00     0.173 A 
ATOM     44  F   UNL A   1      42.989  33.555  28.585  1.00  0.00    -0.203 F 
ATOM     45  C   UNL A   1      44.370  34.786  27.149  1.00  0.00     0.198 A 
ATOM     46  C   UNL A   1      46.604  34.081  26.702  1.00  0.00     0.198 A 
ATOM     47  F   UNL A   1      47.414  32.082  27.523  1.00  0.00    -0.203 F 
ATOM     48  F   UNL A   1      43.347  35.616  26.905  1.00  0.00    -0.200 F 
ATOM     49  C   UNL A   1      45.574  34.973  26.493  1.00  0.00     0.200 A 
ATOM     50  F   UNL A   1      47.769  34.233  26.059  1.00  0.00    -0.200 F 
ATOM     51  F   UNL A   1      45.726  35.979  25.623  1.00  0.00    -0.200 F 
ENDBRANCH  27  41
BRANCH  28  52
ATOM     52  C   UNL A   1      37.035  32.069  30.885  1.00  0.00     0.064 A 
ATOM     53  C   UNL A   1      36.081  32.126  31.911  1.00  0.00     0.173 A 
ATOM     54  C   UNL A   1      36.835  32.936  29.792  1.00  0.00     0.173 A 
ATOM     55  F   UNL A   1      36.225  31.368  33.008  1.00  0.00    -0.203 F 
ATOM     56  C   UNL A   1      35.001  33.014  31.857  1.00  0.00     0.198 A 
ATOM     57  C   UNL A   1      35.756  33.816  29.736  1.00  0.00     0.198 A 
ATOM     58  F   UNL A   1      37.737  33.018  28.802  1.00  0.00    -0.203 F 
ATOM     59  F   UNL A   1      34.142  33.085  32.883  1.00  0.00    -0.200 F 
ATOM     60  C   UNL A   1      34.845  33.864  30.773  1.00  0.00     0.200 A 
ATOM     61  F   UNL A   1      35.640  34.659  28.700  1.00  0.00    -0.200 F 
ATOM     62  F   UNL A   1      33.846  34.758  30.750  1.00  0.00    -0.200 F 
ENDBRANCH  28  52
BRANCH  40  63
ATOM     63  C   UNL A   1      42.272  30.032  33.776  1.00  0.00     0.064 A 
ATOM     64  C   UNL A   1      41.767  28.743  33.528  1.00  0.00     0.173 A 
ATOM     65  C   UNL A   1      42.646  30.336  35.091  1.00  0.00     0.173 A 
ATOM     66  F   UNL A   1      41.486  28.342  32.282  1.00  0.00    -0.203 F 
ATOM     67  C   UNL A   1      41.606  27.820  34.561  1.00  0.00     0.198 A 
ATOM     68  C   UNL A   1      42.517  29.400  36.114  1.00  0.00     0.198 A 
ATOM     69  F   UNL A   1      43.191  31.530  35.376  1.00  0.00    -0.203 F 
ATOM     70  F   UNL A   1      41.117  26.598  34.300  1.00  0.00    -0.200 F 
ATOM     71  C   UNL A   1      41.989  28.147  35.851  1.00  0.00     0.200 A 
ATOM     72  F   UNL A   1      42.938  29.702  37.350  1.00  0.00    -0.200 F 
ATOM     73  F   UNL A   1      41.878  27.244  36.835  1.00  0.00    -0.200 F 
ENDBRANCH  40  63
ENDBRANCH  14  15
ENDBRANCH   7   9
ENDBRANCH   6   7
ENDBRANCH   5   6
ENDBRANCH   4   5
ENDBRANCH   3   4
ENDBRANCH   2   3
ENDBRANCH   1   2
BRANCH   1  74
ATOM     74  O   UNL A   1      36.471  21.065  25.813  1.00  0.00    -0.377 OA
BRANCH  74  75
ATOM     75  C   UNL A   1      35.193  21.276  25.248  1.00  0.00     0.188 C 
BRANCH  75  76
ATOM     76  C   UNL A   1      34.281  22.178  26.113  1.00  0.00     0.188 C 
BRANCH  76  77
ATOM     77  O   UNL A   1      32.876  22.223  25.882  1.00  0.00    -0.376 OA
BRANCH  77  78
ATOM     78  C   UNL A   1      32.059  23.056  26.697  1.00  0.00     0.202 C 
BRANCH  78  79
ATOM     79  C   UNL A   1      30.827  23.751  26.095  1.00  0.00     0.261 C 
BRANCH  79  80
ATOM     80  O   UNL A   1      31.045  24.338  24.807  1.00  0.00    -0.458 OA
BRANCH  80  81
ATOM     81  C   UNL A   1      30.721  25.646  24.652  1.00  0.00     0.361 C 
ATOM     82  O   UNL A   1      29.912  26.085  23.841  1.00  0.00    -0.244 OA
BRANCH  81  83
ATOM     83  C   UNL A   1      31.358  26.485  25.652  1.00  0.00     0.198 A 
ATOM     84  N   UNL A   1      30.784  26.707  26.885  1.00  0.00    -0.122 NA
ATOM     85  C   UNL A   1      32.576  27.139  25.605  1.00  0.00     0.123 A 
ATOM     86  N   UNL A   1      31.609  27.455  27.603  1.00  0.00    -0.061 NA
ATOM     87  N   UNL A   1      32.585  27.879  26.774  1.00  0.00    -0.213 N 
BRANCH  85  88
ATOM     88  C   UNL A   1      33.723  27.118  24.650  1.00  0.00     0.262 C 
ATOM     89  C   UNL A   1      33.574  28.005  23.417  1.00  0.00     0.281 C 
ATOM     90  O   UNL A   1      34.027  25.748  24.384  1.00  0.00    -0.477 OA
ATOM     91  O   UNL A   1      32.791  27.439  22.370  1.00  0.00    -0.485 OA
ATOM     92  C   UNL A   1      33.633  25.301  23.158  1.00  0.00     0.162 A 
ATOM     93  C   UNL A   1      33.068  26.114  22.178  1.00  0.00     0.161 A 
ATOM     94  C   UNL A   1      33.780  23.933  22.926  1.00  0.00     0.050 A 
ATOM     95  C   UNL A   1      32.657  25.563  20.964  1.00  0.00     0.050 A 
ATOM     96  C   UNL A   1      33.353  23.377  21.719  1.00  0.00     0.004 A 
ATOM     97  C   UNL A   1      32.796  24.193  20.736  1.00  0.00     0.004 A 
ENDBRANCH  85  88
BRANCH  87  98
ATOM     98  C   UNL A   1      33.304  29.057  27.060  1.00  0.00     0.068 A 
ATOM     99  C   UNL A   1      34.675  28.959  27.340  1.00  0.00     0.028 A 
ATOM    100  C   UNL A   1      32.665  30.299  27.038  1.00  0.00     0.044 A 
ATOM    101  C   UNL A   1      35.403  30.101  27.655  1.00  0.00     0.003 A 
ATOM    102  C   UNL A   1      33.401  31.432  27.392  1.00  0.00     0.020 A 
ATOM    103  C   UNL A   1      34.760  31.338  27.702  1.00  0.00     0.016 A 
ATOM    104  Br  UNL A   1      32.547  33.117  27.486  1.00  0.00    -0.051 Br
ENDBRANCH  87  98
ENDBRANCH  81  83
ENDBRANCH  80  81
ENDBRANCH  79  80
ENDBRANCH  78  79
ENDBRANCH  77  78
ENDBRANCH  76  77
ENDBRANCH  75  76
ENDBRANCH  74  75
ENDBRANCH   1  74
TORSDOF 22
ENDMDL
