MODEL 1
REMARK VINA RESULT:      -8.0      0.000      0.000
REMARK SMILES CN(C(=O)C[C@@H]1SC(=O)N(c2ccccc2)C1=O)c1ccccc1C(=O)OCCOCCOCCOCCOC(=O)c1ccc(-c2c3nc(c(-c4c(F)c(F)c(F)c(F)c4F)c4ccc([nH]4)c(-c4c(F)c(F)c(F)c(F)c4F)c4nc(c(-c5c(F)c(F)c(F)c(F)c5F)c5ccc2[nH]5)C=C4)C=C3)cc1
REMARK SMILES IDX 31 1 30 2 29 3 28 4 27 5 25 6 26 7 24 8 19 9 20 10 21 11
REMARK SMILES IDX 23 12 22 13 2 14 1 15 3 16 4 17 5 18 6 19 7 20 17 21 8 22
REMARK SMILES IDX 10 23 18 24 9 25 11 26 12 27 16 28 13 29 15 30 14 31 32 32
REMARK SMILES IDX 33 33 34 34 35 35 36 36 37 37 38 38 39 39 40 40 41 41 42 42
REMARK SMILES IDX 43 43 104 44 44 45 103 46 45 47 46 48 47 49 97 50 48 51
REMARK SMILES IDX 102 52 96 53 98 54 49 55 101 56 95 57 94 58 50 60 82 61
REMARK SMILES IDX 62 62 81 63 63 64 66 65 80 66 99 67 64 68 65 69 79 71 100 72
REMARK SMILES IDX 67 73 51 74 52 75 60 76 53 77 54 78 58 79 61 80 55 81 56 82
REMARK SMILES IDX 59 83 57 84 83 85 84 86 92 87 85 88 86 89 90 90 93 91 87 92
REMARK SMILES IDX 88 93 91 94 89 95 68 96 69 97 77 98 70 99 71 100 75 101
REMARK SMILES IDX 78 102 72 103 73 104 76 105 74 106
REMARK H PARENT 98 59 66 70
REMARK Flexibility Score: inf
ROOT
ATOM      1  C   UNL A   1      38.580  29.491  30.244  1.00  0.00     0.188 C 
ENDROOT
BRANCH   1   2
ATOM      2  O   UNL A   1      38.675  28.863  28.969  1.00  0.00    -0.376 OA
BRANCH   2   3
ATOM      3  C   UNL A   1      39.916  28.762  28.283  1.00  0.00     0.202 C 
BRANCH   3   4
ATOM      4  C   UNL A   1      41.274  28.910  28.991  1.00  0.00     0.261 C 
BRANCH   4   5
ATOM      5  O   UNL A   1      42.424  28.668  28.170  1.00  0.00    -0.460 OA
BRANCH   5   6
ATOM      6  C   UNL A   1      43.275  27.707  28.580  1.00  0.00     0.340 C 
ATOM      7  O   UNL A   1      43.394  27.293  29.722  1.00  0.00    -0.246 OA
BRANCH   6   8
ATOM      8  C   UNL A   1      43.918  27.042  27.419  1.00  0.00     0.083 A 
ATOM      9  C   UNL A   1      43.771  25.699  26.980  1.00  0.00     0.058 A 
ATOM     10  C   UNL A   1      44.492  25.372  25.807  1.00  0.00     0.027 A 
ATOM     11  C   UNL A   1      45.372  26.255  25.165  1.00  0.00     0.002 A 
ATOM     12  C   UNL A   1      44.829  27.920  26.772  1.00  0.00     0.018 A 
ATOM     13  C   UNL A   1      45.573  27.523  25.671  1.00  0.00     0.001 A 
BRANCH   9  14
ATOM     14  N   UNL A   1      43.010  24.652  27.659  1.00  0.00    -0.315 N 
ATOM     15  C   UNL A   1      43.700  23.597  28.384  1.00  0.00     0.153 C 
BRANCH  14  16
ATOM     16  C   UNL A   1      41.598  24.628  27.666  1.00  0.00     0.228 C 
ATOM     17  O   UNL A   1      40.874  25.193  28.486  1.00  0.00    -0.274 OA
BRANCH  16  18
ATOM     18  C   UNL A   1      40.916  23.903  26.504  1.00  0.00     0.125 C 
BRANCH  18  19
ATOM     19  C   UNL A   1      39.734  23.048  26.973  1.00  0.00     0.156 C 
ATOM     20  S   UNL A   1      39.704  21.413  26.224  1.00  0.00    -0.050 SA
ATOM     21  C   UNL A   1      38.375  23.639  26.614  1.00  0.00     0.248 C 
ATOM     22  C   UNL A   1      38.114  21.710  25.547  1.00  0.00     0.293 C 
ATOM     23  N   UNL A   1      37.434  22.669  26.280  1.00  0.00    -0.240 N 
ATOM     24  O   UNL A   1      38.238  24.857  26.596  1.00  0.00    -0.273 OA
ATOM     25  O   UNL A   1      37.827  21.183  24.485  1.00  0.00    -0.261 OA
BRANCH  23  26
ATOM     26  C   UNL A   1      36.001  23.054  25.878  1.00  0.00     0.053 A 
ATOM     27  C   UNL A   1      34.937  21.787  26.625  1.00  0.00     0.027 A 
ATOM     28  C   UNL A   1      35.045  24.658  25.082  1.00  0.00     0.027 A 
ATOM     29  C   UNL A   1      33.195  22.037  26.656  1.00  0.00     0.002 A 
ATOM     30  C   UNL A   1      33.263  24.785  25.217  1.00  0.00     0.002 A 
ATOM     31  C   UNL A   1      32.405  23.482  26.006  1.00  0.00     0.000 A 
ENDBRANCH  23  26
ENDBRANCH  18  19
ENDBRANCH  16  18
ENDBRANCH  14  16
ENDBRANCH   9  14
ENDBRANCH   6   8
ENDBRANCH   5   6
ENDBRANCH   4   5
ENDBRANCH   3   4
ENDBRANCH   2   3
ENDBRANCH   1   2
BRANCH   1  32
ATOM     32  C   UNL A   1      37.943  30.888  30.378  1.00  0.00     0.188 C 
BRANCH  32  33
ATOM     33  O   UNL A   1      36.540  30.834  30.560  1.00  0.00    -0.377 OA
BRANCH  33  34
ATOM     34  C   UNL A   1      36.066  31.055  31.874  1.00  0.00     0.188 C 
BRANCH  34  35
ATOM     35  C   UNL A   1      35.637  32.466  32.324  1.00  0.00     0.188 C 
BRANCH  35  36
ATOM     36  O   UNL A   1      35.526  32.586  33.729  1.00  0.00    -0.376 OA
BRANCH  36  37
ATOM     37  C   UNL A   1      35.879  33.791  34.377  1.00  0.00     0.202 C 
BRANCH  37  38
ATOM     38  C   UNL A   1      36.118  33.829  35.897  1.00  0.00     0.261 C 
BRANCH  38  39
ATOM     39  O   UNL A   1      37.465  33.682  36.354  1.00  0.00    -0.460 OA
BRANCH  39  40
ATOM     40  C   UNL A   1      37.896  32.426  36.546  1.00  0.00     0.338 C 
ATOM     41  O   UNL A   1      37.342  31.524  37.145  1.00  0.00    -0.246 OA
BRANCH  40  42
ATOM     42  C   UNL A   1      39.129  32.251  35.771  1.00  0.00     0.060 A 
ATOM     43  C   UNL A   1      38.980  31.405  34.219  1.00  0.00     0.016 A 
ATOM     44  C   UNL A   1      40.661  32.500  36.592  1.00  0.00     0.016 A 
ATOM     45  C   UNL A   1      40.327  30.701  33.363  1.00  0.00     0.010 A 
ATOM     46  C   UNL A   1      42.155  31.866  35.801  1.00  0.00     0.010 A 
ATOM     47  C   UNL A   1      41.992  30.845  34.054  1.00  0.00    -0.014 A 
BRANCH  47  48
ATOM     48  C   UNL A   1      42.873  30.080  32.955  1.00  0.00     0.031 A 
ATOM     49  C   UNL A   1      43.289  28.654  33.124  1.00  0.00     0.074 A 
ATOM     50  C   UNL A   1      43.177  30.582  31.738  1.00  0.00     0.049 A 
ATOM     51  N   UNL A   1      44.460  28.116  32.931  1.00  0.00    -0.248 NA
ATOM     52  C   UNL A   1      42.288  27.735  33.669  1.00  0.00     0.031 C 
ATOM     53  C   UNL A   1      42.594  31.754  31.114  1.00  0.00     0.029 A 
ATOM     54  N   UNL A   1      44.095  30.153  30.804  1.00  0.00    -0.354 N 
ATOM     55  C   UNL A   1      44.416  26.909  33.617  1.00  0.00     0.074 A 
ATOM     56  C   UNL A   1      43.072  26.769  34.133  1.00  0.00     0.031 C 
ATOM     57  C   UNL A   1      43.211  32.020  29.955  1.00  0.00     0.029 A 
ATOM     58  C   UNL A   1      44.289  31.064  29.791  1.00  0.00     0.049 A 
ATOM     59  H   UNL A   1      44.562  29.288  30.857  1.00  0.00     0.167 HD
ATOM     60  C   UNL A   1      45.474  26.090  33.831  1.00  0.00     0.037 A 
ATOM     61  C   UNL A   1      45.279  31.163  28.886  1.00  0.00     0.037 A 
ATOM     62  C   UNL A   1      46.633  26.143  32.971  1.00  0.00     0.049 A 
ATOM     63  C   UNL A   1      46.373  30.139  28.939  1.00  0.00     0.074 A 
ATOM     64  C   UNL A   1      47.722  25.295  32.913  1.00  0.00     0.029 A 
ATOM     65  N   UNL A   1      46.782  27.057  31.930  1.00  0.00    -0.354 N 
ATOM     66  N   UNL A   1      46.551  29.171  29.807  1.00  0.00    -0.248 NA
ATOM     67  C   UNL A   1      47.403  30.216  27.900  1.00  0.00     0.031 C 
ATOM     68  C   UNL A   1      48.523  25.694  31.834  1.00  0.00     0.029 A 
ATOM     69  C   UNL A   1      47.916  26.767  31.196  1.00  0.00     0.049 A 
ATOM     70  H   UNL A   1      46.167  27.804  31.745  1.00  0.00     0.167 HD
ATOM     71  C   UNL A   1      47.706  28.512  29.417  1.00  0.00     0.074 A 
ATOM     72  C   UNL A   1      48.171  29.182  28.215  1.00  0.00     0.031 C 
ATOM     73  C   UNL A   1      48.332  27.457  29.999  1.00  0.00     0.037 A 
BRANCH  60  74
ATOM     74  C   UNL A   1      45.465  25.184  35.037  1.00  0.00     0.064 A 
ATOM     75  C   UNL A   1      45.813  25.582  36.334  1.00  0.00     0.173 A 
ATOM     76  C   UNL A   1      45.133  23.824  34.861  1.00  0.00     0.173 A 
ATOM     77  F   UNL A   1      46.084  26.868  36.602  1.00  0.00    -0.203 F 
ATOM     78  C   UNL A   1      45.924  24.656  37.373  1.00  0.00     0.198 A 
ATOM     79  C   UNL A   1      45.178  22.914  35.915  1.00  0.00     0.198 A 
ATOM     80  F   UNL A   1      44.769  23.364  33.653  1.00  0.00    -0.203 F 
ATOM     81  F   UNL A   1      46.369  25.054  38.574  1.00  0.00    -0.200 F 
ATOM     82  C   UNL A   1      45.603  23.325  37.165  1.00  0.00     0.200 A 
ATOM     83  F   UNL A   1      44.829  21.635  35.712  1.00  0.00    -0.200 F 
ATOM     84  F   UNL A   1      45.708  22.440  38.166  1.00  0.00    -0.200 F 
ENDBRANCH  60  74
BRANCH  61  85
ATOM     85  C   UNL A   1      45.284  32.292  27.916  1.00  0.00     0.064 A 
ATOM     86  C   UNL A   1      46.099  33.413  28.121  1.00  0.00     0.173 A 
ATOM     87  C   UNL A   1      44.532  32.245  26.730  1.00  0.00     0.173 A 
ATOM     88  F   UNL A   1      46.827  33.514  29.243  1.00  0.00    -0.203 F 
ATOM     89  C   UNL A   1      46.160  34.442  27.182  1.00  0.00     0.198 A 
ATOM     90  C   UNL A   1      44.618  33.260  25.778  1.00  0.00     0.198 A 
ATOM     91  F   UNL A   1      43.741  31.192  26.476  1.00  0.00    -0.203 F 
ATOM     92  F   UNL A   1      46.933  35.513  27.415  1.00  0.00    -0.200 F 
ATOM     93  C   UNL A   1      45.430  34.360  26.007  1.00  0.00     0.200 A 
ATOM     94  F   UNL A   1      43.929  33.165  24.632  1.00  0.00    -0.200 F 
ATOM     95  F   UNL A   1      45.511  35.338  25.094  1.00  0.00    -0.200 F 
ENDBRANCH  61  85
BRANCH  73  96
ATOM     96  C   UNL A   1      49.559  26.944  29.311  1.00  0.00     0.064 A 
ATOM     97  C   UNL A   1      49.477  26.046  28.239  1.00  0.00     0.173 A 
ATOM     98  C   UNL A   1      50.826  27.403  29.699  1.00  0.00     0.173 A 
ATOM     99  F   UNL A   1      48.286  25.567  27.848  1.00  0.00    -0.203 F 
ATOM    100  C   UNL A   1      50.626  25.608  27.589  1.00  0.00     0.198 A 
ATOM    101  C   UNL A   1      51.969  26.989  29.025  1.00  0.00     0.198 A 
ATOM    102  F   UNL A   1      50.951  28.265  30.719  1.00  0.00    -0.203 F 
ATOM    103  F   UNL A   1      50.531  24.715  26.596  1.00  0.00    -0.200 F 
ATOM    104  C   UNL A   1      51.869  26.089  27.975  1.00  0.00     0.200 A 
ATOM    105  F   UNL A   1      53.168  27.465  29.389  1.00  0.00    -0.200 F 
ATOM    106  F   UNL A   1      52.973  25.678  27.338  1.00  0.00    -0.200 F 
ENDBRANCH  73  96
ENDBRANCH  47  48
ENDBRANCH  40  42
ENDBRANCH  39  40
ENDBRANCH  38  39
ENDBRANCH  37  38
ENDBRANCH  36  37
ENDBRANCH  35  36
ENDBRANCH  34  35
ENDBRANCH  33  34
ENDBRANCH  32  33
ENDBRANCH   1  32
TORSDOF 25
ENDMDL
MODEL 2
REMARK VINA RESULT:      -7.4      4.773     12.083
REMARK SMILES CN(C(=O)C[C@@H]1SC(=O)N(c2ccccc2)C1=O)c1ccccc1C(=O)OCCOCCOCCOCCOC(=O)c1ccc(-c2c3nc(c(-c4c(F)c(F)c(F)c(F)c4F)c4ccc([nH]4)c(-c4c(F)c(F)c(F)c(F)c4F)c4nc(c(-c5c(F)c(F)c(F)c(F)c5F)c5ccc2[nH]5)C=C4)C=C3)cc1
REMARK SMILES IDX 31 1 30 2 29 3 28 4 27 5 25 6 26 7 24 8 19 9 20 10 21 11
REMARK SMILES IDX 23 12 22 13 2 14 1 15 3 16 4 17 5 18 6 19 7 20 17 21 8 22
REMARK SMILES IDX 10 23 18 24 9 25 11 26 12 27 16 28 13 29 15 30 14 31 32 32
REMARK SMILES IDX 33 33 34 34 35 35 36 36 37 37 38 38 39 39 40 40 41 41 42 42
REMARK SMILES IDX 43 43 104 44 44 45 103 46 45 47 46 48 47 49 97 50 48 51
REMARK SMILES IDX 102 52 96 53 98 54 49 55 101 56 95 57 94 58 50 60 82 61
REMARK SMILES IDX 62 62 81 63 63 64 66 65 80 66 99 67 64 68 65 69 79 71 100 72
REMARK SMILES IDX 67 73 51 74 52 75 60 76 53 77 54 78 58 79 61 80 55 81 56 82
REMARK SMILES IDX 59 83 57 84 83 85 84 86 92 87 85 88 86 89 90 90 93 91 87 92
REMARK SMILES IDX 88 93 91 94 89 95 68 96 69 97 77 98 70 99 71 100 75 101
REMARK SMILES IDX 78 102 72 103 73 104 76 105 74 106
REMARK H PARENT 98 59 66 70
REMARK Flexibility Score: inf
ROOT
ATOM      1  C   UNL A   1      41.866  21.595  26.156  1.00  0.00     0.188 C 
ENDROOT
BRANCH   1   2
ATOM      2  O   UNL A   1      41.188  22.158  27.274  1.00  0.00    -0.376 OA
BRANCH   2   3
ATOM      3  C   UNL A   1      40.864  23.542  27.325  1.00  0.00     0.202 C 
BRANCH   3   4
ATOM      4  C   UNL A   1      41.526  24.587  26.409  1.00  0.00     0.261 C 
BRANCH   4   5
ATOM      5  O   UNL A   1      40.824  25.831  26.291  1.00  0.00    -0.460 OA
BRANCH   5   6
ATOM      6  C   UNL A   1      41.572  26.937  26.107  1.00  0.00     0.340 C 
ATOM      7  O   UNL A   1      42.330  27.144  25.173  1.00  0.00    -0.246 OA
BRANCH   6   8
ATOM      8  C   UNL A   1      41.198  27.994  27.081  1.00  0.00     0.083 A 
ATOM      9  C   UNL A   1      42.044  28.722  27.960  1.00  0.00     0.058 A 
ATOM     10  C   UNL A   1      41.388  29.699  28.745  1.00  0.00     0.027 A 
ATOM     11  C   UNL A   1      39.998  29.886  28.752  1.00  0.00     0.002 A 
ATOM     12  C   UNL A   1      39.790  28.179  27.112  1.00  0.00     0.018 A 
ATOM     13  C   UNL A   1      39.190  29.096  27.961  1.00  0.00     0.001 A 
BRANCH   9  14
ATOM     14  N   UNL A   1      43.476  28.502  28.153  1.00  0.00    -0.315 N 
ATOM     15  C   UNL A   1      43.973  27.965  29.410  1.00  0.00     0.153 C 
BRANCH  14  16
ATOM     16  C   UNL A   1      44.424  28.769  27.140  1.00  0.00     0.228 C 
ATOM     17  O   UNL A   1      44.452  29.773  26.428  1.00  0.00    -0.274 OA
BRANCH  16  18
ATOM     18  C   UNL A   1      45.557  27.754  26.974  1.00  0.00     0.125 C 
BRANCH  18  19
ATOM     19  C   UNL A   1      46.619  28.234  25.978  1.00  0.00     0.156 C 
ATOM     20  S   UNL A   1      46.330  27.649  24.302  1.00  0.00    -0.050 SA
ATOM     21  C   UNL A   1      48.025  27.738  26.301  1.00  0.00     0.248 C 
ATOM     22  C   UNL A   1      47.892  26.853  24.269  1.00  0.00     0.293 C 
ATOM     23  N   UNL A   1      48.770  27.446  25.162  1.00  0.00    -0.240 N 
ATOM     24  O   UNL A   1      48.354  27.592  27.473  1.00  0.00    -0.273 OA
ATOM     25  O   UNL A   1      48.010  25.833  23.612  1.00  0.00    -0.261 OA
BRANCH  23  26
ATOM     26  C   UNL A   1      50.211  26.924  25.266  1.00  0.00     0.053 A 
ATOM     27  C   UNL A   1      51.246  28.219  24.528  1.00  0.00     0.027 A 
ATOM     28  C   UNL A   1      51.204  25.441  26.233  1.00  0.00     0.027 A 
ATOM     29  C   UNL A   1      52.993  28.143  24.726  1.00  0.00     0.002 A 
ATOM     30  C   UNL A   1      52.989  25.517  26.378  1.00  0.00     0.002 A 
ATOM     31  C   UNL A   1      53.817  26.865  25.633  1.00  0.00     0.000 A 
ENDBRANCH  23  26
ENDBRANCH  18  19
ENDBRANCH  16  18
ENDBRANCH  14  16
ENDBRANCH   9  14
ENDBRANCH   6   8
ENDBRANCH   5   6
ENDBRANCH   4   5
ENDBRANCH   3   4
ENDBRANCH   2   3
ENDBRANCH   1   2
BRANCH   1  32
ATOM     32  C   UNL A   1      42.441  20.166  26.234  1.00  0.00     0.188 C 
BRANCH  32  33
ATOM     33  O   UNL A   1      42.878  19.684  24.976  1.00  0.00    -0.377 OA
BRANCH  33  34
ATOM     34  C   UNL A   1      44.099  18.972  24.966  1.00  0.00     0.188 C 
BRANCH  34  35
ATOM     35  C   UNL A   1      45.442  19.722  24.850  1.00  0.00     0.188 C 
BRANCH  35  36
ATOM     36  O   UNL A   1      45.283  21.082  24.495  1.00  0.00    -0.376 OA
BRANCH  36  37
ATOM     37  C   UNL A   1      45.537  22.105  25.438  1.00  0.00     0.202 C 
BRANCH  37  38
ATOM     38  C   UNL A   1      45.521  23.586  25.018  1.00  0.00     0.261 C 
BRANCH  38  39
ATOM     39  O   UNL A   1      45.602  24.563  26.059  1.00  0.00    -0.460 OA
BRANCH  39  40
ATOM     40  C   UNL A   1      46.477  24.313  27.045  1.00  0.00     0.338 C 
ATOM     41  O   UNL A   1      47.674  24.119  26.957  1.00  0.00    -0.246 OA
BRANCH  40  42
ATOM     42  C   UNL A   1      45.767  24.454  28.321  1.00  0.00     0.060 A 
ATOM     43  C   UNL A   1      46.557  25.440  29.567  1.00  0.00     0.016 A 
ATOM     44  C   UNL A   1      44.454  23.340  28.661  1.00  0.00     0.016 A 
ATOM     45  C   UNL A   1      46.141  25.381  31.260  1.00  0.00     0.010 A 
ATOM     46  C   UNL A   1      43.880  23.206  30.367  1.00  0.00     0.010 A 
ATOM     47  C   UNL A   1      44.814  24.284  31.812  1.00  0.00    -0.014 A 
BRANCH  47  48
ATOM     48  C   UNL A   1      44.787  24.566  33.390  1.00  0.00     0.031 A 
ATOM     49  C   UNL A   1      44.026  25.711  33.977  1.00  0.00     0.074 A 
ATOM     50  C   UNL A   1      45.299  23.733  34.322  1.00  0.00     0.049 A 
ATOM     51  N   UNL A   1      44.409  26.570  34.880  1.00  0.00    -0.248 NA
ATOM     52  C   UNL A   1      42.702  25.982  33.413  1.00  0.00     0.031 C 
ATOM     53  C   UNL A   1      45.738  22.366  34.115  1.00  0.00     0.029 A 
ATOM     54  N   UNL A   1      45.553  23.945  35.659  1.00  0.00    -0.354 N 
ATOM     55  C   UNL A   1      43.525  27.635  34.757  1.00  0.00     0.074 A 
ATOM     56  C   UNL A   1      42.543  27.252  33.767  1.00  0.00     0.031 C 
ATOM     57  C   UNL A   1      46.290  21.880  35.234  1.00  0.00     0.029 A 
ATOM     58  C   UNL A   1      46.303  22.939  36.225  1.00  0.00     0.049 A 
ATOM     59  H   UNL A   1      45.233  24.732  36.156  1.00  0.00     0.167 HD
ATOM     60  C   UNL A   1      43.646  28.830  35.383  1.00  0.00     0.037 A 
ATOM     61  C   UNL A   1      46.996  22.911  37.377  1.00  0.00     0.037 A 
ATOM     62  C   UNL A   1      44.421  28.951  36.596  1.00  0.00     0.049 A 
ATOM     63  C   UNL A   1      46.981  24.147  38.226  1.00  0.00     0.074 A 
ATOM     64  C   UNL A   1      44.527  30.019  37.466  1.00  0.00     0.029 A 
ATOM     65  N   UNL A   1      45.141  27.901  37.161  1.00  0.00    -0.354 N 
ATOM     66  N   UNL A   1      46.433  25.312  37.972  1.00  0.00    -0.248 NA
ATOM     67  C   UNL A   1      47.679  24.075  39.513  1.00  0.00     0.031 C 
ATOM     68  C   UNL A   1      45.305  29.610  38.558  1.00  0.00     0.029 A 
ATOM     69  C   UNL A   1      45.653  28.277  38.388  1.00  0.00     0.049 A 
ATOM     70  H   UNL A   1      45.267  27.017  36.746  1.00  0.00     0.167 HD
ATOM     71  C   UNL A   1      46.706  26.113  39.069  1.00  0.00     0.074 A 
ATOM     72  C   UNL A   1      47.451  25.286  40.003  1.00  0.00     0.031 C 
ATOM     73  C   UNL A   1      46.380  27.413  39.287  1.00  0.00     0.037 A 
BRANCH  60  74
ATOM     74  C   UNL A   1      43.035  30.054  34.748  1.00  0.00     0.064 A 
ATOM     75  C   UNL A   1      41.731  30.507  34.986  1.00  0.00     0.173 A 
ATOM     76  C   UNL A   1      43.796  30.781  33.809  1.00  0.00     0.173 A 
ATOM     77  F   UNL A   1      40.960  29.911  35.907  1.00  0.00    -0.203 F 
ATOM     78  C   UNL A   1      41.184  31.562  34.252  1.00  0.00     0.198 A 
ATOM     79  C   UNL A   1      43.270  31.877  33.127  1.00  0.00     0.198 A 
ATOM     80  F   UNL A   1      45.062  30.425  33.538  1.00  0.00    -0.203 F 
ATOM     81  F   UNL A   1      39.897  31.895  34.426  1.00  0.00    -0.200 F 
ATOM     82  C   UNL A   1      41.953  32.248  33.328  1.00  0.00     0.200 A 
ATOM     83  F   UNL A   1      44.035  32.559  32.262  1.00  0.00    -0.200 F 
ATOM     84  F   UNL A   1      41.425  33.262  32.628  1.00  0.00    -0.200 F 
ENDBRANCH  60  74
BRANCH  61  85
ATOM     85  C   UNL A   1      47.781  21.700  37.738  1.00  0.00     0.064 A 
ATOM     86  C   UNL A   1      49.089  21.522  37.268  1.00  0.00     0.173 A 
ATOM     87  C   UNL A   1      47.271  20.729  38.617  1.00  0.00     0.173 A 
ATOM     88  F   UNL A   1      49.619  22.413  36.417  1.00  0.00    -0.203 F 
ATOM     89  C   UNL A   1      49.854  20.424  37.659  1.00  0.00     0.198 A 
ATOM     90  C   UNL A   1      48.048  19.647  39.031  1.00  0.00     0.198 A 
ATOM     91  F   UNL A   1      46.029  20.851  39.106  1.00  0.00    -0.203 F 
ATOM     92  F   UNL A   1      51.095  20.270  37.176  1.00  0.00    -0.200 F 
ATOM     93  C   UNL A   1      49.338  19.494  38.549  1.00  0.00     0.200 A 
ATOM     94  F   UNL A   1      47.554  18.764  39.910  1.00  0.00    -0.200 F 
ATOM     95  F   UNL A   1      50.085  18.454  38.943  1.00  0.00    -0.200 F 
ENDBRANCH  61  85
BRANCH  73  96
ATOM     96  C   UNL A   1      46.793  27.996  40.603  1.00  0.00     0.064 A 
ATOM     97  C   UNL A   1      47.973  28.740  40.736  1.00  0.00     0.173 A 
ATOM     98  C   UNL A   1      45.967  27.850  41.727  1.00  0.00     0.173 A 
ATOM     99  F   UNL A   1      48.801  28.888  39.691  1.00  0.00    -0.203 F 
ATOM    100  C   UNL A   1      48.321  29.305  41.958  1.00  0.00     0.198 A 
ATOM    101  C   UNL A   1      46.303  28.445  42.938  1.00  0.00     0.198 A 
ATOM    102  F   UNL A   1      44.828  27.148  41.643  1.00  0.00    -0.203 F 
ATOM    103  F   UNL A   1      49.475  29.975  42.078  1.00  0.00    -0.200 F 
ATOM    104  C   UNL A   1      47.482  29.166  43.054  1.00  0.00     0.200 A 
ATOM    105  F   UNL A   1      45.484  28.323  43.991  1.00  0.00    -0.200 F 
ATOM    106  F   UNL A   1      47.812  29.725  44.226  1.00  0.00    -0.200 F 
ENDBRANCH  73  96
ENDBRANCH  47  48
ENDBRANCH  40  42
ENDBRANCH  39  40
ENDBRANCH  38  39
ENDBRANCH  37  38
ENDBRANCH  36  37
ENDBRANCH  35  36
ENDBRANCH  34  35
ENDBRANCH  33  34
ENDBRANCH  32  33
ENDBRANCH   1  32
TORSDOF 25
ENDMDL
MODEL 3
REMARK VINA RESULT:      -6.8      4.363     11.387
REMARK SMILES CN(C(=O)C[C@@H]1SC(=O)N(c2ccccc2)C1=O)c1ccccc1C(=O)OCCOCCOCCOCCOC(=O)c1ccc(-c2c3nc(c(-c4c(F)c(F)c(F)c(F)c4F)c4ccc([nH]4)c(-c4c(F)c(F)c(F)c(F)c4F)c4nc(c(-c5c(F)c(F)c(F)c(F)c5F)c5ccc2[nH]5)C=C4)C=C3)cc1
REMARK SMILES IDX 31 1 30 2 29 3 28 4 27 5 25 6 26 7 24 8 19 9 20 10 21 11
REMARK SMILES IDX 23 12 22 13 2 14 1 15 3 16 4 17 5 18 6 19 7 20 17 21 8 22
REMARK SMILES IDX 10 23 18 24 9 25 11 26 12 27 16 28 13 29 15 30 14 31 32 32
REMARK SMILES IDX 33 33 34 34 35 35 36 36 37 37 38 38 39 39 40 40 41 41 42 42
REMARK SMILES IDX 43 43 104 44 44 45 103 46 45 47 46 48 47 49 97 50 48 51
REMARK SMILES IDX 102 52 96 53 98 54 49 55 101 56 95 57 94 58 50 60 82 61
REMARK SMILES IDX 62 62 81 63 63 64 66 65 80 66 99 67 64 68 65 69 79 71 100 72
REMARK SMILES IDX 67 73 51 74 52 75 60 76 53 77 54 78 58 79 61 80 55 81 56 82
REMARK SMILES IDX 59 83 57 84 83 85 84 86 92 87 85 88 86 89 90 90 93 91 87 92
REMARK SMILES IDX 88 93 91 94 89 95 68 96 69 97 77 98 70 99 71 100 75 101
REMARK SMILES IDX 78 102 72 103 73 104 76 105 74 106
REMARK H PARENT 98 59 66 70
REMARK Flexibility Score: inf
ROOT
ATOM      1  C   UNL A   1      48.300  26.673  28.417  1.00  0.00     0.188 C 
ENDROOT
BRANCH   1   2
ATOM      2  O   UNL A   1      48.132  27.661  29.429  1.00  0.00    -0.376 OA
BRANCH   2   3
ATOM      3  C   UNL A   1      46.896  28.345  29.600  1.00  0.00     0.202 C 
BRANCH   3   4
ATOM      4  C   UNL A   1      46.358  29.361  28.578  1.00  0.00     0.261 C 
BRANCH   4   5
ATOM      5  O   UNL A   1      47.063  30.608  28.524  1.00  0.00    -0.460 OA
BRANCH   5   6
ATOM      6  C   UNL A   1      46.490  31.660  29.142  1.00  0.00     0.340 C 
ATOM      7  O   UNL A   1      46.785  32.095  30.243  1.00  0.00    -0.246 OA
BRANCH   6   8
ATOM      8  C   UNL A   1      45.579  32.382  28.216  1.00  0.00     0.083 A 
ATOM      9  C   UNL A   1      44.478  33.220  28.538  1.00  0.00     0.058 A 
ATOM     10  C   UNL A   1      43.825  33.799  27.425  1.00  0.00     0.027 A 
ATOM     11  C   UNL A   1      44.151  33.507  26.093  1.00  0.00     0.002 A 
ATOM     12  C   UNL A   1      45.887  32.077  26.863  1.00  0.00     0.018 A 
ATOM     13  C   UNL A   1      45.162  32.611  25.809  1.00  0.00     0.001 A 
BRANCH   9  14
ATOM     14  N   UNL A   1      43.950  33.468  29.878  1.00  0.00    -0.315 N 
ATOM     15  C   UNL A   1      44.199  34.738  30.541  1.00  0.00     0.153 C 
BRANCH  14  16
ATOM     16  C   UNL A   1      43.167  32.516  30.569  1.00  0.00     0.228 C 
ATOM     17  O   UNL A   1      42.133  31.995  30.149  1.00  0.00    -0.274 OA
BRANCH  16  18
ATOM     18  C   UNL A   1      43.699  32.040  31.922  1.00  0.00     0.125 C 
BRANCH  18  19
ATOM     19  C   UNL A   1      42.740  32.379  33.069  1.00  0.00     0.156 C 
ATOM     20  S   UNL A   1      42.047  34.034  32.944  1.00  0.00    -0.050 SA
ATOM     21  C   UNL A   1      43.406  32.365  34.442  1.00  0.00     0.248 C 
ATOM     22  C   UNL A   1      42.709  34.472  34.508  1.00  0.00     0.293 C 
ATOM     23  N   UNL A   1      42.911  33.348  35.293  1.00  0.00    -0.240 N 
ATOM     24  O   UNL A   1      44.312  31.568  34.660  1.00  0.00    -0.273 OA
ATOM     25  O   UNL A   1      43.040  35.630  34.695  1.00  0.00    -0.261 OA
BRANCH  23  26
ATOM     26  C   UNL A   1      43.451  33.511  36.723  1.00  0.00     0.053 A 
ATOM     27  C   UNL A   1      42.275  34.610  37.560  1.00  0.00     0.027 A 
ATOM     28  C   UNL A   1      44.837  32.625  37.913  1.00  0.00     0.027 A 
ATOM     29  C   UNL A   1      42.369  34.801  39.306  1.00  0.00     0.002 A 
ATOM     30  C   UNL A   1      44.788  32.894  39.683  1.00  0.00     0.002 A 
ATOM     31  C   UNL A   1      43.554  33.959  40.318  1.00  0.00     0.000 A 
ENDBRANCH  23  26
ENDBRANCH  18  19
ENDBRANCH  16  18
ENDBRANCH  14  16
ENDBRANCH   9  14
ENDBRANCH   6   8
ENDBRANCH   5   6
ENDBRANCH   4   5
ENDBRANCH   3   4
ENDBRANCH   2   3
ENDBRANCH   1   2
BRANCH   1  32
ATOM     32  C   UNL A   1      47.070  26.018  27.757  1.00  0.00     0.188 C 
BRANCH  32  33
ATOM     33  O   UNL A   1      46.830  26.501  26.448  1.00  0.00    -0.377 OA
BRANCH  33  34
ATOM     34  C   UNL A   1      46.727  25.528  25.427  1.00  0.00     0.188 C 
BRANCH  34  35
ATOM     35  C   UNL A   1      46.770  24.025  25.772  1.00  0.00     0.188 C 
BRANCH  35  36
ATOM     36  O   UNL A   1      45.578  23.565  26.379  1.00  0.00    -0.376 OA
BRANCH  36  37
ATOM     37  C   UNL A   1      44.441  23.268  25.593  1.00  0.00     0.202 C 
BRANCH  37  38
ATOM     38  C   UNL A   1      43.524  22.084  25.950  1.00  0.00     0.261 C 
BRANCH  38  39
ATOM     39  O   UNL A   1      42.219  22.066  25.366  1.00  0.00    -0.460 OA
BRANCH  39  40
ATOM     40  C   UNL A   1      41.199  22.393  26.174  1.00  0.00     0.338 C 
ATOM     41  O   UNL A   1      40.304  21.679  26.583  1.00  0.00    -0.246 OA
BRANCH  40  42
ATOM     42  C   UNL A   1      41.411  23.771  26.628  1.00  0.00     0.060 A 
ATOM     43  C   UNL A   1      41.325  24.057  28.377  1.00  0.00     0.016 A 
ATOM     44  C   UNL A   1      41.314  25.056  25.435  1.00  0.00     0.016 A 
ATOM     45  C   UNL A   1      41.098  25.630  29.095  1.00  0.00     0.010 A 
ATOM     46  C   UNL A   1      41.127  26.750  26.031  1.00  0.00     0.010 A 
ATOM     47  C   UNL A   1      40.967  27.083  28.027  1.00  0.00    -0.014 A 
BRANCH  47  48
ATOM     48  C   UNL A   1      40.781  28.263  29.097  1.00  0.00     0.031 A 
ATOM     49  C   UNL A   1      41.740  28.468  30.226  1.00  0.00     0.074 A 
ATOM     50  C   UNL A   1      39.864  29.250  28.992  1.00  0.00     0.049 A 
ATOM     51  N   UNL A   1      41.484  28.690  31.485  1.00  0.00    -0.248 NA
ATOM     52  C   UNL A   1      43.163  28.310  29.920  1.00  0.00     0.031 C 
ATOM     53  C   UNL A   1      39.063  29.567  27.826  1.00  0.00     0.029 A 
ATOM     54  N   UNL A   1      39.441  30.171  29.924  1.00  0.00    -0.354 N 
ATOM     55  C   UNL A   1      42.666  28.385  32.148  1.00  0.00     0.074 A 
ATOM     56  C   UNL A   1      43.646  28.066  31.133  1.00  0.00     0.031 C 
ATOM     57  C   UNL A   1      38.183  30.534  28.114  1.00  0.00     0.029 A 
ATOM     58  C   UNL A   1      38.317  30.857  29.522  1.00  0.00     0.049 A 
ATOM     59  H   UNL A   1      39.893  30.322  30.785  1.00  0.00     0.167 HD
ATOM     60  C   UNL A   1      42.813  28.311  33.492  1.00  0.00     0.037 A 
ATOM     61  C   UNL A   1      37.445  31.594  30.232  1.00  0.00     0.037 A 
ATOM     62  C   UNL A   1      41.901  29.001  34.373  1.00  0.00     0.049 A 
ATOM     63  C   UNL A   1      37.689  31.728  31.706  1.00  0.00     0.074 A 
ATOM     64  C   UNL A   1      41.975  29.190  35.739  1.00  0.00     0.029 A 
ATOM     65  N   UNL A   1      40.791  29.717  33.930  1.00  0.00    -0.354 N 
ATOM     66  N   UNL A   1      38.616  31.160  32.441  1.00  0.00    -0.248 NA
ATOM     67  C   UNL A   1      36.773  32.595  32.453  1.00  0.00     0.031 C 
ATOM     68  C   UNL A   1      40.915  30.026  36.118  1.00  0.00     0.029 A 
ATOM     69  C   UNL A   1      40.201  30.388  34.983  1.00  0.00     0.049 A 
ATOM     70  H   UNL A   1      40.473  29.741  32.998  1.00  0.00     0.167 HD
ATOM     71  C   UNL A   1      38.407  31.606  33.736  1.00  0.00     0.074 A 
ATOM     72  C   UNL A   1      37.276  32.514  33.677  1.00  0.00     0.031 C 
ATOM     73  C   UNL A   1      39.080  31.291  34.872  1.00  0.00     0.037 A 
BRANCH  60  74
ATOM     74  C   UNL A   1      43.890  27.421  34.062  1.00  0.00     0.064 A 
ATOM     75  C   UNL A   1      45.242  27.771  34.161  1.00  0.00     0.173 A 
ATOM     76  C   UNL A   1      43.540  26.122  34.488  1.00  0.00     0.173 A 
ATOM     77  F   UNL A   1      45.652  29.006  33.835  1.00  0.00    -0.203 F 
ATOM     78  C   UNL A   1      46.206  26.843  34.563  1.00  0.00     0.198 A 
ATOM     79  C   UNL A   1      44.494  25.219  34.954  1.00  0.00     0.198 A 
ATOM     80  F   UNL A   1      42.263  25.713  34.444  1.00  0.00    -0.203 F 
ATOM     81  F   UNL A   1      47.503  27.179  34.537  1.00  0.00    -0.200 F 
ATOM     82  C   UNL A   1      45.832  25.571  34.962  1.00  0.00     0.200 A 
ATOM     83  F   UNL A   1      44.119  24.003  35.374  1.00  0.00    -0.200 F 
ATOM     84  F   UNL A   1      46.759  24.685  35.350  1.00  0.00    -0.200 F 
ENDBRANCH  60  74
BRANCH  61  85
ATOM     85  C   UNL A   1      36.263  32.196  29.558  1.00  0.00     0.064 A 
ATOM     86  C   UNL A   1      36.208  33.570  29.291  1.00  0.00     0.173 A 
ATOM     87  C   UNL A   1      35.195  31.404  29.101  1.00  0.00     0.173 A 
ATOM     88  F   UNL A   1      37.195  34.372  29.717  1.00  0.00    -0.203 F 
ATOM     89  C   UNL A   1      35.135  34.129  28.599  1.00  0.00     0.198 A 
ATOM     90  C   UNL A   1      34.138  31.961  28.382  1.00  0.00     0.198 A 
ATOM     91  F   UNL A   1      35.197  30.081  29.319  1.00  0.00    -0.203 F 
ATOM     92  F   UNL A   1      35.101  35.451  28.377  1.00  0.00    -0.200 F 
ATOM     93  C   UNL A   1      34.107  33.324  28.134  1.00  0.00     0.200 A 
ATOM     94  F   UNL A   1      33.158  31.174  27.914  1.00  0.00    -0.200 F 
ATOM     95  F   UNL A   1      33.090  33.859  27.446  1.00  0.00    -0.200 F 
ENDBRANCH  61  85
BRANCH  73  96
ATOM     96  C   UNL A   1      38.631  31.972  36.127  1.00  0.00     0.064 A 
ATOM     97  C   UNL A   1      37.901  31.290  37.110  1.00  0.00     0.173 A 
ATOM     98  C   UNL A   1      38.985  33.308  36.369  1.00  0.00     0.173 A 
ATOM     99  F   UNL A   1      37.526  30.017  36.911  1.00  0.00    -0.203 F 
ATOM    100  C   UNL A   1      37.524  31.928  38.286  1.00  0.00     0.198 A 
ATOM    101  C   UNL A   1      38.634  33.932  37.560  1.00  0.00     0.198 A 
ATOM    102  F   UNL A   1      39.685  33.997  35.457  1.00  0.00    -0.203 F 
ATOM    103  F   UNL A   1      36.788  31.274  39.194  1.00  0.00    -0.200 F 
ATOM    104  C   UNL A   1      37.900  33.244  38.515  1.00  0.00     0.200 A 
ATOM    105  F   UNL A   1      39.011  35.198  37.786  1.00  0.00    -0.200 F 
ATOM    106  F   UNL A   1      37.549  33.853  39.656  1.00  0.00    -0.200 F 
ENDBRANCH  73  96
ENDBRANCH  47  48
ENDBRANCH  40  42
ENDBRANCH  39  40
ENDBRANCH  38  39
ENDBRANCH  37  38
ENDBRANCH  36  37
ENDBRANCH  35  36
ENDBRANCH  34  35
ENDBRANCH  33  34
ENDBRANCH  32  33
ENDBRANCH   1  32
TORSDOF 25
ENDMDL
