MODEL 1
REMARK VINA RESULT:     -10.2      0.000      0.000
REMARK SMILES Nc1ncc(C(=O)OCCOCCOCCOCCOC(=O)c2ccc(-c3c4nc(c(-c5c(F)c(F)c(F)c(F)c5F)c5ccc([nH]5)c(-c5c(F)c(F)c(F)c(F)c5F)c5nc(c(-c6c(F)c(F)c(F)c(F)c6F)c6ccc3[nH]6)C=C5)C=C4)cc2)c(-c2ccccc2)n1
REMARK SMILES IDX 15 1 14 2 13 3 12 4 11 5 10 6 9 7 8 8 6 9 7 10 5 11 2 12
REMARK SMILES IDX 3 13 93 14 4 15 86 16 1 17 87 20 88 21 92 22 89 23 91 24
REMARK SMILES IDX 90 25 16 26 17 27 18 28 19 29 20 30 21 31 22 32 23 33 24 34
REMARK SMILES IDX 85 35 25 36 84 37 26 38 27 39 28 40 78 41 29 42 83 43 77 44
REMARK SMILES IDX 79 45 30 46 82 47 76 48 75 49 31 51 63 52 43 53 62 54 44 55
REMARK SMILES IDX 47 56 61 57 80 58 45 59 46 60 60 62 81 63 48 64 32 65 33 66
REMARK SMILES IDX 41 67 34 68 35 69 39 70 42 71 36 72 37 73 40 74 38 75 64 76
REMARK SMILES IDX 65 77 73 78 66 79 67 80 71 81 74 82 68 83 69 84 72 85 70 86
REMARK SMILES IDX 49 87 50 88 58 89 51 90 52 91 56 92 59 93 53 94 54 95 57 96
REMARK SMILES IDX 55 97
REMARK H PARENT 1 18 1 19 79 50 47 61
REMARK Flexibility Score: inf
ROOT
ATOM      1  C   UNL A   1      34.678  32.229  28.030  1.00  0.00     0.188 C 
ENDROOT
BRANCH   1   2
ATOM      2  O   UNL A   1      35.455  31.081  28.354  1.00  0.00    -0.377 OA
BRANCH   2   3
ATOM      3  C   UNL A   1      35.424  29.931  27.521  1.00  0.00     0.188 C 
BRANCH   3   4
ATOM      4  C   UNL A   1      34.081  29.412  26.951  1.00  0.00     0.188 C 
BRANCH   4   5
ATOM      5  O   UNL A   1      33.350  28.590  27.838  1.00  0.00    -0.376 OA
BRANCH   5   6
ATOM      6  C   UNL A   1      31.973  28.346  27.639  1.00  0.00     0.202 C 
BRANCH   6   7
ATOM      7  C   UNL A   1      31.446  27.886  26.275  1.00  0.00     0.261 C 
BRANCH   7   8
ATOM      8  O   UNL A   1      31.331  26.474  26.114  1.00  0.00    -0.460 OA
BRANCH   8   9
ATOM      9  C   UNL A   1      30.382  26.010  25.280  1.00  0.00     0.342 C 
ATOM     10  O   UNL A   1      29.235  25.723  25.574  1.00  0.00    -0.246 OA
BRANCH   9  11
ATOM     11  C   UNL A   1      30.879  26.065  23.899  1.00  0.00     0.104 A 
ATOM     12  C   UNL A   1      31.842  25.872  21.377  1.00  0.00     0.220 A 
ATOM     13  N   UNL A   1      32.176  24.908  22.236  1.00  0.00    -0.221 NA
ATOM     14  N   UNL A   1      31.043  26.904  21.664  1.00  0.00    -0.212 NA
ATOM     15  C   UNL A   1      31.692  25.030  23.487  1.00  0.00     0.133 A 
ATOM     16  C   UNL A   1      30.542  26.997  22.928  1.00  0.00     0.090 A 
BRANCH  12  17
ATOM     17  N   UNL A   1      32.382  25.805  20.126  1.00  0.00    -0.368 N 
ATOM     18  H   UNL A   1      31.833  25.494  19.370  1.00  0.00     0.159 HD
ATOM     19  H   UNL A   1      33.319  26.067  19.980  1.00  0.00     0.159 HD
ENDBRANCH  12  17
BRANCH  16  20
ATOM     20  C   UNL A   1      29.576  28.102  23.117  1.00  0.00     0.001 A 
ATOM     21  C   UNL A   1      28.185  27.897  23.131  1.00  0.00     0.010 A 
ATOM     22  C   UNL A   1      30.035  29.431  23.212  1.00  0.00     0.010 A 
ATOM     23  C   UNL A   1      27.293  28.974  23.148  1.00  0.00     0.001 A 
ATOM     24  C   UNL A   1      29.145  30.508  23.251  1.00  0.00     0.001 A 
ATOM     25  C   UNL A   1      27.774  30.280  23.199  1.00  0.00     0.000 A 
ENDBRANCH  16  20
ENDBRANCH   9  11
ENDBRANCH   8   9
ENDBRANCH   7   8
ENDBRANCH   6   7
ENDBRANCH   5   6
ENDBRANCH   4   5
ENDBRANCH   3   4
ENDBRANCH   2   3
ENDBRANCH   1   2
BRANCH   1  26
ATOM     26  C   UNL A   1      35.186  33.657  28.341  1.00  0.00     0.188 C 
BRANCH  26  27
ATOM     27  O   UNL A   1      34.419  34.692  27.756  1.00  0.00    -0.376 OA
BRANCH  27  28
ATOM     28  C   UNL A   1      34.214  35.875  28.505  1.00  0.00     0.202 C 
BRANCH  28  29
ATOM     29  C   UNL A   1      32.876  36.031  29.241  1.00  0.00     0.261 C 
BRANCH  29  30
ATOM     30  O   UNL A   1      32.622  35.106  30.309  1.00  0.00    -0.460 OA
BRANCH  30  31
ATOM     31  C   UNL A   1      32.730  35.568  31.571  1.00  0.00     0.338 C 
ATOM     32  O   UNL A   1      31.941  36.281  32.171  1.00  0.00    -0.246 OA
BRANCH  31  33
ATOM     33  C   UNL A   1      33.901  34.911  32.182  1.00  0.00     0.060 A 
ATOM     34  C   UNL A   1      35.151  35.545  32.130  1.00  0.00     0.016 A 
ATOM     35  C   UNL A   1      33.758  33.673  32.811  1.00  0.00     0.016 A 
ATOM     36  C   UNL A   1      36.270  34.921  32.683  1.00  0.00     0.010 A 
ATOM     37  C   UNL A   1      34.883  33.041  33.344  1.00  0.00     0.010 A 
ATOM     38  C   UNL A   1      36.148  33.647  33.252  1.00  0.00    -0.014 A 
BRANCH  38  39
ATOM     39  C   UNL A   1      37.363  32.859  33.570  1.00  0.00     0.031 A 
ATOM     40  C   UNL A   1      38.074  33.142  34.865  1.00  0.00     0.074 A 
ATOM     41  C   UNL A   1      37.823  31.909  32.737  1.00  0.00     0.049 A 
ATOM     42  N   UNL A   1      39.189  32.641  35.332  1.00  0.00    -0.248 NA
ATOM     43  C   UNL A   1      37.438  34.129  35.752  1.00  0.00     0.031 C 
ATOM     44  C   UNL A   1      37.197  31.514  31.477  1.00  0.00     0.029 A 
ATOM     45  N   UNL A   1      38.937  31.112  32.827  1.00  0.00    -0.354 N 
ATOM     46  C   UNL A   1      39.392  33.261  36.558  1.00  0.00     0.074 A 
ATOM     47  C   UNL A   1      38.306  34.196  36.750  1.00  0.00     0.031 C 
ATOM     48  C   UNL A   1      37.946  30.557  30.902  1.00  0.00     0.029 A 
ATOM     49  C   UNL A   1      39.122  30.302  31.734  1.00  0.00     0.049 A 
ATOM     50  H   UNL A   1      39.546  31.122  33.601  1.00  0.00     0.167 HD
ATOM     51  C   UNL A   1      40.393  33.061  37.448  1.00  0.00     0.037 A 
ATOM     52  C   UNL A   1      40.140  29.472  31.433  1.00  0.00     0.037 A 
ATOM     53  C   UNL A   1      41.474  32.131  37.250  1.00  0.00     0.049 A 
ATOM     54  C   UNL A   1      41.287  29.328  32.404  1.00  0.00     0.074 A 
ATOM     55  C   UNL A   1      42.529  31.844  38.097  1.00  0.00     0.029 A 
ATOM     56  N   UNL A   1      41.643  31.348  36.118  1.00  0.00    -0.354 N 
ATOM     57  N   UNL A   1      41.463  29.896  33.573  1.00  0.00    -0.248 NA
ATOM     58  C   UNL A   1      42.378  28.422  32.013  1.00  0.00     0.031 C 
ATOM     59  C   UNL A   1      43.371  30.934  37.451  1.00  0.00     0.029 A 
ATOM     60  C   UNL A   1      42.802  30.598  36.232  1.00  0.00     0.049 A 
ATOM     61  H   UNL A   1      41.030  31.329  35.347  1.00  0.00     0.167 HD
ATOM     62  C   UNL A   1      42.658  29.389  34.072  1.00  0.00     0.074 A 
ATOM     63  C   UNL A   1      43.161  28.460  33.081  1.00  0.00     0.031 C 
ATOM     64  C   UNL A   1      43.281  29.665  35.244  1.00  0.00     0.037 A 
BRANCH  51  65
ATOM     65  C   UNL A   1      40.383  33.888  38.702  1.00  0.00     0.064 A 
ATOM     66  C   UNL A   1      39.719  33.465  39.863  1.00  0.00     0.173 A 
ATOM     67  C   UNL A   1      41.077  35.106  38.751  1.00  0.00     0.173 A 
ATOM     68  F   UNL A   1      39.028  32.316  39.866  1.00  0.00    -0.203 F 
ATOM     69  C   UNL A   1      39.725  34.246  41.017  1.00  0.00     0.198 A 
ATOM     70  C   UNL A   1      41.110  35.868  39.916  1.00  0.00     0.198 A 
ATOM     71  F   UNL A   1      41.731  35.556  37.670  1.00  0.00    -0.203 F 
ATOM     72  F   UNL A   1      39.040  33.848  42.098  1.00  0.00    -0.200 F 
ATOM     73  C   UNL A   1      40.429  35.441  41.045  1.00  0.00     0.200 A 
ATOM     74  F   UNL A   1      41.803  37.015  39.945  1.00  0.00    -0.200 F 
ATOM     75  F   UNL A   1      40.442  36.187  42.159  1.00  0.00    -0.200 F 
ENDBRANCH  51  65
BRANCH  52  76
ATOM     76  C   UNL A   1      40.138  28.722  30.148  1.00  0.00     0.064 A 
ATOM     77  C   UNL A   1      40.725  29.260  28.994  1.00  0.00     0.173 A 
ATOM     78  C   UNL A   1      39.524  27.465  30.039  1.00  0.00     0.173 A 
ATOM     79  F   UNL A   1      41.303  30.470  29.038  1.00  0.00    -0.203 F 
ATOM     80  C   UNL A   1      40.677  28.583  27.777  1.00  0.00     0.198 A 
ATOM     81  C   UNL A   1      39.505  26.774  28.830  1.00  0.00     0.198 A 
ATOM     82  F   UNL A   1      38.947  26.904  31.112  1.00  0.00    -0.203 F 
ATOM     83  F   UNL A   1      41.197  29.146  26.678  1.00  0.00    -0.200 F 
ATOM     84  C   UNL A   1      40.072  27.337  27.697  1.00  0.00     0.200 A 
ATOM     85  F   UNL A   1      38.934  25.564  28.762  1.00  0.00    -0.200 F 
ATOM     86  F   UNL A   1      40.028  26.685  26.527  1.00  0.00    -0.200 F 
ENDBRANCH  52  76
BRANCH  64  87
ATOM     87  C   UNL A   1      44.547  28.915  35.553  1.00  0.00     0.064 A 
ATOM     88  C   UNL A   1      44.537  27.675  36.209  1.00  0.00     0.173 A 
ATOM     89  C   UNL A   1      45.788  29.425  35.136  1.00  0.00     0.173 A 
ATOM     90  F   UNL A   1      43.380  27.149  36.640  1.00  0.00    -0.203 F 
ATOM     91  C   UNL A   1      45.723  26.989  36.463  1.00  0.00     0.198 A 
ATOM     92  C   UNL A   1      46.967  28.718  35.358  1.00  0.00     0.198 A 
ATOM     93  F   UNL A   1      45.856  30.600  34.495  1.00  0.00    -0.203 F 
ATOM     94  F   UNL A   1      45.692  25.831  37.138  1.00  0.00    -0.200 F 
ATOM     95  C   UNL A   1      46.935  27.505  36.029  1.00  0.00     0.200 A 
ATOM     96  F   UNL A   1      48.134  29.210  34.921  1.00  0.00    -0.200 F 
ATOM     97  F   UNL A   1      48.072  26.837  36.263  1.00  0.00    -0.200 F 
ENDBRANCH  64  87
ENDBRANCH  38  39
ENDBRANCH  31  33
ENDBRANCH  30  31
ENDBRANCH  29  30
ENDBRANCH  28  29
ENDBRANCH  27  28
ENDBRANCH  26  27
ENDBRANCH   1  26
TORSDOF 22
ENDMDL
MODEL 2
REMARK VINA RESULT:     -10.2      5.499     11.155
REMARK SMILES Nc1ncc(C(=O)OCCOCCOCCOCCOC(=O)c2ccc(-c3c4nc(c(-c5c(F)c(F)c(F)c(F)c5F)c5ccc([nH]5)c(-c5c(F)c(F)c(F)c(F)c5F)c5nc(c(-c6c(F)c(F)c(F)c(F)c6F)c6ccc3[nH]6)C=C5)C=C4)cc2)c(-c2ccccc2)n1
REMARK SMILES IDX 15 1 14 2 13 3 12 4 11 5 10 6 9 7 8 8 6 9 7 10 5 11 2 12
REMARK SMILES IDX 3 13 93 14 4 15 86 16 1 17 87 20 88 21 92 22 89 23 91 24
REMARK SMILES IDX 90 25 16 26 17 27 18 28 19 29 20 30 21 31 22 32 23 33 24 34
REMARK SMILES IDX 85 35 25 36 84 37 26 38 27 39 28 40 78 41 29 42 83 43 77 44
REMARK SMILES IDX 79 45 30 46 82 47 76 48 75 49 31 51 63 52 43 53 62 54 44 55
REMARK SMILES IDX 47 56 61 57 80 58 45 59 46 60 60 62 81 63 48 64 32 65 33 66
REMARK SMILES IDX 41 67 34 68 35 69 39 70 42 71 36 72 37 73 40 74 38 75 64 76
REMARK SMILES IDX 65 77 73 78 66 79 67 80 71 81 74 82 68 83 69 84 72 85 70 86
REMARK SMILES IDX 49 87 50 88 58 89 51 90 52 91 56 92 59 93 53 94 54 95 57 96
REMARK SMILES IDX 55 97
REMARK H PARENT 1 18 1 19 79 50 47 61
REMARK Flexibility Score: inf
ROOT
ATOM      1  C   UNL A   1      35.878  23.104  25.492  1.00  0.00     0.188 C 
ENDROOT
BRANCH   1   2
ATOM      2  O   UNL A   1      35.922  23.653  24.179  1.00  0.00    -0.377 OA
BRANCH   2   3
ATOM      3  C   UNL A   1      35.224  23.027  23.113  1.00  0.00     0.188 C 
BRANCH   3   4
ATOM      4  C   UNL A   1      33.677  23.068  23.056  1.00  0.00     0.188 C 
BRANCH   4   5
ATOM      5  O   UNL A   1      33.036  22.388  24.117  1.00  0.00    -0.376 OA
BRANCH   5   6
ATOM      6  C   UNL A   1      31.933  22.960  24.788  1.00  0.00     0.202 C 
BRANCH   6   7
ATOM      7  C   UNL A   1      32.086  24.259  25.586  1.00  0.00     0.261 C 
BRANCH   7   8
ATOM      8  O   UNL A   1      31.917  25.458  24.833  1.00  0.00    -0.460 OA
BRANCH   8   9
ATOM      9  C   UNL A   1      31.095  26.402  25.328  1.00  0.00     0.342 C 
ATOM     10  O   UNL A   1      30.656  26.459  26.463  1.00  0.00    -0.246 OA
BRANCH   9  11
ATOM     11  C   UNL A   1      30.936  27.476  24.339  1.00  0.00     0.104 A 
ATOM     12  C   UNL A   1      30.371  29.342  22.461  1.00  0.00     0.220 A 
ATOM     13  N   UNL A   1      29.680  28.203  22.421  1.00  0.00    -0.221 NA
ATOM     14  N   UNL A   1      31.297  29.638  23.380  1.00  0.00    -0.212 NA
ATOM     15  C   UNL A   1      29.984  27.286  23.360  1.00  0.00     0.133 A 
ATOM     16  C   UNL A   1      31.573  28.708  24.337  1.00  0.00     0.090 A 
BRANCH  12  17
ATOM     17  N   UNL A   1      30.130  30.252  21.475  1.00  0.00    -0.368 N 
ATOM     18  H   UNL A   1      30.665  30.236  20.649  1.00  0.00     0.159 HD
ATOM     19  H   UNL A   1      29.419  30.923  21.588  1.00  0.00     0.159 HD
ENDBRANCH  12  17
BRANCH  16  20
ATOM     20  C   UNL A   1      32.520  29.172  25.376  1.00  0.00     0.001 A 
ATOM     21  C   UNL A   1      33.719  28.495  25.662  1.00  0.00     0.010 A 
ATOM     22  C   UNL A   1      32.199  30.287  26.174  1.00  0.00     0.010 A 
ATOM     23  C   UNL A   1      34.514  28.860  26.754  1.00  0.00     0.001 A 
ATOM     24  C   UNL A   1      33.004  30.666  27.252  1.00  0.00     0.001 A 
ATOM     25  C   UNL A   1      34.152  29.940  27.554  1.00  0.00     0.000 A 
ENDBRANCH  16  20
ENDBRANCH   9  11
ENDBRANCH   8   9
ENDBRANCH   7   8
ENDBRANCH   6   7
ENDBRANCH   5   6
ENDBRANCH   4   5
ENDBRANCH   3   4
ENDBRANCH   2   3
ENDBRANCH   1   2
BRANCH   1  26
ATOM     26  C   UNL A   1      36.291  21.638  25.765  1.00  0.00     0.188 C 
BRANCH  26  27
ATOM     27  O   UNL A   1      37.667  21.371  25.567  1.00  0.00    -0.376 OA
BRANCH  27  28
ATOM     28  C   UNL A   1      38.029  20.127  24.998  1.00  0.00     0.202 C 
BRANCH  28  29
ATOM     29  C   UNL A   1      39.329  19.471  25.484  1.00  0.00     0.261 C 
BRANCH  29  30
ATOM     30  O   UNL A   1      39.856  19.945  26.732  1.00  0.00    -0.460 OA
BRANCH  30  31
ATOM     31  C   UNL A   1      41.175  20.222  26.786  1.00  0.00     0.338 C 
ATOM     32  O   UNL A   1      42.101  19.487  26.484  1.00  0.00    -0.246 OA
BRANCH  31  33
ATOM     33  C   UNL A   1      41.310  21.655  27.111  1.00  0.00     0.060 A 
ATOM     34  C   UNL A   1      40.721  22.610  26.271  1.00  0.00     0.016 A 
ATOM     35  C   UNL A   1      42.012  22.049  28.252  1.00  0.00     0.016 A 
ATOM     36  C   UNL A   1      40.863  23.969  26.555  1.00  0.00     0.010 A 
ATOM     37  C   UNL A   1      42.172  23.409  28.522  1.00  0.00     0.010 A 
ATOM     38  C   UNL A   1      41.627  24.374  27.657  1.00  0.00    -0.014 A 
BRANCH  38  39
ATOM     39  C   UNL A   1      42.028  25.795  27.798  1.00  0.00     0.031 A 
ATOM     40  C   UNL A   1      43.363  26.213  27.247  1.00  0.00     0.074 A 
ATOM     41  C   UNL A   1      41.226  26.695  28.392  1.00  0.00     0.049 A 
ATOM     42  N   UNL A   1      43.965  27.373  27.311  1.00  0.00    -0.248 NA
ATOM     43  C   UNL A   1      44.123  25.178  26.530  1.00  0.00     0.031 C 
ATOM     44  C   UNL A   1      39.893  26.420  28.924  1.00  0.00     0.029 A 
ATOM     45  N   UNL A   1      41.428  28.027  28.657  1.00  0.00    -0.354 N 
ATOM     46  C   UNL A   1      45.177  27.201  26.654  1.00  0.00     0.074 A 
ATOM     47  C   UNL A   1      45.239  25.821  26.226  1.00  0.00     0.031 C 
ATOM     48  C   UNL A   1      39.401  27.548  29.467  1.00  0.00     0.029 A 
ATOM     49  C   UNL A   1      40.400  28.611  29.354  1.00  0.00     0.049 A 
ATOM     50  H   UNL A   1      42.235  28.516  28.374  1.00  0.00     0.167 HD
ATOM     51  C   UNL A   1      46.147  28.117  26.420  1.00  0.00     0.037 A 
ATOM     52  C   UNL A   1      40.295  29.854  29.864  1.00  0.00     0.037 A 
ATOM     53  C   UNL A   1      46.080  29.489  26.851  1.00  0.00     0.049 A 
ATOM     54  C   UNL A   1      41.426  30.833  29.663  1.00  0.00     0.074 A 
ATOM     55  C   UNL A   1      47.003  30.500  26.652  1.00  0.00     0.029 A 
ATOM     56  N   UNL A   1      45.035  30.037  27.580  1.00  0.00    -0.354 N 
ATOM     57  N   UNL A   1      42.557  30.675  29.019  1.00  0.00    -0.248 NA
ATOM     58  C   UNL A   1      41.262  32.168  30.258  1.00  0.00     0.031 C 
ATOM     59  C   UNL A   1      46.546  31.643  27.314  1.00  0.00     0.029 A 
ATOM     60  C   UNL A   1      45.304  31.365  27.864  1.00  0.00     0.049 A 
ATOM     61  H   UNL A   1      44.223  29.552  27.854  1.00  0.00     0.167 HD
ATOM     62  C   UNL A   1      43.220  31.896  29.098  1.00  0.00     0.074 A 
ATOM     63  C   UNL A   1      42.358  32.788  29.845  1.00  0.00     0.031 C 
ATOM     64  C   UNL A   1      44.429  32.246  28.595  1.00  0.00     0.037 A 
BRANCH  51  65
ATOM     65  C   UNL A   1      47.378  27.655  25.694  1.00  0.00     0.064 A 
ATOM     66  C   UNL A   1      48.487  27.131  26.376  1.00  0.00     0.173 A 
ATOM     67  C   UNL A   1      47.434  27.707  24.294  1.00  0.00     0.173 A 
ATOM     68  F   UNL A   1      48.491  27.073  27.716  1.00  0.00    -0.203 F 
ATOM     69  C   UNL A   1      49.618  26.705  25.683  1.00  0.00     0.198 A 
ATOM     70  C   UNL A   1      48.552  27.248  23.602  1.00  0.00     0.198 A 
ATOM     71  F   UNL A   1      46.401  28.195  23.592  1.00  0.00    -0.203 F 
ATOM     72  F   UNL A   1      50.686  26.257  26.357  1.00  0.00    -0.200 F 
ATOM     73  C   UNL A   1      49.645  26.755  24.297  1.00  0.00     0.200 A 
ATOM     74  F   UNL A   1      48.571  27.283  22.263  1.00  0.00    -0.200 F 
ATOM     75  F   UNL A   1      50.730  26.335  23.631  1.00  0.00    -0.200 F 
ENDBRANCH  51  65
BRANCH  52  76
ATOM     76  C   UNL A   1      39.083  30.246  30.633  1.00  0.00     0.064 A 
ATOM     77  C   UNL A   1      39.029  30.099  32.026  1.00  0.00     0.173 A 
ATOM     78  C   UNL A   1      37.942  30.750  29.989  1.00  0.00     0.173 A 
ATOM     79  F   UNL A   1      40.083  29.599  32.688  1.00  0.00    -0.203 F 
ATOM     80  C   UNL A   1      37.875  30.415  32.741  1.00  0.00     0.198 A 
ATOM     81  C   UNL A   1      36.801  31.097  30.708  1.00  0.00     0.198 A 
ATOM     82  F   UNL A   1      37.939  30.910  28.657  1.00  0.00    -0.203 F 
ATOM     83  F   UNL A   1      37.833  30.212  34.065  1.00  0.00    -0.200 F 
ATOM     84  C   UNL A   1      36.764  30.920  32.082  1.00  0.00     0.200 A 
ATOM     85  F   UNL A   1      35.736  31.598  30.068  1.00  0.00    -0.200 F 
ATOM     86  F   UNL A   1      35.656  31.226  32.771  1.00  0.00    -0.200 F 
ENDBRANCH  52  76
BRANCH  64  87
ATOM     87  C   UNL A   1      44.875  33.670  28.782  1.00  0.00     0.064 A 
ATOM     88  C   UNL A   1      44.531  34.683  27.876  1.00  0.00     0.173 A 
ATOM     89  C   UNL A   1      45.615  34.033  29.920  1.00  0.00     0.173 A 
ATOM     90  F   UNL A   1      43.836  34.390  26.766  1.00  0.00    -0.203 F 
ATOM     91  C   UNL A   1      44.937  36.000  28.085  1.00  0.00     0.198 A 
ATOM     92  C   UNL A   1      45.986  35.356  30.145  1.00  0.00     0.198 A 
ATOM     93  F   UNL A   1      45.962  33.107  30.826  1.00  0.00    -0.203 F 
ATOM     94  F   UNL A   1      44.641  36.941  27.178  1.00  0.00    -0.200 F 
ATOM     95  C   UNL A   1      45.655  36.337  29.223  1.00  0.00     0.200 A 
ATOM     96  F   UNL A   1      46.662  35.681  31.255  1.00  0.00    -0.200 F 
ATOM     97  F   UNL A   1      46.032  37.606  29.427  1.00  0.00    -0.200 F 
ENDBRANCH  64  87
ENDBRANCH  38  39
ENDBRANCH  31  33
ENDBRANCH  30  31
ENDBRANCH  29  30
ENDBRANCH  28  29
ENDBRANCH  27  28
ENDBRANCH  26  27
ENDBRANCH   1  26
TORSDOF 22
ENDMDL
MODEL 3
REMARK VINA RESULT:     -10.2      2.484      4.346
REMARK SMILES Nc1ncc(C(=O)OCCOCCOCCOCCOC(=O)c2ccc(-c3c4nc(c(-c5c(F)c(F)c(F)c(F)c5F)c5ccc([nH]5)c(-c5c(F)c(F)c(F)c(F)c5F)c5nc(c(-c6c(F)c(F)c(F)c(F)c6F)c6ccc3[nH]6)C=C5)C=C4)cc2)c(-c2ccccc2)n1
REMARK SMILES IDX 15 1 14 2 13 3 12 4 11 5 10 6 9 7 8 8 6 9 7 10 5 11 2 12
REMARK SMILES IDX 3 13 93 14 4 15 86 16 1 17 87 20 88 21 92 22 89 23 91 24
REMARK SMILES IDX 90 25 16 26 17 27 18 28 19 29 20 30 21 31 22 32 23 33 24 34
REMARK SMILES IDX 85 35 25 36 84 37 26 38 27 39 28 40 78 41 29 42 83 43 77 44
REMARK SMILES IDX 79 45 30 46 82 47 76 48 75 49 31 51 63 52 43 53 62 54 44 55
REMARK SMILES IDX 47 56 61 57 80 58 45 59 46 60 60 62 81 63 48 64 32 65 33 66
REMARK SMILES IDX 41 67 34 68 35 69 39 70 42 71 36 72 37 73 40 74 38 75 64 76
REMARK SMILES IDX 65 77 73 78 66 79 67 80 71 81 74 82 68 83 69 84 72 85 70 86
REMARK SMILES IDX 49 87 50 88 58 89 51 90 52 91 56 92 59 93 53 94 54 95 57 96
REMARK SMILES IDX 55 97
REMARK H PARENT 1 18 1 19 79 50 47 61
REMARK Flexibility Score: inf
ROOT
ATOM      1  C   UNL A   1      31.952  29.806  25.248  1.00  0.00     0.188 C 
ENDROOT
BRANCH   1   2
ATOM      2  O   UNL A   1      31.647  28.929  24.168  1.00  0.00    -0.377 OA
BRANCH   2   3
ATOM      3  C   UNL A   1      30.817  27.795  24.373  1.00  0.00     0.188 C 
BRANCH   3   4
ATOM      4  C   UNL A   1      31.318  26.379  24.002  1.00  0.00     0.188 C 
BRANCH   4   5
ATOM      5  O   UNL A   1      32.714  26.288  23.797  1.00  0.00    -0.376 OA
BRANCH   5   6
ATOM      6  C   UNL A   1      33.264  25.302  22.949  1.00  0.00     0.202 C 
BRANCH   6   7
ATOM      7  C   UNL A   1      34.387  24.381  23.440  1.00  0.00     0.261 C 
BRANCH   7   8
ATOM      8  O   UNL A   1      34.503  24.267  24.856  1.00  0.00    -0.460 OA
BRANCH   8   9
ATOM      9  C   UNL A   1      34.307  23.055  25.408  1.00  0.00     0.342 C 
ATOM     10  O   UNL A   1      35.158  22.212  25.628  1.00  0.00    -0.246 OA
BRANCH   9  11
ATOM     11  C   UNL A   1      32.921  22.955  25.881  1.00  0.00     0.104 A 
ATOM     12  C   UNL A   1      30.372  23.067  26.787  1.00  0.00     0.220 A 
ATOM     13  N   UNL A   1      31.176  24.086  27.091  1.00  0.00    -0.221 NA
ATOM     14  N   UNL A   1      30.726  22.014  26.042  1.00  0.00    -0.212 NA
ATOM     15  C   UNL A   1      32.441  24.004  26.637  1.00  0.00     0.133 A 
ATOM     16  C   UNL A   1      32.003  21.962  25.570  1.00  0.00     0.090 A 
BRANCH  12  17
ATOM     17  N   UNL A   1      29.108  23.096  27.299  1.00  0.00    -0.368 N 
ATOM     18  H   UNL A   1      28.971  23.039  28.272  1.00  0.00     0.159 HD
ATOM     19  H   UNL A   1      28.335  23.176  26.696  1.00  0.00     0.159 HD
ENDBRANCH  12  17
BRANCH  16  20
ATOM     20  C   UNL A   1      32.266  20.824  24.659  1.00  0.00     0.001 A 
ATOM     21  C   UNL A   1      32.135  20.927  23.263  1.00  0.00     0.010 A 
ATOM     22  C   UNL A   1      32.588  19.559  25.188  1.00  0.00     0.010 A 
ATOM     23  C   UNL A   1      32.230  19.799  22.441  1.00  0.00     0.001 A 
ATOM     24  C   UNL A   1      32.704  18.435  24.366  1.00  0.00     0.001 A 
ATOM     25  C   UNL A   1      32.506  18.552  22.994  1.00  0.00     0.000 A 
ENDBRANCH  16  20
ENDBRANCH   9  11
ENDBRANCH   8   9
ENDBRANCH   7   8
ENDBRANCH   6   7
ENDBRANCH   5   6
ENDBRANCH   4   5
ENDBRANCH   3   4
ENDBRANCH   2   3
ENDBRANCH   1   2
BRANCH   1  26
ATOM     26  C   UNL A   1      33.134  29.520  26.205  1.00  0.00     0.188 C 
BRANCH  26  27
ATOM     27  O   UNL A   1      33.245  30.428  27.285  1.00  0.00    -0.376 OA
BRANCH  27  28
ATOM     28  C   UNL A   1      32.596  31.680  27.172  1.00  0.00     0.202 C 
BRANCH  28  29
ATOM     29  C   UNL A   1      33.310  32.910  27.749  1.00  0.00     0.261 C 
BRANCH  29  30
ATOM     30  O   UNL A   1      32.524  34.105  27.874  1.00  0.00    -0.460 OA
BRANCH  30  31
ATOM     31  C   UNL A   1      32.984  35.069  28.698  1.00  0.00     0.338 C 
ATOM     32  O   UNL A   1      32.474  36.153  28.930  1.00  0.00    -0.246 OA
BRANCH  31  33
ATOM     33  C   UNL A   1      34.141  34.511  29.425  1.00  0.00     0.060 A 
ATOM     34  C   UNL A   1      35.421  34.611  28.862  1.00  0.00     0.016 A 
ATOM     35  C   UNL A   1      33.957  33.897  30.666  1.00  0.00     0.016 A 
ATOM     36  C   UNL A   1      36.519  34.066  29.529  1.00  0.00     0.010 A 
ATOM     37  C   UNL A   1      35.053  33.333  31.320  1.00  0.00     0.010 A 
ATOM     38  C   UNL A   1      36.332  33.386  30.739  1.00  0.00    -0.014 A 
BRANCH  38  39
ATOM     39  C   UNL A   1      37.426  32.557  31.299  1.00  0.00     0.031 A 
ATOM     40  C   UNL A   1      37.939  32.894  32.672  1.00  0.00     0.074 A 
ATOM     41  C   UNL A   1      37.949  31.526  30.614  1.00  0.00     0.049 A 
ATOM     42  N   UNL A   1      38.931  32.368  33.344  1.00  0.00    -0.248 NA
ATOM     43  C   UNL A   1      37.238  33.976  33.380  1.00  0.00     0.031 C 
ATOM     44  C   UNL A   1      37.506  31.075  29.296  1.00  0.00     0.029 A 
ATOM     45  N   UNL A   1      38.980  30.677  30.933  1.00  0.00    -0.354 N 
ATOM     46  C   UNL A   1      38.978  33.064  34.546  1.00  0.00     0.074 A 
ATOM     47  C   UNL A   1      37.938  34.068  34.500  1.00  0.00     0.031 C 
ATOM     48  C   UNL A   1      38.272  30.039  28.912  1.00  0.00     0.029 A 
ATOM     49  C   UNL A   1      39.282  29.781  29.938  1.00  0.00     0.049 A 
ATOM     50  H   UNL A   1      39.457  30.710  31.794  1.00  0.00     0.167 HD
ATOM     51  C   UNL A   1      39.809  32.874  35.598  1.00  0.00     0.037 A 
ATOM     52  C   UNL A   1      40.278  28.877  29.860  1.00  0.00     0.037 A 
ATOM     53  C   UNL A   1      40.844  31.875  35.638  1.00  0.00     0.049 A 
ATOM     54  C   UNL A   1      41.245  28.741  31.012  1.00  0.00     0.074 A 
ATOM     55  C   UNL A   1      41.730  31.592  36.662  1.00  0.00     0.029 A 
ATOM     56  N   UNL A   1      41.139  31.003  34.600  1.00  0.00    -0.354 N 
ATOM     57  N   UNL A   1      41.270  29.382  32.156  1.00  0.00    -0.248 NA
ATOM     58  C   UNL A   1      42.322  27.751  30.861  1.00  0.00     0.031 C 
ATOM     59  C   UNL A   1      42.602  30.593  36.219  1.00  0.00     0.029 A 
ATOM     60  C   UNL A   1      42.213  30.201  34.948  1.00  0.00     0.049 A 
ATOM     61  H   UNL A   1      40.656  30.962  33.742  1.00  0.00     0.167 HD
ATOM     62  C   UNL A   1      42.335  28.847  32.874  1.00  0.00     0.074 A 
ATOM     63  C   UNL A   1      42.926  27.823  32.038  1.00  0.00     0.031 C 
ATOM     64  C   UNL A   1      42.781  29.174  34.112  1.00  0.00     0.037 A 
BRANCH  51  65
ATOM     65  C   UNL A   1      39.655  33.789  36.779  1.00  0.00     0.064 A 
ATOM     66  C   UNL A   1      40.257  35.056  36.818  1.00  0.00     0.173 A 
ATOM     67  C   UNL A   1      38.865  33.405  37.873  1.00  0.00     0.173 A 
ATOM     68  F   UNL A   1      41.034  35.467  35.805  1.00  0.00    -0.203 F 
ATOM     69  C   UNL A   1      40.098  35.891  37.922  1.00  0.00     0.198 A 
ATOM     70  C   UNL A   1      38.680  34.256  38.960  1.00  0.00     0.198 A 
ATOM     71  F   UNL A   1      38.264  32.206  37.887  1.00  0.00    -0.203 F 
ATOM     72  F   UNL A   1      40.725  37.075  37.960  1.00  0.00    -0.200 F 
ATOM     73  C   UNL A   1      39.302  35.494  38.987  1.00  0.00     0.200 A 
ATOM     74  F   UNL A   1      37.899  33.877  39.980  1.00  0.00    -0.200 F 
ATOM     75  F   UNL A   1      39.142  36.303  40.044  1.00  0.00    -0.200 F 
ENDBRANCH  51  65
BRANCH  52  76
ATOM     76  C   UNL A   1      40.431  28.036  28.642  1.00  0.00     0.064 A 
ATOM     77  C   UNL A   1      39.806  26.784  28.543  1.00  0.00     0.173 A 
ATOM     78  C   UNL A   1      41.226  28.453  27.563  1.00  0.00     0.173 A 
ATOM     79  F   UNL A   1      39.056  26.328  29.556  1.00  0.00    -0.203 F 
ATOM     80  C   UNL A   1      39.992  25.973  27.425  1.00  0.00     0.198 A 
ATOM     81  C   UNL A   1      41.384  27.655  26.433  1.00  0.00     0.198 A 
ATOM     82  F   UNL A   1      41.846  29.642  27.606  1.00  0.00    -0.203 F 
ATOM     83  F   UNL A   1      39.428  24.757  27.381  1.00  0.00    -0.200 F 
ATOM     84  C   UNL A   1      40.775  26.411  26.368  1.00  0.00     0.200 A 
ATOM     85  F   UNL A   1      42.129  28.090  25.408  1.00  0.00    -0.200 F 
ATOM     86  F   UNL A   1      40.951  25.631  25.292  1.00  0.00    -0.200 F 
ENDBRANCH  52  76
BRANCH  64  87
ATOM     87  C   UNL A   1      43.929  28.380  34.670  1.00  0.00     0.064 A 
ATOM     88  C   UNL A   1      43.736  27.178  35.366  1.00  0.00     0.173 A 
ATOM     89  C   UNL A   1      45.251  28.806  34.456  1.00  0.00     0.173 A 
ATOM     90  F   UNL A   1      42.494  26.731  35.609  1.00  0.00    -0.203 F 
ATOM     91  C   UNL A   1      44.818  26.448  35.852  1.00  0.00     0.198 A 
ATOM     92  C   UNL A   1      46.331  28.056  34.911  1.00  0.00     0.198 A 
ATOM     93  F   UNL A   1      45.495  29.943  33.787  1.00  0.00    -0.203 F 
ATOM     94  F   UNL A   1      44.606  25.330  36.560  1.00  0.00    -0.200 F 
ATOM     95  C   UNL A   1      46.114  26.882  35.616  1.00  0.00     0.200 A 
ATOM     96  F   UNL A   1      47.582  28.467  34.664  1.00  0.00    -0.200 F 
ATOM     97  F   UNL A   1      47.154  26.172  36.074  1.00  0.00    -0.200 F 
ENDBRANCH  64  87
ENDBRANCH  38  39
ENDBRANCH  31  33
ENDBRANCH  30  31
ENDBRANCH  29  30
ENDBRANCH  28  29
ENDBRANCH  27  28
ENDBRANCH  26  27
ENDBRANCH   1  26
TORSDOF 22
ENDMDL
