MODEL 1
REMARK VINA RESULT:     -10.8      0.000      0.000
REMARK SMILES C[N@@H+](CC(=O)OCCOCCOCCOCCOC(=O)c1ccc(-c2c3nc(c(-c4c(F)c(F)c(F)c(F)c4F)c4ccc([nH]4)c(-c4c(F)c(F)c(F)c(F)c4F)c4nc(c(-c5c(F)c(F)c(F)c(F)c5F)c5ccc2[nH]5)C=C4)C=C3)cc1)Cc1noc(-c2ccccc2Cl)n1
REMARK SMILES IDX 11 1 10 2 9 3 8 4 7 5 6 6 4 7 5 8 3 9 2 10 1 11 84 13 85 14
REMARK SMILES IDX 86 15 96 16 87 17 88 18 89 19 90 20 94 21 91 22 93 23 95 24
REMARK SMILES IDX 92 25 12 26 13 27 14 28 15 29 16 30 17 31 18 32 19 33 20 34
REMARK SMILES IDX 21 35 22 36 83 37 23 38 82 39 24 40 25 41 26 42 76 43 27 44
REMARK SMILES IDX 81 45 75 46 77 47 28 48 80 49 74 50 73 51 29 53 61 54 41 55
REMARK SMILES IDX 60 56 42 57 45 58 59 59 78 60 43 61 44 62 58 64 79 65 46 66
REMARK SMILES IDX 30 67 31 68 39 69 32 70 33 71 37 72 40 73 34 74 35 75 38 76
REMARK SMILES IDX 36 77 62 78 63 79 71 80 64 81 65 82 69 83 72 84 66 85 67 86
REMARK SMILES IDX 70 87 68 88 47 89 48 90 56 91 49 92 50 93 54 94 57 95 51 96
REMARK SMILES IDX 52 97 55 98 53 99
REMARK H PARENT 2 12 77 52 45 63
REMARK Flexibility Score: inf
ROOT
ATOM      1  C   UNL A   1      39.475  23.797  27.654  1.00  0.00     0.188 C 
ENDROOT
BRANCH   1   2
ATOM      2  C   UNL A   1      38.707  24.504  26.409  1.00  0.00     0.188 C 
BRANCH   2   3
ATOM      3  O   UNL A   1      37.434  24.021  26.059  1.00  0.00    -0.376 OA
BRANCH   3   4
ATOM      4  C   UNL A   1      37.398  23.005  25.065  1.00  0.00     0.202 C 
BRANCH   4   5
ATOM      5  C   UNL A   1      37.442  21.477  25.388  1.00  0.00     0.261 C 
BRANCH   5   6
ATOM      6  O   UNL A   1      36.261  20.650  25.304  1.00  0.00    -0.459 OA
BRANCH   6   7
ATOM      7  C   UNL A   1      35.048  21.174  25.553  1.00  0.00     0.361 C 
ATOM      8  O   UNL A   1      34.656  21.398  26.698  1.00  0.00    -0.245 OA
BRANCH   7   9
ATOM      9  C   UNL A   1      34.178  21.539  24.333  1.00  0.00     0.386 C 
BRANCH   9  10
ATOM     10  N   UNL A   1      32.785  21.089  24.151  1.00  0.00    -0.322 N 
ATOM     11  C   UNL A   1      32.573  19.689  23.845  1.00  0.00     0.333 C 
ATOM     12  H   UNL A   1      32.538  21.140  25.138  1.00  0.00     0.348 HD
BRANCH  10  13
ATOM     13  C   UNL A   1      31.762  22.034  23.657  1.00  0.00     0.345 C 
BRANCH  13  14
ATOM     14  C   UNL A   1      31.396  23.103  24.621  1.00  0.00     0.226 A 
ATOM     15  N   UNL A   1      30.582  22.949  26.139  1.00  0.00    -0.056 NA
ATOM     16  N   UNL A   1      32.062  24.763  24.414  1.00  0.00    -0.186 NA
ATOM     17  O   UNL A   1      30.783  24.819  26.870  1.00  0.00    -0.334 OA
ATOM     18  C   UNL A   1      31.659  25.772  25.523  1.00  0.00     0.259 A 
BRANCH  18  19
ATOM     19  C   UNL A   1      31.415  27.209  25.398  1.00  0.00     0.058 A 
ATOM     20  C   UNL A   1      31.892  28.098  26.366  1.00  0.00     0.015 A 
ATOM     21  C   UNL A   1      30.783  27.738  24.250  1.00  0.00     0.053 A 
ATOM     22  C   UNL A   1      31.800  29.480  26.161  1.00  0.00     0.001 A 
ATOM     23  C   UNL A   1      30.686  29.118  24.058  1.00  0.00     0.021 A 
ATOM     24  Cl  UNL A   1      30.049  26.770  23.013  1.00  0.00    -0.083 Cl
ATOM     25  C   UNL A   1      31.210  29.988  25.004  1.00  0.00     0.002 A 
ENDBRANCH  18  19
ENDBRANCH  13  14
ENDBRANCH  10  13
ENDBRANCH   9  10
ENDBRANCH   7   9
ENDBRANCH   6   7
ENDBRANCH   5   6
ENDBRANCH   4   5
ENDBRANCH   3   4
ENDBRANCH   2   3
ENDBRANCH   1   2
BRANCH   1  26
ATOM     26  O   UNL A   1      41.076  22.436  27.732  1.00  0.00    -0.377 OA
BRANCH  26  27
ATOM     27  C   UNL A   1      42.333  22.130  26.940  1.00  0.00     0.188 C 
BRANCH  27  28
ATOM     28  C   UNL A   1      42.506  22.242  25.391  1.00  0.00     0.188 C 
BRANCH  28  29
ATOM     29  O   UNL A   1      43.705  21.865  24.743  1.00  0.00    -0.376 OA
BRANCH  29  30
ATOM     30  C   UNL A   1      44.613  22.830  24.255  1.00  0.00     0.202 C 
BRANCH  30  31
ATOM     31  C   UNL A   1      44.963  24.138  24.997  1.00  0.00     0.261 C 
BRANCH  31  32
ATOM     32  O   UNL A   1      44.059  25.245  24.934  1.00  0.00    -0.460 OA
BRANCH  32  33
ATOM     33  C   UNL A   1      44.526  26.470  25.258  1.00  0.00     0.338 C 
ATOM     34  O   UNL A   1      45.455  27.067  24.748  1.00  0.00    -0.246 OA
BRANCH  33  35
ATOM     35  C   UNL A   1      43.576  27.060  26.235  1.00  0.00     0.060 A 
ATOM     36  C   UNL A   1      43.766  28.376  26.694  1.00  0.00     0.016 A 
ATOM     37  C   UNL A   1      42.501  26.305  26.702  1.00  0.00     0.016 A 
ATOM     38  C   UNL A   1      42.899  28.934  27.634  1.00  0.00     0.010 A 
ATOM     39  C   UNL A   1      41.670  26.838  27.689  1.00  0.00     0.010 A 
ATOM     40  C   UNL A   1      41.898  28.133  28.190  1.00  0.00    -0.014 A 
BRANCH  40  41
ATOM     41  C   UNL A   1      41.330  28.484  29.511  1.00  0.00     0.031 A 
ATOM     42  C   UNL A   1      40.070  29.305  29.504  1.00  0.00     0.074 A 
ATOM     43  C   UNL A   1      41.922  28.142  30.665  1.00  0.00     0.049 A 
ATOM     44  N   UNL A   1      39.481  29.941  30.482  1.00  0.00    -0.248 NA
ATOM     45  C   UNL A   1      39.393  29.443  28.202  1.00  0.00     0.031 C 
ATOM     46  C   UNL A   1      43.099  27.289  30.792  1.00  0.00     0.029 A 
ATOM     47  N   UNL A   1      41.626  28.510  31.953  1.00  0.00    -0.354 N 
ATOM     48  C   UNL A   1      38.388  30.576  29.906  1.00  0.00     0.074 A 
ATOM     49  C   UNL A   1      38.402  30.266  28.496  1.00  0.00     0.031 C 
ATOM     50  C   UNL A   1      43.453  27.230  32.088  1.00  0.00     0.029 A 
ATOM     51  C   UNL A   1      42.560  28.088  32.868  1.00  0.00     0.049 A 
ATOM     52  H   UNL A   1      40.824  29.026  32.198  1.00  0.00     0.167 HD
ATOM     53  C   UNL A   1      37.462  31.357  30.505  1.00  0.00     0.037 A 
ATOM     54  C   UNL A   1      42.697  28.407  34.170  1.00  0.00     0.037 A 
ATOM     55  C   UNL A   1      37.473  31.668  31.908  1.00  0.00     0.049 A 
ATOM     56  C   UNL A   1      41.707  29.360  34.801  1.00  0.00     0.074 A 
ATOM     57  C   UNL A   1      36.581  32.442  32.626  1.00  0.00     0.029 A 
ATOM     58  N   UNL A   1      38.440  31.228  32.801  1.00  0.00    -0.354 N 
ATOM     59  N   UNL A   1      40.671  29.957  34.262  1.00  0.00    -0.248 NA
ATOM     60  C   UNL A   1      41.909  29.688  36.220  1.00  0.00     0.031 C 
ATOM     61  C   UNL A   1      37.049  32.530  33.939  1.00  0.00     0.029 A 
ATOM     62  C   UNL A   1      38.183  31.740  34.059  1.00  0.00     0.049 A 
ATOM     63  H   UNL A   1      39.195  30.639  32.572  1.00  0.00     0.167 HD
ATOM     64  C   UNL A   1      40.075  30.692  35.280  1.00  0.00     0.074 A 
ATOM     65  C   UNL A   1      40.867  30.466  36.472  1.00  0.00     0.031 C 
ATOM     66  C   UNL A   1      38.970  31.477  35.237  1.00  0.00     0.037 A 
BRANCH  53  67
ATOM     67  C   UNL A   1      36.399  31.966  29.638  1.00  0.00     0.064 A 
ATOM     68  C   UNL A   1      35.365  31.199  29.079  1.00  0.00     0.173 A 
ATOM     69  C   UNL A   1      36.408  33.344  29.373  1.00  0.00     0.173 A 
ATOM     70  F   UNL A   1      35.320  29.874  29.283  1.00  0.00    -0.203 F 
ATOM     71  C   UNL A   1      34.399  31.785  28.263  1.00  0.00     0.198 A 
ATOM     72  C   UNL A   1      35.419  33.932  28.590  1.00  0.00     0.198 A 
ATOM     73  F   UNL A   1      37.375  34.125  29.879  1.00  0.00    -0.203 F 
ATOM     74  F   UNL A   1      33.455  31.023  27.693  1.00  0.00    -0.200 F 
ATOM     75  C   UNL A   1      34.422  33.151  28.027  1.00  0.00     0.200 A 
ATOM     76  F   UNL A   1      35.435  35.255  28.376  1.00  0.00    -0.200 F 
ATOM     77  F   UNL A   1      33.485  33.715  27.252  1.00  0.00    -0.200 F 
ENDBRANCH  53  67
BRANCH  54  78
ATOM     78  C   UNL A   1      43.827  27.850  34.963  1.00  0.00     0.064 A 
ATOM     79  C   UNL A   1      43.695  26.637  35.654  1.00  0.00     0.173 A 
ATOM     80  C   UNL A   1      45.053  28.526  35.069  1.00  0.00     0.173 A 
ATOM     81  F   UNL A   1      42.536  25.964  35.607  1.00  0.00    -0.203 F 
ATOM     82  C   UNL A   1      44.733  26.134  36.436  1.00  0.00     0.198 A 
ATOM     83  C   UNL A   1      46.103  28.005  35.823  1.00  0.00     0.198 A 
ATOM     84  F   UNL A   1      45.234  29.693  34.433  1.00  0.00    -0.203 F 
ATOM     85  F   UNL A   1      44.558  25.000  37.129  1.00  0.00    -0.200 F 
ATOM     86  C   UNL A   1      45.938  26.814  36.514  1.00  0.00     0.200 A 
ATOM     87  F   UNL A   1      47.270  28.659  35.884  1.00  0.00    -0.200 F 
ATOM     88  F   UNL A   1      46.937  26.329  37.264  1.00  0.00    -0.200 F 
ENDBRANCH  54  78
BRANCH  66  89
ATOM     89  C   UNL A   1      38.494  32.094  36.522  1.00  0.00     0.064 A 
ATOM     90  C   UNL A   1      37.779  31.364  37.480  1.00  0.00     0.173 A 
ATOM     91  C   UNL A   1      38.849  33.417  36.834  1.00  0.00     0.173 A 
ATOM     92  F   UNL A   1      37.406  30.100  37.227  1.00  0.00    -0.203 F 
ATOM     93  C   UNL A   1      37.425  31.939  38.698  1.00  0.00     0.198 A 
ATOM     94  C   UNL A   1      38.526  33.976  38.067  1.00  0.00     0.198 A 
ATOM     95  F   UNL A   1      39.543  34.156  35.956  1.00  0.00    -0.203 F 
ATOM     96  F   UNL A   1      36.710  31.234  39.586  1.00  0.00    -0.200 F 
ATOM     97  C   UNL A   1      37.810  33.237  38.996  1.00  0.00     0.200 A 
ATOM     98  F   UNL A   1      38.920  35.222  38.359  1.00  0.00    -0.200 F 
ATOM     99  F   UNL A   1      37.490  33.779  40.180  1.00  0.00    -0.200 F 
ENDBRANCH  66  89
ENDBRANCH  40  41
ENDBRANCH  33  35
ENDBRANCH  32  33
ENDBRANCH  31  32
ENDBRANCH  30  31
ENDBRANCH  29  30
ENDBRANCH  28  29
ENDBRANCH  27  28
ENDBRANCH  26  27
ENDBRANCH   1  26
TORSDOF 24
ENDMDL
MODEL 2
REMARK VINA RESULT:     -10.6      3.265      9.479
REMARK SMILES C[N@@H+](CC(=O)OCCOCCOCCOCCOC(=O)c1ccc(-c2c3nc(c(-c4c(F)c(F)c(F)c(F)c4F)c4ccc([nH]4)c(-c4c(F)c(F)c(F)c(F)c4F)c4nc(c(-c5c(F)c(F)c(F)c(F)c5F)c5ccc2[nH]5)C=C4)C=C3)cc1)Cc1noc(-c2ccccc2Cl)n1
REMARK SMILES IDX 11 1 10 2 9 3 8 4 7 5 6 6 4 7 5 8 3 9 2 10 1 11 84 13 85 14
REMARK SMILES IDX 86 15 96 16 87 17 88 18 89 19 90 20 94 21 91 22 93 23 95 24
REMARK SMILES IDX 92 25 12 26 13 27 14 28 15 29 16 30 17 31 18 32 19 33 20 34
REMARK SMILES IDX 21 35 22 36 83 37 23 38 82 39 24 40 25 41 26 42 76 43 27 44
REMARK SMILES IDX 81 45 75 46 77 47 28 48 80 49 74 50 73 51 29 53 61 54 41 55
REMARK SMILES IDX 60 56 42 57 45 58 59 59 78 60 43 61 44 62 58 64 79 65 46 66
REMARK SMILES IDX 30 67 31 68 39 69 32 70 33 71 37 72 40 73 34 74 35 75 38 76
REMARK SMILES IDX 36 77 62 78 63 79 71 80 64 81 65 82 69 83 72 84 66 85 67 86
REMARK SMILES IDX 70 87 68 88 47 89 48 90 56 91 49 92 50 93 54 94 57 95 51 96
REMARK SMILES IDX 52 97 55 98 53 99
REMARK H PARENT 2 12 77 52 45 63
REMARK Flexibility Score: inf
ROOT
ATOM      1  C   UNL A   1      30.623  26.466  25.693  1.00  0.00     0.188 C 
ENDROOT
BRANCH   1   2
ATOM      2  C   UNL A   1      30.763  24.855  25.848  1.00  0.00     0.188 C 
BRANCH   2   3
ATOM      3  O   UNL A   1      31.215  24.121  24.737  1.00  0.00    -0.376 OA
BRANCH   3   4
ATOM      4  C   UNL A   1      32.127  23.065  25.010  1.00  0.00     0.202 C 
BRANCH   4   5
ATOM      5  C   UNL A   1      32.106  22.223  26.326  1.00  0.00     0.261 C 
BRANCH   5   6
ATOM      6  O   UNL A   1      33.156  21.282  26.640  1.00  0.00    -0.459 OA
BRANCH   6   7
ATOM      7  C   UNL A   1      34.182  21.102  25.790  1.00  0.00     0.361 C 
ATOM      8  O   UNL A   1      34.087  20.387  24.793  1.00  0.00    -0.245 OA
BRANCH   7   9
ATOM      9  C   UNL A   1      35.481  21.881  26.085  1.00  0.00     0.386 C 
BRANCH   9  10
ATOM     10  N   UNL A   1      36.670  21.859  25.211  1.00  0.00    -0.322 N 
ATOM     11  C   UNL A   1      36.769  22.889  24.197  1.00  0.00     0.333 C 
ATOM     12  H   UNL A   1      37.319  22.186  25.925  1.00  0.00     0.348 HD
BRANCH  10  13
ATOM     13  C   UNL A   1      37.349  20.579  24.920  1.00  0.00     0.345 C 
BRANCH  13  14
ATOM     14  C   UNL A   1      38.743  20.494  25.425  1.00  0.00     0.226 A 
ATOM     15  N   UNL A   1      39.746  19.093  25.582  1.00  0.00    -0.056 NA
ATOM     16  N   UNL A   1      39.694  22.000  25.688  1.00  0.00    -0.186 NA
ATOM     17  O   UNL A   1      41.516  19.944  26.049  1.00  0.00    -0.334 OA
ATOM     18  C   UNL A   1      41.158  21.775  26.154  1.00  0.00     0.259 A 
BRANCH  18  19
ATOM     19  C   UNL A   1      41.962  22.603  27.053  1.00  0.00     0.058 A 
ATOM     20  C   UNL A   1      41.760  22.554  28.436  1.00  0.00     0.015 A 
ATOM     21  C   UNL A   1      43.024  23.392  26.555  1.00  0.00     0.053 A 
ATOM     22  C   UNL A   1      42.636  23.221  29.301  1.00  0.00     0.001 A 
ATOM     23  C   UNL A   1      43.887  24.062  27.424  1.00  0.00     0.021 A 
ATOM     24  Cl  UNL A   1      43.341  23.639  24.869  1.00  0.00    -0.083 Cl
ATOM     25  C   UNL A   1      43.704  23.961  28.797  1.00  0.00     0.002 A 
ENDBRANCH  18  19
ENDBRANCH  13  14
ENDBRANCH  10  13
ENDBRANCH   9  10
ENDBRANCH   7   9
ENDBRANCH   6   7
ENDBRANCH   5   6
ENDBRANCH   4   5
ENDBRANCH   3   4
ENDBRANCH   2   3
ENDBRANCH   1   2
BRANCH   1  26
ATOM     26  O   UNL A   1      31.972  28.038  26.054  1.00  0.00    -0.377 OA
BRANCH  26  27
ATOM     27  C   UNL A   1      33.192  28.299  26.917  1.00  0.00     0.188 C 
BRANCH  27  28
ATOM     28  C   UNL A   1      34.066  29.595  26.924  1.00  0.00     0.188 C 
BRANCH  28  29
ATOM     29  O   UNL A   1      33.623  30.792  27.532  1.00  0.00    -0.376 OA
BRANCH  29  30
ATOM     30  C   UNL A   1      32.395  31.390  27.173  1.00  0.00     0.202 C 
BRANCH  30  31
ATOM     31  C   UNL A   1      32.132  32.911  27.215  1.00  0.00     0.261 C 
BRANCH  31  32
ATOM     32  O   UNL A   1      33.230  33.808  27.406  1.00  0.00    -0.460 OA
BRANCH  32  33
ATOM     33  C   UNL A   1      33.220  34.607  28.496  1.00  0.00     0.338 C 
ATOM     34  O   UNL A   1      32.383  35.434  28.800  1.00  0.00    -0.246 OA
BRANCH  33  35
ATOM     35  C   UNL A   1      34.330  34.162  29.378  1.00  0.00     0.060 A 
ATOM     36  C   UNL A   1      35.663  34.283  28.945  1.00  0.00     0.016 A 
ATOM     37  C   UNL A   1      34.048  33.620  30.631  1.00  0.00     0.016 A 
ATOM     38  C   UNL A   1      36.714  33.843  29.750  1.00  0.00     0.010 A 
ATOM     39  C   UNL A   1      35.093  33.121  31.409  1.00  0.00     0.010 A 
ATOM     40  C   UNL A   1      36.421  33.188  30.949  1.00  0.00    -0.014 A 
BRANCH  40  41
ATOM     41  C   UNL A   1      37.418  32.269  31.543  1.00  0.00     0.031 A 
ATOM     42  C   UNL A   1      37.943  32.636  32.904  1.00  0.00     0.074 A 
ATOM     43  C   UNL A   1      37.880  31.190  30.895  1.00  0.00     0.049 A 
ATOM     44  N   UNL A   1      38.965  32.157  33.563  1.00  0.00    -0.248 NA
ATOM     45  C   UNL A   1      37.220  33.710  33.610  1.00  0.00     0.031 C 
ATOM     46  C   UNL A   1      37.391  30.700  29.611  1.00  0.00     0.029 A 
ATOM     47  N   UNL A   1      38.900  30.332  31.223  1.00  0.00    -0.354 N 
ATOM     48  C   UNL A   1      39.023  32.892  34.739  1.00  0.00     0.074 A 
ATOM     49  C   UNL A   1      37.950  33.858  34.701  1.00  0.00     0.031 C 
ATOM     50  C   UNL A   1      38.140  29.648  29.235  1.00  0.00     0.029 A 
ATOM     51  C   UNL A   1      39.193  29.431  30.228  1.00  0.00     0.049 A 
ATOM     52  H   UNL A   1      39.374  30.359  32.085  1.00  0.00     0.167 HD
ATOM     53  C   UNL A   1      39.906  32.776  35.757  1.00  0.00     0.037 A 
ATOM     54  C   UNL A   1      40.226  28.572  30.120  1.00  0.00     0.037 A 
ATOM     55  C   UNL A   1      40.978  31.819  35.771  1.00  0.00     0.049 A 
ATOM     56  C   UNL A   1      41.258  28.523  31.224  1.00  0.00     0.074 A 
ATOM     57  C   UNL A   1      41.928  31.604  36.752  1.00  0.00     0.029 A 
ATOM     58  N   UNL A   1      41.248  30.929  34.742  1.00  0.00    -0.354 N 
ATOM     59  N   UNL A   1      41.316  29.212  32.338  1.00  0.00    -0.248 NA
ATOM     60  C   UNL A   1      42.374  27.581  31.050  1.00  0.00     0.031 C 
ATOM     61  C   UNL A   1      42.816  30.633  36.284  1.00  0.00     0.029 A 
ATOM     62  C   UNL A   1      42.370  30.182  35.051  1.00  0.00     0.049 A 
ATOM     63  H   UNL A   1      40.720  30.842  33.916  1.00  0.00     0.167 HD
ATOM     64  C   UNL A   1      42.440  28.757  33.017  1.00  0.00     0.074 A 
ATOM     65  C   UNL A   1      43.039  27.732  32.187  1.00  0.00     0.031 C 
ATOM     66  C   UNL A   1      42.931  29.146  34.220  1.00  0.00     0.037 A 
BRANCH  53  67
ATOM     67  C   UNL A   1      39.776  33.734  36.904  1.00  0.00     0.064 A 
ATOM     68  C   UNL A   1      40.423  34.980  36.910  1.00  0.00     0.173 A 
ATOM     69  C   UNL A   1      38.980  33.406  38.012  1.00  0.00     0.173 A 
ATOM     70  F   UNL A   1      41.212  35.336  35.885  1.00  0.00    -0.203 F 
ATOM     71  C   UNL A   1      40.300  35.846  37.995  1.00  0.00     0.198 A 
ATOM     72  C   UNL A   1      38.829  34.290  39.076  1.00  0.00     0.198 A 
ATOM     73  F   UNL A   1      38.341  32.227  38.061  1.00  0.00    -0.203 F 
ATOM     74  F   UNL A   1      40.973  37.005  38.003  1.00  0.00    -0.200 F 
ATOM     75  C   UNL A   1      39.497  35.504  39.071  1.00  0.00     0.200 A 
ATOM     76  F   UNL A   1      38.039  33.964  40.109  1.00  0.00    -0.200 F 
ATOM     77  F   UNL A   1      39.371  36.343  40.109  1.00  0.00    -0.200 F 
ENDBRANCH  53  67
BRANCH  54  78
ATOM     78  C   UNL A   1      40.361  27.710  28.914  1.00  0.00     0.064 A 
ATOM     79  C   UNL A   1      41.137  28.117  27.819  1.00  0.00     0.173 A 
ATOM     80  C   UNL A   1      39.698  26.477  28.816  1.00  0.00     0.173 A 
ATOM     81  F   UNL A   1      41.771  29.298  27.852  1.00  0.00    -0.203 F 
ATOM     82  C   UNL A   1      41.229  27.336  26.668  1.00  0.00     0.198 A 
ATOM     83  C   UNL A   1      39.817  25.680  27.679  1.00  0.00     0.198 A 
ATOM     84  F   UNL A   1      38.937  26.040  29.830  1.00  0.00    -0.203 F 
ATOM     85  F   UNL A   1      41.934  27.776  25.618  1.00  0.00    -0.200 F 
ATOM     86  C   UNL A   1      40.575  26.116  26.602  1.00  0.00     0.200 A 
ATOM     87  F   UNL A   1      39.195  24.495  27.624  1.00  0.00    -0.200 F 
ATOM     88  F   UNL A   1      40.665  25.364  25.496  1.00  0.00    -0.200 F 
ENDBRANCH  54  78
BRANCH  66  89
ATOM     89  C   UNL A   1      44.129  28.419  34.760  1.00  0.00     0.064 A 
ATOM     90  C   UNL A   1      44.011  27.261  35.540  1.00  0.00     0.173 A 
ATOM     91  C   UNL A   1      45.421  28.842  34.405  1.00  0.00     0.173 A 
ATOM     92  F   UNL A   1      42.800  26.821  35.917  1.00  0.00    -0.203 F 
ATOM     93  C   UNL A   1      45.140  26.560  35.956  1.00  0.00     0.198 A 
ATOM     94  C   UNL A   1      46.545  28.119  34.791  1.00  0.00     0.198 A 
ATOM     95  F   UNL A   1      45.590  29.939  33.651  1.00  0.00    -0.203 F 
ATOM     96  F   UNL A   1      45.005  25.475  36.731  1.00  0.00    -0.200 F 
ATOM     97  C   UNL A   1      46.404  26.981  35.569  1.00  0.00     0.200 A 
ATOM     98  F   UNL A   1      47.763  28.516  34.396  1.00  0.00    -0.200 F 
ATOM     99  F   UNL A   1      47.488  26.290  35.949  1.00  0.00    -0.200 F 
ENDBRANCH  66  89
ENDBRANCH  40  41
ENDBRANCH  33  35
ENDBRANCH  32  33
ENDBRANCH  31  32
ENDBRANCH  30  31
ENDBRANCH  29  30
ENDBRANCH  28  29
ENDBRANCH  27  28
ENDBRANCH  26  27
ENDBRANCH   1  26
TORSDOF 24
ENDMDL
MODEL 3
REMARK VINA RESULT:     -10.1      1.080      2.041
REMARK SMILES C[N@@H+](CC(=O)OCCOCCOCCOCCOC(=O)c1ccc(-c2c3nc(c(-c4c(F)c(F)c(F)c(F)c4F)c4ccc([nH]4)c(-c4c(F)c(F)c(F)c(F)c4F)c4nc(c(-c5c(F)c(F)c(F)c(F)c5F)c5ccc2[nH]5)C=C4)C=C3)cc1)Cc1noc(-c2ccccc2Cl)n1
REMARK SMILES IDX 11 1 10 2 9 3 8 4 7 5 6 6 4 7 5 8 3 9 2 10 1 11 84 13 85 14
REMARK SMILES IDX 86 15 96 16 87 17 88 18 89 19 90 20 94 21 91 22 93 23 95 24
REMARK SMILES IDX 92 25 12 26 13 27 14 28 15 29 16 30 17 31 18 32 19 33 20 34
REMARK SMILES IDX 21 35 22 36 83 37 23 38 82 39 24 40 25 41 26 42 76 43 27 44
REMARK SMILES IDX 81 45 75 46 77 47 28 48 80 49 74 50 73 51 29 53 61 54 41 55
REMARK SMILES IDX 60 56 42 57 45 58 59 59 78 60 43 61 44 62 58 64 79 65 46 66
REMARK SMILES IDX 30 67 31 68 39 69 32 70 33 71 37 72 40 73 34 74 35 75 38 76
REMARK SMILES IDX 36 77 62 78 63 79 71 80 64 81 65 82 69 83 72 84 66 85 67 86
REMARK SMILES IDX 70 87 68 88 47 89 48 90 56 91 49 92 50 93 54 94 57 95 51 96
REMARK SMILES IDX 52 97 55 98 53 99
REMARK H PARENT 2 12 77 52 45 63
REMARK Flexibility Score: inf
ROOT
ATOM      1  C   UNL A   1      40.917  22.909  27.618  1.00  0.00     0.188 C 
ENDROOT
BRANCH   1   2
ATOM      2  C   UNL A   1      40.162  24.100  26.813  1.00  0.00     0.188 C 
BRANCH   2   3
ATOM      3  O   UNL A   1      38.811  24.349  27.115  1.00  0.00    -0.376 OA
BRANCH   3   4
ATOM      4  C   UNL A   1      37.859  23.882  26.168  1.00  0.00     0.202 C 
BRANCH   4   5
ATOM      5  C   UNL A   1      37.235  22.450  26.203  1.00  0.00     0.261 C 
BRANCH   5   6
ATOM      6  O   UNL A   1      35.863  22.231  26.596  1.00  0.00    -0.459 OA
BRANCH   6   7
ATOM      7  C   UNL A   1      35.099  21.349  25.928  1.00  0.00     0.361 C 
ATOM      8  O   UNL A   1      35.486  20.799  24.897  1.00  0.00    -0.245 OA
BRANCH   7   9
ATOM      9  C   UNL A   1      33.726  21.005  26.541  1.00  0.00     0.386 C 
BRANCH   9  10
ATOM     10  N   UNL A   1      32.447  21.565  26.063  1.00  0.00    -0.322 N 
ATOM     11  C   UNL A   1      32.065  21.275  24.696  1.00  0.00     0.333 C 
ATOM     12  H   UNL A   1      31.858  20.929  26.598  1.00  0.00     0.348 HD
BRANCH  10  13
ATOM     13  C   UNL A   1      31.930  22.824  26.640  1.00  0.00     0.345 C 
BRANCH  13  14
ATOM     14  C   UNL A   1      32.425  24.055  25.972  1.00  0.00     0.226 A 
ATOM     15  N   UNL A   1      34.036  24.684  25.934  1.00  0.00    -0.056 NA
ATOM     16  N   UNL A   1      31.363  24.935  24.815  1.00  0.00    -0.186 NA
ATOM     17  O   UNL A   1      33.831  26.172  24.586  1.00  0.00    -0.334 OA
ATOM     18  C   UNL A   1      32.019  26.167  24.133  1.00  0.00     0.259 A 
BRANCH  18  19
ATOM     19  C   UNL A   1      31.387  27.421  23.724  1.00  0.00     0.058 A 
ATOM     20  C   UNL A   1      30.861  27.566  22.437  1.00  0.00     0.015 A 
ATOM     21  C   UNL A   1      31.204  28.474  24.649  1.00  0.00     0.053 A 
ATOM     22  C   UNL A   1      30.115  28.703  22.103  1.00  0.00     0.001 A 
ATOM     23  C   UNL A   1      30.467  29.610  24.305  1.00  0.00     0.021 A 
ATOM     24  Cl  UNL A   1      31.880  28.493  26.245  1.00  0.00    -0.083 Cl
ATOM     25  C   UNL A   1      29.907  29.715  23.039  1.00  0.00     0.002 A 
ENDBRANCH  18  19
ENDBRANCH  13  14
ENDBRANCH  10  13
ENDBRANCH   9  10
ENDBRANCH   7   9
ENDBRANCH   6   7
ENDBRANCH   5   6
ENDBRANCH   4   5
ENDBRANCH   3   4
ENDBRANCH   2   3
ENDBRANCH   1   2
BRANCH   1  26
ATOM     26  O   UNL A   1      42.457  21.588  27.064  1.00  0.00    -0.377 OA
BRANCH  26  27
ATOM     27  C   UNL A   1      43.777  21.648  26.318  1.00  0.00     0.188 C 
BRANCH  27  28
ATOM     28  C   UNL A   1      44.036  22.343  24.943  1.00  0.00     0.188 C 
BRANCH  28  29
ATOM     29  O   UNL A   1      45.324  22.395  24.362  1.00  0.00    -0.376 OA
BRANCH  29  30
ATOM     30  C   UNL A   1      46.017  23.615  24.214  1.00  0.00     0.202 C 
BRANCH  30  31
ATOM     31  C   UNL A   1      45.876  24.810  25.183  1.00  0.00     0.261 C 
BRANCH  31  32
ATOM     32  O   UNL A   1      44.717  25.645  25.104  1.00  0.00    -0.460 OA
BRANCH  32  33
ATOM     33  C   UNL A   1      44.882  26.979  25.236  1.00  0.00     0.338 C 
ATOM     34  O   UNL A   1      45.594  27.707  24.572  1.00  0.00    -0.246 OA
BRANCH  33  35
ATOM     35  C   UNL A   1      43.881  27.450  26.227  1.00  0.00     0.060 A 
ATOM     36  C   UNL A   1      43.788  28.819  26.536  1.00  0.00     0.016 A 
ATOM     37  C   UNL A   1      43.039  26.533  26.855  1.00  0.00     0.016 A 
ATOM     38  C   UNL A   1      42.873  29.274  27.486  1.00  0.00     0.010 A 
ATOM     39  C   UNL A   1      42.168  26.977  27.851  1.00  0.00     0.010 A 
ATOM     40  C   UNL A   1      42.119  28.340  28.201  1.00  0.00    -0.014 A 
BRANCH  40  41
ATOM     41  C   UNL A   1      41.565  28.705  29.524  1.00  0.00     0.031 A 
ATOM     42  C   UNL A   1      40.267  29.464  29.523  1.00  0.00     0.074 A 
ATOM     43  C   UNL A   1      42.200  28.429  30.673  1.00  0.00     0.049 A 
ATOM     44  N   UNL A   1      39.670  30.101  30.495  1.00  0.00    -0.248 NA
ATOM     45  C   UNL A   1      39.554  29.528  28.234  1.00  0.00     0.031 C 
ATOM     46  C   UNL A   1      43.419  27.637  30.798  1.00  0.00     0.029 A 
ATOM     47  N   UNL A   1      41.916  28.823  31.956  1.00  0.00    -0.354 N 
ATOM     48  C   UNL A   1      38.535  30.664  29.926  1.00  0.00     0.074 A 
ATOM     49  C   UNL A   1      38.531  30.311  28.526  1.00  0.00     0.031 C 
ATOM     50  C   UNL A   1      43.805  27.637  32.086  1.00  0.00     0.029 A 
ATOM     51  C   UNL A   1      42.889  28.476  32.860  1.00  0.00     0.049 A 
ATOM     52  H   UNL A   1      41.095  29.308  32.205  1.00  0.00     0.167 HD
ATOM     53  C   UNL A   1      37.585  31.419  30.523  1.00  0.00     0.037 A 
ATOM     54  C   UNL A   1      43.040  28.842  34.149  1.00  0.00     0.037 A 
ATOM     55  C   UNL A   1      37.613  31.774  31.915  1.00  0.00     0.049 A 
ATOM     56  C   UNL A   1      42.020  29.766  34.774  1.00  0.00     0.074 A 
ATOM     57  C   UNL A   1      36.702  32.527  32.630  1.00  0.00     0.029 A 
ATOM     58  N   UNL A   1      38.620  31.410  32.797  1.00  0.00    -0.354 N 
ATOM     59  N   UNL A   1      40.944  30.296  34.242  1.00  0.00    -0.248 NA
ATOM     60  C   UNL A   1      42.239  30.148  36.177  1.00  0.00     0.031 C 
ATOM     61  C   UNL A   1      37.194  32.679  33.929  1.00  0.00     0.029 A 
ATOM     62  C   UNL A   1      38.368  31.949  34.045  1.00  0.00     0.049 A 
ATOM     63  H   UNL A   1      39.398  30.851  32.569  1.00  0.00     0.167 HD
ATOM     64  C   UNL A   1      40.336  31.033  35.252  1.00  0.00     0.074 A 
ATOM     65  C   UNL A   1      41.165  30.883  36.430  1.00  0.00     0.031 C 
ATOM     66  C   UNL A   1      39.194  31.762  35.212  1.00  0.00     0.037 A 
BRANCH  53  67
ATOM     67  C   UNL A   1      36.474  31.948  29.664  1.00  0.00     0.064 A 
ATOM     68  C   UNL A   1      36.383  33.305  29.319  1.00  0.00     0.173 A 
ATOM     69  C   UNL A   1      35.492  31.078  29.166  1.00  0.00     0.173 A 
ATOM     70  F   UNL A   1      37.283  34.184  29.783  1.00  0.00    -0.203 F 
ATOM     71  C   UNL A   1      35.332  33.775  28.532  1.00  0.00     0.198 A 
ATOM     72  C   UNL A   1      34.466  31.545  28.349  1.00  0.00     0.198 A 
ATOM     73  F   UNL A   1      35.530  29.771  29.467  1.00  0.00    -0.203 F 
ATOM     74  F   UNL A   1      35.233  35.085  28.264  1.00  0.00    -0.200 F 
ATOM     75  C   UNL A   1      34.381  32.894  28.042  1.00  0.00     0.200 A 
ATOM     76  F   UNL A   1      33.558  30.688  27.863  1.00  0.00    -0.200 F 
ATOM     77  F   UNL A   1      33.378  33.345  27.276  1.00  0.00    -0.200 F 
ENDBRANCH  53  67
BRANCH  54  78
ATOM     78  C   UNL A   1      44.214  28.366  34.930  1.00  0.00     0.064 A 
ATOM     79  C   UNL A   1      45.432  29.060  34.898  1.00  0.00     0.173 A 
ATOM     80  C   UNL A   1      44.156  27.195  35.703  1.00  0.00     0.173 A 
ATOM     81  F   UNL A   1      45.549  30.170  34.155  1.00  0.00    -0.203 F 
ATOM     82  C   UNL A   1      46.549  28.593  35.590  1.00  0.00     0.198 A 
ATOM     83  C   UNL A   1      45.262  26.748  36.422  1.00  0.00     0.198 A 
ATOM     84  F   UNL A   1      43.019  26.487  35.766  1.00  0.00    -0.203 F 
ATOM     85  F   UNL A   1      47.713  29.249  35.497  1.00  0.00    -0.200 F 
ATOM     86  C   UNL A   1      46.461  27.442  36.357  1.00  0.00     0.200 A 
ATOM     87  F   UNL A   1      45.169  25.642  37.173  1.00  0.00    -0.200 F 
ATOM     88  F   UNL A   1      47.534  26.995  37.024  1.00  0.00    -0.200 F 
ENDBRANCH  54  78
BRANCH  66  89
ATOM     89  C   UNL A   1      38.718  32.396  36.487  1.00  0.00     0.064 A 
ATOM     90  C   UNL A   1      37.986  31.684  37.447  1.00  0.00     0.173 A 
ATOM     91  C   UNL A   1      39.089  33.717  36.791  1.00  0.00     0.173 A 
ATOM     92  F   UNL A   1      37.597  30.423  37.201  1.00  0.00    -0.203 F 
ATOM     93  C   UNL A   1      37.632  32.273  38.658  1.00  0.00     0.198 A 
ATOM     94  C   UNL A   1      38.765  34.290  38.017  1.00  0.00     0.198 A 
ATOM     95  F   UNL A   1      39.799  34.439  35.912  1.00  0.00    -0.203 F 
ATOM     96  F   UNL A   1      36.901  31.585  39.547  1.00  0.00    -0.200 F 
ATOM     97  C   UNL A   1      38.033  33.569  38.948  1.00  0.00     0.200 A 
ATOM     98  F   UNL A   1      39.174  35.533  38.302  1.00  0.00    -0.200 F 
ATOM     99  F   UNL A   1      37.713  34.125  40.125  1.00  0.00    -0.200 F 
ENDBRANCH  66  89
ENDBRANCH  40  41
ENDBRANCH  33  35
ENDBRANCH  32  33
ENDBRANCH  31  32
ENDBRANCH  30  31
ENDBRANCH  29  30
ENDBRANCH  28  29
ENDBRANCH  27  28
ENDBRANCH  26  27
ENDBRANCH   1  26
TORSDOF 24
ENDMDL
