MODEL 1
REMARK VINA RESULT:     -11.7      0.000      0.000
REMARK SMILES Cc1ccccc1NC(=O)CSc1nc(C(=O)OCCOCCOCCOCCOC(=O)c2ccc(-c3c4nc(c(-c5c(F)c(F)c(F)c(F)c5F)c5ccc([nH]5)c(-c5c(F)c(F)c(F)c(F)c5F)c5nc(c(-c6c(F)c(F)c(F)c(F)c6F)c6ccc3[nH]6)C=C5)C=C4)cc2)c2ccccc2n1
REMARK SMILES IDX 23 1 22 2 21 3 20 4 19 5 18 6 16 7 17 8 15 9 13 10 14 11
REMARK SMILES IDX 102 12 101 13 96 14 100 15 97 16 99 17 98 18 12 19 11 20
REMARK SMILES IDX 9 21 8 22 10 24 7 25 1 26 2 27 3 28 4 29 6 30 5 31 24 32
REMARK SMILES IDX 25 33 26 34 27 35 28 36 29 37 30 38 31 39 32 40 33 41 34 42
REMARK SMILES IDX 95 43 35 44 94 45 36 46 37 47 38 48 88 49 39 50 93 51 87 52
REMARK SMILES IDX 89 53 40 54 92 55 86 56 85 57 41 59 73 60 53 61 72 62 54 63
REMARK SMILES IDX 57 64 71 65 90 66 55 67 56 68 70 70 91 71 58 72 42 73 43 74
REMARK SMILES IDX 51 75 44 76 45 77 49 78 52 79 46 80 47 81 50 82 48 83 74 84
REMARK SMILES IDX 75 85 83 86 76 87 77 88 81 89 84 90 78 91 79 92 82 93 80 94
REMARK SMILES IDX 59 95 60 96 68 97 61 98 62 99 66 100 69 101 63 102 64 103
REMARK SMILES IDX 67 104 65 105
REMARK H PARENT 8 23 89 58 57 69
REMARK Flexibility Score: inf
ROOT
ATOM      1  C   UNL A   1      39.044  21.842  26.126  1.00  0.00     0.188 C 
ENDROOT
BRANCH   1   2
ATOM      2  C   UNL A   1      38.404  23.189  25.767  1.00  0.00     0.188 C 
BRANCH   2   3
ATOM      3  O   UNL A   1      37.330  23.637  26.588  1.00  0.00    -0.376 OA
BRANCH   3   4
ATOM      4  C   UNL A   1      36.037  23.648  25.979  1.00  0.00     0.202 C 
BRANCH   4   5
ATOM      5  C   UNL A   1      34.973  22.858  26.733  1.00  0.00     0.261 C 
BRANCH   5   6
ATOM      6  O   UNL A   1      33.753  23.626  26.763  1.00  0.00    -0.458 OA
BRANCH   6   7
ATOM      7  C   UNL A   1      32.640  22.865  26.718  1.00  0.00     0.357 C 
ATOM      8  O   UNL A   1      31.696  22.927  27.489  1.00  0.00    -0.244 OA
BRANCH   7   9
ATOM      9  C   UNL A   1      32.457  22.336  25.354  1.00  0.00     0.160 A 
ATOM     10  C   UNL A   1      32.853  23.166  23.313  1.00  0.00     0.189 A 
ATOM     11  N   UNL A   1      32.413  23.381  24.525  1.00  0.00    -0.215 NA
ATOM     12  N   UNL A   1      32.834  21.967  22.729  1.00  0.00    -0.222 NA
ATOM     13  C   UNL A   1      32.585  20.911  23.520  1.00  0.00     0.076 A 
ATOM     14  C   UNL A   1      32.544  21.023  24.912  1.00  0.00     0.034 A 
ATOM     15  C   UNL A   1      32.455  19.646  22.959  1.00  0.00     0.029 A 
ATOM     16  C   UNL A   1      32.600  19.858  25.705  1.00  0.00     0.013 A 
ATOM     17  C   UNL A   1      32.396  18.493  23.748  1.00  0.00     0.002 A 
ATOM     18  C   UNL A   1      32.526  18.597  25.126  1.00  0.00     0.001 A 
BRANCH  10  19
ATOM     19  S   UNL A   1      34.100  24.339  22.850  1.00  0.00    -0.076 SA
BRANCH  19  20
ATOM     20  C   UNL A   1      33.076  25.553  21.888  1.00  0.00     0.178 C 
BRANCH  20  21
ATOM     21  C   UNL A   1      33.268  27.042  22.207  1.00  0.00     0.234 C 
ATOM     22  N   UNL A   1      32.809  27.639  23.349  1.00  0.00    -0.325 N 
ATOM     23  H   UNL A   1      33.181  28.533  23.528  1.00  0.00     0.169 HD
ATOM     24  O   UNL A   1      33.837  27.777  21.388  1.00  0.00    -0.274 OA
BRANCH  22  25
ATOM     25  C   UNL A   1      31.893  27.177  24.304  1.00  0.00     0.044 A 
ATOM     26  C   UNL A   1      33.620  27.400  26.196  1.00  0.00     0.046 C 
ATOM     27  C   UNL A   1      32.294  26.969  25.632  1.00  0.00    -0.027 A 
ATOM     28  C   UNL A   1      31.401  26.318  26.504  1.00  0.00     0.005 A 
ATOM     29  C   UNL A   1      30.141  25.903  26.073  1.00  0.00     0.000 A 
ATOM     30  C   UNL A   1      30.574  26.887  23.930  1.00  0.00     0.026 A 
ATOM     31  C   UNL A   1      29.716  26.209  24.790  1.00  0.00     0.002 A 
ENDBRANCH  22  25
ENDBRANCH  20  21
ENDBRANCH  19  20
ENDBRANCH  10  19
ENDBRANCH   7   9
ENDBRANCH   6   7
ENDBRANCH   5   6
ENDBRANCH   4   5
ENDBRANCH   3   4
ENDBRANCH   2   3
ENDBRANCH   1   2
BRANCH   1  32
ATOM     32  O   UNL A   1      40.124  21.896  27.047  1.00  0.00    -0.377 OA
BRANCH  32  33
ATOM     33  C   UNL A   1      41.032  20.794  27.128  1.00  0.00     0.188 C 
BRANCH  33  34
ATOM     34  C   UNL A   1      40.876  19.599  26.184  1.00  0.00     0.188 C 
BRANCH  34  35
ATOM     35  O   UNL A   1      42.042  19.512  25.370  1.00  0.00    -0.376 OA
BRANCH  35  36
ATOM     36  C   UNL A   1      42.993  18.520  25.756  1.00  0.00     0.202 C 
BRANCH  36  37
ATOM     37  C   UNL A   1      44.277  18.518  24.915  1.00  0.00     0.261 C 
BRANCH  37  38
ATOM     38  O   UNL A   1      45.340  19.153  25.651  1.00  0.00    -0.460 OA
BRANCH  38  39
ATOM     39  C   UNL A   1      45.972  20.159  24.993  1.00  0.00     0.338 C 
ATOM     40  O   UNL A   1      47.130  20.128  24.599  1.00  0.00    -0.246 OA
BRANCH  39  41
ATOM     41  C   UNL A   1      45.155  21.403  25.074  1.00  0.00     0.060 A 
ATOM     42  C   UNL A   1      45.151  22.312  24.003  1.00  0.00     0.016 A 
ATOM     43  C   UNL A   1      44.682  21.805  26.316  1.00  0.00     0.016 A 
ATOM     44  C   UNL A   1      44.834  23.665  24.221  1.00  0.00     0.010 A 
ATOM     45  C   UNL A   1      44.482  23.151  26.544  1.00  0.00     0.010 A 
ATOM     46  C   UNL A   1      44.580  24.110  25.520  1.00  0.00    -0.014 A 
BRANCH  46  47
ATOM     47  C   UNL A   1      44.609  25.513  25.990  1.00  0.00     0.031 A 
ATOM     48  C   UNL A   1      43.315  26.285  26.122  1.00  0.00     0.074 A 
ATOM     49  C   UNL A   1      45.693  25.942  26.688  1.00  0.00     0.049 A 
ATOM     50  N   UNL A   1      43.167  27.376  26.797  1.00  0.00    -0.248 NA
ATOM     51  C   UNL A   1      42.055  25.877  25.498  1.00  0.00     0.031 C 
ATOM     52  C   UNL A   1      45.628  26.824  27.847  1.00  0.00     0.029 A 
ATOM     53  N   UNL A   1      47.061  25.636  26.603  1.00  0.00    -0.354 N 
ATOM     54  C   UNL A   1      41.823  27.625  26.974  1.00  0.00     0.074 A 
ATOM     55  C   UNL A   1      41.177  26.715  26.065  1.00  0.00     0.031 C 
ATOM     56  C   UNL A   1      46.843  27.071  28.333  1.00  0.00     0.029 A 
ATOM     57  C   UNL A   1      47.765  26.620  27.338  1.00  0.00     0.049 A 
ATOM     58  H   UNL A   1      47.458  24.876  26.120  1.00  0.00     0.167 HD
ATOM     59  C   UNL A   1      41.429  28.495  27.954  1.00  0.00     0.037 A 
ATOM     60  C   UNL A   1      48.627  27.508  26.761  1.00  0.00     0.037 A 
ATOM     61  C   UNL A   1      42.563  29.275  28.484  1.00  0.00     0.049 A 
ATOM     62  C   UNL A   1      48.159  28.948  26.886  1.00  0.00     0.074 A 
ATOM     63  C   UNL A   1      42.998  29.605  29.753  1.00  0.00     0.029 A 
ATOM     64  N   UNL A   1      43.537  29.784  27.618  1.00  0.00    -0.354 N 
ATOM     65  N   UNL A   1      46.888  29.270  26.989  1.00  0.00    -0.248 NA
ATOM     66  C   UNL A   1      49.031  30.105  27.061  1.00  0.00     0.031 C 
ATOM     67  C   UNL A   1      44.297  30.179  29.653  1.00  0.00     0.029 A 
ATOM     68  C   UNL A   1      44.588  30.345  28.310  1.00  0.00     0.049 A 
ATOM     69  H   UNL A   1      43.478  29.746  26.637  1.00  0.00     0.167 HD
ATOM     70  C   UNL A   1      46.768  30.591  27.326  1.00  0.00     0.074 A 
ATOM     71  C   UNL A   1      48.137  31.079  27.318  1.00  0.00     0.031 C 
ATOM     72  C   UNL A   1      45.576  31.181  27.646  1.00  0.00     0.037 A 
BRANCH  59  73
ATOM     73  C   UNL A   1      40.032  28.553  28.592  1.00  0.00     0.064 A 
ATOM     74  C   UNL A   1      38.960  29.222  27.946  1.00  0.00     0.173 A 
ATOM     75  C   UNL A   1      39.708  28.088  29.886  1.00  0.00     0.173 A 
ATOM     76  F   UNL A   1      39.080  29.683  26.693  1.00  0.00    -0.203 F 
ATOM     77  C   UNL A   1      37.713  29.441  28.552  1.00  0.00     0.198 A 
ATOM     78  C   UNL A   1      38.436  28.237  30.460  1.00  0.00     0.198 A 
ATOM     79  F   UNL A   1      40.616  27.513  30.680  1.00  0.00    -0.203 F 
ATOM     80  F   UNL A   1      36.769  30.145  27.910  1.00  0.00    -0.200 F 
ATOM     81  C   UNL A   1      37.445  28.935  29.806  1.00  0.00     0.200 A 
ATOM     82  F   UNL A   1      38.190  27.715  31.671  1.00  0.00    -0.200 F 
ATOM     83  F   UNL A   1      36.247  29.116  30.379  1.00  0.00    -0.200 F 
ENDBRANCH  59  73
BRANCH  60  84
ATOM     84  C   UNL A   1      49.596  26.826  25.858  1.00  0.00     0.064 A 
ATOM     85  C   UNL A   1      49.499  27.290  24.526  1.00  0.00     0.173 A 
ATOM     86  C   UNL A   1      50.883  26.553  26.350  1.00  0.00     0.173 A 
ATOM     87  F   UNL A   1      48.288  27.525  23.994  1.00  0.00    -0.203 F 
ATOM     88  C   UNL A   1      50.621  27.778  23.860  1.00  0.00     0.198 A 
ATOM     89  C   UNL A   1      52.010  27.021  25.665  1.00  0.00     0.198 A 
ATOM     90  F   UNL A   1      51.039  26.059  27.587  1.00  0.00    -0.203 F 
ATOM     91  F   UNL A   1      50.471  28.468  22.720  1.00  0.00    -0.200 F 
ATOM     92  C   UNL A   1      51.868  27.697  24.459  1.00  0.00     0.200 A 
ATOM     93  F   UNL A   1      53.218  26.962  26.244  1.00  0.00    -0.200 F 
ATOM     94  F   UNL A   1      52.913  28.340  23.918  1.00  0.00    -0.200 F 
ENDBRANCH  60  84
BRANCH  72  95
ATOM     95  C   UNL A   1      45.206  32.645  27.456  1.00  0.00     0.064 A 
ATOM     96  C   UNL A   1      45.820  33.698  28.149  1.00  0.00     0.173 A 
ATOM     97  C   UNL A   1      44.367  33.053  26.378  1.00  0.00     0.173 A 
ATOM     98  F   UNL A   1      46.701  33.476  29.130  1.00  0.00    -0.203 F 
ATOM     99  C   UNL A   1      45.600  35.038  27.810  1.00  0.00     0.198 A 
ATOM    100  C   UNL A   1      44.187  34.384  26.015  1.00  0.00     0.198 A 
ATOM    101  F   UNL A   1      43.731  32.179  25.588  1.00  0.00    -0.203 F 
ATOM    102  F   UNL A   1      46.211  36.001  28.512  1.00  0.00    -0.200 F 
ATOM    103  C   UNL A   1      44.801  35.380  26.735  1.00  0.00     0.200 A 
ATOM    104  F   UNL A   1      43.446  34.687  24.939  1.00  0.00    -0.200 F 
ATOM    105  F   UNL A   1      44.649  36.661  26.379  1.00  0.00    -0.200 F 
ENDBRANCH  72  95
ENDBRANCH  46  47
ENDBRANCH  39  41
ENDBRANCH  38  39
ENDBRANCH  37  38
ENDBRANCH  36  37
ENDBRANCH  35  36
ENDBRANCH  34  35
ENDBRANCH  33  34
ENDBRANCH  32  33
ENDBRANCH   1  32
TORSDOF 24
ENDMDL
MODEL 2
REMARK VINA RESULT:     -11.1      1.077      2.071
REMARK SMILES Cc1ccccc1NC(=O)CSc1nc(C(=O)OCCOCCOCCOCCOC(=O)c2ccc(-c3c4nc(c(-c5c(F)c(F)c(F)c(F)c5F)c5ccc([nH]5)c(-c5c(F)c(F)c(F)c(F)c5F)c5nc(c(-c6c(F)c(F)c(F)c(F)c6F)c6ccc3[nH]6)C=C5)C=C4)cc2)c2ccccc2n1
REMARK SMILES IDX 23 1 22 2 21 3 20 4 19 5 18 6 16 7 17 8 15 9 13 10 14 11
REMARK SMILES IDX 102 12 101 13 96 14 100 15 97 16 99 17 98 18 12 19 11 20
REMARK SMILES IDX 9 21 8 22 10 24 7 25 1 26 2 27 3 28 4 29 6 30 5 31 24 32
REMARK SMILES IDX 25 33 26 34 27 35 28 36 29 37 30 38 31 39 32 40 33 41 34 42
REMARK SMILES IDX 95 43 35 44 94 45 36 46 37 47 38 48 88 49 39 50 93 51 87 52
REMARK SMILES IDX 89 53 40 54 92 55 86 56 85 57 41 59 73 60 53 61 72 62 54 63
REMARK SMILES IDX 57 64 71 65 90 66 55 67 56 68 70 70 91 71 58 72 42 73 43 74
REMARK SMILES IDX 51 75 44 76 45 77 49 78 52 79 46 80 47 81 50 82 48 83 74 84
REMARK SMILES IDX 75 85 83 86 76 87 77 88 81 89 84 90 78 91 79 92 82 93 80 94
REMARK SMILES IDX 59 95 60 96 68 97 61 98 62 99 66 100 69 101 63 102 64 103
REMARK SMILES IDX 67 104 65 105
REMARK H PARENT 8 23 89 58 57 69
REMARK Flexibility Score: inf
ROOT
ATOM      1  C   UNL A   1      39.080  22.615  26.777  1.00  0.00     0.188 C 
ENDROOT
BRANCH   1   2
ATOM      2  C   UNL A   1      38.087  23.586  26.124  1.00  0.00     0.188 C 
BRANCH   2   3
ATOM      3  O   UNL A   1      37.017  23.015  25.378  1.00  0.00    -0.376 OA
BRANCH   3   4
ATOM      4  C   UNL A   1      35.901  23.872  25.124  1.00  0.00     0.202 C 
BRANCH   4   5
ATOM      5  C   UNL A   1      34.782  23.780  26.155  1.00  0.00     0.261 C 
BRANCH   5   6
ATOM      6  O   UNL A   1      34.305  22.421  26.208  1.00  0.00    -0.458 OA
BRANCH   6   7
ATOM      7  C   UNL A   1      32.959  22.326  26.232  1.00  0.00     0.357 C 
ATOM      8  O   UNL A   1      32.197  23.060  26.840  1.00  0.00    -0.244 OA
BRANCH   7   9
ATOM      9  C   UNL A   1      32.495  21.585  25.044  1.00  0.00     0.160 A 
ATOM     10  C   UNL A   1      32.259  22.127  22.885  1.00  0.00     0.189 A 
ATOM     11  N   UNL A   1      32.122  22.487  24.134  1.00  0.00    -0.215 NA
ATOM     12  N   UNL A   1      32.227  20.856  22.482  1.00  0.00    -0.222 NA
ATOM     13  C   UNL A   1      32.310  19.915  23.437  1.00  0.00     0.076 A 
ATOM     14  C   UNL A   1      32.615  20.231  24.762  1.00  0.00     0.034 A 
ATOM     15  C   UNL A   1      32.185  18.574  23.093  1.00  0.00     0.029 A 
ATOM     16  C   UNL A   1      33.002  19.206  25.650  1.00  0.00     0.013 A 
ATOM     17  C   UNL A   1      32.462  17.552  24.006  1.00  0.00     0.002 A 
ATOM     18  C   UNL A   1      32.927  17.870  25.274  1.00  0.00     0.001 A 
BRANCH  10  19
ATOM     19  S   UNL A   1      33.205  23.309  21.961  1.00  0.00    -0.076 SA
BRANCH  19  20
ATOM     20  C   UNL A   1      33.119  24.771  23.102  1.00  0.00     0.178 C 
BRANCH  20  21
ATOM     21  C   UNL A   1      33.366  26.156  22.490  1.00  0.00     0.234 C 
ATOM     22  N   UNL A   1      33.397  27.313  23.217  1.00  0.00    -0.325 N 
ATOM     23  H   UNL A   1      33.774  28.090  22.745  1.00  0.00     0.169 HD
ATOM     24  O   UNL A   1      33.517  26.267  21.265  1.00  0.00    -0.274 OA
BRANCH  22  25
ATOM     25  C   UNL A   1      32.975  27.566  24.530  1.00  0.00     0.044 A 
ATOM     26  C   UNL A   1      30.527  27.829  23.786  1.00  0.00     0.046 C 
ATOM     27  C   UNL A   1      31.640  27.907  24.796  1.00  0.00    -0.027 A 
ATOM     28  C   UNL A   1      31.308  28.346  26.091  1.00  0.00     0.005 A 
ATOM     29  C   UNL A   1      32.273  28.428  27.097  1.00  0.00     0.000 A 
ATOM     30  C   UNL A   1      33.895  27.513  25.587  1.00  0.00     0.026 A 
ATOM     31  C   UNL A   1      33.563  27.988  26.852  1.00  0.00     0.002 A 
ENDBRANCH  22  25
ENDBRANCH  20  21
ENDBRANCH  19  20
ENDBRANCH  10  19
ENDBRANCH   7   9
ENDBRANCH   6   7
ENDBRANCH   5   6
ENDBRANCH   4   5
ENDBRANCH   3   4
ENDBRANCH   2   3
ENDBRANCH   1   2
BRANCH   1  32
ATOM     32  O   UNL A   1      40.451  22.844  26.485  1.00  0.00    -0.377 OA
BRANCH  32  33
ATOM     33  C   UNL A   1      41.353  21.735  26.442  1.00  0.00     0.188 C 
BRANCH  33  34
ATOM     34  C   UNL A   1      40.819  20.319  26.220  1.00  0.00     0.188 C 
BRANCH  34  35
ATOM     35  O   UNL A   1      41.745  19.610  25.400  1.00  0.00    -0.376 OA
BRANCH  35  36
ATOM     36  C   UNL A   1      42.979  19.257  26.023  1.00  0.00     0.202 C 
BRANCH  36  37
ATOM     37  C   UNL A   1      44.055  18.757  25.050  1.00  0.00     0.261 C 
BRANCH  37  38
ATOM     38  O   UNL A   1      45.176  19.661  25.058  1.00  0.00    -0.460 OA
BRANCH  38  39
ATOM     39  C   UNL A   1      44.974  20.832  24.401  1.00  0.00     0.338 C 
ATOM     40  O   UNL A   1      44.552  20.936  23.257  1.00  0.00    -0.246 OA
BRANCH  39  41
ATOM     41  C   UNL A   1      45.606  21.949  25.158  1.00  0.00     0.060 A 
ATOM     42  C   UNL A   1      45.241  22.187  26.494  1.00  0.00     0.016 A 
ATOM     43  C   UNL A   1      46.287  22.929  24.449  1.00  0.00     0.016 A 
ATOM     44  C   UNL A   1      45.407  23.465  27.058  1.00  0.00     0.010 A 
ATOM     45  C   UNL A   1      46.344  24.205  24.970  1.00  0.00     0.010 A 
ATOM     46  C   UNL A   1      45.883  24.510  26.263  1.00  0.00    -0.014 A 
BRANCH  46  47
ATOM     47  C   UNL A   1      45.766  25.957  26.551  1.00  0.00     0.031 A 
ATOM     48  C   UNL A   1      44.401  26.607  26.578  1.00  0.00     0.074 A 
ATOM     49  C   UNL A   1      46.791  26.576  27.193  1.00  0.00     0.049 A 
ATOM     50  N   UNL A   1      44.135  27.755  27.108  1.00  0.00    -0.248 NA
ATOM     51  C   UNL A   1      43.198  26.001  26.004  1.00  0.00     0.031 C 
ATOM     52  C   UNL A   1      46.620  27.587  28.230  1.00  0.00     0.029 A 
ATOM     53  N   UNL A   1      48.184  26.399  27.154  1.00  0.00    -0.354 N 
ATOM     54  C   UNL A   1      42.770  27.888  27.245  1.00  0.00     0.074 A 
ATOM     55  C   UNL A   1      42.232  26.812  26.456  1.00  0.00     0.031 C 
ATOM     56  C   UNL A   1      47.796  28.012  28.687  1.00  0.00     0.029 A 
ATOM     57  C   UNL A   1      48.775  27.533  27.762  1.00  0.00     0.049 A 
ATOM     58  H   UNL A   1      48.662  25.628  26.774  1.00  0.00     0.167 HD
ATOM     59  C   UNL A   1      42.276  28.832  28.105  1.00  0.00     0.037 A 
ATOM     60  C   UNL A   1      49.556  28.422  27.080  1.00  0.00     0.037 A 
ATOM     61  C   UNL A   1      43.319  29.781  28.536  1.00  0.00     0.049 A 
ATOM     62  C   UNL A   1      48.947  29.813  27.018  1.00  0.00     0.074 A 
ATOM     63  C   UNL A   1      43.698  30.310  29.755  1.00  0.00     0.029 A 
ATOM     64  N   UNL A   1      44.253  30.272  27.617  1.00  0.00    -0.354 N 
ATOM     65  N   UNL A   1      47.649  30.018  27.074  1.00  0.00    -0.248 NA
ATOM     66  C   UNL A   1      49.698  31.063  27.049  1.00  0.00     0.031 C 
ATOM     67  C   UNL A   1      44.936  30.993  29.589  1.00  0.00     0.029 A 
ATOM     68  C   UNL A   1      45.232  31.017  28.237  1.00  0.00     0.049 A 
ATOM     69  H   UNL A   1      44.215  30.104  26.648  1.00  0.00     0.167 HD
ATOM     70  C   UNL A   1      47.394  31.353  27.239  1.00  0.00     0.074 A 
ATOM     71  C   UNL A   1      48.708  31.969  27.176  1.00  0.00     0.031 C 
ATOM     72  C   UNL A   1      46.144  31.856  27.476  1.00  0.00     0.037 A 
BRANCH  59  73
ATOM     73  C   UNL A   1      40.869  28.831  28.723  1.00  0.00     0.064 A 
ATOM     74  C   UNL A   1      40.650  28.359  30.043  1.00  0.00     0.173 A 
ATOM     75  C   UNL A   1      39.679  29.159  28.036  1.00  0.00     0.173 A 
ATOM     76  F   UNL A   1      41.672  28.051  30.852  1.00  0.00    -0.203 F 
ATOM     77  C   UNL A   1      39.370  28.190  30.597  1.00  0.00     0.198 A 
ATOM     78  C   UNL A   1      38.405  29.065  28.618  1.00  0.00     0.198 A 
ATOM     79  F   UNL A   1      39.681  29.536  26.754  1.00  0.00    -0.203 F 
ATOM     80  F   UNL A   1      39.235  27.669  31.825  1.00  0.00    -0.200 F 
ATOM     81  C   UNL A   1      38.247  28.557  29.889  1.00  0.00     0.200 A 
ATOM     82  F   UNL A   1      37.327  29.451  27.920  1.00  0.00    -0.200 F 
ATOM     83  F   UNL A   1      37.025  28.424  30.422  1.00  0.00    -0.200 F 
ENDBRANCH  59  73
BRANCH  60  84
ATOM     84  C   UNL A   1      50.603  27.732  26.276  1.00  0.00     0.064 A 
ATOM     85  C   UNL A   1      50.359  27.834  24.887  1.00  0.00     0.173 A 
ATOM     86  C   UNL A   1      51.937  27.827  26.702  1.00  0.00     0.173 A 
ATOM     87  F   UNL A   1      49.105  27.707  24.424  1.00  0.00    -0.203 F 
ATOM     88  C   UNL A   1      51.333  28.343  24.030  1.00  0.00     0.198 A 
ATOM     89  C   UNL A   1      52.919  28.313  25.831  1.00  0.00     0.198 A 
ATOM     90  F   UNL A   1      52.241  27.683  28.000  1.00  0.00    -0.203 F 
ATOM     91  F   UNL A   1      51.001  28.697  22.780  1.00  0.00    -0.200 F 
ATOM     92  C   UNL A   1      52.595  28.639  24.519  1.00  0.00     0.200 A 
ATOM     93  F   UNL A   1      54.138  28.618  26.300  1.00  0.00    -0.200 F 
ATOM     94  F   UNL A   1      53.467  29.313  23.756  1.00  0.00    -0.200 F 
ENDBRANCH  60  84
BRANCH  72  95
ATOM     95  C   UNL A   1      45.636  33.241  27.100  1.00  0.00     0.064 A 
ATOM     96  C   UNL A   1      44.642  33.469  26.138  1.00  0.00     0.173 A 
ATOM     97  C   UNL A   1      45.979  34.382  27.883  1.00  0.00     0.173 A 
ATOM     98  F   UNL A   1      44.151  32.480  25.385  1.00  0.00    -0.203 F 
ATOM     99  C   UNL A   1      44.058  34.728  25.959  1.00  0.00     0.198 A 
ATOM    100  C   UNL A   1      45.364  35.621  27.732  1.00  0.00     0.198 A 
ATOM    101  F   UNL A   1      46.883  34.335  28.869  1.00  0.00    -0.203 F 
ATOM    102  F   UNL A   1      43.116  34.887  25.021  1.00  0.00    -0.200 F 
ATOM    103  C   UNL A   1      44.403  35.796  26.765  1.00  0.00     0.200 A 
ATOM    104  F   UNL A   1      45.682  36.628  28.559  1.00  0.00    -0.200 F 
ATOM    105  F   UNL A   1      43.792  36.979  26.629  1.00  0.00    -0.200 F 
ENDBRANCH  72  95
ENDBRANCH  46  47
ENDBRANCH  39  41
ENDBRANCH  38  39
ENDBRANCH  37  38
ENDBRANCH  36  37
ENDBRANCH  35  36
ENDBRANCH  34  35
ENDBRANCH  33  34
ENDBRANCH  32  33
ENDBRANCH   1  32
TORSDOF 24
ENDMDL
MODEL 3
REMARK VINA RESULT:     -10.9      5.994     11.611
REMARK SMILES Cc1ccccc1NC(=O)CSc1nc(C(=O)OCCOCCOCCOCCOC(=O)c2ccc(-c3c4nc(c(-c5c(F)c(F)c(F)c(F)c5F)c5ccc([nH]5)c(-c5c(F)c(F)c(F)c(F)c5F)c5nc(c(-c6c(F)c(F)c(F)c(F)c6F)c6ccc3[nH]6)C=C5)C=C4)cc2)c2ccccc2n1
REMARK SMILES IDX 23 1 22 2 21 3 20 4 19 5 18 6 16 7 17 8 15 9 13 10 14 11
REMARK SMILES IDX 102 12 101 13 96 14 100 15 97 16 99 17 98 18 12 19 11 20
REMARK SMILES IDX 9 21 8 22 10 24 7 25 1 26 2 27 3 28 4 29 6 30 5 31 24 32
REMARK SMILES IDX 25 33 26 34 27 35 28 36 29 37 30 38 31 39 32 40 33 41 34 42
REMARK SMILES IDX 95 43 35 44 94 45 36 46 37 47 38 48 88 49 39 50 93 51 87 52
REMARK SMILES IDX 89 53 40 54 92 55 86 56 85 57 41 59 73 60 53 61 72 62 54 63
REMARK SMILES IDX 57 64 71 65 90 66 55 67 56 68 70 70 91 71 58 72 42 73 43 74
REMARK SMILES IDX 51 75 44 76 45 77 49 78 52 79 46 80 47 81 50 82 48 83 74 84
REMARK SMILES IDX 75 85 83 86 76 87 77 88 81 89 84 90 78 91 79 92 82 93 80 94
REMARK SMILES IDX 59 95 60 96 68 97 61 98 62 99 66 100 69 101 63 102 64 103
REMARK SMILES IDX 67 104 65 105
REMARK H PARENT 8 23 89 58 57 69
REMARK Flexibility Score: inf
ROOT
ATOM      1  C   UNL A   1      34.753  31.305  27.992  1.00  0.00     0.188 C 
ENDROOT
BRANCH   1   2
ATOM      2  C   UNL A   1      34.309  30.061  27.212  1.00  0.00     0.188 C 
BRANCH   2   3
ATOM      3  O   UNL A   1      32.908  29.825  27.109  1.00  0.00    -0.376 OA
BRANCH   3   4
ATOM      4  C   UNL A   1      32.519  28.676  26.354  1.00  0.00     0.202 C 
BRANCH   4   5
ATOM      5  C   UNL A   1      33.620  28.088  25.479  1.00  0.00     0.261 C 
BRANCH   5   6
ATOM      6  O   UNL A   1      33.117  26.908  24.823  1.00  0.00    -0.458 OA
BRANCH   6   7
ATOM      7  C   UNL A   1      32.753  27.120  23.541  1.00  0.00     0.357 C 
ATOM      8  O   UNL A   1      33.463  26.976  22.559  1.00  0.00    -0.244 OA
BRANCH   7   9
ATOM      9  C   UNL A   1      31.286  27.029  23.422  1.00  0.00     0.160 A 
ATOM     10  C   UNL A   1      29.720  25.860  24.513  1.00  0.00     0.189 A 
ATOM     11  N   UNL A   1      30.912  25.876  23.978  1.00  0.00    -0.215 NA
ATOM     12  N   UNL A   1      28.726  26.653  24.109  1.00  0.00    -0.222 NA
ATOM     13  C   UNL A   1      29.053  27.669  23.295  1.00  0.00     0.076 A 
ATOM     14  C   UNL A   1      30.383  28.011  23.038  1.00  0.00     0.034 A 
ATOM     15  C   UNL A   1      28.053  28.472  22.761  1.00  0.00     0.029 A 
ATOM     16  C   UNL A   1      30.678  29.258  22.448  1.00  0.00     0.013 A 
ATOM     17  C   UNL A   1      28.347  29.656  22.076  1.00  0.00     0.002 A 
ATOM     18  C   UNL A   1      29.664  30.078  21.969  1.00  0.00     0.001 A 
BRANCH  10  19
ATOM     19  S   UNL A   1      29.764  25.311  26.200  1.00  0.00    -0.076 SA
BRANCH  19  20
ATOM     20  C   UNL A   1      31.254  24.205  26.152  1.00  0.00     0.178 C 
BRANCH  20  21
ATOM     21  C   UNL A   1      31.009  22.703  25.956  1.00  0.00     0.234 C 
ATOM     22  N   UNL A   1      31.870  21.874  25.294  1.00  0.00    -0.325 N 
ATOM     23  H   UNL A   1      31.704  20.912  25.426  1.00  0.00     0.169 HD
ATOM     24  O   UNL A   1      29.963  22.192  26.381  1.00  0.00    -0.274 OA
BRANCH  22  25
ATOM     25  C   UNL A   1      32.953  22.177  24.457  1.00  0.00     0.044 A 
ATOM     26  C   UNL A   1      34.648  21.344  26.203  1.00  0.00     0.046 C 
ATOM     27  C   UNL A   1      34.271  22.022  24.914  1.00  0.00    -0.027 A 
ATOM     28  C   UNL A   1      35.317  22.525  24.119  1.00  0.00     0.005 A 
ATOM     29  C   UNL A   1      35.061  23.150  22.897  1.00  0.00     0.000 A 
ATOM     30  C   UNL A   1      32.727  22.672  23.166  1.00  0.00     0.026 A 
ATOM     31  C   UNL A   1      33.767  23.202  22.408  1.00  0.00     0.002 A 
ENDBRANCH  22  25
ENDBRANCH  20  21
ENDBRANCH  19  20
ENDBRANCH  10  19
ENDBRANCH   7   9
ENDBRANCH   6   7
ENDBRANCH   5   6
ENDBRANCH   4   5
ENDBRANCH   3   4
ENDBRANCH   2   3
ENDBRANCH   1   2
BRANCH   1  32
ATOM     32  O   UNL A   1      33.714  32.181  28.403  1.00  0.00    -0.377 OA
BRANCH  32  33
ATOM     33  C   UNL A   1      33.765  33.558  28.019  1.00  0.00     0.188 C 
BRANCH  33  34
ATOM     34  C   UNL A   1      34.799  34.493  28.649  1.00  0.00     0.188 C 
BRANCH  34  35
ATOM     35  O   UNL A   1      34.130  35.670  29.097  1.00  0.00    -0.376 OA
BRANCH  35  36
ATOM     36  C   UNL A   1      32.881  35.459  29.754  1.00  0.00     0.202 C 
BRANCH  36  37
ATOM     37  C   UNL A   1      32.790  36.091  31.149  1.00  0.00     0.261 C 
BRANCH  37  38
ATOM     38  O   UNL A   1      34.022  35.871  31.862  1.00  0.00    -0.460 OA
BRANCH  38  39
ATOM     39  C   UNL A   1      34.104  34.682  32.515  1.00  0.00     0.338 C 
ATOM     40  O   UNL A   1      33.151  34.032  32.921  1.00  0.00    -0.246 OA
BRANCH  39  41
ATOM     41  C   UNL A   1      35.516  34.427  32.917  1.00  0.00     0.060 A 
ATOM     42  C   UNL A   1      36.551  34.566  31.977  1.00  0.00     0.016 A 
ATOM     43  C   UNL A   1      35.754  33.744  34.102  1.00  0.00     0.016 A 
ATOM     44  C   UNL A   1      37.764  33.876  32.151  1.00  0.00     0.010 A 
ATOM     45  C   UNL A   1      36.900  32.984  34.210  1.00  0.00     0.010 A 
ATOM     46  C   UNL A   1      37.912  33.007  33.234  1.00  0.00    -0.014 A 
BRANCH  46  47
ATOM     47  C   UNL A   1      38.926  31.938  33.371  1.00  0.00     0.031 A 
ATOM     48  C   UNL A   1      38.820  30.692  32.520  1.00  0.00     0.074 A 
ATOM     49  C   UNL A   1      40.132  32.253  33.911  1.00  0.00     0.049 A 
ATOM     50  N   UNL A   1      39.777  29.848  32.316  1.00  0.00    -0.248 NA
ATOM     51  C   UNL A   1      37.605  30.291  31.809  1.00  0.00     0.031 C 
ATOM     52  C   UNL A   1      41.408  31.735  33.430  1.00  0.00     0.029 A 
ATOM     53  N   UNL A   1      40.518  33.150  34.920  1.00  0.00    -0.354 N 
ATOM     54  C   UNL A   1      39.447  29.032  31.256  1.00  0.00     0.074 A 
ATOM     55  C   UNL A   1      38.048  29.287  31.040  1.00  0.00     0.031 C 
ATOM     56  C   UNL A   1      42.423  32.220  34.143  1.00  0.00     0.029 A 
ATOM     57  C   UNL A   1      41.840  32.821  35.302  1.00  0.00     0.049 A 
ATOM     58  H   UNL A   1      39.968  33.876  35.294  1.00  0.00     0.167 HD
ATOM     59  C   UNL A   1      40.436  28.327  30.625  1.00  0.00     0.037 A 
ATOM     60  C   UNL A   1      42.164  32.352  36.543  1.00  0.00     0.037 A 
ATOM     61  C   UNL A   1      41.692  28.330  31.398  1.00  0.00     0.049 A 
ATOM     62  C   UNL A   1      42.711  30.935  36.513  1.00  0.00     0.074 A 
ATOM     63  C   UNL A   1      43.019  28.546  31.083  1.00  0.00     0.029 A 
ATOM     64  N   UNL A   1      41.667  28.171  32.788  1.00  0.00    -0.354 N 
ATOM     65  N   UNL A   1      42.389  30.074  35.571  1.00  0.00    -0.248 NA
ATOM     66  C   UNL A   1      43.747  30.413  37.397  1.00  0.00     0.031 C 
ATOM     67  C   UNL A   1      43.761  28.661  32.292  1.00  0.00     0.029 A 
ATOM     68  C   UNL A   1      42.914  28.356  33.343  1.00  0.00     0.049 A 
ATOM     69  H   UNL A   1      40.858  27.953  33.305  1.00  0.00     0.167 HD
ATOM     70  C   UNL A   1      43.198  28.973  35.650  1.00  0.00     0.074 A 
ATOM     71  C   UNL A   1      44.003  29.215  36.835  1.00  0.00     0.031 C 
ATOM     72  C   UNL A   1      43.200  27.972  34.716  1.00  0.00     0.037 A 
BRANCH  59  73
ATOM     73  C   UNL A   1      40.357  27.750  29.202  1.00  0.00     0.064 A 
ATOM     74  C   UNL A   1      39.670  26.536  28.942  1.00  0.00     0.173 A 
ATOM     75  C   UNL A   1      41.038  28.266  28.077  1.00  0.00     0.173 A 
ATOM     76  F   UNL A   1      38.932  25.937  29.886  1.00  0.00    -0.203 F 
ATOM     77  C   UNL A   1      39.701  25.887  27.697  1.00  0.00     0.198 A 
ATOM     78  C   UNL A   1      41.003  27.657  26.813  1.00  0.00     0.198 A 
ATOM     79  F   UNL A   1      41.812  29.352  28.153  1.00  0.00    -0.203 F 
ATOM     80  F   UNL A   1      39.088  24.704  27.543  1.00  0.00    -0.200 F 
ATOM     81  C   UNL A   1      40.356  26.455  26.627  1.00  0.00     0.200 A 
ATOM     82  F   UNL A   1      41.627  28.240  25.779  1.00  0.00    -0.200 F 
ATOM     83  F   UNL A   1      40.366  25.853  25.429  1.00  0.00    -0.200 F 
ENDBRANCH  59  73
BRANCH  60  84
ATOM     84  C   UNL A   1      41.569  33.191  37.620  1.00  0.00     0.064 A 
ATOM     85  C   UNL A   1      42.247  34.423  37.772  1.00  0.00     0.173 A 
ATOM     86  C   UNL A   1      40.171  33.209  37.752  1.00  0.00     0.173 A 
ATOM     87  F   UNL A   1      43.588  34.452  37.697  1.00  0.00    -0.203 F 
ATOM     88  C   UNL A   1      41.553  35.629  37.708  1.00  0.00     0.198 A 
ATOM     89  C   UNL A   1      39.478  34.424  37.715  1.00  0.00     0.198 A 
ATOM     90  F   UNL A   1      39.474  32.066  37.674  1.00  0.00    -0.203 F 
ATOM     91  F   UNL A   1      42.229  36.779  37.570  1.00  0.00    -0.200 F 
ATOM     92  C   UNL A   1      40.171  35.625  37.618  1.00  0.00     0.200 A 
ATOM     93  F   UNL A   1      38.141  34.429  37.610  1.00  0.00    -0.200 F 
ATOM     94  F   UNL A   1      39.514  36.764  37.354  1.00  0.00    -0.200 F 
ENDBRANCH  60  84
BRANCH  72  95
ATOM     95  C   UNL A   1      43.555  26.511  34.951  1.00  0.00     0.064 A 
ATOM     96  C   UNL A   1      42.603  25.489  35.069  1.00  0.00     0.173 A 
ATOM     97  C   UNL A   1      44.901  26.058  34.828  1.00  0.00     0.173 A 
ATOM     98  F   UNL A   1      41.292  25.749  35.106  1.00  0.00    -0.203 F 
ATOM     99  C   UNL A   1      42.964  24.137  35.083  1.00  0.00     0.198 A 
ATOM    100  C   UNL A   1      45.251  24.711  34.797  1.00  0.00     0.198 A 
ATOM    101  F   UNL A   1      45.934  26.896  34.671  1.00  0.00    -0.203 F 
ATOM    102  F   UNL A   1      42.009  23.205  35.203  1.00  0.00    -0.200 F 
ATOM    103  C   UNL A   1      44.280  23.748  34.929  1.00  0.00     0.200 A 
ATOM    104  F   UNL A   1      46.529  24.360  34.597  1.00  0.00    -0.200 F 
ATOM    105  F   UNL A   1      44.607  22.451  34.879  1.00  0.00    -0.200 F 
ENDBRANCH  72  95
ENDBRANCH  46  47
ENDBRANCH  39  41
ENDBRANCH  38  39
ENDBRANCH  37  38
ENDBRANCH  36  37
ENDBRANCH  35  36
ENDBRANCH  34  35
ENDBRANCH  33  34
ENDBRANCH  32  33
ENDBRANCH   1  32
TORSDOF 24
ENDMDL
