MODEL 1
REMARK VINA RESULT:     -11.1      0.000      0.000
REMARK SMILES CCC[N@@H+]1CC2(CC[NH+](C(=O)Cn3nnnc3C)CC2)C[C@H]1C(=O)OCCOCCOCCOCCOC(=O)c1ccc(-c2c3nc(c(-c4c(F)c(F)c(F)c(F)c4F)c4ccc([nH]4)c(-c4c(F)c(F)c(F)c(F)c4F)c4nc(c(-c5c(F)c(F)c(F)c(F)c5F)c5ccc2[nH]5)C=C4)C=C3)cc1
REMARK SMILES IDX 30 1 29 2 28 3 27 4 26 5 25 6 23 7 24 8 22 9 4 10 5 11 6 13
REMARK SMILES IDX 21 14 7 15 20 16 8 17 19 18 9 19 3 21 2 22 1 23 10 24 11 25
REMARK SMILES IDX 12 26 13 27 14 28 17 29 15 30 16 31 18 32 31 33 32 34 33 35
REMARK SMILES IDX 34 36 35 37 36 38 37 39 38 40 39 41 40 42 41 43 102 44 42 45
REMARK SMILES IDX 101 46 43 47 44 48 45 49 95 50 46 51 100 52 94 53 96 54
REMARK SMILES IDX 47 55 99 56 93 57 92 58 48 60 80 61 60 62 79 63 61 64 64 65
REMARK SMILES IDX 78 66 97 67 62 68 63 69 77 71 98 72 65 73 49 74 50 75 58 76
REMARK SMILES IDX 51 77 52 78 56 79 59 80 53 81 54 82 57 83 55 84 81 85 82 86
REMARK SMILES IDX 90 87 83 88 84 89 88 90 91 91 85 92 86 93 89 94 87 95 66 96
REMARK SMILES IDX 67 97 75 98 68 99 69 100 73 101 76 102 70 103 71 104 74 105
REMARK SMILES IDX 72 106
REMARK H PARENT 4 12 9 20 96 59 64 70
REMARK Flexibility Score: inf
ROOT
ATOM      1  C   UNL A   1      41.448  19.537  26.476  1.00  0.00     0.188 C 
ENDROOT
BRANCH   1   2
ATOM      2  C   UNL A   1      40.021  20.060  26.193  1.00  0.00     0.188 C 
BRANCH   2   3
ATOM      3  O   UNL A   1      39.287  19.646  25.043  1.00  0.00    -0.376 OA
BRANCH   3   4
ATOM      4  C   UNL A   1      38.007  20.192  24.772  1.00  0.00     0.202 C 
BRANCH   4   5
ATOM      5  C   UNL A   1      37.478  21.361  25.616  1.00  0.00     0.261 C 
BRANCH   5   6
ATOM      6  O   UNL A   1      37.354  22.613  24.926  1.00  0.00    -0.459 OA
BRANCH   6   7
ATOM      7  C   UNL A   1      36.458  22.646  23.910  1.00  0.00     0.365 C 
ATOM      8  O   UNL A   1      36.717  23.058  22.780  1.00  0.00    -0.245 OA
BRANCH   7   9
ATOM      9  C   UNL A   1      35.041  22.164  24.284  1.00  0.00     0.295 C 
ATOM     10  N   UNL A   1      34.482  22.653  25.579  1.00  0.00    -0.323 N 
ATOM     11  C   UNL A   1      33.921  23.974  25.292  1.00  0.00     0.270 C 
ATOM     12  H   UNL A   1      35.215  22.702  26.285  1.00  0.00     0.348 HD
ATOM     13  C   UNL A   1      33.507  23.978  23.808  1.00  0.00     0.036 C 
ATOM     14  C   UNL A   1      34.085  22.675  23.228  1.00  0.00     0.091 C 
ATOM     15  C   UNL A   1      34.094  25.231  23.119  1.00  0.00     0.075 C 
ATOM     16  C   UNL A   1      31.974  23.954  23.620  1.00  0.00     0.075 C 
ATOM     17  C   UNL A   1      33.391  26.500  23.595  1.00  0.00     0.271 C 
ATOM     18  C   UNL A   1      31.309  25.257  24.038  1.00  0.00     0.271 C 
ATOM     19  N   UNL A   1      31.949  26.382  23.369  1.00  0.00    -0.270 N 
ATOM     20  H   UNL A   1      31.343  27.121  23.129  1.00  0.00     0.356 HD
BRANCH  10  21
ATOM     21  C   UNL A   1      33.500  21.739  26.184  1.00  0.00     0.262 C 
BRANCH  21  22
ATOM     22  C   UNL A   1      33.566  20.275  25.689  1.00  0.00     0.058 C 
ATOM     23  C   UNL A   1      32.468  19.807  24.742  1.00  0.00     0.010 C 
ENDBRANCH  21  22
ENDBRANCH  10  21
BRANCH  19  24
ATOM     24  C   UNL A   1      31.166  27.255  22.628  1.00  0.00     0.333 C 
ATOM     25  O   UNL A   1      30.980  27.103  21.417  1.00  0.00    -0.229 OA
BRANCH  24  26
ATOM     26  C   UNL A   1      30.599  28.476  23.309  1.00  0.00     0.293 C 
BRANCH  26  27
ATOM     27  N   UNL A   1      29.161  28.596  23.227  1.00  0.00    -0.216 N 
ATOM     28  N   UNL A   1      28.331  27.554  23.413  1.00  0.00    -0.044 NA
ATOM     29  C   UNL A   1      28.425  29.742  23.072  1.00  0.00     0.149 A 
ATOM     30  N   UNL A   1      27.112  28.068  23.394  1.00  0.00    -0.024 NA
ATOM     31  N   UNL A   1      27.152  29.422  23.186  1.00  0.00    -0.114 NA
ATOM     32  C   UNL A   1      28.979  31.088  22.824  1.00  0.00     0.091 C 
ENDBRANCH  26  27
ENDBRANCH  24  26
ENDBRANCH  19  24
ENDBRANCH   7   9
ENDBRANCH   6   7
ENDBRANCH   5   6
ENDBRANCH   4   5
ENDBRANCH   3   4
ENDBRANCH   2   3
ENDBRANCH   1   2
BRANCH   1  33
ATOM     33  O   UNL A   1      42.175  19.095  25.345  1.00  0.00    -0.377 OA
BRANCH  33  34
ATOM     34  C   UNL A   1      43.572  18.950  25.552  1.00  0.00     0.188 C 
BRANCH  34  35
ATOM     35  C   UNL A   1      44.509  19.427  24.414  1.00  0.00     0.188 C 
BRANCH  35  36
ATOM     36  O   UNL A   1      45.665  20.142  24.843  1.00  0.00    -0.376 OA
BRANCH  36  37
ATOM     37  C   UNL A   1      45.679  21.558  24.938  1.00  0.00     0.202 C 
BRANCH  37  38
ATOM     38  C   UNL A   1      45.269  22.184  26.271  1.00  0.00     0.261 C 
BRANCH  38  39
ATOM     39  O   UNL A   1      44.419  23.305  26.134  1.00  0.00    -0.460 OA
BRANCH  39  40
ATOM     40  C   UNL A   1      43.136  23.008  25.855  1.00  0.00     0.338 C 
ATOM     41  O   UNL A   1      42.704  22.428  24.880  1.00  0.00    -0.246 OA
BRANCH  40  42
ATOM     42  C   UNL A   1      42.298  23.625  26.886  1.00  0.00     0.060 A 
ATOM     43  C   UNL A   1      41.224  24.367  26.401  1.00  0.00     0.016 A 
ATOM     44  C   UNL A   1      42.851  23.820  28.162  1.00  0.00     0.016 A 
ATOM     45  C   UNL A   1      40.949  25.542  27.045  1.00  0.00     0.010 A 
ATOM     46  C   UNL A   1      42.590  25.003  28.792  1.00  0.00     0.010 A 
ATOM     47  C   UNL A   1      41.735  25.890  28.151  1.00  0.00    -0.014 A 
BRANCH  47  48
ATOM     48  C   UNL A   1      41.600  27.229  28.654  1.00  0.00     0.031 A 
ATOM     49  C   UNL A   1      42.716  28.085  28.234  1.00  0.00     0.074 A 
ATOM     50  C   UNL A   1      40.546  27.621  29.390  1.00  0.00     0.049 A 
ATOM     51  N   UNL A   1      43.696  28.497  28.964  1.00  0.00    -0.248 NA
ATOM     52  C   UNL A   1      42.878  28.325  26.794  1.00  0.00     0.031 C 
ATOM     53  C   UNL A   1      39.276  26.935  29.627  1.00  0.00     0.029 A 
ATOM     54  N   UNL A   1      40.384  28.803  30.034  1.00  0.00    -0.354 N 
ATOM     55  C   UNL A   1      44.501  29.228  28.104  1.00  0.00     0.074 A 
ATOM     56  C   UNL A   1      44.077  28.906  26.769  1.00  0.00     0.031 C 
ATOM     57  C   UNL A   1      38.396  27.809  30.171  1.00  0.00     0.029 A 
ATOM     58  C   UNL A   1      39.086  29.061  30.441  1.00  0.00     0.049 A 
ATOM     59  H   UNL A   1      41.127  29.425  30.200  1.00  0.00     0.167 HD
ATOM     60  C   UNL A   1      45.245  30.261  28.578  1.00  0.00     0.037 A 
ATOM     61  C   UNL A   1      38.631  30.263  30.874  1.00  0.00     0.037 A 
ATOM     62  C   UNL A   1      45.435  30.153  30.004  1.00  0.00     0.049 A 
ATOM     63  C   UNL A   1      39.820  31.061  31.292  1.00  0.00     0.074 A 
ATOM     64  C   UNL A   1      46.008  29.209  30.835  1.00  0.00     0.029 A 
ATOM     65  N   UNL A   1      44.651  30.936  30.819  1.00  0.00    -0.354 N 
ATOM     66  N   UNL A   1      40.553  30.777  32.333  1.00  0.00    -0.248 NA
ATOM     67  C   UNL A   1      40.467  31.889  30.283  1.00  0.00     0.031 C 
ATOM     68  C   UNL A   1      45.185  29.182  31.999  1.00  0.00     0.029 A 
ATOM     69  C   UNL A   1      44.189  30.146  31.841  1.00  0.00     0.049 A 
ATOM     70  H   UNL A   1      44.457  31.892  30.692  1.00  0.00     0.167 HD
ATOM     71  C   UNL A   1      41.858  31.018  31.926  1.00  0.00     0.074 A 
ATOM     72  C   UNL A   1      41.737  31.779  30.685  1.00  0.00     0.031 C 
ATOM     73  C   UNL A   1      42.902  30.327  32.471  1.00  0.00     0.037 A 
BRANCH  60  74
ATOM     74  C   UNL A   1      45.429  31.552  27.822  1.00  0.00     0.064 A 
ATOM     75  C   UNL A   1      46.735  31.960  27.497  1.00  0.00     0.173 A 
ATOM     76  C   UNL A   1      44.427  32.539  27.672  1.00  0.00     0.173 A 
ATOM     77  F   UNL A   1      47.765  31.110  27.619  1.00  0.00    -0.203 F 
ATOM     78  C   UNL A   1      47.025  33.277  27.138  1.00  0.00     0.198 A 
ATOM     79  C   UNL A   1      44.713  33.835  27.256  1.00  0.00     0.198 A 
ATOM     80  F   UNL A   1      43.154  32.339  28.030  1.00  0.00    -0.203 F 
ATOM     81  F   UNL A   1      48.300  33.653  26.974  1.00  0.00    -0.200 F 
ATOM     82  C   UNL A   1      46.015  34.215  27.025  1.00  0.00     0.200 A 
ATOM     83  F   UNL A   1      43.720  34.732  27.174  1.00  0.00    -0.200 F 
ATOM     84  F   UNL A   1      46.299  35.494  26.747  1.00  0.00    -0.200 F 
ENDBRANCH  60  74
BRANCH  61  85
ATOM     85  C   UNL A   1      37.313  30.886  30.610  1.00  0.00     0.064 A 
ATOM     86  C   UNL A   1      36.466  31.257  31.668  1.00  0.00     0.173 A 
ATOM     87  C   UNL A   1      36.981  31.389  29.337  1.00  0.00     0.173 A 
ATOM     88  F   UNL A   1      36.739  30.861  32.920  1.00  0.00    -0.203 F 
ATOM     89  C   UNL A   1      35.369  32.103  31.468  1.00  0.00     0.198 A 
ATOM     90  C   UNL A   1      35.881  32.225  29.137  1.00  0.00     0.198 A 
ATOM     91  F   UNL A   1      37.769  31.160  28.278  1.00  0.00    -0.203 F 
ATOM     92  F   UNL A   1      34.622  32.487  32.512  1.00  0.00    -0.200 F 
ATOM     93  C   UNL A   1      35.085  32.593  30.205  1.00  0.00     0.200 A 
ATOM     94  F   UNL A   1      35.640  32.723  27.917  1.00  0.00    -0.200 F 
ATOM     95  F   UNL A   1      34.071  33.452  30.023  1.00  0.00    -0.200 F 
ENDBRANCH  61  85
BRANCH  73  96
ATOM     96  C   UNL A   1      42.626  29.504  33.700  1.00  0.00     0.064 A 
ATOM     97  C   UNL A   1      42.142  28.184  33.671  1.00  0.00     0.173 A 
ATOM     98  C   UNL A   1      42.991  30.028  34.947  1.00  0.00     0.173 A 
ATOM     99  F   UNL A   1      41.867  27.576  32.510  1.00  0.00    -0.203 F 
ATOM    100  C   UNL A   1      41.988  27.444  34.842  1.00  0.00     0.198 A 
ATOM    101  C   UNL A   1      42.873  29.275  36.110  1.00  0.00     0.198 A 
ATOM    102  F   UNL A   1      43.511  31.264  35.029  1.00  0.00    -0.203 F 
ATOM    103  F   UNL A   1      41.510  26.192  34.790  1.00  0.00    -0.200 F 
ATOM    104  C   UNL A   1      42.361  27.989  36.060  1.00  0.00     0.200 A 
ATOM    105  F   UNL A   1      43.281  29.787  37.279  1.00  0.00    -0.200 F 
ATOM    106  F   UNL A   1      42.252  27.264  37.184  1.00  0.00    -0.200 F 
ENDBRANCH  73  96
ENDBRANCH  47  48
ENDBRANCH  40  42
ENDBRANCH  39  40
ENDBRANCH  38  39
ENDBRANCH  37  38
ENDBRANCH  36  37
ENDBRANCH  35  36
ENDBRANCH  34  35
ENDBRANCH  33  34
ENDBRANCH   1  33
TORSDOF 25
ENDMDL
MODEL 2
REMARK VINA RESULT:      -9.6      2.909      6.839
REMARK SMILES CCC[N@@H+]1CC2(CC[NH+](C(=O)Cn3nnnc3C)CC2)C[C@H]1C(=O)OCCOCCOCCOCCOC(=O)c1ccc(-c2c3nc(c(-c4c(F)c(F)c(F)c(F)c4F)c4ccc([nH]4)c(-c4c(F)c(F)c(F)c(F)c4F)c4nc(c(-c5c(F)c(F)c(F)c(F)c5F)c5ccc2[nH]5)C=C4)C=C3)cc1
REMARK SMILES IDX 30 1 29 2 28 3 27 4 26 5 25 6 23 7 24 8 22 9 4 10 5 11 6 13
REMARK SMILES IDX 21 14 7 15 20 16 8 17 19 18 9 19 3 21 2 22 1 23 10 24 11 25
REMARK SMILES IDX 12 26 13 27 14 28 17 29 15 30 16 31 18 32 31 33 32 34 33 35
REMARK SMILES IDX 34 36 35 37 36 38 37 39 38 40 39 41 40 42 41 43 102 44 42 45
REMARK SMILES IDX 101 46 43 47 44 48 45 49 95 50 46 51 100 52 94 53 96 54
REMARK SMILES IDX 47 55 99 56 93 57 92 58 48 60 80 61 60 62 79 63 61 64 64 65
REMARK SMILES IDX 78 66 97 67 62 68 63 69 77 71 98 72 65 73 49 74 50 75 58 76
REMARK SMILES IDX 51 77 52 78 56 79 59 80 53 81 54 82 57 83 55 84 81 85 82 86
REMARK SMILES IDX 90 87 83 88 84 89 88 90 91 91 85 92 86 93 89 94 87 95 66 96
REMARK SMILES IDX 67 97 75 98 68 99 69 100 73 101 76 102 70 103 71 104 74 105
REMARK SMILES IDX 72 106
REMARK H PARENT 4 12 9 20 96 59 64 70
REMARK Flexibility Score: inf
ROOT
ATOM      1  C   UNL A   1      42.195  21.449  27.251  1.00  0.00     0.188 C 
ENDROOT
BRANCH   1   2
ATOM      2  C   UNL A   1      40.904  21.279  26.419  1.00  0.00     0.188 C 
BRANCH   2   3
ATOM      3  O   UNL A   1      39.644  21.754  26.888  1.00  0.00    -0.376 OA
BRANCH   3   4
ATOM      4  C   UNL A   1      39.174  23.038  26.511  1.00  0.00     0.202 C 
BRANCH   4   5
ATOM      5  C   UNL A   1      37.763  23.196  25.925  1.00  0.00     0.261 C 
BRANCH   5   6
ATOM      6  O   UNL A   1      37.110  21.974  25.553  1.00  0.00    -0.459 OA
BRANCH   6   7
ATOM      7  C   UNL A   1      36.397  22.007  24.401  1.00  0.00     0.365 C 
ATOM      8  O   UNL A   1      36.709  22.682  23.421  1.00  0.00    -0.245 OA
BRANCH   7   9
ATOM      9  C   UNL A   1      35.110  21.156  24.415  1.00  0.00     0.295 C 
ATOM     10  N   UNL A   1      34.570  20.771  25.751  1.00  0.00    -0.323 N 
ATOM     11  C   UNL A   1      33.778  21.917  26.201  1.00  0.00     0.270 C 
ATOM     12  H   UNL A   1      35.333  20.566  26.396  1.00  0.00     0.348 HD
ATOM     13  C   UNL A   1      33.266  22.637  24.939  1.00  0.00     0.036 C 
ATOM     14  C   UNL A   1      34.011  21.971  23.769  1.00  0.00     0.091 C 
ATOM     15  C   UNL A   1      33.586  24.144  25.048  1.00  0.00     0.075 C 
ATOM     16  C   UNL A   1      31.749  22.443  24.720  1.00  0.00     0.075 C 
ATOM     17  C   UNL A   1      32.716  24.816  26.109  1.00  0.00     0.271 C 
ATOM     18  C   UNL A   1      30.907  23.180  25.752  1.00  0.00     0.271 C 
ATOM     19  N   UNL A   1      31.302  24.581  25.811  1.00  0.00    -0.270 N 
ATOM     20  H   UNL A   1      30.566  25.212  25.986  1.00  0.00     0.356 HD
BRANCH  10  21
ATOM     21  C   UNL A   1      33.800  19.517  25.741  1.00  0.00     0.262 C 
BRANCH  21  22
ATOM     22  C   UNL A   1      33.848  18.721  24.416  1.00  0.00     0.058 C 
ATOM     23  C   UNL A   1      32.525  18.216  23.856  1.00  0.00     0.010 C 
ENDBRANCH  21  22
ENDBRANCH  10  21
BRANCH  19  24
ATOM     24  C   UNL A   1      30.333  25.558  25.630  1.00  0.00     0.333 C 
ATOM     25  O   UNL A   1      29.541  25.869  26.525  1.00  0.00    -0.229 OA
BRANCH  24  26
ATOM     26  C   UNL A   1      30.190  26.193  24.270  1.00  0.00     0.293 C 
BRANCH  26  27
ATOM     27  N   UNL A   1      31.185  27.196  23.968  1.00  0.00    -0.216 N 
ATOM     28  N   UNL A   1      31.367  28.294  24.723  1.00  0.00    -0.044 NA
ATOM     29  C   UNL A   1      32.144  27.155  22.989  1.00  0.00     0.149 A 
ATOM     30  N   UNL A   1      32.433  28.895  24.221  1.00  0.00    -0.024 NA
ATOM     31  N   UNL A   1      32.928  28.201  23.148  1.00  0.00    -0.114 NA
ATOM     32  C   UNL A   1      32.261  26.112  21.949  1.00  0.00     0.091 C 
ENDBRANCH  26  27
ENDBRANCH  24  26
ENDBRANCH  19  24
ENDBRANCH   7   9
ENDBRANCH   6   7
ENDBRANCH   5   6
ENDBRANCH   4   5
ENDBRANCH   3   4
ENDBRANCH   2   3
ENDBRANCH   1   2
BRANCH   1  33
ATOM     33  O   UNL A   1      43.316  21.956  26.549  1.00  0.00    -0.377 OA
BRANCH  33  34
ATOM     34  C   UNL A   1      43.008  22.632  25.340  1.00  0.00     0.188 C 
BRANCH  34  35
ATOM     35  C   UNL A   1      44.136  23.474  24.693  1.00  0.00     0.188 C 
BRANCH  35  36
ATOM     36  O   UNL A   1      45.285  23.677  25.514  1.00  0.00    -0.376 OA
BRANCH  36  37
ATOM     37  C   UNL A   1      45.713  24.974  25.896  1.00  0.00     0.202 C 
BRANCH  37  38
ATOM     38  C   UNL A   1      45.064  26.170  25.199  1.00  0.00     0.261 C 
BRANCH  38  39
ATOM     39  O   UNL A   1      44.377  27.038  26.080  1.00  0.00    -0.460 OA
BRANCH  39  40
ATOM     40  C   UNL A   1      43.150  27.403  25.666  1.00  0.00     0.338 C 
ATOM     41  O   UNL A   1      42.438  26.835  24.863  1.00  0.00    -0.246 OA
BRANCH  40  42
ATOM     42  C   UNL A   1      42.846  28.708  26.259  1.00  0.00     0.060 A 
ATOM     43  C   UNL A   1      43.953  29.412  26.724  1.00  0.00     0.016 A 
ATOM     44  C   UNL A   1      41.540  28.938  26.720  1.00  0.00     0.016 A 
ATOM     45  C   UNL A   1      43.802  30.080  27.908  1.00  0.00     0.010 A 
ATOM     46  C   UNL A   1      41.395  29.588  27.913  1.00  0.00     0.010 A 
ATOM     47  C   UNL A   1      42.552  30.036  28.537  1.00  0.00    -0.014 A 
BRANCH  47  48
ATOM     48  C   UNL A   1      42.481  30.524  29.887  1.00  0.00     0.031 A 
ATOM     49  C   UNL A   1      42.523  29.431  30.866  1.00  0.00     0.074 A 
ATOM     50  C   UNL A   1      42.418  31.834  30.179  1.00  0.00     0.049 A 
ATOM     51  N   UNL A   1      41.539  28.974  31.563  1.00  0.00    -0.248 NA
ATOM     52  C   UNL A   1      43.743  28.612  30.911  1.00  0.00     0.031 C 
ATOM     53  C   UNL A   1      42.641  32.988  29.308  1.00  0.00     0.029 A 
ATOM     54  N   UNL A   1      42.203  32.400  31.392  1.00  0.00    -0.354 N 
ATOM     55  C   UNL A   1      42.076  27.925  32.295  1.00  0.00     0.074 A 
ATOM     56  C   UNL A   1      43.346  27.614  31.698  1.00  0.00     0.031 C 
ATOM     57  C   UNL A   1      42.771  34.100  30.071  1.00  0.00     0.029 A 
ATOM     58  C   UNL A   1      42.505  33.750  31.458  1.00  0.00     0.049 A 
ATOM     59  H   UNL A   1      41.860  31.893  32.162  1.00  0.00     0.167 HD
ATOM     60  C   UNL A   1      41.559  27.607  33.510  1.00  0.00     0.037 A 
ATOM     61  C   UNL A   1      42.609  34.469  32.603  1.00  0.00     0.037 A 
ATOM     62  C   UNL A   1      40.221  28.126  33.658  1.00  0.00     0.049 A 
ATOM     63  C   UNL A   1      41.885  33.714  33.666  1.00  0.00     0.074 A 
ATOM     64  C   UNL A   1      39.032  27.942  32.978  1.00  0.00     0.029 A 
ATOM     65  N   UNL A   1      40.054  29.276  34.392  1.00  0.00    -0.354 N 
ATOM     66  N   UNL A   1      40.591  33.558  33.688  1.00  0.00    -0.248 NA
ATOM     67  C   UNL A   1      42.643  32.740  34.440  1.00  0.00     0.031 C 
ATOM     68  C   UNL A   1      38.401  29.221  32.972  1.00  0.00     0.029 A 
ATOM     69  C   UNL A   1      39.209  30.100  33.693  1.00  0.00     0.049 A 
ATOM     70  H   UNL A   1      40.467  29.473  35.264  1.00  0.00     0.167 HD
ATOM     71  C   UNL A   1      40.397  32.248  34.108  1.00  0.00     0.074 A 
ATOM     72  C   UNL A   1      41.691  31.822  34.635  1.00  0.00     0.031 C 
ATOM     73  C   UNL A   1      39.296  31.542  33.719  1.00  0.00     0.037 A 
BRANCH  60  74
ATOM     74  C   UNL A   1      42.415  27.201  34.682  1.00  0.00     0.064 A 
ATOM     75  C   UNL A   1      42.065  26.044  35.402  1.00  0.00     0.173 A 
ATOM     76  C   UNL A   1      43.364  28.042  35.307  1.00  0.00     0.173 A 
ATOM     77  F   UNL A   1      41.160  25.185  34.911  1.00  0.00    -0.203 F 
ATOM     78  C   UNL A   1      42.557  25.800  36.684  1.00  0.00     0.198 A 
ATOM     79  C   UNL A   1      43.899  27.764  36.561  1.00  0.00     0.198 A 
ATOM     80  F   UNL A   1      43.730  29.224  34.799  1.00  0.00    -0.203 F 
ATOM     81  F   UNL A   1      42.089  24.760  37.387  1.00  0.00    -0.200 F 
ATOM     82  C   UNL A   1      43.469  26.663  37.266  1.00  0.00     0.200 A 
ATOM     83  F   UNL A   1      44.765  28.626  37.111  1.00  0.00    -0.200 F 
ATOM     84  F   UNL A   1      43.891  26.466  38.520  1.00  0.00    -0.200 F 
ENDBRANCH  60  74
BRANCH  61  85
ATOM     85  C   UNL A   1      43.579  35.544  32.916  1.00  0.00     0.064 A 
ATOM     86  C   UNL A   1      43.213  36.633  33.724  1.00  0.00     0.173 A 
ATOM     87  C   UNL A   1      44.957  35.384  32.669  1.00  0.00     0.173 A 
ATOM     88  F   UNL A   1      41.926  36.828  34.047  1.00  0.00    -0.203 F 
ATOM     89  C   UNL A   1      44.169  37.493  34.275  1.00  0.00     0.198 A 
ATOM     90  C   UNL A   1      45.910  36.248  33.211  1.00  0.00     0.198 A 
ATOM     91  F   UNL A   1      45.417  34.332  31.978  1.00  0.00    -0.203 F 
ATOM     92  F   UNL A   1      43.786  38.482  35.093  1.00  0.00    -0.200 F 
ATOM     93  C   UNL A   1      45.517  37.293  34.026  1.00  0.00     0.200 A 
ATOM     94  F   UNL A   1      47.212  36.020  32.994  1.00  0.00    -0.200 F 
ATOM     95  F   UNL A   1      46.437  38.079  34.602  1.00  0.00    -0.200 F 
ENDBRANCH  61  85
BRANCH  73  96
ATOM     96  C   UNL A   1      38.180  32.302  33.056  1.00  0.00     0.064 A 
ATOM     97  C   UNL A   1      38.113  32.554  31.674  1.00  0.00     0.173 A 
ATOM     98  C   UNL A   1      37.075  32.673  33.832  1.00  0.00     0.173 A 
ATOM     99  F   UNL A   1      39.083  32.139  30.849  1.00  0.00    -0.203 F 
ATOM    100  C   UNL A   1      37.009  33.189  31.107  1.00  0.00     0.198 A 
ATOM    101  C   UNL A   1      35.958  33.272  33.258  1.00  0.00     0.198 A 
ATOM    102  F   UNL A   1      37.060  32.407  35.148  1.00  0.00    -0.203 F 
ATOM    103  F   UNL A   1      36.975  33.432  29.788  1.00  0.00    -0.200 F 
ATOM    104  C   UNL A   1      35.930  33.541  31.900  1.00  0.00     0.200 A 
ATOM    105  F   UNL A   1      34.895  33.565  34.021  1.00  0.00    -0.200 F 
ATOM    106  F   UNL A   1      34.849  34.116  31.351  1.00  0.00    -0.200 F 
ENDBRANCH  73  96
ENDBRANCH  47  48
ENDBRANCH  40  42
ENDBRANCH  39  40
ENDBRANCH  38  39
ENDBRANCH  37  38
ENDBRANCH  36  37
ENDBRANCH  35  36
ENDBRANCH  34  35
ENDBRANCH  33  34
ENDBRANCH   1  33
TORSDOF 25
ENDMDL
MODEL 3
REMARK VINA RESULT:      -9.6      6.250     10.339
REMARK SMILES CCC[N@@H+]1CC2(CC[NH+](C(=O)Cn3nnnc3C)CC2)C[C@H]1C(=O)OCCOCCOCCOCCOC(=O)c1ccc(-c2c3nc(c(-c4c(F)c(F)c(F)c(F)c4F)c4ccc([nH]4)c(-c4c(F)c(F)c(F)c(F)c4F)c4nc(c(-c5c(F)c(F)c(F)c(F)c5F)c5ccc2[nH]5)C=C4)C=C3)cc1
REMARK SMILES IDX 30 1 29 2 28 3 27 4 26 5 25 6 23 7 24 8 22 9 4 10 5 11 6 13
REMARK SMILES IDX 21 14 7 15 20 16 8 17 19 18 9 19 3 21 2 22 1 23 10 24 11 25
REMARK SMILES IDX 12 26 13 27 14 28 17 29 15 30 16 31 18 32 31 33 32 34 33 35
REMARK SMILES IDX 34 36 35 37 36 38 37 39 38 40 39 41 40 42 41 43 102 44 42 45
REMARK SMILES IDX 101 46 43 47 44 48 45 49 95 50 46 51 100 52 94 53 96 54
REMARK SMILES IDX 47 55 99 56 93 57 92 58 48 60 80 61 60 62 79 63 61 64 64 65
REMARK SMILES IDX 78 66 97 67 62 68 63 69 77 71 98 72 65 73 49 74 50 75 58 76
REMARK SMILES IDX 51 77 52 78 56 79 59 80 53 81 54 82 57 83 55 84 81 85 82 86
REMARK SMILES IDX 90 87 83 88 84 89 88 90 91 91 85 92 86 93 89 94 87 95 66 96
REMARK SMILES IDX 67 97 75 98 68 99 69 100 73 101 76 102 70 103 71 104 74 105
REMARK SMILES IDX 72 106
REMARK H PARENT 4 12 9 20 96 59 64 70
REMARK Flexibility Score: inf
ROOT
ATOM      1  C   UNL A   1      41.304  20.918  26.524  1.00  0.00     0.188 C 
ENDROOT
BRANCH   1   2
ATOM      2  C   UNL A   1      40.036  21.595  25.956  1.00  0.00     0.188 C 
BRANCH   2   3
ATOM      3  O   UNL A   1      39.163  22.362  26.783  1.00  0.00    -0.376 OA
BRANCH   3   4
ATOM      4  C   UNL A   1      38.675  23.619  26.342  1.00  0.00     0.202 C 
BRANCH   4   5
ATOM      5  C   UNL A   1      37.320  23.705  25.623  1.00  0.00     0.261 C 
BRANCH   5   6
ATOM      6  O   UNL A   1      36.897  22.504  24.961  1.00  0.00    -0.459 OA
BRANCH   6   7
ATOM      7  C   UNL A   1      36.154  22.673  23.840  1.00  0.00     0.365 C 
ATOM      8  O   UNL A   1      36.578  23.193  22.809  1.00  0.00    -0.245 OA
BRANCH   7   9
ATOM      9  C   UNL A   1      34.691  22.201  23.959  1.00  0.00     0.295 C 
ATOM     10  N   UNL A   1      34.073  22.254  25.316  1.00  0.00    -0.323 N 
ATOM     11  C   UNL A   1      33.607  23.631  25.484  1.00  0.00     0.270 C 
ATOM     12  H   UNL A   1      34.758  22.001  26.028  1.00  0.00     0.348 HD
ATOM     13  C   UNL A   1      33.296  24.178  24.078  1.00  0.00     0.036 C 
ATOM     14  C   UNL A   1      33.839  23.115  23.106  1.00  0.00     0.091 C 
ATOM     15  C   UNL A   1      33.998  25.543  23.896  1.00  0.00     0.075 C 
ATOM     16  C   UNL A   1      31.781  24.336  23.825  1.00  0.00     0.075 C 
ATOM     17  C   UNL A   1      33.335  26.620  24.753  1.00  0.00     0.271 C 
ATOM     18  C   UNL A   1      31.162  25.462  24.641  1.00  0.00     0.271 C 
ATOM     19  N   UNL A   1      31.907  26.697  24.436  1.00  0.00    -0.270 N 
ATOM     20  H   UNL A   1      31.362  27.516  24.442  1.00  0.00     0.356 HD
BRANCH  10  21
ATOM     21  C   UNL A   1      33.003  21.264  25.520  1.00  0.00     0.262 C 
BRANCH  21  22
ATOM     22  C   UNL A   1      32.925  20.145  24.456  1.00  0.00     0.058 C 
ATOM     23  C   UNL A   1      32.994  18.705  24.949  1.00  0.00     0.010 C 
ENDBRANCH  21  22
ENDBRANCH  10  21
BRANCH  19  24
ATOM     24  C   UNL A   1      31.226  27.828  24.012  1.00  0.00     0.333 C 
ATOM     25  O   UNL A   1      31.190  28.862  24.685  1.00  0.00    -0.229 OA
BRANCH  24  26
ATOM     26  C   UNL A   1      30.432  27.759  22.731  1.00  0.00     0.293 C 
BRANCH  26  27
ATOM     27  N   UNL A   1      29.073  28.237  22.841  1.00  0.00    -0.216 N 
ATOM     28  N   UNL A   1      28.114  27.562  23.499  1.00  0.00    -0.044 NA
ATOM     29  C   UNL A   1      28.574  29.444  22.424  1.00  0.00     0.149 A 
ATOM     30  N   UNL A   1      27.059  28.360  23.499  1.00  0.00    -0.024 NA
ATOM     31  N   UNL A   1      27.328  29.531  22.839  1.00  0.00    -0.114 NA
ATOM     32  C   UNL A   1      29.321  30.456  21.648  1.00  0.00     0.091 C 
ENDBRANCH  26  27
ENDBRANCH  24  26
ENDBRANCH  19  24
ENDBRANCH   7   9
ENDBRANCH   6   7
ENDBRANCH   5   6
ENDBRANCH   4   5
ENDBRANCH   3   4
ENDBRANCH   2   3
ENDBRANCH   1   2
BRANCH   1  33
ATOM     33  O   UNL A   1      42.526  21.298  25.918  1.00  0.00    -0.377 OA
BRANCH  33  34
ATOM     34  C   UNL A   1      42.561  22.629  25.426  1.00  0.00     0.188 C 
BRANCH  34  35
ATOM     35  C   UNL A   1      43.945  23.198  25.026  1.00  0.00     0.188 C 
BRANCH  35  36
ATOM     36  O   UNL A   1      45.062  22.563  25.646  1.00  0.00    -0.376 OA
BRANCH  36  37
ATOM     37  C   UNL A   1      45.818  23.201  26.663  1.00  0.00     0.202 C 
BRANCH  37  38
ATOM     38  C   UNL A   1      45.071  24.116  27.634  1.00  0.00     0.261 C 
BRANCH  38  39
ATOM     39  O   UNL A   1      45.257  23.774  28.993  1.00  0.00    -0.460 OA
BRANCH  39  40
ATOM     40  C   UNL A   1      44.212  23.148  29.564  1.00  0.00     0.338 C 
ATOM     41  O   UNL A   1      43.489  22.309  29.067  1.00  0.00    -0.246 OA
BRANCH  40  42
ATOM     42  C   UNL A   1      43.993  23.749  30.882  1.00  0.00     0.060 A 
ATOM     43  C   UNL A   1      44.787  24.859  31.159  1.00  0.00     0.016 A 
ATOM     44  C   UNL A   1      43.404  22.959  31.882  1.00  0.00     0.016 A 
ATOM     45  C   UNL A   1      45.288  24.954  32.428  1.00  0.00     0.010 A 
ATOM     46  C   UNL A   1      43.922  23.042  33.143  1.00  0.00     0.010 A 
ATOM     47  C   UNL A   1      44.943  23.959  33.351  1.00  0.00    -0.014 A 
BRANCH  47  48
ATOM     48  C   UNL A   1      45.671  23.936  34.590  1.00  0.00     0.031 A 
ATOM     49  C   UNL A   1      45.428  25.143  35.389  1.00  0.00     0.074 A 
ATOM     50  C   UNL A   1      46.446  22.899  34.953  1.00  0.00     0.049 A 
ATOM     51  N   UNL A   1      46.237  26.131  35.568  1.00  0.00    -0.248 NA
ATOM     52  C   UNL A   1      44.056  25.378  35.858  1.00  0.00     0.031 C 
ATOM     53  C   UNL A   1      46.535  21.561  34.367  1.00  0.00     0.029 A 
ATOM     54  N   UNL A   1      47.284  22.828  36.016  1.00  0.00    -0.354 N 
ATOM     55  C   UNL A   1      45.533  27.032  36.353  1.00  0.00     0.074 A 
ATOM     56  C   UNL A   1      44.154  26.626  36.311  1.00  0.00     0.031 C 
ATOM     57  C   UNL A   1      47.210  20.751  35.218  1.00  0.00     0.029 A 
ATOM     58  C   UNL A   1      47.707  21.548  36.329  1.00  0.00     0.049 A 
ATOM     59  H   UNL A   1      47.570  23.622  36.522  1.00  0.00     0.167 HD
ATOM     60  C   UNL A   1      46.194  27.855  37.207  1.00  0.00     0.037 A 
ATOM     61  C   UNL A   1      48.337  21.195  37.477  1.00  0.00     0.037 A 
ATOM     62  C   UNL A   1      47.582  27.983  36.836  1.00  0.00     0.049 A 
ATOM     63  C   UNL A   1      48.909  22.439  38.067  1.00  0.00     0.074 A 
ATOM     64  C   UNL A   1      48.244  28.434  35.710  1.00  0.00     0.029 A 
ATOM     65  N   UNL A   1      48.508  27.250  37.541  1.00  0.00    -0.354 N 
ATOM     66  N   UNL A   1      49.897  23.105  37.535  1.00  0.00    -0.248 NA
ATOM     67  C   UNL A   1      48.074  23.198  38.988  1.00  0.00     0.031 C 
ATOM     68  C   UNL A   1      49.371  27.572  35.565  1.00  0.00     0.029 A 
ATOM     69  C   UNL A   1      49.366  26.679  36.636  1.00  0.00     0.049 A 
ATOM     70  H   UNL A   1      48.547  27.153  38.519  1.00  0.00     0.167 HD
ATOM     71  C   UNL A   1      49.562  24.441  37.710  1.00  0.00     0.074 A 
ATOM     72  C   UNL A   1      48.473  24.436  38.683  1.00  0.00     0.031 C 
ATOM     73  C   UNL A   1      49.996  25.394  36.834  1.00  0.00     0.037 A 
BRANCH  60  74
ATOM     74  C   UNL A   1      45.680  28.188  38.585  1.00  0.00     0.064 A 
ATOM     75  C   UNL A   1      45.681  29.533  38.995  1.00  0.00     0.173 A 
ATOM     76  C   UNL A   1      45.476  27.238  39.612  1.00  0.00     0.173 A 
ATOM     77  F   UNL A   1      45.884  30.517  38.106  1.00  0.00    -0.203 F 
ATOM     78  C   UNL A   1      45.577  29.891  40.340  1.00  0.00     0.198 A 
ATOM     79  C   UNL A   1      45.313  27.603  40.945  1.00  0.00     0.198 A 
ATOM     80  F   UNL A   1      45.542  25.919  39.403  1.00  0.00    -0.203 F 
ATOM     81  F   UNL A   1      45.724  31.174  40.697  1.00  0.00    -0.200 F 
ATOM     82  C   UNL A   1      45.400  28.925  41.315  1.00  0.00     0.200 A 
ATOM     83  F   UNL A   1      45.163  26.647  41.873  1.00  0.00    -0.200 F 
ATOM     84  F   UNL A   1      45.368  29.261  42.610  1.00  0.00    -0.200 F 
ENDBRANCH  60  74
BRANCH  61  85
ATOM     85  C   UNL A   1      48.163  19.953  38.265  1.00  0.00     0.064 A 
ATOM     86  C   UNL A   1      49.265  19.314  38.857  1.00  0.00     0.173 A 
ATOM     87  C   UNL A   1      46.890  19.527  38.692  1.00  0.00     0.173 A 
ATOM     88  F   UNL A   1      50.512  19.694  38.541  1.00  0.00    -0.203 F 
ATOM     89  C   UNL A   1      49.104  18.328  39.837  1.00  0.00     0.198 A 
ATOM     90  C   UNL A   1      46.729  18.537  39.663  1.00  0.00     0.198 A 
ATOM     91  F   UNL A   1      45.777  20.128  38.250  1.00  0.00    -0.203 F 
ATOM     92  F   UNL A   1      50.180  17.787  40.425  1.00  0.00    -0.200 F 
ATOM     93  C   UNL A   1      47.836  17.949  40.245  1.00  0.00     0.200 A 
ATOM     94  F   UNL A   1      45.498  18.207  40.078  1.00  0.00    -0.200 F 
ATOM     95  F   UNL A   1      47.681  17.049  41.228  1.00  0.00    -0.200 F 
ENDBRANCH  61  85
BRANCH  73  96
ATOM     96  C   UNL A   1      51.056  24.997  35.843  1.00  0.00     0.064 A 
ATOM     97  C   UNL A   1      50.785  24.430  34.585  1.00  0.00     0.173 A 
ATOM     98  C   UNL A   1      52.388  25.326  36.127  1.00  0.00     0.173 A 
ATOM     99  F   UNL A   1      49.527  24.181  34.198  1.00  0.00    -0.203 F 
ATOM    100  C   UNL A   1      51.807  24.164  33.676  1.00  0.00     0.198 A 
ATOM    101  C   UNL A   1      53.402  25.095  35.202  1.00  0.00     0.198 A 
ATOM    102  F   UNL A   1      52.699  25.921  37.290  1.00  0.00    -0.203 F 
ATOM    103  F   UNL A   1      51.524  23.609  32.488  1.00  0.00    -0.200 F 
ATOM    104  C   UNL A   1      53.114  24.504  33.984  1.00  0.00     0.200 A 
ATOM    105  F   UNL A   1      54.657  25.472  35.484  1.00  0.00    -0.200 F 
ATOM    106  F   UNL A   1      54.094  24.286  33.094  1.00  0.00    -0.200 F 
ENDBRANCH  73  96
ENDBRANCH  47  48
ENDBRANCH  40  42
ENDBRANCH  39  40
ENDBRANCH  38  39
ENDBRANCH  37  38
ENDBRANCH  36  37
ENDBRANCH  35  36
ENDBRANCH  34  35
ENDBRANCH  33  34
ENDBRANCH   1  33
TORSDOF 25
ENDMDL
