MODEL 1
REMARK VINA RESULT:      -9.3      0.000      0.000
REMARK SMILES C[C@@H](CC[NH+](C)C)NC(=O)Cn1cccc1C(=O)OCCOCCOCCOCCOC(=O)c1ccc(-c2c3nc(c(-c4c(F)c(F)c(F)c(F)c4F)c4ccc([nH]4)c(-c4c(F)c(F)c(F)c(F)c4F)c4nc(c(-c5c(F)c(F)c(F)c(F)c5F)c5ccc2[nH]5)C=C4)C=C3)cc1
REMARK SMILES IDX 23 1 22 2 21 3 20 4 19 5 17 6 18 7 16 8 12 9 13 10 14 11
REMARK SMILES IDX 15 12 11 13 9 14 8 15 10 17 2 18 1 19 3 20 4 21 5 22 6 23
REMARK SMILES IDX 7 24 24 26 25 27 26 28 27 29 28 30 29 31 30 32 31 33 32 34
REMARK SMILES IDX 33 35 34 36 35 37 96 38 36 39 95 40 37 41 38 42 39 43 89 44
REMARK SMILES IDX 40 45 94 46 88 47 90 48 41 49 93 50 87 51 86 52 42 54 74 55
REMARK SMILES IDX 54 56 73 57 55 58 58 59 72 60 91 61 56 62 57 63 71 65 92 66
REMARK SMILES IDX 59 67 43 68 44 69 52 70 45 71 46 72 50 73 53 74 47 75 48 76
REMARK SMILES IDX 51 77 49 78 75 79 76 80 84 81 77 82 78 83 82 84 85 85 79 86
REMARK SMILES IDX 80 87 83 88 81 89 60 90 61 91 69 92 62 93 63 94 67 95 70 96
REMARK SMILES IDX 64 97 65 98 68 99 66 100
REMARK H PARENT 8 16 5 25 90 53 58 64
REMARK Flexibility Score: inf
ROOT
ATOM      1  C   UNL A   1      34.119  32.100  28.042  1.00  0.00     0.188 C 
ENDROOT
BRANCH   1   2
ATOM      2  O   UNL A   1      35.102  31.151  27.639  1.00  0.00    -0.376 OA
BRANCH   2   3
ATOM      3  C   UNL A   1      34.769  29.776  27.610  1.00  0.00     0.202 C 
BRANCH   3   4
ATOM      4  C   UNL A   1      34.371  29.197  26.261  1.00  0.00     0.261 C 
BRANCH   4   5
ATOM      5  O   UNL A   1      33.161  28.416  26.318  1.00  0.00    -0.459 OA
BRANCH   5   6
ATOM      6  C   UNL A   1      33.122  27.316  25.522  1.00  0.00     0.355 C 
ATOM      7  O   UNL A   1      33.707  26.271  25.767  1.00  0.00    -0.244 OA
BRANCH   6   8
ATOM      8  C   UNL A   1      32.205  27.492  24.409  1.00  0.00     0.128 A 
ATOM      9  N   UNL A   1      32.293  27.124  23.073  1.00  0.00    -0.333 N 
ATOM     10  C   UNL A   1      31.119  27.471  22.431  1.00  0.00     0.087 A 
ATOM     11  C   UNL A   1      30.287  28.087  23.328  1.00  0.00     0.020 A 
ATOM     12  C   UNL A   1      30.962  28.097  24.561  1.00  0.00     0.035 A 
BRANCH   9  13
ATOM     13  C   UNL A   1      33.379  26.477  22.346  1.00  0.00     0.222 C 
BRANCH  13  14
ATOM     14  C   UNL A   1      32.884  25.412  21.379  1.00  0.00     0.240 C 
ATOM     15  N   UNL A   1      32.396  24.224  21.845  1.00  0.00    -0.352 N 
ATOM     16  H   UNL A   1      32.140  23.564  21.160  1.00  0.00     0.163 HD
ATOM     17  O   UNL A   1      32.926  25.581  20.157  1.00  0.00    -0.273 OA
BRANCH  15  18
ATOM     18  C   UNL A   1      32.208  23.816  23.226  1.00  0.00     0.084 C 
ATOM     19  C   UNL A   1      30.721  23.721  23.550  1.00  0.00     0.031 C 
BRANCH  18  20
ATOM     20  C   UNL A   1      33.163  22.681  23.634  1.00  0.00     0.086 C 
BRANCH  20  21
ATOM     21  C   UNL A   1      32.535  21.402  24.189  1.00  0.00     0.263 C 
BRANCH  21  22
ATOM     22  N   UNL A   1      33.303  20.168  23.988  1.00  0.00    -0.340 N 
ATOM     23  C   UNL A   1      34.365  20.087  24.995  1.00  0.00     0.332 C 
ATOM     24  C   UNL A   1      32.530  18.933  23.986  1.00  0.00     0.332 C 
ATOM     25  H   UNL A   1      33.681  20.239  23.043  1.00  0.00     0.347 HD
ENDBRANCH  21  22
ENDBRANCH  20  21
ENDBRANCH  18  20
ENDBRANCH  15  18
ENDBRANCH  13  14
ENDBRANCH   9  13
ENDBRANCH   6   8
ENDBRANCH   5   6
ENDBRANCH   4   5
ENDBRANCH   3   4
ENDBRANCH   2   3
ENDBRANCH   1   2
BRANCH   1  26
ATOM     26  C   UNL A   1      34.371  33.632  28.041  1.00  0.00     0.188 C 
BRANCH  26  27
ATOM     27  O   UNL A   1      33.249  34.496  28.222  1.00  0.00    -0.377 OA
BRANCH  27  28
ATOM     28  C   UNL A   1      33.187  35.076  29.533  1.00  0.00     0.188 C 
BRANCH  28  29
ATOM     29  C   UNL A   1      34.385  34.727  30.440  1.00  0.00     0.188 C 
BRANCH  29  30
ATOM     30  O   UNL A   1      34.127  35.001  31.812  1.00  0.00    -0.376 OA
BRANCH  30  31
ATOM     31  C   UNL A   1      34.765  34.240  32.824  1.00  0.00     0.202 C 
BRANCH  31  32
ATOM     32  C   UNL A   1      34.521  32.730  32.715  1.00  0.00     0.261 C 
BRANCH  32  33
ATOM     33  O   UNL A   1      35.716  31.972  32.859  1.00  0.00    -0.460 OA
BRANCH  33  34
ATOM     34  C   UNL A   1      36.125  31.434  31.696  1.00  0.00     0.338 C 
ATOM     35  O   UNL A   1      35.541  30.634  30.986  1.00  0.00    -0.246 OA
BRANCH  34  36
ATOM     36  C   UNL A   1      37.462  31.912  31.382  1.00  0.00     0.060 A 
ATOM     37  C   UNL A   1      37.710  32.065  30.014  1.00  0.00     0.016 A 
ATOM     38  C   UNL A   1      38.426  31.514  32.309  1.00  0.00     0.016 A 
ATOM     39  C   UNL A   1      38.853  31.496  29.519  1.00  0.00     0.010 A 
ATOM     40  C   UNL A   1      39.532  30.883  31.807  1.00  0.00     0.010 A 
ATOM     41  C   UNL A   1      39.687  30.821  30.416  1.00  0.00    -0.014 A 
BRANCH  41  42
ATOM     42  C   UNL A   1      40.794  30.055  29.859  1.00  0.00     0.031 A 
ATOM     43  C   UNL A   1      42.017  30.931  29.714  1.00  0.00     0.074 A 
ATOM     44  C   UNL A   1      40.505  28.759  29.541  1.00  0.00     0.049 A 
ATOM     45  N   UNL A   1      43.001  30.834  28.880  1.00  0.00    -0.248 NA
ATOM     46  C   UNL A   1      42.126  32.158  30.555  1.00  0.00     0.031 C 
ATOM     47  C   UNL A   1      39.192  28.116  29.765  1.00  0.00     0.029 A 
ATOM     48  N   UNL A   1      41.219  27.734  28.964  1.00  0.00    -0.354 N 
ATOM     49  C   UNL A   1      43.917  31.836  29.226  1.00  0.00     0.074 A 
ATOM     50  C   UNL A   1      43.267  32.708  30.152  1.00  0.00     0.031 C 
ATOM     51  C   UNL A   1      39.183  26.862  29.271  1.00  0.00     0.029 A 
ATOM     52  C   UNL A   1      40.482  26.549  28.711  1.00  0.00     0.049 A 
ATOM     53  H   UNL A   1      42.175  27.817  28.742  1.00  0.00     0.167 HD
ATOM     54  C   UNL A   1      45.224  31.797  28.860  1.00  0.00     0.037 A 
ATOM     55  C   UNL A   1      40.881  25.415  28.056  1.00  0.00     0.037 A 
ATOM     56  C   UNL A   1      45.481  30.675  28.020  1.00  0.00     0.049 A 
ATOM     57  C   UNL A   1      42.308  25.629  27.745  1.00  0.00     0.074 A 
ATOM     58  C   UNL A   1      45.164  30.405  26.714  1.00  0.00     0.029 A 
ATOM     59  N   UNL A   1      45.839  29.503  28.640  1.00  0.00    -0.354 N 
ATOM     60  N   UNL A   1      43.271  25.606  28.619  1.00  0.00    -0.248 NA
ATOM     61  C   UNL A   1      42.683  26.017  26.380  1.00  0.00     0.031 C 
ATOM     62  C   UNL A   1      44.984  29.004  26.676  1.00  0.00     0.029 A 
ATOM     63  C   UNL A   1      45.289  28.461  27.928  1.00  0.00     0.049 A 
ATOM     64  H   UNL A   1      46.391  29.422  29.451  1.00  0.00     0.167 HD
ATOM     65  C   UNL A   1      44.283  26.283  27.974  1.00  0.00     0.074 A 
ATOM     66  C   UNL A   1      43.982  26.232  26.564  1.00  0.00     0.031 C 
ATOM     67  C   UNL A   1      44.987  27.237  28.637  1.00  0.00     0.037 A 
BRANCH  54  68
ATOM     68  C   UNL A   1      46.377  32.579  29.396  1.00  0.00     0.064 A 
ATOM     69  C   UNL A   1      47.086  33.413  28.508  1.00  0.00     0.173 A 
ATOM     70  C   UNL A   1      46.986  32.310  30.632  1.00  0.00     0.173 A 
ATOM     71  F   UNL A   1      46.564  33.744  27.316  1.00  0.00    -0.203 F 
ATOM     72  C   UNL A   1      48.373  33.860  28.794  1.00  0.00     0.198 A 
ATOM     73  C   UNL A   1      48.255  32.804  30.935  1.00  0.00     0.198 A 
ATOM     74  F   UNL A   1      46.422  31.488  31.525  1.00  0.00    -0.203 F 
ATOM     75  F   UNL A   1      49.060  34.544  27.869  1.00  0.00    -0.200 F 
ATOM     76  C   UNL A   1      48.962  33.544  30.003  1.00  0.00     0.200 A 
ATOM     77  F   UNL A   1      48.821  32.494  32.110  1.00  0.00    -0.200 F 
ATOM     78  F   UNL A   1      50.222  33.920  30.257  1.00  0.00    -0.200 F 
ENDBRANCH  54  68
BRANCH  55  79
ATOM     79  C   UNL A   1      40.236  24.150  27.528  1.00  0.00     0.064 A 
ATOM     80  C   UNL A   1      39.092  24.078  26.719  1.00  0.00     0.173 A 
ATOM     81  C   UNL A   1      40.824  22.882  27.799  1.00  0.00     0.173 A 
ATOM     82  F   UNL A   1      38.332  25.152  26.489  1.00  0.00    -0.203 F 
ATOM     83  C   UNL A   1      38.658  22.874  26.132  1.00  0.00     0.198 A 
ATOM     84  C   UNL A   1      40.414  21.691  27.196  1.00  0.00     0.198 A 
ATOM     85  F   UNL A   1      41.834  22.747  28.668  1.00  0.00    -0.203 F 
ATOM     86  F   UNL A   1      37.570  22.874  25.348  1.00  0.00    -0.200 F 
ATOM     87  C   UNL A   1      39.337  21.690  26.343  1.00  0.00     0.200 A 
ATOM     88  F   UNL A   1      41.083  20.556  27.444  1.00  0.00    -0.200 F 
ATOM     89  F   UNL A   1      38.949  20.556  25.746  1.00  0.00    -0.200 F 
ENDBRANCH  55  79
BRANCH  67  90
ATOM     90  C   UNL A   1      44.964  27.053  30.141  1.00  0.00     0.064 A 
ATOM     91  C   UNL A   1      45.658  25.986  30.730  1.00  0.00     0.173 A 
ATOM     92  C   UNL A   1      44.153  27.812  30.999  1.00  0.00     0.173 A 
ATOM     93  F   UNL A   1      46.466  25.221  29.981  1.00  0.00    -0.203 F 
ATOM     94  C   UNL A   1      45.525  25.688  32.089  1.00  0.00     0.198 A 
ATOM     95  C   UNL A   1      44.020  27.522  32.357  1.00  0.00     0.198 A 
ATOM     96  F   UNL A   1      43.470  28.855  30.536  1.00  0.00    -0.203 F 
ATOM     97  F   UNL A   1      46.198  24.655  32.614  1.00  0.00    -0.200 F 
ATOM     98  C   UNL A   1      44.701  26.452  32.901  1.00  0.00     0.200 A 
ATOM     99  F   UNL A   1      43.230  28.283  33.131  1.00  0.00    -0.200 F 
ATOM    100  F   UNL A   1      44.575  26.165  34.205  1.00  0.00    -0.200 F 
ENDBRANCH  67  90
ENDBRANCH  41  42
ENDBRANCH  34  36
ENDBRANCH  33  34
ENDBRANCH  32  33
ENDBRANCH  31  32
ENDBRANCH  30  31
ENDBRANCH  29  30
ENDBRANCH  28  29
ENDBRANCH  27  28
ENDBRANCH  26  27
ENDBRANCH   1  26
TORSDOF 26
ENDMDL
MODEL 2
REMARK VINA RESULT:      -9.1      1.891      2.329
REMARK SMILES C[C@@H](CC[NH+](C)C)NC(=O)Cn1cccc1C(=O)OCCOCCOCCOCCOC(=O)c1ccc(-c2c3nc(c(-c4c(F)c(F)c(F)c(F)c4F)c4ccc([nH]4)c(-c4c(F)c(F)c(F)c(F)c4F)c4nc(c(-c5c(F)c(F)c(F)c(F)c5F)c5ccc2[nH]5)C=C4)C=C3)cc1
REMARK SMILES IDX 23 1 22 2 21 3 20 4 19 5 17 6 18 7 16 8 12 9 13 10 14 11
REMARK SMILES IDX 15 12 11 13 9 14 8 15 10 17 2 18 1 19 3 20 4 21 5 22 6 23
REMARK SMILES IDX 7 24 24 26 25 27 26 28 27 29 28 30 29 31 30 32 31 33 32 34
REMARK SMILES IDX 33 35 34 36 35 37 96 38 36 39 95 40 37 41 38 42 39 43 89 44
REMARK SMILES IDX 40 45 94 46 88 47 90 48 41 49 93 50 87 51 86 52 42 54 74 55
REMARK SMILES IDX 54 56 73 57 55 58 58 59 72 60 91 61 56 62 57 63 71 65 92 66
REMARK SMILES IDX 59 67 43 68 44 69 52 70 45 71 46 72 50 73 53 74 47 75 48 76
REMARK SMILES IDX 51 77 49 78 75 79 76 80 84 81 77 82 78 83 82 84 85 85 79 86
REMARK SMILES IDX 80 87 83 88 81 89 60 90 61 91 69 92 62 93 63 94 67 95 70 96
REMARK SMILES IDX 64 97 65 98 68 99 66 100
REMARK H PARENT 8 16 5 25 90 53 58 64
REMARK Flexibility Score: inf
ROOT
ATOM      1  C   UNL A   1      33.954  31.696  27.947  1.00  0.00     0.188 C 
ENDROOT
BRANCH   1   2
ATOM      2  O   UNL A   1      34.899  30.680  27.626  1.00  0.00    -0.376 OA
BRANCH   2   3
ATOM      3  C   UNL A   1      34.492  29.325  27.638  1.00  0.00     0.202 C 
BRANCH   3   4
ATOM      4  C   UNL A   1      33.835  28.797  26.371  1.00  0.00     0.261 C 
BRANCH   4   5
ATOM      5  O   UNL A   1      32.405  28.966  26.366  1.00  0.00    -0.459 OA
BRANCH   5   6
ATOM      6  C   UNL A   1      31.678  27.921  26.843  1.00  0.00     0.355 C 
ATOM      7  O   UNL A   1      31.312  27.814  28.004  1.00  0.00    -0.244 OA
BRANCH   6   8
ATOM      8  C   UNL A   1      31.289  27.010  25.781  1.00  0.00     0.128 A 
ATOM      9  N   UNL A   1      31.395  25.631  25.661  1.00  0.00    -0.333 N 
ATOM     10  C   UNL A   1      30.817  25.234  24.470  1.00  0.00     0.087 A 
ATOM     11  C   UNL A   1      30.367  26.344  23.804  1.00  0.00     0.020 A 
ATOM     12  C   UNL A   1      30.657  27.449  24.621  1.00  0.00     0.035 A 
BRANCH   9  13
ATOM     13  C   UNL A   1      31.991  24.653  26.564  1.00  0.00     0.222 C 
BRANCH  13  14
ATOM     14  C   UNL A   1      31.108  23.432  26.772  1.00  0.00     0.240 C 
ATOM     15  N   UNL A   1      31.545  22.189  26.406  1.00  0.00    -0.352 N 
ATOM     16  H   UNL A   1      30.902  21.453  26.526  1.00  0.00     0.163 HD
ATOM     17  O   UNL A   1      29.977  23.528  27.254  1.00  0.00    -0.273 OA
BRANCH  15  18
ATOM     18  C   UNL A   1      32.841  21.821  25.865  1.00  0.00     0.084 C 
ATOM     19  C   UNL A   1      33.849  21.629  26.994  1.00  0.00     0.031 C 
BRANCH  18  20
ATOM     20  C   UNL A   1      32.730  20.777  24.741  1.00  0.00     0.086 C 
BRANCH  20  21
ATOM     21  C   UNL A   1      33.862  19.757  24.617  1.00  0.00     0.263 C 
BRANCH  21  22
ATOM     22  N   UNL A   1      33.453  18.367  24.384  1.00  0.00    -0.340 N 
ATOM     23  C   UNL A   1      32.524  17.952  25.439  1.00  0.00     0.332 C 
ATOM     24  C   UNL A   1      32.872  18.088  23.077  1.00  0.00     0.332 C 
ATOM     25  H   UNL A   1      34.318  17.826  24.405  1.00  0.00     0.347 HD
ENDBRANCH  21  22
ENDBRANCH  20  21
ENDBRANCH  18  20
ENDBRANCH  15  18
ENDBRANCH  13  14
ENDBRANCH   9  13
ENDBRANCH   6   8
ENDBRANCH   5   6
ENDBRANCH   4   5
ENDBRANCH   3   4
ENDBRANCH   2   3
ENDBRANCH   1   2
BRANCH   1  26
ATOM     26  C   UNL A   1      34.308  33.208  27.957  1.00  0.00     0.188 C 
BRANCH  26  27
ATOM     27  O   UNL A   1      33.234  34.148  28.015  1.00  0.00    -0.377 OA
BRANCH  27  28
ATOM     28  C   UNL A   1      33.269  34.976  29.185  1.00  0.00     0.188 C 
BRANCH  28  29
ATOM     29  C   UNL A   1      34.185  34.449  30.310  1.00  0.00     0.188 C 
BRANCH  29  30
ATOM     30  O   UNL A   1      33.621  34.637  31.603  1.00  0.00    -0.376 OA
BRANCH  30  31
ATOM     31  C   UNL A   1      34.459  34.698  32.745  1.00  0.00     0.202 C 
BRANCH  31  32
ATOM     32  C   UNL A   1      34.405  33.443  33.625  1.00  0.00     0.261 C 
BRANCH  32  33
ATOM     33  O   UNL A   1      35.679  32.830  33.782  1.00  0.00    -0.460 OA
BRANCH  33  34
ATOM     34  C   UNL A   1      36.135  32.295  32.636  1.00  0.00     0.338 C 
ATOM     35  O   UNL A   1      35.641  31.402  31.969  1.00  0.00    -0.246 OA
BRANCH  34  36
ATOM     36  C   UNL A   1      37.403  32.913  32.280  1.00  0.00     0.060 A 
ATOM     37  C   UNL A   1      37.528  33.222  30.922  1.00  0.00     0.016 A 
ATOM     38  C   UNL A   1      38.465  32.507  33.088  1.00  0.00     0.016 A 
ATOM     39  C   UNL A   1      38.668  32.804  30.288  1.00  0.00     0.010 A 
ATOM     40  C   UNL A   1      39.572  32.024  32.444  1.00  0.00     0.010 A 
ATOM     41  C   UNL A   1      39.620  32.115  31.047  1.00  0.00    -0.014 A 
BRANCH  41  42
ATOM     42  C   UNL A   1      40.734  31.505  30.334  1.00  0.00     0.031 A 
ATOM     43  C   UNL A   1      41.777  32.546  30.000  1.00  0.00     0.074 A 
ATOM     44  C   UNL A   1      40.599  30.171  30.072  1.00  0.00     0.049 A 
ATOM     45  N   UNL A   1      42.630  32.571  29.028  1.00  0.00    -0.248 NA
ATOM     46  C   UNL A   1      41.824  33.800  30.808  1.00  0.00     0.031 C 
ATOM     47  C   UNL A   1      39.444  29.349  30.495  1.00  0.00     0.029 A 
ATOM     48  N   UNL A   1      41.365  29.246  29.400  1.00  0.00    -0.354 N 
ATOM     49  C   UNL A   1      43.426  33.707  29.226  1.00  0.00     0.074 A 
ATOM     50  C   UNL A   1      42.797  34.500  30.233  1.00  0.00     0.031 C 
ATOM     51  C   UNL A   1      39.551  28.093  30.016  1.00  0.00     0.029 A 
ATOM     52  C   UNL A   1      40.785  27.959  29.268  1.00  0.00     0.049 A 
ATOM     53  H   UNL A   1      42.254  29.463  29.035  1.00  0.00     0.167 HD
ATOM     54  C   UNL A   1      44.655  33.851  28.666  1.00  0.00     0.037 A 
ATOM     55  C   UNL A   1      41.247  26.878  28.568  1.00  0.00     0.037 A 
ATOM     56  C   UNL A   1      44.950  32.755  27.805  1.00  0.00     0.049 A 
ATOM     57  C   UNL A   1      42.564  27.291  28.043  1.00  0.00     0.074 A 
ATOM     58  C   UNL A   1      44.487  32.404  26.564  1.00  0.00     0.029 A 
ATOM     59  N   UNL A   1      45.567  31.666  28.371  1.00  0.00    -0.354 N 
ATOM     60  N   UNL A   1      43.638  27.435  28.763  1.00  0.00    -0.248 NA
ATOM     61  C   UNL A   1      42.670  27.690  26.635  1.00  0.00     0.031 C 
ATOM     62  C   UNL A   1      44.516  30.990  26.561  1.00  0.00     0.029 A 
ATOM     63  C   UNL A   1      45.081  30.535  27.756  1.00  0.00     0.049 A 
ATOM     64  H   UNL A   1      46.239  31.691  29.089  1.00  0.00     0.167 HD
ATOM     65  C   UNL A   1      44.430  28.235  27.968  1.00  0.00     0.074 A 
ATOM     66  C   UNL A   1      43.934  28.100  26.620  1.00  0.00     0.031 C 
ATOM     67  C   UNL A   1      45.074  29.300  28.511  1.00  0.00     0.037 A 
BRANCH  54  68
ATOM     68  C   UNL A   1      45.744  34.809  29.018  1.00  0.00     0.064 A 
ATOM     69  C   UNL A   1      46.084  35.804  28.079  1.00  0.00     0.173 A 
ATOM     70  C   UNL A   1      46.649  34.600  30.070  1.00  0.00     0.173 A 
ATOM     71  F   UNL A   1      45.262  36.087  27.056  1.00  0.00    -0.203 F 
ATOM     72  C   UNL A   1      47.304  36.471  28.129  1.00  0.00     0.198 A 
ATOM     73  C   UNL A   1      47.849  35.308  30.145  1.00  0.00     0.198 A 
ATOM     74  F   UNL A   1      46.448  33.643  30.985  1.00  0.00    -0.203 F 
ATOM     75  F   UNL A   1      47.640  37.316  27.145  1.00  0.00    -0.200 F 
ATOM     76  C   UNL A   1      48.192  36.213  29.156  1.00  0.00     0.200 A 
ATOM     77  F   UNL A   1      48.705  35.054  31.144  1.00  0.00    -0.200 F 
ATOM     78  F   UNL A   1      49.392  36.807  29.173  1.00  0.00    -0.200 F 
ENDBRANCH  54  68
BRANCH  55  79
ATOM     79  C   UNL A   1      40.728  25.517  28.151  1.00  0.00     0.064 A 
ATOM     80  C   UNL A   1      39.520  25.259  27.486  1.00  0.00     0.173 A 
ATOM     81  C   UNL A   1      41.514  24.352  28.380  1.00  0.00     0.173 A 
ATOM     82  F   UNL A   1      38.596  26.209  27.323  1.00  0.00    -0.203 F 
ATOM     83  C   UNL A   1      39.193  23.984  26.985  1.00  0.00     0.198 A 
ATOM     84  C   UNL A   1      41.207  23.093  27.860  1.00  0.00     0.198 A 
ATOM     85  F   UNL A   1      42.626  24.390  29.125  1.00  0.00    -0.203 F 
ATOM     86  F   UNL A   1      38.033  23.805  26.337  1.00  0.00    -0.200 F 
ATOM     87  C   UNL A   1      40.050  22.913  27.141  1.00  0.00     0.200 A 
ATOM     88  F   UNL A   1      42.052  22.071  28.052  1.00  0.00    -0.200 F 
ATOM     89  F   UNL A   1      39.757  21.713  26.623  1.00  0.00    -0.200 F 
ENDBRANCH  55  79
BRANCH  67  90
ATOM     90  C   UNL A   1      45.302  29.159  30.002  1.00  0.00     0.064 A 
ATOM     91  C   UNL A   1      46.216  28.212  30.487  1.00  0.00     0.173 A 
ATOM     92  C   UNL A   1      44.533  29.826  30.968  1.00  0.00     0.173 A 
ATOM     93  F   UNL A   1      47.001  27.542  29.630  1.00  0.00    -0.203 F 
ATOM     94  C   UNL A   1      46.331  27.938  31.853  1.00  0.00     0.198 A 
ATOM     95  C   UNL A   1      44.645  29.560  32.332  1.00  0.00     0.198 A 
ATOM     96  F   UNL A   1      43.650  30.754  30.605  1.00  0.00    -0.203 F 
ATOM     97  F   UNL A   1      47.211  27.021  32.277  1.00  0.00    -0.200 F 
ATOM     98  C   UNL A   1      45.541  28.607  32.774  1.00  0.00     0.200 A 
ATOM     99  F   UNL A   1      43.884  30.229  33.212  1.00  0.00    -0.200 F 
ATOM    100  F   UNL A   1      45.652  28.344  34.085  1.00  0.00    -0.200 F 
ENDBRANCH  67  90
ENDBRANCH  41  42
ENDBRANCH  34  36
ENDBRANCH  33  34
ENDBRANCH  32  33
ENDBRANCH  31  32
ENDBRANCH  30  31
ENDBRANCH  29  30
ENDBRANCH  28  29
ENDBRANCH  27  28
ENDBRANCH  26  27
ENDBRANCH   1  26
TORSDOF 26
ENDMDL
MODEL 3
REMARK VINA RESULT:      -9.0      3.921      8.659
REMARK SMILES C[C@@H](CC[NH+](C)C)NC(=O)Cn1cccc1C(=O)OCCOCCOCCOCCOC(=O)c1ccc(-c2c3nc(c(-c4c(F)c(F)c(F)c(F)c4F)c4ccc([nH]4)c(-c4c(F)c(F)c(F)c(F)c4F)c4nc(c(-c5c(F)c(F)c(F)c(F)c5F)c5ccc2[nH]5)C=C4)C=C3)cc1
REMARK SMILES IDX 23 1 22 2 21 3 20 4 19 5 17 6 18 7 16 8 12 9 13 10 14 11
REMARK SMILES IDX 15 12 11 13 9 14 8 15 10 17 2 18 1 19 3 20 4 21 5 22 6 23
REMARK SMILES IDX 7 24 24 26 25 27 26 28 27 29 28 30 29 31 30 32 31 33 32 34
REMARK SMILES IDX 33 35 34 36 35 37 96 38 36 39 95 40 37 41 38 42 39 43 89 44
REMARK SMILES IDX 40 45 94 46 88 47 90 48 41 49 93 50 87 51 86 52 42 54 74 55
REMARK SMILES IDX 54 56 73 57 55 58 58 59 72 60 91 61 56 62 57 63 71 65 92 66
REMARK SMILES IDX 59 67 43 68 44 69 52 70 45 71 46 72 50 73 53 74 47 75 48 76
REMARK SMILES IDX 51 77 49 78 75 79 76 80 84 81 77 82 78 83 82 84 85 85 79 86
REMARK SMILES IDX 80 87 83 88 81 89 60 90 61 91 69 92 62 93 63 94 67 95 70 96
REMARK SMILES IDX 64 97 65 98 68 99 66 100
REMARK H PARENT 8 16 5 25 90 53 58 64
REMARK Flexibility Score: inf
ROOT
ATOM      1  C   UNL A   1      37.721  23.470  26.686  1.00  0.00     0.188 C 
ENDROOT
BRANCH   1   2
ATOM      2  O   UNL A   1      36.835  23.620  25.581  1.00  0.00    -0.376 OA
BRANCH   2   3
ATOM      3  C   UNL A   1      37.116  22.943  24.369  1.00  0.00     0.202 C 
BRANCH   3   4
ATOM      4  C   UNL A   1      35.922  22.451  23.567  1.00  0.00     0.261 C 
BRANCH   4   5
ATOM      5  O   UNL A   1      35.187  23.520  22.938  1.00  0.00    -0.459 OA
BRANCH   5   6
ATOM      6  C   UNL A   1      33.873  23.277  22.691  1.00  0.00     0.355 C 
ATOM      7  O   UNL A   1      33.281  23.660  21.693  1.00  0.00    -0.244 OA
BRANCH   6   8
ATOM      8  C   UNL A   1      33.290  22.407  23.698  1.00  0.00     0.128 A 
ATOM      9  N   UNL A   1      33.031  22.599  25.048  1.00  0.00    -0.333 N 
ATOM     10  C   UNL A   1      32.406  21.474  25.553  1.00  0.00     0.087 A 
ATOM     11  C   UNL A   1      32.288  20.545  24.554  1.00  0.00     0.020 A 
ATOM     12  C   UNL A   1      32.835  21.127  23.397  1.00  0.00     0.035 A 
BRANCH   9  13
ATOM     13  C   UNL A   1      33.318  23.744  25.906  1.00  0.00     0.222 C 
BRANCH  13  14
ATOM     14  C   UNL A   1      32.057  24.431  26.406  1.00  0.00     0.240 C 
ATOM     15  N   UNL A   1      31.618  25.587  25.823  1.00  0.00    -0.352 N 
ATOM     16  H   UNL A   1      30.823  26.002  26.230  1.00  0.00     0.163 HD
ATOM     17  O   UNL A   1      31.410  23.981  27.355  1.00  0.00    -0.273 OA
BRANCH  15  18
ATOM     18  C   UNL A   1      32.180  26.278  24.676  1.00  0.00     0.084 C 
ATOM     19  C   UNL A   1      31.365  25.970  23.423  1.00  0.00     0.031 C 
BRANCH  18  20
ATOM     20  C   UNL A   1      32.578  27.727  25.004  1.00  0.00     0.086 C 
BRANCH  20  21
ATOM     21  C   UNL A   1      32.430  28.763  23.889  1.00  0.00     0.263 C 
BRANCH  21  22
ATOM     22  N   UNL A   1      31.445  29.825  24.126  1.00  0.00    -0.340 N 
ATOM     23  C   UNL A   1      30.118  29.355  23.719  1.00  0.00     0.332 C 
ATOM     24  C   UNL A   1      31.389  30.346  25.485  1.00  0.00     0.332 C 
ATOM     25  H   UNL A   1      31.759  30.613  23.558  1.00  0.00     0.347 HD
ENDBRANCH  21  22
ENDBRANCH  20  21
ENDBRANCH  18  20
ENDBRANCH  15  18
ENDBRANCH  13  14
ENDBRANCH   9  13
ENDBRANCH   6   8
ENDBRANCH   5   6
ENDBRANCH   4   5
ENDBRANCH   3   4
ENDBRANCH   2   3
ENDBRANCH   1   2
BRANCH   1  26
ATOM     26  C   UNL A   1      39.266  23.530  26.546  1.00  0.00     0.188 C 
BRANCH  26  27
ATOM     27  O   UNL A   1      39.954  22.328  26.195  1.00  0.00    -0.377 OA
BRANCH  27  28
ATOM     28  C   UNL A   1      40.346  21.549  27.333  1.00  0.00     0.188 C 
BRANCH  28  29
ATOM     29  C   UNL A   1      41.821  21.093  27.315  1.00  0.00     0.188 C 
BRANCH  29  30
ATOM     30  O   UNL A   1      42.383  21.122  26.008  1.00  0.00    -0.376 OA
BRANCH  30  31
ATOM     31  C   UNL A   1      43.627  21.763  25.780  1.00  0.00     0.202 C 
BRANCH  31  32
ATOM     32  C   UNL A   1      43.532  23.009  24.892  1.00  0.00     0.261 C 
BRANCH  32  33
ATOM     33  O   UNL A   1      42.445  23.854  25.252  1.00  0.00    -0.460 OA
BRANCH  33  34
ATOM     34  C   UNL A   1      42.823  25.134  25.417  1.00  0.00     0.338 C 
ATOM     35  O   UNL A   1      42.868  26.022  24.584  1.00  0.00    -0.246 OA
BRANCH  34  36
ATOM     36  C   UNL A   1      43.251  25.342  26.792  1.00  0.00     0.060 A 
ATOM     37  C   UNL A   1      42.340  24.886  27.750  1.00  0.00     0.016 A 
ATOM     38  C   UNL A   1      44.058  26.468  26.958  1.00  0.00     0.016 A 
ATOM     39  C   UNL A   1      41.999  25.755  28.752  1.00  0.00     0.010 A 
ATOM     40  C   UNL A   1      43.667  27.365  27.914  1.00  0.00     0.010 A 
ATOM     41  C   UNL A   1      42.593  27.022  28.747  1.00  0.00    -0.014 A 
BRANCH  41  42
ATOM     42  C   UNL A   1      42.086  28.006  29.693  1.00  0.00     0.031 A 
ATOM     43  C   UNL A   1      42.856  27.931  30.992  1.00  0.00     0.074 A 
ATOM     44  C   UNL A   1      41.022  28.741  29.255  1.00  0.00     0.049 A 
ATOM     45  N   UNL A   1      42.475  28.238  32.189  1.00  0.00    -0.248 NA
ATOM     46  C   UNL A   1      44.223  27.336  30.983  1.00  0.00     0.031 C 
ATOM     47  C   UNL A   1      40.416  28.617  27.912  1.00  0.00     0.029 A 
ATOM     48  N   UNL A   1      40.229  29.710  29.827  1.00  0.00    -0.354 N 
ATOM     49  C   UNL A   1      43.594  28.072  33.017  1.00  0.00     0.074 A 
ATOM     50  C   UNL A   1      44.586  27.377  32.261  1.00  0.00     0.031 C 
ATOM     51  C   UNL A   1      39.329  29.408  27.803  1.00  0.00     0.029 A 
ATOM     52  C   UNL A   1      39.135  30.144  29.036  1.00  0.00     0.049 A 
ATOM     53  H   UNL A   1      40.409  30.077  30.724  1.00  0.00     0.167 HD
ATOM     54  C   UNL A   1      43.705  28.669  34.232  1.00  0.00     0.037 A 
ATOM     55  C   UNL A   1      38.122  31.002  29.370  1.00  0.00     0.037 A 
ATOM     56  C   UNL A   1      42.513  29.378  34.558  1.00  0.00     0.049 A 
ATOM     57  C   UNL A   1      38.457  31.487  30.723  1.00  0.00     0.074 A 
ATOM     58  C   UNL A   1      41.264  28.962  34.939  1.00  0.00     0.029 A 
ATOM     59  N   UNL A   1      42.438  30.689  34.156  1.00  0.00    -0.354 N 
ATOM     60  N   UNL A   1      39.415  32.322  30.998  1.00  0.00    -0.248 NA
ATOM     61  C   UNL A   1      37.752  30.910  31.874  1.00  0.00     0.031 C 
ATOM     62  C   UNL A   1      40.388  29.934  34.404  1.00  0.00     0.029 A 
ATOM     63  C   UNL A   1      41.134  30.952  33.803  1.00  0.00     0.049 A 
ATOM     64  H   UNL A   1      43.186  31.329  34.125  1.00  0.00     0.167 HD
ATOM     65  C   UNL A   1      39.624  32.112  32.344  1.00  0.00     0.074 A 
ATOM     66  C   UNL A   1      38.424  31.499  32.858  1.00  0.00     0.031 C 
ATOM     67  C   UNL A   1      40.890  31.984  32.819  1.00  0.00     0.037 A 
BRANCH  54  68
ATOM     68  C   UNL A   1      44.920  28.867  35.077  1.00  0.00     0.064 A 
ATOM     69  C   UNL A   1      45.908  29.763  34.621  1.00  0.00     0.173 A 
ATOM     70  C   UNL A   1      45.284  28.004  36.122  1.00  0.00     0.173 A 
ATOM     71  F   UNL A   1      45.636  30.641  33.643  1.00  0.00    -0.203 F 
ATOM     72  C   UNL A   1      47.212  29.723  35.107  1.00  0.00     0.198 A 
ATOM     73  C   UNL A   1      46.579  28.004  36.642  1.00  0.00     0.198 A 
ATOM     74  F   UNL A   1      44.438  27.079  36.592  1.00  0.00    -0.203 F 
ATOM     75  F   UNL A   1      48.150  30.505  34.557  1.00  0.00    -0.200 F 
ATOM     76  C   UNL A   1      47.549  28.834  36.109  1.00  0.00     0.200 A 
ATOM     77  F   UNL A   1      46.900  27.140  37.615  1.00  0.00    -0.200 F 
ATOM     78  F   UNL A   1      48.816  28.750  36.536  1.00  0.00    -0.200 F 
ENDBRANCH  54  68
BRANCH  55  79
ATOM     79  C   UNL A   1      36.802  31.450  28.776  1.00  0.00     0.064 A 
ATOM     80  C   UNL A   1      35.719  30.622  28.445  1.00  0.00     0.173 A 
ATOM     81  C   UNL A   1      36.553  32.834  28.554  1.00  0.00     0.173 A 
ATOM     82  F   UNL A   1      35.830  29.292  28.451  1.00  0.00    -0.203 F 
ATOM     83  C   UNL A   1      34.468  31.139  28.057  1.00  0.00     0.198 A 
ATOM     84  C   UNL A   1      35.306  33.350  28.197  1.00  0.00     0.198 A 
ATOM     85  F   UNL A   1      37.521  33.752  28.678  1.00  0.00    -0.203 F 
ATOM     86  F   UNL A   1      33.462  30.297  27.777  1.00  0.00    -0.200 F 
ATOM     87  C   UNL A   1      34.252  32.500  27.967  1.00  0.00     0.200 A 
ATOM     88  F   UNL A   1      35.141  34.677  28.096  1.00  0.00    -0.200 F 
ATOM     89  F   UNL A   1      33.048  32.988  27.643  1.00  0.00    -0.200 F 
ENDBRANCH  55  79
BRANCH  67  90
ATOM     90  C   UNL A   1      41.927  32.638  31.929  1.00  0.00     0.064 A 
ATOM     91  C   UNL A   1      42.002  34.036  31.848  1.00  0.00     0.173 A 
ATOM     92  C   UNL A   1      42.746  31.923  31.041  1.00  0.00     0.173 A 
ATOM     93  F   UNL A   1      41.263  34.793  32.673  1.00  0.00    -0.203 F 
ATOM     94  C   UNL A   1      42.829  34.673  30.918  1.00  0.00     0.198 A 
ATOM     95  C   UNL A   1      43.576  32.552  30.113  1.00  0.00     0.198 A 
ATOM     96  F   UNL A   1      42.756  30.592  31.055  1.00  0.00    -0.203 F 
ATOM     97  F   UNL A   1      42.868  36.011  30.865  1.00  0.00    -0.200 F 
ATOM     98  C   UNL A   1      43.611  33.930  30.046  1.00  0.00     0.200 A 
ATOM     99  F   UNL A   1      44.338  31.817  29.289  1.00  0.00    -0.200 F 
ATOM    100  F   UNL A   1      44.404  34.541  29.155  1.00  0.00    -0.200 F 
ENDBRANCH  67  90
ENDBRANCH  41  42
ENDBRANCH  34  36
ENDBRANCH  33  34
ENDBRANCH  32  33
ENDBRANCH  31  32
ENDBRANCH  30  31
ENDBRANCH  29  30
ENDBRANCH  28  29
ENDBRANCH  27  28
ENDBRANCH  26  27
ENDBRANCH   1  26
TORSDOF 26
ENDMDL
