MODEL 1
REMARK VINA RESULT:     -11.0      0.000      0.000
REMARK SMILES O=C(OCCOCCOCCOCCOC(=O)c1ccc(-c2c3nc(c(-c4c(F)c(F)c(F)c(F)c4F)c4ccc([nH]4)c(-c4c(F)c(F)c(F)c(F)c4F)c4nc(c(-c5c(F)c(F)c(F)c(F)c5F)c5ccc2[nH]5)C=C4)C=C3)cc1)C1=Cc2c(ccc(Cl)c2Cl)O[C@H]1C(F)(F)F
REMARK SMILES IDX 10 1 9 2 8 3 7 4 6 5 5 6 4 7 3 8 2 9 1 10 81 11 82 12 92 13
REMARK SMILES IDX 83 14 91 15 84 16 89 17 85 18 87 19 90 20 86 21 88 22 93 23
REMARK SMILES IDX 94 24 95 25 96 26 11 27 12 28 13 29 14 30 15 31 16 32 17 33
REMARK SMILES IDX 18 34 19 35 80 36 20 37 79 38 21 39 22 40 23 41 73 42 24 43
REMARK SMILES IDX 78 44 72 45 74 46 25 47 77 48 71 49 70 50 26 52 58 53 38 54
REMARK SMILES IDX 57 55 39 56 42 57 56 58 75 59 40 60 41 61 55 63 76 64 43 65
REMARK SMILES IDX 27 66 28 67 36 68 29 69 30 70 34 71 37 72 31 73 32 74 35 75
REMARK SMILES IDX 33 76 59 77 60 78 68 79 61 80 62 81 66 82 69 83 63 84 64 85
REMARK SMILES IDX 67 86 65 87 44 88 45 89 53 90 46 91 47 92 51 93 54 94 48 95
REMARK SMILES IDX 49 96 52 97 50 98
REMARK H PARENT 74 51 42 62
REMARK Flexibility Score: inf
ROOT
ATOM      1  C   UNL A   1      32.550  20.058  23.702  1.00  0.00     0.188 C 
ENDROOT
BRANCH   1   2
ATOM      2  O   UNL A   1      32.242  21.435  23.885  1.00  0.00    -0.377 OA
BRANCH   2   3
ATOM      3  C   UNL A   1      32.015  22.234  22.734  1.00  0.00     0.188 C 
BRANCH   3   4
ATOM      4  C   UNL A   1      33.204  23.081  22.271  1.00  0.00     0.188 C 
BRANCH   4   5
ATOM      5  O   UNL A   1      33.057  24.460  22.572  1.00  0.00    -0.376 OA
BRANCH   5   6
ATOM      6  C   UNL A   1      32.840  25.292  21.439  1.00  0.00     0.202 C 
BRANCH   6   7
ATOM      7  C   UNL A   1      31.723  26.300  21.648  1.00  0.00     0.261 C 
BRANCH   7   8
ATOM      8  O   UNL A   1      31.141  26.209  22.959  1.00  0.00    -0.460 OA
BRANCH   8   9
ATOM      9  C   UNL A   1      30.766  27.235  23.760  1.00  0.00     0.338 C 
ATOM     10  O   UNL A   1      29.644  27.718  23.636  1.00  0.00    -0.246 OA
BRANCH   9  11
ATOM     11  C   UNL A   1      31.592  27.625  24.929  1.00  0.00     0.087 C 
ATOM     12  C   UNL A   1      31.346  28.591  25.820  1.00  0.00     0.029 C 
ATOM     13  C   UNL A   1      32.558  26.551  25.394  1.00  0.00     0.316 C 
ATOM     14  C   UNL A   1      32.491  29.162  26.510  1.00  0.00     0.037 A 
ATOM     15  O   UNL A   1      33.601  27.012  26.311  1.00  0.00    -0.475 OA
ATOM     16  C   UNL A   1      33.581  28.319  26.716  1.00  0.00     0.129 A 
ATOM     17  C   UNL A   1      32.590  30.536  26.842  1.00  0.00     0.070 A 
ATOM     18  C   UNL A   1      34.735  28.811  27.320  1.00  0.00     0.049 A 
ATOM     19  C   UNL A   1      33.770  31.030  27.407  1.00  0.00     0.060 A 
ATOM     20  Cl  UNL A   1      31.303  31.646  26.468  1.00  0.00    -0.082 Cl
ATOM     21  C   UNL A   1      34.833  30.163  27.659  1.00  0.00     0.026 A 
ATOM     22  Cl  UNL A   1      33.994  32.705  27.787  1.00  0.00    -0.083 Cl
BRANCH  13  23
ATOM     23  C   UNL A   1      31.735  25.395  26.050  1.00  0.00     0.430 C 
ATOM     24  F   UNL A   1      30.413  25.684  26.175  1.00  0.00    -0.167 F 
ATOM     25  F   UNL A   1      31.828  24.249  25.337  1.00  0.00    -0.167 F 
ATOM     26  F   UNL A   1      32.168  25.116  27.305  1.00  0.00    -0.167 F 
ENDBRANCH  13  23
ENDBRANCH   9  11
ENDBRANCH   8   9
ENDBRANCH   7   8
ENDBRANCH   6   7
ENDBRANCH   5   6
ENDBRANCH   4   5
ENDBRANCH   3   4
ENDBRANCH   2   3
ENDBRANCH   1   2
BRANCH   1  27
ATOM     27  C   UNL A   1      33.413  19.453  24.833  1.00  0.00     0.188 C 
BRANCH  27  28
ATOM     28  O   UNL A   1      34.841  19.469  24.765  1.00  0.00    -0.376 OA
BRANCH  28  29
ATOM     29  C   UNL A   1      35.509  20.698  25.000  1.00  0.00     0.202 C 
BRANCH  29  30
ATOM     30  C   UNL A   1      37.044  20.566  24.932  1.00  0.00     0.261 C 
BRANCH  30  31
ATOM     31  O   UNL A   1      37.773  21.634  25.575  1.00  0.00    -0.460 OA
BRANCH  31  32
ATOM     32  C   UNL A   1      39.009  21.310  26.055  1.00  0.00     0.338 C 
ATOM     33  O   UNL A   1      39.581  20.256  25.933  1.00  0.00    -0.246 OA
BRANCH  32  34
ATOM     34  C   UNL A   1      39.649  22.526  26.652  1.00  0.00     0.060 A 
ATOM     35  C   UNL A   1      39.132  23.781  26.300  1.00  0.00     0.016 A 
ATOM     36  C   UNL A   1      40.726  22.453  27.540  1.00  0.00     0.016 A 
ATOM     37  C   UNL A   1      39.709  24.959  26.797  1.00  0.00     0.010 A 
ATOM     38  C   UNL A   1      41.315  23.634  28.026  1.00  0.00     0.010 A 
ATOM     39  C   UNL A   1      40.833  24.897  27.631  1.00  0.00    -0.014 A 
BRANCH  39  40
ATOM     40  C   UNL A   1      41.644  26.121  27.901  1.00  0.00     0.031 A 
ATOM     41  C   UNL A   1      40.999  27.237  28.682  1.00  0.00     0.074 A 
ATOM     42  C   UNL A   1      42.916  26.265  27.478  1.00  0.00     0.049 A 
ATOM     43  N   UNL A   1      41.441  28.442  28.945  1.00  0.00    -0.248 NA
ATOM     44  C   UNL A   1      39.666  26.954  29.236  1.00  0.00     0.031 C 
ATOM     45  C   UNL A   1      43.695  25.256  26.770  1.00  0.00     0.029 A 
ATOM     46  N   UNL A   1      43.770  27.342  27.574  1.00  0.00    -0.354 N 
ATOM     47  C   UNL A   1      40.432  29.063  29.671  1.00  0.00     0.074 A 
ATOM     48  C   UNL A   1      39.351  28.111  29.798  1.00  0.00     0.031 C 
ATOM     49  C   UNL A   1      44.904  25.768  26.471  1.00  0.00     0.029 A 
ATOM     50  C   UNL A   1      44.971  27.157  26.928  1.00  0.00     0.049 A 
ATOM     51  H   UNL A   1      43.543  28.168  28.059  1.00  0.00     0.167 HD
ATOM     52  C   UNL A   1      40.404  30.316  30.184  1.00  0.00     0.037 A 
ATOM     53  C   UNL A   1      45.986  28.018  26.700  1.00  0.00     0.037 A 
ATOM     54  C   UNL A   1      41.480  31.264  30.080  1.00  0.00     0.049 A 
ATOM     55  C   UNL A   1      45.897  29.438  27.214  1.00  0.00     0.074 A 
ATOM     56  C   UNL A   1      41.555  32.541  30.609  1.00  0.00     0.029 A 
ATOM     57  N   UNL A   1      42.662  31.046  29.391  1.00  0.00    -0.354 N 
ATOM     58  N   UNL A   1      44.954  30.008  27.925  1.00  0.00    -0.248 NA
ATOM     59  C   UNL A   1      47.014  30.341  26.884  1.00  0.00     0.031 C 
ATOM     60  C   UNL A   1      42.751  33.122  30.179  1.00  0.00     0.029 A 
ATOM     61  C   UNL A   1      43.451  32.184  29.440  1.00  0.00     0.049 A 
ATOM     62  H   UNL A   1      42.904  30.209  28.933  1.00  0.00     0.167 HD
ATOM     63  C   UNL A   1      45.373  31.316  28.146  1.00  0.00     0.074 A 
ATOM     64  C   UNL A   1      46.665  31.456  27.511  1.00  0.00     0.031 C 
ATOM     65  C   UNL A   1      44.742  32.313  28.815  1.00  0.00     0.037 A 
BRANCH  52  66
ATOM     66  C   UNL A   1      39.147  30.761  30.873  1.00  0.00     0.064 A 
ATOM     67  C   UNL A   1      38.062  31.302  30.167  1.00  0.00     0.173 A 
ATOM     68  C   UNL A   1      39.010  30.592  32.260  1.00  0.00     0.173 A 
ATOM     69  F   UNL A   1      38.147  31.497  28.842  1.00  0.00    -0.203 F 
ATOM     70  C   UNL A   1      36.894  31.676  30.829  1.00  0.00     0.198 A 
ATOM     71  C   UNL A   1      37.831  30.936  32.912  1.00  0.00     0.198 A 
ATOM     72  F   UNL A   1      40.017  30.075  32.980  1.00  0.00    -0.203 F 
ATOM     73  F   UNL A   1      35.885  32.228  30.141  1.00  0.00    -0.200 F 
ATOM     74  C   UNL A   1      36.776  31.483  32.197  1.00  0.00     0.200 A 
ATOM     75  F   UNL A   1      37.713  30.734  34.232  1.00  0.00    -0.200 F 
ATOM     76  F   UNL A   1      35.646  31.829  32.829  1.00  0.00    -0.200 F 
ENDBRANCH  52  66
BRANCH  53  77
ATOM     77  C   UNL A   1      47.168  27.594  25.895  1.00  0.00     0.064 A 
ATOM     78  C   UNL A   1      48.346  27.139  26.509  1.00  0.00     0.173 A 
ATOM     79  C   UNL A   1      47.168  27.700  24.496  1.00  0.00     0.173 A 
ATOM     80  F   UNL A   1      48.415  27.056  27.846  1.00  0.00    -0.203 F 
ATOM     81  C   UNL A   1      49.480  26.832  25.758  1.00  0.00     0.198 A 
ATOM     82  C   UNL A   1      48.291  27.358  23.744  1.00  0.00     0.198 A 
ATOM     83  F   UNL A   1      46.076  28.141  23.855  1.00  0.00    -0.203 F 
ATOM     84  F   UNL A   1      50.611  26.463  26.376  1.00  0.00    -0.200 F 
ATOM     85  C   UNL A   1      49.450  26.935  24.376  1.00  0.00     0.200 A 
ATOM     86  F   UNL A   1      48.253  27.450  22.407  1.00  0.00    -0.200 F 
ATOM     87  F   UNL A   1      50.540  26.641  23.654  1.00  0.00    -0.200 F 
ENDBRANCH  53  77
BRANCH  65  88
ATOM     88  C   UNL A   1      45.439  33.641  28.928  1.00  0.00     0.064 A 
ATOM     89  C   UNL A   1      46.351  33.909  29.960  1.00  0.00     0.173 A 
ATOM     90  C   UNL A   1      45.251  34.628  27.949  1.00  0.00     0.173 A 
ATOM     91  F   UNL A   1      46.559  33.005  30.929  1.00  0.00    -0.203 F 
ATOM     92  C   UNL A   1      47.035  35.121  30.015  1.00  0.00     0.198 A 
ATOM     93  C   UNL A   1      45.961  35.826  27.989  1.00  0.00     0.198 A 
ATOM     94  F   UNL A   1      44.398  34.420  26.934  1.00  0.00    -0.203 F 
ATOM     95  F   UNL A   1      47.874  35.369  31.030  1.00  0.00    -0.200 F 
ATOM     96  C   UNL A   1      46.849  36.073  29.023  1.00  0.00     0.200 A 
ATOM     97  F   UNL A   1      45.792  36.736  27.019  1.00  0.00    -0.200 F 
ATOM     98  F   UNL A   1      47.522  37.231  29.068  1.00  0.00    -0.200 F 
ENDBRANCH  65  88
ENDBRANCH  39  40
ENDBRANCH  32  34
ENDBRANCH  31  32
ENDBRANCH  30  31
ENDBRANCH  29  30
ENDBRANCH  28  29
ENDBRANCH  27  28
ENDBRANCH   1  27
TORSDOF 21
ENDMDL
MODEL 2
REMARK VINA RESULT:     -10.9      3.240      8.757
REMARK SMILES O=C(OCCOCCOCCOCCOC(=O)c1ccc(-c2c3nc(c(-c4c(F)c(F)c(F)c(F)c4F)c4ccc([nH]4)c(-c4c(F)c(F)c(F)c(F)c4F)c4nc(c(-c5c(F)c(F)c(F)c(F)c5F)c5ccc2[nH]5)C=C4)C=C3)cc1)C1=Cc2c(ccc(Cl)c2Cl)O[C@H]1C(F)(F)F
REMARK SMILES IDX 10 1 9 2 8 3 7 4 6 5 5 6 4 7 3 8 2 9 1 10 81 11 82 12 92 13
REMARK SMILES IDX 83 14 91 15 84 16 89 17 85 18 87 19 90 20 86 21 88 22 93 23
REMARK SMILES IDX 94 24 95 25 96 26 11 27 12 28 13 29 14 30 15 31 16 32 17 33
REMARK SMILES IDX 18 34 19 35 80 36 20 37 79 38 21 39 22 40 23 41 73 42 24 43
REMARK SMILES IDX 78 44 72 45 74 46 25 47 77 48 71 49 70 50 26 52 58 53 38 54
REMARK SMILES IDX 57 55 39 56 42 57 56 58 75 59 40 60 41 61 55 63 76 64 43 65
REMARK SMILES IDX 27 66 28 67 36 68 29 69 30 70 34 71 37 72 31 73 32 74 35 75
REMARK SMILES IDX 33 76 59 77 60 78 68 79 61 80 62 81 66 82 69 83 63 84 64 85
REMARK SMILES IDX 67 86 65 87 44 88 45 89 53 90 46 91 47 92 51 93 54 94 48 95
REMARK SMILES IDX 49 96 52 97 50 98
REMARK H PARENT 74 51 42 62
REMARK Flexibility Score: inf
ROOT
ATOM      1  C   UNL A   1      34.488  34.930  28.110  1.00  0.00     0.188 C 
ENDROOT
BRANCH   1   2
ATOM      2  O   UNL A   1      34.378  33.667  27.463  1.00  0.00    -0.377 OA
BRANCH   2   3
ATOM      3  C   UNL A   1      35.086  32.566  28.011  1.00  0.00     0.188 C 
BRANCH   3   4
ATOM      4  C   UNL A   1      34.223  31.376  28.446  1.00  0.00     0.188 C 
BRANCH   4   5
ATOM      5  O   UNL A   1      33.341  30.927  27.429  1.00  0.00    -0.376 OA
BRANCH   5   6
ATOM      6  C   UNL A   1      33.781  29.767  26.735  1.00  0.00     0.202 C 
BRANCH   6   7
ATOM      7  C   UNL A   1      33.205  29.658  25.333  1.00  0.00     0.261 C 
BRANCH   7   8
ATOM      8  O   UNL A   1      33.752  28.548  24.602  1.00  0.00    -0.460 OA
BRANCH   8   9
ATOM      9  C   UNL A   1      33.138  27.825  23.634  1.00  0.00     0.338 C 
ATOM     10  O   UNL A   1      33.085  28.271  22.491  1.00  0.00    -0.246 OA
BRANCH   9  11
ATOM     11  C   UNL A   1      32.743  26.416  23.877  1.00  0.00     0.087 C 
ATOM     12  C   UNL A   1      33.197  25.591  24.825  1.00  0.00     0.029 C 
ATOM     13  C   UNL A   1      31.403  26.033  23.278  1.00  0.00     0.316 C 
ATOM     14  C   UNL A   1      33.119  24.164  24.555  1.00  0.00     0.037 A 
ATOM     15  O   UNL A   1      31.143  24.594  23.210  1.00  0.00    -0.475 OA
ATOM     16  C   UNL A   1      32.073  23.739  23.739  1.00  0.00     0.129 A 
ATOM     17  C   UNL A   1      34.116  23.242  24.961  1.00  0.00     0.070 A 
ATOM     18  C   UNL A   1      31.965  22.396  23.390  1.00  0.00     0.049 A 
ATOM     19  C   UNL A   1      34.023  21.902  24.569  1.00  0.00     0.060 A 
ATOM     20  Cl  UNL A   1      35.511  23.764  25.860  1.00  0.00    -0.082 Cl
ATOM     21  C   UNL A   1      32.940  21.480  23.798  1.00  0.00     0.026 A 
ATOM     22  Cl  UNL A   1      35.228  20.726  24.972  1.00  0.00    -0.083 Cl
BRANCH  13  23
ATOM     23  C   UNL A   1      30.275  26.747  24.092  1.00  0.00     0.430 C 
ATOM     24  F   UNL A   1      30.754  27.608  25.027  1.00  0.00    -0.167 F 
ATOM     25  F   UNL A   1      29.448  27.452  23.286  1.00  0.00    -0.167 F 
ATOM     26  F   UNL A   1      29.505  25.861  24.771  1.00  0.00    -0.167 F 
ENDBRANCH  13  23
ENDBRANCH   9  11
ENDBRANCH   8   9
ENDBRANCH   7   8
ENDBRANCH   6   7
ENDBRANCH   5   6
ENDBRANCH   4   5
ENDBRANCH   3   4
ENDBRANCH   2   3
ENDBRANCH   1   2
BRANCH   1  27
ATOM     27  C   UNL A   1      33.340  35.227  29.102  1.00  0.00     0.188 C 
BRANCH  27  28
ATOM     28  O   UNL A   1      33.290  34.604  30.387  1.00  0.00    -0.376 OA
BRANCH  28  29
ATOM     29  C   UNL A   1      34.496  34.496  31.127  1.00  0.00     0.202 C 
BRANCH  29  30
ATOM     30  C   UNL A   1      34.388  33.508  32.305  1.00  0.00     0.261 C 
BRANCH  30  31
ATOM     31  O   UNL A   1      35.060  32.245  32.102  1.00  0.00    -0.460 OA
BRANCH  31  32
ATOM     32  C   UNL A   1      36.190  32.045  32.840  1.00  0.00     0.338 C 
ATOM     33  O   UNL A   1      36.359  32.323  34.000  1.00  0.00    -0.246 OA
BRANCH  32  34
ATOM     34  C   UNL A   1      37.185  31.272  32.030  1.00  0.00     0.060 A 
ATOM     35  C   UNL A   1      38.103  30.461  32.714  1.00  0.00     0.016 A 
ATOM     36  C   UNL A   1      37.229  31.327  30.634  1.00  0.00     0.016 A 
ATOM     37  C   UNL A   1      39.083  29.740  32.015  1.00  0.00     0.010 A 
ATOM     38  C   UNL A   1      38.221  30.617  29.934  1.00  0.00     0.010 A 
ATOM     39  C   UNL A   1      39.177  29.845  30.622  1.00  0.00    -0.014 A 
BRANCH  39  40
ATOM     40  C   UNL A   1      40.392  29.355  29.906  1.00  0.00     0.031 A 
ATOM     41  C   UNL A   1      41.519  30.331  29.681  1.00  0.00     0.074 A 
ATOM     42  C   UNL A   1      40.519  28.090  29.458  1.00  0.00     0.049 A 
ATOM     43  N   UNL A   1      42.623  30.193  28.988  1.00  0.00    -0.248 NA
ATOM     44  C   UNL A   1      41.375  31.647  30.323  1.00  0.00     0.031 C 
ATOM     45  C   UNL A   1      39.549  27.019  29.654  1.00  0.00     0.029 A 
ATOM     46  N   UNL A   1      41.526  27.502  28.724  1.00  0.00    -0.354 N 
ATOM     47  C   UNL A   1      43.287  31.409  29.092  1.00  0.00     0.074 A 
ATOM     48  C   UNL A   1      42.461  32.277  29.902  1.00  0.00     0.031 C 
ATOM     49  C   UNL A   1      39.993  25.910  29.033  1.00  0.00     0.029 A 
ATOM     50  C   UNL A   1      41.259  26.202  28.359  1.00  0.00     0.049 A 
ATOM     51  H   UNL A   1      42.359  27.967  28.483  1.00  0.00     0.167 HD
ATOM     52  C   UNL A   1      44.477  31.775  28.558  1.00  0.00     0.037 A 
ATOM     53  C   UNL A   1      41.937  25.364  27.546  1.00  0.00     0.037 A 
ATOM     54  C   UNL A   1      45.314  30.914  27.767  1.00  0.00     0.049 A 
ATOM     55  C   UNL A   1      43.224  25.822  26.895  1.00  0.00     0.074 A 
ATOM     56  C   UNL A   1      46.557  31.188  27.224  1.00  0.00     0.029 A 
ATOM     57  N   UNL A   1      44.990  29.620  27.396  1.00  0.00    -0.354 N 
ATOM     58  N   UNL A   1      43.859  26.962  27.023  1.00  0.00    -0.248 NA
ATOM     59  C   UNL A   1      43.884  24.878  25.977  1.00  0.00     0.031 C 
ATOM     60  C   UNL A   1      46.952  30.085  26.462  1.00  0.00     0.029 A 
ATOM     61  C   UNL A   1      45.988  29.099  26.588  1.00  0.00     0.049 A 
ATOM     62  H   UNL A   1      44.172  29.142  27.664  1.00  0.00     0.167 HD
ATOM     63  C   UNL A   1      44.997  26.861  26.228  1.00  0.00     0.074 A 
ATOM     64  C   UNL A   1      44.978  25.543  25.635  1.00  0.00     0.031 C 
ATOM     65  C   UNL A   1      45.969  27.781  26.009  1.00  0.00     0.037 A 
BRANCH  52  66
ATOM     66  C   UNL A   1      44.933  33.189  28.770  1.00  0.00     0.064 A 
ATOM     67  C   UNL A   1      45.765  33.551  29.839  1.00  0.00     0.173 A 
ATOM     68  C   UNL A   1      44.570  34.187  27.852  1.00  0.00     0.173 A 
ATOM     69  F   UNL A   1      46.130  32.637  30.752  1.00  0.00    -0.203 F 
ATOM     70  C   UNL A   1      46.200  34.866  29.992  1.00  0.00     0.198 A 
ATOM     71  C   UNL A   1      45.033  35.491  27.990  1.00  0.00     0.198 A 
ATOM     72  F   UNL A   1      43.779  33.891  26.809  1.00  0.00    -0.203 F 
ATOM     73  F   UNL A   1      46.962  35.199  31.044  1.00  0.00    -0.200 F 
ATOM     74  C   UNL A   1      45.843  35.831  29.063  1.00  0.00     0.200 A 
ATOM     75  F   UNL A   1      44.699  36.419  27.081  1.00  0.00    -0.200 F 
ATOM     76  F   UNL A   1      46.276  37.092  29.204  1.00  0.00    -0.200 F 
ENDBRANCH  52  66
BRANCH  53  77
ATOM     77  C   UNL A   1      41.395  24.008  27.239  1.00  0.00     0.064 A 
ATOM     78  C   UNL A   1      40.233  23.842  26.469  1.00  0.00     0.173 A 
ATOM     79  C   UNL A   1      41.990  22.852  27.768  1.00  0.00     0.173 A 
ATOM     80  F   UNL A   1      39.601  24.916  25.971  1.00  0.00    -0.203 F 
ATOM     81  C   UNL A   1      39.677  22.580  26.262  1.00  0.00     0.198 A 
ATOM     82  C   UNL A   1      41.452  21.588  27.530  1.00  0.00     0.198 A 
ATOM     83  F   UNL A   1      43.094  22.950  28.522  1.00  0.00    -0.203 F 
ATOM     84  F   UNL A   1      38.531  22.459  25.577  1.00  0.00    -0.200 F 
ATOM     85  C   UNL A   1      40.291  21.454  26.787  1.00  0.00     0.200 A 
ATOM     86  F   UNL A   1      42.056  20.501  28.032  1.00  0.00    -0.200 F 
ATOM     87  F   UNL A   1      39.756  20.241  26.589  1.00  0.00    -0.200 F 
ENDBRANCH  53  77
BRANCH  65  88
ATOM     88  C   UNL A   1      47.116  27.399  25.114  1.00  0.00     0.064 A 
ATOM     89  C   UNL A   1      47.172  27.808  23.773  1.00  0.00     0.173 A 
ATOM     90  C   UNL A   1      48.208  26.681  25.626  1.00  0.00     0.173 A 
ATOM     91  F   UNL A   1      46.150  28.486  23.230  1.00  0.00    -0.203 F 
ATOM     92  C   UNL A   1      48.272  27.499  22.975  1.00  0.00     0.198 A 
ATOM     93  C   UNL A   1      49.320  26.403  24.835  1.00  0.00     0.198 A 
ATOM     94  F   UNL A   1      48.211  26.274  26.904  1.00  0.00    -0.203 F 
ATOM     95  F   UNL A   1      48.288  27.869  21.687  1.00  0.00    -0.200 F 
ATOM     96  C   UNL A   1      49.349  26.807  23.510  1.00  0.00     0.200 A 
ATOM     97  F   UNL A   1      50.368  25.750  25.359  1.00  0.00    -0.200 F 
ATOM     98  F   UNL A   1      50.414  26.527  22.745  1.00  0.00    -0.200 F 
ENDBRANCH  65  88
ENDBRANCH  39  40
ENDBRANCH  32  34
ENDBRANCH  31  32
ENDBRANCH  30  31
ENDBRANCH  29  30
ENDBRANCH  28  29
ENDBRANCH  27  28
ENDBRANCH   1  27
TORSDOF 21
ENDMDL
MODEL 3
REMARK VINA RESULT:     -10.8      4.587      9.163
REMARK SMILES O=C(OCCOCCOCCOCCOC(=O)c1ccc(-c2c3nc(c(-c4c(F)c(F)c(F)c(F)c4F)c4ccc([nH]4)c(-c4c(F)c(F)c(F)c(F)c4F)c4nc(c(-c5c(F)c(F)c(F)c(F)c5F)c5ccc2[nH]5)C=C4)C=C3)cc1)C1=Cc2c(ccc(Cl)c2Cl)O[C@H]1C(F)(F)F
REMARK SMILES IDX 10 1 9 2 8 3 7 4 6 5 5 6 4 7 3 8 2 9 1 10 81 11 82 12 92 13
REMARK SMILES IDX 83 14 91 15 84 16 89 17 85 18 87 19 90 20 86 21 88 22 93 23
REMARK SMILES IDX 94 24 95 25 96 26 11 27 12 28 13 29 14 30 15 31 16 32 17 33
REMARK SMILES IDX 18 34 19 35 80 36 20 37 79 38 21 39 22 40 23 41 73 42 24 43
REMARK SMILES IDX 78 44 72 45 74 46 25 47 77 48 71 49 70 50 26 52 58 53 38 54
REMARK SMILES IDX 57 55 39 56 42 57 56 58 75 59 40 60 41 61 55 63 76 64 43 65
REMARK SMILES IDX 27 66 28 67 36 68 29 69 30 70 34 71 37 72 31 73 32 74 35 75
REMARK SMILES IDX 33 76 59 77 60 78 68 79 61 80 62 81 66 82 69 83 63 84 64 85
REMARK SMILES IDX 67 86 65 87 44 88 45 89 53 90 46 91 47 92 51 93 54 94 48 95
REMARK SMILES IDX 49 96 52 97 50 98
REMARK H PARENT 74 51 42 62
REMARK Flexibility Score: inf
ROOT
ATOM      1  C   UNL A   1      42.862  19.291  25.537  1.00  0.00     0.188 C 
ENDROOT
BRANCH   1   2
ATOM      2  O   UNL A   1      42.039  20.450  25.589  1.00  0.00    -0.377 OA
BRANCH   2   3
ATOM      3  C   UNL A   1      41.398  20.767  26.815  1.00  0.00     0.188 C 
BRANCH   3   4
ATOM      4  C   UNL A   1      40.132  21.621  26.698  1.00  0.00     0.188 C 
BRANCH   4   5
ATOM      5  O   UNL A   1      39.350  21.305  25.556  1.00  0.00    -0.376 OA
BRANCH   5   6
ATOM      6  C   UNL A   1      37.975  21.646  25.670  1.00  0.00     0.202 C 
BRANCH   6   7
ATOM      7  C   UNL A   1      37.753  23.100  26.055  1.00  0.00     0.261 C 
BRANCH   7   8
ATOM      8  O   UNL A   1      36.543  23.635  25.495  1.00  0.00    -0.460 OA
BRANCH   8   9
ATOM      9  C   UNL A   1      35.277  23.424  25.930  1.00  0.00     0.338 C 
ATOM     10  O   UNL A   1      35.096  22.897  27.024  1.00  0.00    -0.246 OA
BRANCH   9  11
ATOM     11  C   UNL A   1      34.121  24.026  25.220  1.00  0.00     0.087 C 
ATOM     12  C   UNL A   1      34.091  25.170  24.531  1.00  0.00     0.029 C 
ATOM     13  C   UNL A   1      33.015  23.042  24.885  1.00  0.00     0.316 C 
ATOM     14  C   UNL A   1      32.804  25.834  24.406  1.00  0.00     0.037 A 
ATOM     15  O   UNL A   1      31.743  23.651  24.495  1.00  0.00    -0.475 OA
ATOM     16  C   UNL A   1      31.676  25.015  24.400  1.00  0.00     0.129 A 
ATOM     17  C   UNL A   1      32.652  27.243  24.433  1.00  0.00     0.070 A 
ATOM     18  C   UNL A   1      30.406  25.582  24.340  1.00  0.00     0.049 A 
ATOM     19  C   UNL A   1      31.369  27.803  24.417  1.00  0.00     0.060 A 
ATOM     20  Cl  UNL A   1      34.030  28.293  24.584  1.00  0.00    -0.082 Cl
ATOM     21  C   UNL A   1      30.251  26.971  24.355  1.00  0.00     0.026 A 
ATOM     22  Cl  UNL A   1      31.095  29.510  24.508  1.00  0.00    -0.083 Cl
BRANCH  13  23
ATOM     23  C   UNL A   1      33.527  22.088  23.757  1.00  0.00     0.430 C 
ATOM     24  F   UNL A   1      32.950  20.859  23.794  1.00  0.00    -0.167 F 
ATOM     25  F   UNL A   1      33.295  22.602  22.527  1.00  0.00    -0.167 F 
ATOM     26  F   UNL A   1      34.862  21.869  23.849  1.00  0.00    -0.167 F 
ENDBRANCH  13  23
ENDBRANCH   9  11
ENDBRANCH   8   9
ENDBRANCH   7   8
ENDBRANCH   6   7
ENDBRANCH   5   6
ENDBRANCH   4   5
ENDBRANCH   3   4
ENDBRANCH   2   3
ENDBRANCH   1   2
BRANCH   1  27
ATOM     27  C   UNL A   1      44.317  19.574  25.096  1.00  0.00     0.188 C 
BRANCH  27  28
ATOM     28  O   UNL A   1      44.952  20.821  25.390  1.00  0.00    -0.376 OA
BRANCH  28  29
ATOM     29  C   UNL A   1      45.223  21.705  24.315  1.00  0.00     0.202 C 
BRANCH  29  30
ATOM     30  C   UNL A   1      44.017  22.595  23.954  1.00  0.00     0.261 C 
BRANCH  30  31
ATOM     31  O   UNL A   1      43.516  23.407  25.039  1.00  0.00    -0.460 OA
BRANCH  31  32
ATOM     32  C   UNL A   1      44.127  24.614  25.213  1.00  0.00     0.338 C 
ATOM     33  O   UNL A   1      45.094  25.031  24.626  1.00  0.00    -0.246 OA
BRANCH  32  34
ATOM     34  C   UNL A   1      43.325  25.448  26.165  1.00  0.00     0.060 A 
ATOM     35  C   UNL A   1      43.474  26.841  26.106  1.00  0.00     0.016 A 
ATOM     36  C   UNL A   1      42.442  24.893  27.096  1.00  0.00     0.016 A 
ATOM     37  C   UNL A   1      42.778  27.675  26.994  1.00  0.00     0.010 A 
ATOM     38  C   UNL A   1      41.756  25.727  27.996  1.00  0.00     0.010 A 
ATOM     39  C   UNL A   1      41.945  27.123  27.975  1.00  0.00    -0.014 A 
BRANCH  39  40
ATOM     40  C   UNL A   1      41.462  27.957  29.115  1.00  0.00     0.031 A 
ATOM     41  C   UNL A   1      42.190  27.842  30.431  1.00  0.00     0.074 A 
ATOM     42  C   UNL A   1      40.414  28.797  29.016  1.00  0.00     0.049 A 
ATOM     43  N   UNL A   1      41.900  28.362  31.598  1.00  0.00    -0.248 NA
ATOM     44  C   UNL A   1      43.410  27.020  30.427  1.00  0.00     0.031 C 
ATOM     45  C   UNL A   1      39.652  29.065  27.802  1.00  0.00     0.029 A 
ATOM     46  N   UNL A   1      39.799  29.573  29.976  1.00  0.00    -0.354 N 
ATOM     47  C   UNL A   1      42.886  27.909  32.467  1.00  0.00     0.074 A 
ATOM     48  C   UNL A   1      43.774  27.065  31.699  1.00  0.00     0.031 C 
ATOM     49  C   UNL A   1      38.654  29.922  28.092  1.00  0.00     0.029 A 
ATOM     50  C   UNL A   1      38.680  30.232  29.522  1.00  0.00     0.049 A 
ATOM     51  H   UNL A   1      40.130  29.648  30.900  1.00  0.00     0.167 HD
ATOM     52  C   UNL A   1      43.039  28.169  33.787  1.00  0.00     0.037 A 
ATOM     53  C   UNL A   1      37.764  30.966  30.191  1.00  0.00     0.037 A 
ATOM     54  C   UNL A   1      42.172  29.022  34.555  1.00  0.00     0.049 A 
ATOM     55  C   UNL A   1      37.911  31.176  31.682  1.00  0.00     0.074 A 
ATOM     56  C   UNL A   1      42.278  29.377  35.889  1.00  0.00     0.029 A 
ATOM     57  N   UNL A   1      41.035  29.641  34.064  1.00  0.00    -0.354 N 
ATOM     58  N   UNL A   1      38.861  30.771  32.489  1.00  0.00    -0.248 NA
ATOM     59  C   UNL A   1      36.849  31.941  32.358  1.00  0.00     0.031 C 
ATOM     60  C   UNL A   1      41.165  30.152  36.223  1.00  0.00     0.029 A 
ATOM     61  C   UNL A   1      40.402  30.337  35.082  1.00  0.00     0.049 A 
ATOM     62  H   UNL A   1      40.722  29.594  33.132  1.00  0.00     0.167 HD
ATOM     63  C   UNL A   1      38.527  31.249  33.752  1.00  0.00     0.074 A 
ATOM     64  C   UNL A   1      37.295  31.992  33.606  1.00  0.00     0.031 C 
ATOM     65  C   UNL A   1      39.181  31.085  34.928  1.00  0.00     0.037 A 
BRANCH  52  66
ATOM     66  C   UNL A   1      44.164  27.487  34.508  1.00  0.00     0.064 A 
ATOM     67  C   UNL A   1      45.441  28.058  34.607  1.00  0.00     0.173 A 
ATOM     68  C   UNL A   1      43.939  26.262  35.157  1.00  0.00     0.173 A 
ATOM     69  F   UNL A   1      45.711  29.220  33.994  1.00  0.00    -0.203 F 
ATOM     70  C   UNL A   1      46.457  27.417  35.312  1.00  0.00     0.198 A 
ATOM     71  C   UNL A   1      44.947  25.641  35.887  1.00  0.00     0.198 A 
ATOM     72  F   UNL A   1      42.733  25.677  35.097  1.00  0.00    -0.203 F 
ATOM     73  F   UNL A   1      47.682  27.960  35.359  1.00  0.00    -0.200 F 
ATOM     74  C   UNL A   1      46.207  26.216  35.959  1.00  0.00     0.200 A 
ATOM     75  F   UNL A   1      44.698  24.489  36.525  1.00  0.00    -0.200 F 
ATOM     76  F   UNL A   1      47.182  25.609  36.650  1.00  0.00    -0.200 F 
ENDBRANCH  52  66
BRANCH  53  77
ATOM     77  C   UNL A   1      36.578  31.523  29.478  1.00  0.00     0.064 A 
ATOM     78  C   UNL A   1      35.538  30.693  29.030  1.00  0.00     0.173 A 
ATOM     79  C   UNL A   1      36.492  32.889  29.170  1.00  0.00     0.173 A 
ATOM     80  F   UNL A   1      35.588  29.372  29.263  1.00  0.00    -0.203 F 
ATOM     81  C   UNL A   1      34.475  31.203  28.284  1.00  0.00     0.198 A 
ATOM     82  C   UNL A   1      35.411  33.403  28.454  1.00  0.00     0.198 A 
ATOM     83  F   UNL A   1      37.462  33.728  29.560  1.00  0.00    -0.203 F 
ATOM     84  F   UNL A   1      33.531  30.376  27.814  1.00  0.00    -0.200 F 
ATOM     85  C   UNL A   1      34.410  32.558  28.002  1.00  0.00     0.200 A 
ATOM     86  F   UNL A   1      35.348  34.717  28.194  1.00  0.00    -0.200 F 
ATOM     87  F   UNL A   1      33.390  33.049  27.284  1.00  0.00    -0.200 F 
ENDBRANCH  53  77
BRANCH  65  88
ATOM     88  C   UNL A   1      38.607  31.738  36.154  1.00  0.00     0.064 A 
ATOM     89  C   UNL A   1      37.870  31.010  37.101  1.00  0.00     0.173 A 
ATOM     90  C   UNL A   1      38.865  33.091  36.426  1.00  0.00     0.173 A 
ATOM     91  F   UNL A   1      37.585  29.718  36.886  1.00  0.00    -0.203 F 
ATOM     92  C   UNL A   1      37.399  31.617  38.263  1.00  0.00     0.198 A 
ATOM     93  C   UNL A   1      38.421  33.686  37.604  1.00  0.00     0.198 A 
ATOM     94  F   UNL A   1      39.574  33.831  35.560  1.00  0.00    -0.203 F 
ATOM     95  F   UNL A   1      36.666  30.911  39.135  1.00  0.00    -0.200 F 
ATOM     96  C   UNL A   1      37.685  32.950  38.519  1.00  0.00     0.200 A 
ATOM     97  F   UNL A   1      38.714  34.969  37.858  1.00  0.00    -0.200 F 
ATOM     98  F   UNL A   1      37.247  33.527  39.647  1.00  0.00    -0.200 F 
ENDBRANCH  65  88
ENDBRANCH  39  40
ENDBRANCH  32  34
ENDBRANCH  31  32
ENDBRANCH  30  31
ENDBRANCH  29  30
ENDBRANCH  28  29
ENDBRANCH  27  28
ENDBRANCH   1  27
TORSDOF 21
ENDMDL
