MODEL 1
REMARK VINA RESULT:      -8.5      0.000      0.000
REMARK SMILES O=C(OCCOCCOCCOCCOC(=O)c1ccc(-n2cc(CSc3nc4ccccc4c(=O)n3-c3ccc(Cl)cc3)nn2)cc1)c1ccc(-c2c3nc(c(-c4c(F)c(F)c(F)c(F)c4F)c4ccc([nH]4)c(-c4c(F)c(F)c(F)c(F)c4F)c4nc(c(-c5c(F)c(F)c(F)c(F)c5F)c5ccc2[nH]5)C=C4)C=C3)cc1
REMARK SMILES IDX 10 1 9 2 8 3 7 4 6 5 5 6 4 7 3 8 2 9 1 10 49 11 50 12 111 13
REMARK SMILES IDX 51 14 110 15 52 16 53 17 54 18 104 19 55 20 109 21 103 22
REMARK SMILES IDX 105 23 56 24 108 25 102 26 101 27 57 29 89 30 69 31 88 32
REMARK SMILES IDX 70 33 73 34 87 35 106 36 71 37 72 38 86 40 107 41 74 42
REMARK SMILES IDX 58 43 59 44 67 45 60 46 61 47 65 48 68 49 62 50 63 51 66 52
REMARK SMILES IDX 64 53 90 54 91 55 99 56 92 57 93 58 97 59 100 60 94 61 95 62
REMARK SMILES IDX 98 63 96 64 75 65 76 66 84 67 77 68 78 69 82 70 85 71 79 72
REMARK SMILES IDX 80 73 83 74 81 75 11 76 12 77 13 78 14 79 15 80 16 81 17 82
REMARK SMILES IDX 18 83 19 84 48 85 20 86 47 87 21 88 22 89 23 90 46 91 24 92
REMARK SMILES IDX 45 93 25 94 26 95 27 96 28 97 37 98 29 99 35 100 30 101
REMARK SMILES IDX 34 102 36 103 31 104 33 105 32 106 38 107 39 108 44 109
REMARK SMILES IDX 40 110 43 111 41 112 42 113
REMARK H PARENT 105 28 73 39
REMARK Flexibility Score: inf
ROOT
ATOM      1  C   UNL A   1      46.716  26.714  26.690  1.00  0.00     0.188 C 
ENDROOT
BRANCH   1   2
ATOM      2  O   UNL A   1      45.312  26.675  26.783  1.00  0.00    -0.377 OA
BRANCH   2   3
ATOM      3  C   UNL A   1      44.673  26.234  25.599  1.00  0.00     0.188 C 
BRANCH   3   4
ATOM      4  C   UNL A   1      44.571  24.713  25.368  1.00  0.00     0.188 C 
BRANCH   4   5
ATOM      5  O   UNL A   1      43.565  23.992  24.660  1.00  0.00    -0.376 OA
BRANCH   5   6
ATOM      6  C   UNL A   1      43.258  22.617  24.674  1.00  0.00     0.202 C 
BRANCH   6   7
ATOM      7  C   UNL A   1      42.867  21.904  25.968  1.00  0.00     0.261 C 
BRANCH   7   8
ATOM      8  O   UNL A   1      41.477  21.899  26.264  1.00  0.00    -0.460 OA
BRANCH   8   9
ATOM      9  C   UNL A   1      40.675  22.943  26.553  1.00  0.00     0.338 C 
ATOM     10  O   UNL A   1      39.460  22.791  26.421  1.00  0.00    -0.246 OA
BRANCH   9  11
ATOM     11  C   UNL A   1      41.154  24.294  26.952  1.00  0.00     0.060 A 
ATOM     12  C   UNL A   1      42.035  24.591  27.995  1.00  0.00     0.016 A 
ATOM     13  C   UNL A   1      40.586  25.357  26.222  1.00  0.00     0.016 A 
ATOM     14  C   UNL A   1      42.176  25.891  28.437  1.00  0.00     0.010 A 
ATOM     15  C   UNL A   1      40.741  26.663  26.641  1.00  0.00     0.010 A 
ATOM     16  C   UNL A   1      41.451  26.894  27.810  1.00  0.00    -0.014 A 
BRANCH  16  17
ATOM     17  C   UNL A   1      41.404  28.176  28.476  1.00  0.00     0.031 A 
ATOM     18  C   UNL A   1      42.541  29.080  28.194  1.00  0.00     0.074 A 
ATOM     19  C   UNL A   1      40.359  28.473  29.272  1.00  0.00     0.049 A 
ATOM     20  N   UNL A   1      43.402  29.562  29.029  1.00  0.00    -0.248 NA
ATOM     21  C   UNL A   1      42.824  29.395  26.786  1.00  0.00     0.031 C 
ATOM     22  C   UNL A   1      39.098  27.739  29.419  1.00  0.00     0.029 A 
ATOM     23  N   UNL A   1      40.166  29.568  30.050  1.00  0.00    -0.354 N 
ATOM     24  C   UNL A   1      44.234  30.389  28.280  1.00  0.00     0.074 A 
ATOM     25  C   UNL A   1      43.926  30.136  26.896  1.00  0.00     0.031 C 
ATOM     26  C   UNL A   1      38.191  28.533  30.029  1.00  0.00     0.029 A 
ATOM     27  C   UNL A   1      38.847  29.765  30.428  1.00  0.00     0.049 A 
ATOM     28  H   UNL A   1      40.897  30.167  30.323  1.00  0.00     0.167 HD
ATOM     29  C   UNL A   1      44.946  31.389  28.865  1.00  0.00     0.037 A 
ATOM     30  C   UNL A   1      38.331  30.910  30.936  1.00  0.00     0.037 A 
ATOM     31  C   UNL A   1      45.109  31.167  30.276  1.00  0.00     0.049 A 
ATOM     32  C   UNL A   1      39.465  31.719  31.453  1.00  0.00     0.074 A 
ATOM     33  C   UNL A   1      45.716  30.187  31.037  1.00  0.00     0.029 A 
ATOM     34  N   UNL A   1      44.301  31.862  31.141  1.00  0.00    -0.354 N 
ATOM     35  N   UNL A   1      40.177  31.389  32.495  1.00  0.00    -0.248 NA
ATOM     36  C   UNL A   1      40.104  32.653  30.535  1.00  0.00     0.031 C 
ATOM     37  C   UNL A   1      44.883  30.040  32.185  1.00  0.00     0.029 A 
ATOM     38  C   UNL A   1      43.850  30.972  32.081  1.00  0.00     0.049 A 
ATOM     39  H   UNL A   1      44.085  32.821  31.096  1.00  0.00     0.167 HD
ATOM     40  C   UNL A   1      41.481  31.722  32.155  1.00  0.00     0.074 A 
ATOM     41  C   UNL A   1      41.362  32.575  30.976  1.00  0.00     0.031 C 
ATOM     42  C   UNL A   1      42.540  31.042  32.682  1.00  0.00     0.037 A 
BRANCH  29  43
ATOM     43  C   UNL A   1      45.164  32.739  28.230  1.00  0.00     0.064 A 
ATOM     44  C   UNL A   1      46.479  33.175  27.975  1.00  0.00     0.173 A 
ATOM     45  C   UNL A   1      44.167  33.738  28.160  1.00  0.00     0.173 A 
ATOM     46  F   UNL A   1      47.508  32.314  28.035  1.00  0.00    -0.203 F 
ATOM     47  C   UNL A   1      46.780  34.521  27.754  1.00  0.00     0.198 A 
ATOM     48  C   UNL A   1      44.466  35.070  27.884  1.00  0.00     0.198 A 
ATOM     49  F   UNL A   1      42.889  33.493  28.468  1.00  0.00    -0.203 F 
ATOM     50  F   UNL A   1      48.058  34.908  27.649  1.00  0.00    -0.200 F 
ATOM     51  C   UNL A   1      45.773  35.468  27.717  1.00  0.00     0.200 A 
ATOM     52  F   UNL A   1      43.476  35.976  27.871  1.00  0.00    -0.200 F 
ATOM     53  F   UNL A   1      46.065  36.767  27.571  1.00  0.00    -0.200 F 
ENDBRANCH  29  43
BRANCH  30  54
ATOM     54  C   UNL A   1      36.990  31.480  30.668  1.00  0.00     0.064 A 
ATOM     55  C   UNL A   1      36.104  31.765  31.718  1.00  0.00     0.173 A 
ATOM     56  C   UNL A   1      36.649  31.999  29.402  1.00  0.00     0.173 A 
ATOM     57  F   UNL A   1      36.380  31.350  32.962  1.00  0.00    -0.203 F 
ATOM     58  C   UNL A   1      34.956  32.538  31.516  1.00  0.00     0.198 A 
ATOM     59  C   UNL A   1      35.497  32.760  29.200  1.00  0.00     0.198 A 
ATOM     60  F   UNL A   1      37.471  31.860  28.352  1.00  0.00    -0.203 F 
ATOM     61  F   UNL A   1      34.165  32.842  32.555  1.00  0.00    -0.200 F 
ATOM     62  C   UNL A   1      34.658  33.042  30.260  1.00  0.00     0.200 A 
ATOM     63  F   UNL A   1      35.243  33.270  27.987  1.00  0.00    -0.200 F 
ATOM     64  F   UNL A   1      33.590  33.831  30.079  1.00  0.00    -0.200 F 
ENDBRANCH  30  54
BRANCH  42  65
ATOM     65  C   UNL A   1      42.271  30.105  33.825  1.00  0.00     0.064 A 
ATOM     66  C   UNL A   1      41.894  28.760  33.659  1.00  0.00     0.173 A 
ATOM     67  C   UNL A   1      42.548  30.542  35.126  1.00  0.00     0.173 A 
ATOM     68  F   UNL A   1      41.719  28.239  32.439  1.00  0.00    -0.203 F 
ATOM     69  C   UNL A   1      41.754  27.910  34.755  1.00  0.00     0.198 A 
ATOM     70  C   UNL A   1      42.444  29.680  36.214  1.00  0.00     0.198 A 
ATOM     71  F   UNL A   1      42.972  31.798  35.337  1.00  0.00    -0.203 F 
ATOM     72  F   UNL A   1      41.383  26.634  34.572  1.00  0.00    -0.200 F 
ATOM     73  C   UNL A   1      42.035  28.369  36.030  1.00  0.00     0.200 A 
ATOM     74  F   UNL A   1      42.770  30.114  37.440  1.00  0.00    -0.200 F 
ATOM     75  F   UNL A   1      41.943  27.540  37.079  1.00  0.00    -0.200 F 
ENDBRANCH  42  65
ENDBRANCH  16  17
ENDBRANCH   9  11
ENDBRANCH   8   9
ENDBRANCH   7   8
ENDBRANCH   6   7
ENDBRANCH   5   6
ENDBRANCH   4   5
ENDBRANCH   3   4
ENDBRANCH   2   3
ENDBRANCH   1   2
BRANCH   1  76
ATOM     76  C   UNL A   1      47.396  25.621  27.535  1.00  0.00     0.188 C 
BRANCH  76  77
ATOM     77  O   UNL A   1      46.945  25.350  28.850  1.00  0.00    -0.376 OA
BRANCH  77  78
ATOM     78  C   UNL A   1      47.593  25.949  29.962  1.00  0.00     0.202 C 
BRANCH  78  79
ATOM     79  C   UNL A   1      47.079  25.816  31.413  1.00  0.00     0.261 C 
BRANCH  79  80
ATOM     80  O   UNL A   1      46.210  26.843  31.911  1.00  0.00    -0.460 OA
BRANCH  80  81
ATOM     81  C   UNL A   1      44.907  26.505  32.076  1.00  0.00     0.338 C 
ATOM     82  O   UNL A   1      44.042  26.449  31.227  1.00  0.00    -0.246 OA
BRANCH  81  83
ATOM     83  C   UNL A   1      44.736  25.998  33.458  1.00  0.00     0.060 A 
ATOM     84  C   UNL A   1      45.235  26.772  34.519  1.00  0.00     0.018 A 
ATOM     85  C   UNL A   1      44.083  24.792  33.707  1.00  0.00     0.018 A 
ATOM     86  C   UNL A   1      45.042  26.378  35.838  1.00  0.00     0.029 A 
ATOM     87  C   UNL A   1      44.001  24.328  35.024  1.00  0.00     0.029 A 
ATOM     88  C   UNL A   1      44.486  25.124  36.078  1.00  0.00     0.066 A 
BRANCH  88  89
ATOM     89  N   UNL A   1      44.695  24.571  37.353  1.00  0.00    -0.220 N 
ATOM     90  C   UNL A   1      45.329  23.377  37.563  1.00  0.00     0.141 A 
ATOM     91  N   UNL A   1      44.624  25.258  38.513  1.00  0.00    -0.062 NA
ATOM     92  C   UNL A   1      45.697  23.385  38.888  1.00  0.00     0.093 A 
ATOM     93  N   UNL A   1      45.173  24.511  39.469  1.00  0.00    -0.134 NA
BRANCH  92  94
ATOM     94  C   UNL A   1      46.327  22.298  39.668  1.00  0.00     0.138 C 
BRANCH  94  95
ATOM     95  S   UNL A   1      48.059  21.857  39.547  1.00  0.00    -0.081 SA
BRANCH  95  96
ATOM     96  C   UNL A   1      48.655  21.703  37.917  1.00  0.00     0.176 A 
ATOM     97  N   UNL A   1      47.864  20.980  37.174  1.00  0.00    -0.223 NA
ATOM     98  N   UNL A   1      49.810  22.268  37.400  1.00  0.00    -0.255 N 
ATOM     99  C   UNL A   1      48.258  20.685  35.864  1.00  0.00     0.079 A 
ATOM    100  C   UNL A   1      50.469  21.458  36.468  1.00  0.00     0.266 A 
ATOM    101  C   UNL A   1      47.344  20.225  34.915  1.00  0.00     0.029 A 
ATOM    102  C   UNL A   1      49.598  20.756  35.514  1.00  0.00     0.066 A 
ATOM    103  O   UNL A   1      51.685  21.287  36.387  1.00  0.00    -0.268 OA
ATOM    104  C   UNL A   1      47.790  19.788  33.661  1.00  0.00     0.002 A 
ATOM    105  C   UNL A   1      50.068  20.275  34.288  1.00  0.00     0.016 A 
ATOM    106  C   UNL A   1      49.154  19.780  33.361  1.00  0.00     0.001 A 
BRANCH  98 107
ATOM    107  C   UNL A   1      50.381  23.562  37.711  1.00  0.00     0.051 A 
ATOM    108  C   UNL A   1      51.121  23.737  38.901  1.00  0.00     0.028 A 
ATOM    109  C   UNL A   1      50.290  24.690  36.886  1.00  0.00     0.028 A 
ATOM    110  C   UNL A   1      51.521  24.996  39.359  1.00  0.00     0.022 A 
ATOM    111  C   UNL A   1      50.634  25.968  37.359  1.00  0.00     0.022 A 
ATOM    112  C   UNL A   1      51.206  26.118  38.615  1.00  0.00     0.041 A 
ATOM    113  Cl  UNL A   1      51.495  27.684  39.257  1.00  0.00    -0.084 Cl
ENDBRANCH  98 107
ENDBRANCH  95  96
ENDBRANCH  94  95
ENDBRANCH  92  94
ENDBRANCH  88  89
ENDBRANCH  81  83
ENDBRANCH  80  81
ENDBRANCH  79  80
ENDBRANCH  78  79
ENDBRANCH  77  78
ENDBRANCH  76  77
ENDBRANCH   1  76
TORSDOF 25
ENDMDL
MODEL 2
REMARK VINA RESULT:      -8.5      4.909     10.411
REMARK SMILES O=C(OCCOCCOCCOCCOC(=O)c1ccc(-n2cc(CSc3nc4ccccc4c(=O)n3-c3ccc(Cl)cc3)nn2)cc1)c1ccc(-c2c3nc(c(-c4c(F)c(F)c(F)c(F)c4F)c4ccc([nH]4)c(-c4c(F)c(F)c(F)c(F)c4F)c4nc(c(-c5c(F)c(F)c(F)c(F)c5F)c5ccc2[nH]5)C=C4)C=C3)cc1
REMARK SMILES IDX 10 1 9 2 8 3 7 4 6 5 5 6 4 7 3 8 2 9 1 10 49 11 50 12 111 13
REMARK SMILES IDX 51 14 110 15 52 16 53 17 54 18 104 19 55 20 109 21 103 22
REMARK SMILES IDX 105 23 56 24 108 25 102 26 101 27 57 29 89 30 69 31 88 32
REMARK SMILES IDX 70 33 73 34 87 35 106 36 71 37 72 38 86 40 107 41 74 42
REMARK SMILES IDX 58 43 59 44 67 45 60 46 61 47 65 48 68 49 62 50 63 51 66 52
REMARK SMILES IDX 64 53 90 54 91 55 99 56 92 57 93 58 97 59 100 60 94 61 95 62
REMARK SMILES IDX 98 63 96 64 75 65 76 66 84 67 77 68 78 69 82 70 85 71 79 72
REMARK SMILES IDX 80 73 83 74 81 75 11 76 12 77 13 78 14 79 15 80 16 81 17 82
REMARK SMILES IDX 18 83 19 84 48 85 20 86 47 87 21 88 22 89 23 90 46 91 24 92
REMARK SMILES IDX 45 93 25 94 26 95 27 96 28 97 37 98 29 99 35 100 30 101
REMARK SMILES IDX 34 102 36 103 31 104 33 105 32 106 38 107 39 108 44 109
REMARK SMILES IDX 40 110 43 111 41 112 42 113
REMARK H PARENT 105 28 73 39
REMARK Flexibility Score: inf
ROOT
ATOM      1  C   UNL A   1      30.648  26.171  23.081  1.00  0.00     0.188 C 
ENDROOT
BRANCH   1   2
ATOM      2  O   UNL A   1      31.911  26.526  22.570  1.00  0.00    -0.377 OA
BRANCH   2   3
ATOM      3  C   UNL A   1      32.182  27.915  22.631  1.00  0.00     0.188 C 
BRANCH   3   4
ATOM      4  C   UNL A   1      31.565  28.711  23.798  1.00  0.00     0.188 C 
BRANCH   4   5
ATOM      5  O   UNL A   1      32.158  29.754  24.568  1.00  0.00    -0.376 OA
BRANCH   5   6
ATOM      6  C   UNL A   1      33.189  29.698  25.526  1.00  0.00     0.202 C 
BRANCH   6   7
ATOM      7  C   UNL A   1      33.091  28.778  26.743  1.00  0.00     0.261 C 
BRANCH   7   8
ATOM      8  O   UNL A   1      34.216  28.793  27.611  1.00  0.00    -0.460 OA
BRANCH   8   9
ATOM      9  C   UNL A   1      34.963  29.846  28.001  1.00  0.00     0.338 C 
ATOM     10  O   UNL A   1      34.580  30.973  27.685  1.00  0.00    -0.246 OA
BRANCH   9  11
ATOM     11  C   UNL A   1      36.257  29.743  28.728  1.00  0.00     0.060 A 
ATOM     12  C   UNL A   1      36.435  29.715  30.113  1.00  0.00     0.016 A 
ATOM     13  C   UNL A   1      37.397  29.744  27.899  1.00  0.00     0.016 A 
ATOM     14  C   UNL A   1      37.689  29.902  30.658  1.00  0.00     0.010 A 
ATOM     15  C   UNL A   1      38.658  29.905  28.435  1.00  0.00     0.010 A 
ATOM     16  C   UNL A   1      38.768  30.088  29.805  1.00  0.00    -0.014 A 
BRANCH  16  17
ATOM     17  C   UNL A   1      39.995  30.562  30.404  1.00  0.00     0.031 A 
ATOM     18  C   UNL A   1      40.910  29.508  30.894  1.00  0.00     0.074 A 
ATOM     19  C   UNL A   1      40.237  31.885  30.464  1.00  0.00     0.049 A 
ATOM     20  N   UNL A   1      41.321  29.308  32.104  1.00  0.00    -0.248 NA
ATOM     21  C   UNL A   1      41.330  28.475  29.936  1.00  0.00     0.031 C 
ATOM     22  C   UNL A   1      39.503  32.969  29.803  1.00  0.00     0.029 A 
ATOM     23  N   UNL A   1      41.271  32.535  31.057  1.00  0.00    -0.354 N 
ATOM     24  C   UNL A   1      42.197  28.229  32.033  1.00  0.00     0.074 A 
ATOM     25  C   UNL A   1      42.053  27.669  30.714  1.00  0.00     0.031 C 
ATOM     26  C   UNL A   1      40.255  34.091  29.825  1.00  0.00     0.029 A 
ATOM     27  C   UNL A   1      41.448  33.836  30.611  1.00  0.00     0.049 A 
ATOM     28  H   UNL A   1      41.843  32.121  31.742  1.00  0.00     0.167 HD
ATOM     29  C   UNL A   1      43.145  28.026  32.987  1.00  0.00     0.037 A 
ATOM     30  C   UNL A   1      42.554  34.594  30.801  1.00  0.00     0.037 A 
ATOM     31  C   UNL A   1      42.814  28.701  34.213  1.00  0.00     0.049 A 
ATOM     32  C   UNL A   1      43.313  34.001  31.931  1.00  0.00     0.074 A 
ATOM     33  C   UNL A   1      41.775  28.609  35.117  1.00  0.00     0.029 A 
ATOM     34  N   UNL A   1      43.447  29.887  34.492  1.00  0.00    -0.354 N 
ATOM     35  N   UNL A   1      42.900  34.011  33.169  1.00  0.00    -0.248 NA
ATOM     36  C   UNL A   1      44.311  32.986  31.618  1.00  0.00     0.031 C 
ATOM     37  C   UNL A   1      41.546  29.946  35.557  1.00  0.00     0.029 A 
ATOM     38  C   UNL A   1      42.490  30.764  34.935  1.00  0.00     0.049 A 
ATOM     39  H   UNL A   1      44.408  30.073  34.394  1.00  0.00     0.167 HD
ATOM     40  C   UNL A   1      43.249  32.766  33.670  1.00  0.00     0.074 A 
ATOM     41  C   UNL A   1      44.191  32.213  32.701  1.00  0.00     0.031 C 
ATOM     42  C   UNL A   1      42.524  32.181  34.668  1.00  0.00     0.037 A 
BRANCH  29  43
ATOM     43  C   UNL A   1      44.538  27.533  32.688  1.00  0.00     0.064 A 
ATOM     44  C   UNL A   1      45.329  28.233  31.756  1.00  0.00     0.173 A 
ATOM     45  C   UNL A   1      44.999  26.243  33.031  1.00  0.00     0.173 A 
ATOM     46  F   UNL A   1      44.974  29.460  31.343  1.00  0.00    -0.203 F 
ATOM     47  C   UNL A   1      46.446  27.651  31.152  1.00  0.00     0.198 A 
ATOM     48  C   UNL A   1      46.145  25.687  32.467  1.00  0.00     0.198 A 
ATOM     49  F   UNL A   1      44.304  25.426  33.831  1.00  0.00    -0.203 F 
ATOM     50  F   UNL A   1      47.090  28.302  30.175  1.00  0.00    -0.200 F 
ATOM     51  C   UNL A   1      46.848  26.374  31.503  1.00  0.00     0.200 A 
ATOM     52  F   UNL A   1      46.506  24.441  32.808  1.00  0.00    -0.200 F 
ATOM     53  F   UNL A   1      47.877  25.787  30.878  1.00  0.00    -0.200 F 
ENDBRANCH  29  43
BRANCH  30  54
ATOM     54  C   UNL A   1      43.152  35.554  29.843  1.00  0.00     0.064 A 
ATOM     55  C   UNL A   1      43.627  36.802  30.273  1.00  0.00     0.173 A 
ATOM     56  C   UNL A   1      43.508  35.166  28.535  1.00  0.00     0.173 A 
ATOM     57  F   UNL A   1      43.375  37.225  31.520  1.00  0.00    -0.203 F 
ATOM     58  C   UNL A   1      44.425  37.605  29.451  1.00  0.00     0.198 A 
ATOM     59  C   UNL A   1      44.294  35.972  27.712  1.00  0.00     0.198 A 
ATOM     60  F   UNL A   1      43.181  33.955  28.059  1.00  0.00    -0.203 F 
ATOM     61  F   UNL A   1      44.912  38.763  29.918  1.00  0.00    -0.200 F 
ATOM     62  C   UNL A   1      44.765  37.185  28.174  1.00  0.00     0.200 A 
ATOM     63  F   UNL A   1      44.644  35.535  26.493  1.00  0.00    -0.200 F 
ATOM     64  F   UNL A   1      45.577  37.926  27.409  1.00  0.00    -0.200 F 
ENDBRANCH  30  54
BRANCH  42  65
ATOM     65  C   UNL A   1      41.504  33.026  35.378  1.00  0.00     0.064 A 
ATOM     66  C   UNL A   1      40.177  33.180  34.939  1.00  0.00     0.173 A 
ATOM     67  C   UNL A   1      41.840  33.575  36.621  1.00  0.00     0.173 A 
ATOM     68  F   UNL A   1      39.750  32.592  33.815  1.00  0.00    -0.203 F 
ATOM     69  C   UNL A   1      39.246  33.896  35.690  1.00  0.00     0.198 A 
ATOM     70  C   UNL A   1      40.899  34.256  37.387  1.00  0.00     0.198 A 
ATOM     71  F   UNL A   1      43.075  33.404  37.118  1.00  0.00    -0.203 F 
ATOM     72  F   UNL A   1      37.989  34.038  35.246  1.00  0.00    -0.200 F 
ATOM     73  C   UNL A   1      39.607  34.427  36.917  1.00  0.00     0.200 A 
ATOM     74  F   UNL A   1      41.237  34.722  38.598  1.00  0.00    -0.200 F 
ATOM     75  F   UNL A   1      38.701  35.078  37.661  1.00  0.00    -0.200 F 
ENDBRANCH  42  65
ENDBRANCH  16  17
ENDBRANCH   9  11
ENDBRANCH   8   9
ENDBRANCH   7   8
ENDBRANCH   6   7
ENDBRANCH   5   6
ENDBRANCH   4   5
ENDBRANCH   3   4
ENDBRANCH   2   3
ENDBRANCH   1   2
BRANCH   1  76
ATOM     76  C   UNL A   1      30.587  24.702  23.541  1.00  0.00     0.188 C 
BRANCH  76  77
ATOM     77  O   UNL A   1      31.761  24.039  23.972  1.00  0.00    -0.376 OA
BRANCH  77  78
ATOM     78  C   UNL A   1      31.804  22.621  24.013  1.00  0.00     0.202 C 
BRANCH  78  79
ATOM     79  C   UNL A   1      32.913  21.788  23.330  1.00  0.00     0.261 C 
BRANCH  79  80
ATOM     80  O   UNL A   1      33.312  20.563  23.961  1.00  0.00    -0.460 OA
BRANCH  80  81
ATOM     81  C   UNL A   1      33.593  20.629  25.286  1.00  0.00     0.338 C 
ATOM     82  O   UNL A   1      33.009  20.079  26.196  1.00  0.00    -0.246 OA
BRANCH  81  83
ATOM     83  C   UNL A   1      34.887  21.333  25.446  1.00  0.00     0.060 A 
ATOM     84  C   UNL A   1      36.053  20.697  24.988  1.00  0.00     0.018 A 
ATOM     85  C   UNL A   1      34.951  22.602  26.019  1.00  0.00     0.018 A 
ATOM     86  C   UNL A   1      37.284  21.340  25.050  1.00  0.00     0.029 A 
ATOM     87  C   UNL A   1      36.203  23.198  26.202  1.00  0.00     0.029 A 
ATOM     88  C   UNL A   1      37.360  22.558  25.719  1.00  0.00     0.066 A 
BRANCH  88  89
ATOM     89  N   UNL A   1      38.634  22.970  26.146  1.00  0.00    -0.220 N 
ATOM     90  C   UNL A   1      39.019  24.281  26.220  1.00  0.00     0.141 A 
ATOM     91  N   UNL A   1      39.498  22.203  26.843  1.00  0.00    -0.062 NA
ATOM     92  C   UNL A   1      40.122  24.294  27.041  1.00  0.00     0.093 A 
ATOM     93  N   UNL A   1      40.448  22.996  27.336  1.00  0.00    -0.134 NA
BRANCH  92  94
ATOM     94  C   UNL A   1      40.993  25.439  27.381  1.00  0.00     0.138 C 
BRANCH  94  95
ATOM     95  S   UNL A   1      41.497  26.695  26.208  1.00  0.00    -0.081 SA
BRANCH  95  96
ATOM     96  C   UNL A   1      43.156  27.206  26.362  1.00  0.00     0.176 A 
ATOM     97  N   UNL A   1      43.264  28.322  27.026  1.00  0.00    -0.223 NA
ATOM     98  N   UNL A   1      44.274  26.543  25.879  1.00  0.00    -0.255 N 
ATOM     99  C   UNL A   1      44.529  28.910  27.148  1.00  0.00     0.079 A 
ATOM    100  C   UNL A   1      45.283  27.398  25.417  1.00  0.00     0.266 A 
ATOM    101  C   UNL A   1      44.785  29.892  28.106  1.00  0.00     0.029 A 
ATOM    102  C   UNL A   1      45.530  28.588  26.244  1.00  0.00     0.066 A 
ATOM    103  O   UNL A   1      45.957  27.240  24.401  1.00  0.00    -0.268 OA
ATOM    104  C   UNL A   1      46.008  30.575  28.105  1.00  0.00     0.002 A 
ATOM    105  C   UNL A   1      46.735  29.294  26.194  1.00  0.00     0.016 A 
ATOM    106  C   UNL A   1      46.968  30.301  27.129  1.00  0.00     0.001 A 
BRANCH  98 107
ATOM    107  C   UNL A   1      44.500  25.115  25.810  1.00  0.00     0.051 A 
ATOM    108  C   UNL A   1      45.211  24.464  26.842  1.00  0.00     0.028 A 
ATOM    109  C   UNL A   1      44.027  24.284  24.786  1.00  0.00     0.028 A 
ATOM    110  C   UNL A   1      45.639  23.137  26.737  1.00  0.00     0.022 A 
ATOM    111  C   UNL A   1      44.498  22.968  24.640  1.00  0.00     0.022 A 
ATOM    112  C   UNL A   1      45.341  22.417  25.595  1.00  0.00     0.041 A 
ATOM    113  Cl  UNL A   1      46.034  20.866  25.351  1.00  0.00    -0.084 Cl
ENDBRANCH  98 107
ENDBRANCH  95  96
ENDBRANCH  94  95
ENDBRANCH  92  94
ENDBRANCH  88  89
ENDBRANCH  81  83
ENDBRANCH  80  81
ENDBRANCH  79  80
ENDBRANCH  78  79
ENDBRANCH  77  78
ENDBRANCH  76  77
ENDBRANCH   1  76
TORSDOF 25
ENDMDL
MODEL 3
REMARK VINA RESULT:      -8.3      5.590     12.153
REMARK SMILES O=C(OCCOCCOCCOCCOC(=O)c1ccc(-n2cc(CSc3nc4ccccc4c(=O)n3-c3ccc(Cl)cc3)nn2)cc1)c1ccc(-c2c3nc(c(-c4c(F)c(F)c(F)c(F)c4F)c4ccc([nH]4)c(-c4c(F)c(F)c(F)c(F)c4F)c4nc(c(-c5c(F)c(F)c(F)c(F)c5F)c5ccc2[nH]5)C=C4)C=C3)cc1
REMARK SMILES IDX 10 1 9 2 8 3 7 4 6 5 5 6 4 7 3 8 2 9 1 10 49 11 50 12 111 13
REMARK SMILES IDX 51 14 110 15 52 16 53 17 54 18 104 19 55 20 109 21 103 22
REMARK SMILES IDX 105 23 56 24 108 25 102 26 101 27 57 29 89 30 69 31 88 32
REMARK SMILES IDX 70 33 73 34 87 35 106 36 71 37 72 38 86 40 107 41 74 42
REMARK SMILES IDX 58 43 59 44 67 45 60 46 61 47 65 48 68 49 62 50 63 51 66 52
REMARK SMILES IDX 64 53 90 54 91 55 99 56 92 57 93 58 97 59 100 60 94 61 95 62
REMARK SMILES IDX 98 63 96 64 75 65 76 66 84 67 77 68 78 69 82 70 85 71 79 72
REMARK SMILES IDX 80 73 83 74 81 75 11 76 12 77 13 78 14 79 15 80 16 81 17 82
REMARK SMILES IDX 18 83 19 84 48 85 20 86 47 87 21 88 22 89 23 90 46 91 24 92
REMARK SMILES IDX 45 93 25 94 26 95 27 96 28 97 37 98 29 99 35 100 30 101
REMARK SMILES IDX 34 102 36 103 31 104 33 105 32 106 38 107 39 108 44 109
REMARK SMILES IDX 40 110 43 111 41 112 42 113
REMARK H PARENT 105 28 73 39
REMARK Flexibility Score: inf
ROOT
ATOM      1  C   UNL A   1      34.646  22.889  24.866  1.00  0.00     0.188 C 
ENDROOT
BRANCH   1   2
ATOM      2  O   UNL A   1      35.778  22.243  25.400  1.00  0.00    -0.377 OA
BRANCH   2   3
ATOM      3  C   UNL A   1      36.002  20.951  24.865  1.00  0.00     0.188 C 
BRANCH   3   4
ATOM      4  C   UNL A   1      37.464  20.481  24.728  1.00  0.00     0.188 C 
BRANCH   4   5
ATOM      5  O   UNL A   1      38.575  20.791  25.566  1.00  0.00    -0.376 OA
BRANCH   5   6
ATOM      6  C   UNL A   1      39.478  19.933  26.225  1.00  0.00     0.202 C 
BRANCH   6   7
ATOM      7  C   UNL A   1      40.978  19.984  25.931  1.00  0.00     0.261 C 
BRANCH   7   8
ATOM      8  O   UNL A   1      41.470  21.241  25.487  1.00  0.00    -0.460 OA
BRANCH   8   9
ATOM      9  C   UNL A   1      42.747  21.663  25.407  1.00  0.00     0.338 C 
ATOM     10  O   UNL A   1      43.598  20.855  25.032  1.00  0.00    -0.246 OA
BRANCH   9  11
ATOM     11  C   UNL A   1      43.219  23.016  25.807  1.00  0.00     0.060 A 
ATOM     12  C   UNL A   1      43.277  24.152  24.996  1.00  0.00     0.016 A 
ATOM     13  C   UNL A   1      43.711  23.099  27.125  1.00  0.00     0.016 A 
ATOM     14  C   UNL A   1      43.992  25.260  25.401  1.00  0.00     0.010 A 
ATOM     15  C   UNL A   1      44.406  24.214  27.550  1.00  0.00     0.010 A 
ATOM     16  C   UNL A   1      44.624  25.234  26.636  1.00  0.00    -0.014 A 
BRANCH  16  17
ATOM     17  C   UNL A   1      45.586  26.281  26.897  1.00  0.00     0.031 A 
ATOM     18  C   UNL A   1      46.972  25.992  26.465  1.00  0.00     0.074 A 
ATOM     19  C   UNL A   1      45.181  27.426  27.479  1.00  0.00     0.049 A 
ATOM     20  N   UNL A   1      48.035  25.916  27.196  1.00  0.00    -0.248 NA
ATOM     21  C   UNL A   1      47.181  25.627  25.056  1.00  0.00     0.031 C 
ATOM     22  C   UNL A   1      43.808  27.879  27.723  1.00  0.00     0.029 A 
ATOM     23  N   UNL A   1      45.927  28.484  27.888  1.00  0.00    -0.354 N 
ATOM     24  C   UNL A   1      49.083  25.670  26.315  1.00  0.00     0.074 A 
ATOM     25  C   UNL A   1      48.486  25.359  25.042  1.00  0.00     0.031 C 
ATOM     26  C   UNL A   1      43.820  29.202  27.995  1.00  0.00     0.029 A 
ATOM     27  C   UNL A   1      45.199  29.647  28.076  1.00  0.00     0.049 A 
ATOM     28  H   UNL A   1      46.898  28.429  28.037  1.00  0.00     0.167 HD
ATOM     29  C   UNL A   1      50.368  25.973  26.644  1.00  0.00     0.037 A 
ATOM     30  C   UNL A   1      45.713  30.896  28.185  1.00  0.00     0.037 A 
ATOM     31  C   UNL A   1      50.536  26.082  28.068  1.00  0.00     0.049 A 
ATOM     32  C   UNL A   1      47.149  30.756  28.541  1.00  0.00     0.074 A 
ATOM     33  C   UNL A   1      50.389  25.212  29.130  1.00  0.00     0.029 A 
ATOM     34  N   UNL A   1      50.585  27.338  28.621  1.00  0.00    -0.354 N 
ATOM     35  N   UNL A   1      47.571  30.309  29.692  1.00  0.00    -0.248 NA
ATOM     36  C   UNL A   1      48.112  30.673  27.451  1.00  0.00     0.031 C 
ATOM     37  C   UNL A   1      49.874  26.008  30.194  1.00  0.00     0.029 A 
ATOM     38  C   UNL A   1      49.787  27.323  29.736  1.00  0.00     0.049 A 
ATOM     39  H   UNL A   1      51.098  28.106  28.282  1.00  0.00     0.167 HD
ATOM     40  C   UNL A   1      48.665  29.513  29.384  1.00  0.00     0.074 A 
ATOM     41  C   UNL A   1      49.003  29.846  28.003  1.00  0.00     0.031 C 
ATOM     42  C   UNL A   1      49.010  28.456  30.175  1.00  0.00     0.037 A 
BRANCH  29  43
ATOM     43  C   UNL A   1      51.370  26.534  25.668  1.00  0.00     0.064 A 
ATOM     44  C   UNL A   1      52.610  25.886  25.507  1.00  0.00     0.173 A 
ATOM     45  C   UNL A   1      51.290  27.839  25.132  1.00  0.00     0.173 A 
ATOM     46  F   UNL A   1      52.804  24.651  25.995  1.00  0.00    -0.203 F 
ATOM     47  C   UNL A   1      53.709  26.530  24.932  1.00  0.00     0.198 A 
ATOM     48  C   UNL A   1      52.372  28.456  24.510  1.00  0.00     0.198 A 
ATOM     49  F   UNL A   1      50.208  28.610  25.290  1.00  0.00    -0.203 F 
ATOM     50  F   UNL A   1      54.903  25.924  24.921  1.00  0.00    -0.200 F 
ATOM     51  C   UNL A   1      53.590  27.817  24.441  1.00  0.00     0.200 A 
ATOM     52  F   UNL A   1      52.241  29.712  24.057  1.00  0.00    -0.200 F 
ATOM     53  F   UNL A   1      54.657  28.461  23.951  1.00  0.00    -0.200 F 
ENDBRANCH  29  43
BRANCH  30  54
ATOM     54  C   UNL A   1      45.133  32.150  27.648  1.00  0.00     0.064 A 
ATOM     55  C   UNL A   1      45.029  32.362  26.266  1.00  0.00     0.173 A 
ATOM     56  C   UNL A   1      44.433  33.051  28.476  1.00  0.00     0.173 A 
ATOM     57  F   UNL A   1      45.624  31.522  25.408  1.00  0.00    -0.203 F 
ATOM     58  C   UNL A   1      44.255  33.404  25.742  1.00  0.00     0.198 A 
ATOM     59  C   UNL A   1      43.671  34.096  27.953  1.00  0.00     0.198 A 
ATOM     60  F   UNL A   1      44.394  32.883  29.805  1.00  0.00    -0.203 F 
ATOM     61  F   UNL A   1      44.129  33.539  24.415  1.00  0.00    -0.200 F 
ATOM     62  C   UNL A   1      43.571  34.264  26.586  1.00  0.00     0.200 A 
ATOM     63  F   UNL A   1      42.986  34.898  28.781  1.00  0.00    -0.200 F 
ATOM     64  F   UNL A   1      42.783  35.225  26.083  1.00  0.00    -0.200 F 
ENDBRANCH  30  54
BRANCH  42  65
ATOM     65  C   UNL A   1      48.336  28.335  31.513  1.00  0.00     0.064 A 
ATOM     66  C   UNL A   1      47.098  27.697  31.708  1.00  0.00     0.173 A 
ATOM     67  C   UNL A   1      49.037  28.745  32.653  1.00  0.00     0.173 A 
ATOM     68  F   UNL A   1      46.419  27.179  30.676  1.00  0.00    -0.203 F 
ATOM     69  C   UNL A   1      46.567  27.527  32.985  1.00  0.00     0.198 A 
ATOM     70  C   UNL A   1      48.522  28.540  33.929  1.00  0.00     0.198 A 
ATOM     71  F   UNL A   1      50.252  29.302  32.530  1.00  0.00    -0.203 F 
ATOM     72  F   UNL A   1      45.379  26.925  33.145  1.00  0.00    -0.200 F 
ATOM     73  C   UNL A   1      47.283  27.942  34.095  1.00  0.00     0.200 A 
ATOM     74  F   UNL A   1      49.243  28.893  35.003  1.00  0.00    -0.200 F 
ATOM     75  F   UNL A   1      46.794  27.739  35.326  1.00  0.00    -0.200 F 
ENDBRANCH  42  65
ENDBRANCH  16  17
ENDBRANCH   9  11
ENDBRANCH   8   9
ENDBRANCH   7   8
ENDBRANCH   6   7
ENDBRANCH   5   6
ENDBRANCH   4   5
ENDBRANCH   3   4
ENDBRANCH   2   3
ENDBRANCH   1   2
BRANCH   1  76
ATOM     76  C   UNL A   1      34.524  24.352  25.336  1.00  0.00     0.188 C 
BRANCH  76  77
ATOM     77  O   UNL A   1      33.440  24.750  26.155  1.00  0.00    -0.376 OA
BRANCH  77  78
ATOM     78  C   UNL A   1      32.201  24.060  26.082  1.00  0.00     0.202 C 
BRANCH  78  79
ATOM     79  C   UNL A   1      31.215  24.214  24.903  1.00  0.00     0.261 C 
BRANCH  79  80
ATOM     80  O   UNL A   1      30.092  25.088  25.081  1.00  0.00    -0.460 OA
BRANCH  80  81
ATOM     81  C   UNL A   1      30.140  26.275  24.427  1.00  0.00     0.338 C 
ATOM     82  O   UNL A   1      29.412  26.661  23.536  1.00  0.00    -0.246 OA
BRANCH  81  83
ATOM     83  C   UNL A   1      31.116  27.144  25.125  1.00  0.00     0.060 A 
ATOM     84  C   UNL A   1      31.003  27.291  26.517  1.00  0.00     0.018 A 
ATOM     85  C   UNL A   1      32.135  27.789  24.425  1.00  0.00     0.018 A 
ATOM     86  C   UNL A   1      31.933  28.037  27.231  1.00  0.00     0.029 A 
ATOM     87  C   UNL A   1      32.994  28.646  25.120  1.00  0.00     0.029 A 
ATOM     88  C   UNL A   1      32.883  28.766  26.518  1.00  0.00     0.066 A 
BRANCH  88  89
ATOM     89  N   UNL A   1      33.511  29.824  27.197  1.00  0.00    -0.220 N 
ATOM     90  C   UNL A   1      34.830  29.809  27.562  1.00  0.00     0.141 A 
ATOM     91  N   UNL A   1      33.034  31.084  27.271  1.00  0.00    -0.062 NA
ATOM     92  C   UNL A   1      35.158  31.122  27.807  1.00  0.00     0.093 A 
ATOM     93  N   UNL A   1      34.015  31.872  27.708  1.00  0.00    -0.134 NA
BRANCH  92  94
ATOM     94  C   UNL A   1      36.431  31.664  28.328  1.00  0.00     0.138 C 
BRANCH  94  95
ATOM     95  S   UNL A   1      36.684  33.384  28.759  1.00  0.00    -0.081 SA
BRANCH  95  96
ATOM     96  C   UNL A   1      35.960  33.865  30.270  1.00  0.00     0.176 A 
ATOM     97  N   UNL A   1      34.874  34.562  30.091  1.00  0.00    -0.223 NA
ATOM     98  N   UNL A   1      36.420  33.561  31.541  1.00  0.00    -0.255 N 
ATOM     99  C   UNL A   1      34.232  35.103  31.211  1.00  0.00     0.079 A 
ATOM    100  C   UNL A   1      36.231  34.590  32.473  1.00  0.00     0.266 A 
ATOM    101  C   UNL A   1      32.914  35.556  31.147  1.00  0.00     0.029 A 
ATOM    102  C   UNL A   1      34.939  35.286  32.391  1.00  0.00     0.066 A 
ATOM    103  O   UNL A   1      37.038  34.950  33.328  1.00  0.00    -0.268 OA
ATOM    104  C   UNL A   1      32.348  36.236  32.233  1.00  0.00     0.002 A 
ATOM    105  C   UNL A   1      34.410  36.008  33.464  1.00  0.00     0.016 A 
ATOM    106  C   UNL A   1      33.107  36.492  33.377  1.00  0.00     0.001 A 
BRANCH  98 107
ATOM    107  C   UNL A   1      37.048  32.336  31.990  1.00  0.00     0.051 A 
ATOM    108  C   UNL A   1      38.454  32.269  32.111  1.00  0.00     0.028 A 
ATOM    109  C   UNL A   1      36.355  31.177  32.362  1.00  0.00     0.028 A 
ATOM    110  C   UNL A   1      39.132  31.068  32.337  1.00  0.00     0.022 A 
ATOM    111  C   UNL A   1      37.023  29.952  32.534  1.00  0.00     0.022 A 
ATOM    112  C   UNL A   1      38.409  29.897  32.473  1.00  0.00     0.041 A 
ATOM    113  Cl  UNL A   1      39.222  28.387  32.537  1.00  0.00    -0.084 Cl
ENDBRANCH  98 107
ENDBRANCH  95  96
ENDBRANCH  94  95
ENDBRANCH  92  94
ENDBRANCH  88  89
ENDBRANCH  81  83
ENDBRANCH  80  81
ENDBRANCH  79  80
ENDBRANCH  78  79
ENDBRANCH  77  78
ENDBRANCH  76  77
ENDBRANCH   1  76
TORSDOF 25
ENDMDL
