MODEL 1
REMARK VINA RESULT:      -9.8      0.000      0.000
REMARK SMILES C#CC[N@H+](CC(=O)OCCOCCOCCOCCOC(=O)c1ccc(-c2c3nc(c(-c4c(F)c(F)c(F)c(F)c4F)c4ccc([nH]4)c(-c4c(F)c(F)c(F)c(F)c4F)c4nc(c(-c5c(F)c(F)c(F)c(F)c5F)c5ccc2[nH]5)C=C4)C=C3)cc1)[C@H](C)c1nc2ccccc2s1
REMARK SMILES IDX 13 1 12 2 11 3 10 4 9 5 8 6 6 7 7 8 5 9 4 10 3 12 2 13 1 14
REMARK SMILES IDX 86 15 87 16 88 17 89 18 96 19 90 20 95 21 91 22 94 23 92 24
REMARK SMILES IDX 93 25 14 26 15 27 16 28 17 29 18 30 19 31 20 32 21 33 22 34
REMARK SMILES IDX 23 35 24 36 85 37 25 38 84 39 26 40 27 41 28 42 78 43 29 44
REMARK SMILES IDX 83 45 77 46 79 47 30 48 82 49 76 50 75 51 31 53 63 54 43 55
REMARK SMILES IDX 62 56 44 57 47 58 61 59 80 60 45 61 46 62 60 64 81 65 48 66
REMARK SMILES IDX 32 67 33 68 41 69 34 70 35 71 39 72 42 73 36 74 37 75 40 76
REMARK SMILES IDX 38 77 64 78 65 79 73 80 66 81 67 82 71 83 74 84 68 85 69 86
REMARK SMILES IDX 72 87 70 88 49 89 50 90 58 91 51 92 52 93 56 94 59 95 53 96
REMARK SMILES IDX 54 97 57 98 55 99
REMARK H PARENT 4 11 79 52 47 63
REMARK Flexibility Score: inf
ROOT
ATOM      1  C   UNL A   1      39.640  21.495  26.131  1.00  0.00     0.188 C 
ENDROOT
BRANCH   1   2
ATOM      2  C   UNL A   1      38.288  22.115  25.746  1.00  0.00     0.188 C 
BRANCH   2   3
ATOM      3  O   UNL A   1      37.556  21.585  24.657  1.00  0.00    -0.376 OA
BRANCH   3   4
ATOM      4  C   UNL A   1      36.417  22.238  24.120  1.00  0.00     0.202 C 
BRANCH   4   5
ATOM      5  C   UNL A   1      36.105  23.740  24.243  1.00  0.00     0.261 C 
BRANCH   5   6
ATOM      6  O   UNL A   1      34.786  24.165  23.891  1.00  0.00    -0.459 OA
BRANCH   6   7
ATOM      7  C   UNL A   1      33.837  24.031  24.840  1.00  0.00     0.361 C 
ATOM      8  O   UNL A   1      33.354  22.947  25.168  1.00  0.00    -0.245 OA
BRANCH   7   9
ATOM      9  C   UNL A   1      33.377  25.315  25.523  1.00  0.00     0.387 C 
BRANCH   9  10
ATOM     10  N   UNL A   1      32.184  26.066  25.033  1.00  0.00    -0.308 N 
ATOM     11  H   UNL A   1      31.601  25.446  24.472  1.00  0.00     0.350 HD
BRANCH  10  12
ATOM     12  C   UNL A   1      31.295  26.488  26.131  1.00  0.00     0.355 C 
BRANCH  12  13
ATOM     13  C   UNL A   1      30.009  25.762  26.151  1.00  0.00    -0.047 C 
ATOM     14  C   UNL A   1      28.960  25.170  26.217  1.00  0.00     0.010 C 
ENDBRANCH  12  13
ENDBRANCH  10  12
BRANCH  10  15
ATOM     15  C   UNL A   1      32.636  27.191  24.130  1.00  0.00     0.242 C 
ATOM     16  C   UNL A   1      33.778  28.049  24.717  1.00  0.00     0.083 C 
BRANCH  15  17
ATOM     17  C   UNL A   1      31.538  28.138  23.659  1.00  0.00     0.151 A 
ATOM     18  N   UNL A   1      31.371  29.345  24.162  1.00  0.00    -0.235 NA
ATOM     19  S   UNL A   1      30.430  27.706  22.415  1.00  0.00    -0.113 S 
ATOM     20  C   UNL A   1      30.186  29.883  23.711  1.00  0.00     0.082 A 
ATOM     21  C   UNL A   1      29.515  29.137  22.741  1.00  0.00     0.055 A 
ATOM     22  C   UNL A   1      29.603  31.074  24.189  1.00  0.00     0.030 A 
ATOM     23  C   UNL A   1      28.284  29.559  22.212  1.00  0.00     0.021 A 
ATOM     24  C   UNL A   1      28.357  31.476  23.707  1.00  0.00     0.002 A 
ATOM     25  C   UNL A   1      27.710  30.731  22.725  1.00  0.00     0.002 A 
ENDBRANCH  15  17
ENDBRANCH  10  15
ENDBRANCH   9  10
ENDBRANCH   7   9
ENDBRANCH   6   7
ENDBRANCH   5   6
ENDBRANCH   4   5
ENDBRANCH   3   4
ENDBRANCH   2   3
ENDBRANCH   1   2
BRANCH   1  26
ATOM     26  O   UNL A   1      40.038  21.688  27.471  1.00  0.00    -0.377 OA
BRANCH  26  27
ATOM     27  C   UNL A   1      41.182  21.020  27.971  1.00  0.00     0.188 C 
BRANCH  27  28
ATOM     28  C   UNL A   1      42.593  21.295  27.407  1.00  0.00     0.188 C 
BRANCH  28  29
ATOM     29  O   UNL A   1      43.069  20.356  26.462  1.00  0.00    -0.376 OA
BRANCH  29  30
ATOM     30  C   UNL A   1      43.358  20.777  25.139  1.00  0.00     0.202 C 
BRANCH  30  31
ATOM     31  C   UNL A   1      44.182  22.056  24.905  1.00  0.00     0.261 C 
BRANCH  31  32
ATOM     32  O   UNL A   1      43.457  23.288  24.807  1.00  0.00    -0.460 OA
BRANCH  32  33
ATOM     33  C   UNL A   1      44.138  24.423  25.066  1.00  0.00     0.338 C 
ATOM     34  O   UNL A   1      45.208  24.762  24.595  1.00  0.00    -0.246 OA
BRANCH  33  35
ATOM     35  C   UNL A   1      43.284  25.295  25.899  1.00  0.00     0.060 A 
ATOM     36  C   UNL A   1      43.525  26.676  25.900  1.00  0.00     0.016 A 
ATOM     37  C   UNL A   1      42.278  24.753  26.702  1.00  0.00     0.016 A 
ATOM     38  C   UNL A   1      42.810  27.510  26.757  1.00  0.00     0.010 A 
ATOM     39  C   UNL A   1      41.577  25.587  27.578  1.00  0.00     0.010 A 
ATOM     40  C   UNL A   1      41.881  26.960  27.648  1.00  0.00    -0.014 A 
BRANCH  40  41
ATOM     41  C   UNL A   1      41.427  27.766  28.808  1.00  0.00     0.031 A 
ATOM     42  C   UNL A   1      42.200  27.650  30.095  1.00  0.00     0.074 A 
ATOM     43  C   UNL A   1      40.389  28.615  28.718  1.00  0.00     0.049 A 
ATOM     44  N   UNL A   1      41.978  28.207  31.257  1.00  0.00    -0.248 NA
ATOM     45  C   UNL A   1      43.388  26.778  30.065  1.00  0.00     0.031 C 
ATOM     46  C   UNL A   1      39.599  28.859  27.515  1.00  0.00     0.029 A 
ATOM     47  N   UNL A   1      39.820  29.425  29.669  1.00  0.00    -0.354 N 
ATOM     48  C   UNL A   1      42.984  27.743  32.095  1.00  0.00     0.074 A 
ATOM     49  C   UNL A   1      43.795  26.830  31.323  1.00  0.00     0.031 C 
ATOM     50  C   UNL A   1      38.637  29.753  27.803  1.00  0.00     0.029 A 
ATOM     51  C   UNL A   1      38.720  30.112  29.218  1.00  0.00     0.049 A 
ATOM     52  H   UNL A   1      40.168  29.507  30.586  1.00  0.00     0.167 HD
ATOM     53  C   UNL A   1      43.219  28.060  33.392  1.00  0.00     0.037 A 
ATOM     54  C   UNL A   1      37.865  30.913  29.884  1.00  0.00     0.037 A 
ATOM     55  C   UNL A   1      42.408  28.970  34.156  1.00  0.00     0.049 A 
ATOM     56  C   UNL A   1      38.095  31.180  31.352  1.00  0.00     0.074 A 
ATOM     57  C   UNL A   1      42.566  29.367  35.472  1.00  0.00     0.029 A 
ATOM     58  N   UNL A   1      41.278  29.616  33.676  1.00  0.00    -0.354 N 
ATOM     59  N   UNL A   1      39.057  30.755  32.136  1.00  0.00    -0.248 NA
ATOM     60  C   UNL A   1      37.120  32.050  32.027  1.00  0.00     0.031 C 
ATOM     61  C   UNL A   1      41.490  30.194  35.810  1.00  0.00     0.029 A 
ATOM     62  C   UNL A   1      40.711  30.385  34.680  1.00  0.00     0.049 A 
ATOM     63  H   UNL A   1      40.932  29.540  32.758  1.00  0.00     0.167 HD
ATOM     64  C   UNL A   1      38.828  31.335  33.378  1.00  0.00     0.074 A 
ATOM     65  C   UNL A   1      37.642  32.153  33.241  1.00  0.00     0.031 C 
ATOM     66  C   UNL A   1      39.537  31.207  34.527  1.00  0.00     0.037 A 
BRANCH  53  67
ATOM     67  C   UNL A   1      44.375  27.385  34.075  1.00  0.00     0.064 A 
ATOM     68  C   UNL A   1      45.686  27.875  33.978  1.00  0.00     0.173 A 
ATOM     69  C   UNL A   1      44.160  26.245  34.866  1.00  0.00     0.173 A 
ATOM     70  F   UNL A   1      45.951  28.954  33.225  1.00  0.00    -0.203 F 
ATOM     71  C   UNL A   1      46.742  27.230  34.617  1.00  0.00     0.198 A 
ATOM     72  C   UNL A   1      45.213  25.626  35.535  1.00  0.00     0.198 A 
ATOM     73  F   UNL A   1      42.927  25.735  34.997  1.00  0.00    -0.203 F 
ATOM     74  F   UNL A   1      47.995  27.682  34.461  1.00  0.00    -0.200 F 
ATOM     75  C   UNL A   1      46.503  26.112  35.402  1.00  0.00     0.200 A 
ATOM     76  F   UNL A   1      44.975  24.557  36.307  1.00  0.00    -0.200 F 
ATOM     77  F   UNL A   1      47.519  25.499  36.026  1.00  0.00    -0.200 F 
ENDBRANCH  53  67
BRANCH  54  78
ATOM     78  C   UNL A   1      36.699  31.512  29.179  1.00  0.00     0.064 A 
ATOM     79  C   UNL A   1      36.675  32.873  28.841  1.00  0.00     0.173 A 
ATOM     80  C   UNL A   1      35.567  30.745  28.864  1.00  0.00     0.173 A 
ATOM     81  F   UNL A   1      37.720  33.656  29.143  1.00  0.00    -0.203 F 
ATOM     82  C   UNL A   1      35.555  33.448  28.243  1.00  0.00     0.198 A 
ATOM     83  C   UNL A   1      34.462  31.313  28.232  1.00  0.00     0.198 A 
ATOM     84  F   UNL A   1      35.533  29.439  29.168  1.00  0.00    -0.203 F 
ATOM     85  F   UNL A   1      35.536  34.764  27.990  1.00  0.00    -0.200 F 
ATOM     86  C   UNL A   1      34.453  32.667  27.933  1.00  0.00     0.200 A 
ATOM     87  F   UNL A   1      33.406  30.551  27.922  1.00  0.00    -0.200 F 
ATOM     88  F   UNL A   1      33.376  33.220  27.358  1.00  0.00    -0.200 F 
ENDBRANCH  54  78
BRANCH  66  89
ATOM     89  C   UNL A   1      39.095  32.018  35.715  1.00  0.00     0.064 A 
ATOM     90  C   UNL A   1      39.469  33.359  35.886  1.00  0.00     0.173 A 
ATOM     91  C   UNL A   1      38.246  31.448  36.679  1.00  0.00     0.173 A 
ATOM     92  F   UNL A   1      40.285  33.952  35.002  1.00  0.00    -0.203 F 
ATOM     93  C   UNL A   1      39.041  34.087  36.994  1.00  0.00     0.198 A 
ATOM     94  C   UNL A   1      37.787  32.192  37.763  1.00  0.00     0.198 A 
ATOM     95  F   UNL A   1      37.846  30.174  36.561  1.00  0.00    -0.203 F 
ATOM     96  F   UNL A   1      39.462  35.347  37.168  1.00  0.00    -0.200 F 
ATOM     97  C   UNL A   1      38.193  33.506  37.926  1.00  0.00     0.200 A 
ATOM     98  F   UNL A   1      36.949  31.634  38.648  1.00  0.00    -0.200 F 
ATOM     99  F   UNL A   1      37.775  34.211  38.986  1.00  0.00    -0.200 F 
ENDBRANCH  66  89
ENDBRANCH  40  41
ENDBRANCH  33  35
ENDBRANCH  32  33
ENDBRANCH  31  32
ENDBRANCH  30  31
ENDBRANCH  29  30
ENDBRANCH  28  29
ENDBRANCH  27  28
ENDBRANCH  26  27
ENDBRANCH   1  26
TORSDOF 25
ENDMDL
MODEL 2
REMARK VINA RESULT:      -9.7      3.776      9.580
REMARK SMILES C#CC[N@H+](CC(=O)OCCOCCOCCOCCOC(=O)c1ccc(-c2c3nc(c(-c4c(F)c(F)c(F)c(F)c4F)c4ccc([nH]4)c(-c4c(F)c(F)c(F)c(F)c4F)c4nc(c(-c5c(F)c(F)c(F)c(F)c5F)c5ccc2[nH]5)C=C4)C=C3)cc1)[C@H](C)c1nc2ccccc2s1
REMARK SMILES IDX 13 1 12 2 11 3 10 4 9 5 8 6 6 7 7 8 5 9 4 10 3 12 2 13 1 14
REMARK SMILES IDX 86 15 87 16 88 17 89 18 96 19 90 20 95 21 91 22 94 23 92 24
REMARK SMILES IDX 93 25 14 26 15 27 16 28 17 29 18 30 19 31 20 32 21 33 22 34
REMARK SMILES IDX 23 35 24 36 85 37 25 38 84 39 26 40 27 41 28 42 78 43 29 44
REMARK SMILES IDX 83 45 77 46 79 47 30 48 82 49 76 50 75 51 31 53 63 54 43 55
REMARK SMILES IDX 62 56 44 57 47 58 61 59 80 60 45 61 46 62 60 64 81 65 48 66
REMARK SMILES IDX 32 67 33 68 41 69 34 70 35 71 39 72 42 73 36 74 37 75 40 76
REMARK SMILES IDX 38 77 64 78 65 79 73 80 66 81 67 82 71 83 74 84 68 85 69 86
REMARK SMILES IDX 72 87 70 88 49 89 50 90 58 91 51 92 52 93 56 94 59 95 53 96
REMARK SMILES IDX 54 97 57 98 55 99
REMARK H PARENT 4 11 79 52 47 63
REMARK Flexibility Score: inf
ROOT
ATOM      1  C   UNL A   1      36.043  31.588  27.822  1.00  0.00     0.188 C 
ENDROOT
BRANCH   1   2
ATOM      2  C   UNL A   1      35.148  30.376  28.117  1.00  0.00     0.188 C 
BRANCH   2   3
ATOM      3  O   UNL A   1      34.947  29.389  27.122  1.00  0.00    -0.376 OA
BRANCH   3   4
ATOM      4  C   UNL A   1      33.794  29.367  26.298  1.00  0.00     0.202 C 
BRANCH   4   5
ATOM      5  C   UNL A   1      33.551  28.400  25.124  1.00  0.00     0.261 C 
BRANCH   5   6
ATOM      6  O   UNL A   1      33.962  28.834  23.825  1.00  0.00    -0.459 OA
BRANCH   6   7
ATOM      7  C   UNL A   1      33.946  27.904  22.848  1.00  0.00     0.361 C 
ATOM      8  O   UNL A   1      34.187  28.157  21.668  1.00  0.00    -0.245 OA
BRANCH   7   9
ATOM      9  C   UNL A   1      33.620  26.477  23.277  1.00  0.00     0.387 C 
BRANCH   9  10
ATOM     10  N   UNL A   1      32.560  25.687  22.585  1.00  0.00    -0.308 N 
ATOM     11  H   UNL A   1      32.348  26.118  21.686  1.00  0.00     0.350 HD
BRANCH  10  12
ATOM     12  C   UNL A   1      33.013  24.330  22.226  1.00  0.00     0.355 C 
BRANCH  12  13
ATOM     13  C   UNL A   1      34.131  23.849  23.063  1.00  0.00    -0.047 C 
ATOM     14  C   UNL A   1      35.053  23.503  23.760  1.00  0.00     0.010 C 
ENDBRANCH  12  13
ENDBRANCH  10  12
BRANCH  10  15
ATOM     15  C   UNL A   1      31.291  25.723  23.406  1.00  0.00     0.242 C 
ATOM     16  C   UNL A   1      30.497  24.398  23.397  1.00  0.00     0.083 C 
BRANCH  15  17
ATOM     17  C   UNL A   1      30.320  26.849  23.070  1.00  0.00     0.151 A 
ATOM     18  N   UNL A   1      30.632  27.844  22.263  1.00  0.00    -0.235 NA
ATOM     19  S   UNL A   1      28.725  26.905  23.715  1.00  0.00    -0.113 S 
ATOM     20  C   UNL A   1      29.658  28.816  22.315  1.00  0.00     0.082 A 
ATOM     21  C   UNL A   1      28.523  28.493  23.060  1.00  0.00     0.055 A 
ATOM     22  C   UNL A   1      29.755  30.092  21.727  1.00  0.00     0.030 A 
ATOM     23  C   UNL A   1      27.463  29.403  23.215  1.00  0.00     0.021 A 
ATOM     24  C   UNL A   1      28.731  31.022  21.916  1.00  0.00     0.002 A 
ATOM     25  C   UNL A   1      27.597  30.677  22.646  1.00  0.00     0.002 A 
ENDBRANCH  15  17
ENDBRANCH  10  15
ENDBRANCH   9  10
ENDBRANCH   7   9
ENDBRANCH   6   7
ENDBRANCH   5   6
ENDBRANCH   4   5
ENDBRANCH   3   4
ENDBRANCH   2   3
ENDBRANCH   1   2
BRANCH   1  26
ATOM     26  O   UNL A   1      35.371  32.821  27.681  1.00  0.00    -0.377 OA
BRANCH  26  27
ATOM     27  C   UNL A   1      34.231  33.098  28.475  1.00  0.00     0.188 C 
BRANCH  27  28
ATOM     28  C   UNL A   1      33.004  33.839  27.900  1.00  0.00     0.188 C 
BRANCH  28  29
ATOM     29  O   UNL A   1      32.448  34.840  28.732  1.00  0.00    -0.376 OA
BRANCH  29  30
ATOM     30  C   UNL A   1      33.197  36.009  29.021  1.00  0.00     0.202 C 
BRANCH  30  31
ATOM     31  C   UNL A   1      32.791  36.904  30.206  1.00  0.00     0.261 C 
BRANCH  31  32
ATOM     32  O   UNL A   1      33.412  36.631  31.469  1.00  0.00    -0.460 OA
BRANCH  32  33
ATOM     33  C   UNL A   1      33.053  35.492  32.095  1.00  0.00     0.338 C 
ATOM     34  O   UNL A   1      31.934  35.164  32.440  1.00  0.00    -0.246 OA
BRANCH  33  35
ATOM     35  C   UNL A   1      34.233  34.602  32.147  1.00  0.00     0.060 A 
ATOM     36  C   UNL A   1      34.166  33.436  32.922  1.00  0.00     0.016 A 
ATOM     37  C   UNL A   1      35.407  34.933  31.466  1.00  0.00     0.016 A 
ATOM     38  C   UNL A   1      35.295  32.636  33.079  1.00  0.00     0.010 A 
ATOM     39  C   UNL A   1      36.545  34.141  31.642  1.00  0.00     0.010 A 
ATOM     40  C   UNL A   1      36.508  33.021  32.495  1.00  0.00    -0.014 A 
BRANCH  40  41
ATOM     41  C   UNL A   1      37.770  32.410  32.978  1.00  0.00     0.031 A 
ATOM     42  C   UNL A   1      38.419  31.356  32.119  1.00  0.00     0.074 A 
ATOM     43  C   UNL A   1      38.357  32.805  34.120  1.00  0.00     0.049 A 
ATOM     44  N   UNL A   1      39.491  30.641  32.341  1.00  0.00    -0.248 NA
ATOM     45  C   UNL A   1      37.760  31.068  30.833  1.00  0.00     0.031 C 
ATOM     46  C   UNL A   1      37.861  33.854  35.007  1.00  0.00     0.029 A 
ATOM     47  N   UNL A   1      39.504  32.359  34.730  1.00  0.00    -0.354 N 
ATOM     48  C   UNL A   1      39.625  29.812  31.234  1.00  0.00     0.074 A 
ATOM     49  C   UNL A   1      38.507  30.083  30.360  1.00  0.00     0.031 C 
ATOM     50  C   UNL A   1      38.693  33.963  36.057  1.00  0.00     0.029 A 
ATOM     51  C   UNL A   1      39.757  32.967  35.935  1.00  0.00     0.049 A 
ATOM     52  H   UNL A   1      40.089  31.670  34.340  1.00  0.00     0.167 HD
ATOM     53  C   UNL A   1      40.601  28.912  30.964  1.00  0.00     0.037 A 
ATOM     54  C   UNL A   1      40.721  32.722  36.844  1.00  0.00     0.037 A 
ATOM     55  C   UNL A   1      41.713  28.646  31.837  1.00  0.00     0.049 A 
ATOM     56  C   UNL A   1      41.747  31.651  36.562  1.00  0.00     0.074 A 
ATOM     57  C   UNL A   1      42.762  27.763  31.652  1.00  0.00     0.029 A 
ATOM     58  N   UNL A   1      41.914  29.254  33.068  1.00  0.00    -0.354 N 
ATOM     59  N   UNL A   1      41.881  30.883  35.507  1.00  0.00    -0.248 NA
ATOM     60  C   UNL A   1      42.764  31.419  37.598  1.00  0.00     0.031 C 
ATOM     61  C   UNL A   1      43.556  27.781  32.803  1.00  0.00     0.029 A 
ATOM     62  C   UNL A   1      43.053  28.741  33.668  1.00  0.00     0.049 A 
ATOM     63  H   UNL A   1      41.334  29.947  33.457  1.00  0.00     0.167 HD
ATOM     64  C   UNL A   1      43.014  30.111  35.733  1.00  0.00     0.074 A 
ATOM     65  C   UNL A   1      43.538  30.512  37.021  1.00  0.00     0.031 C 
ATOM     66  C   UNL A   1      43.574  29.160  34.944  1.00  0.00     0.037 A 
BRANCH  53  67
ATOM     67  C   UNL A   1      40.487  28.121  29.691  1.00  0.00     0.064 A 
ATOM     68  C   UNL A   1      41.200  28.467  28.533  1.00  0.00     0.173 A 
ATOM     69  C   UNL A   1      39.671  26.980  29.640  1.00  0.00     0.173 A 
ATOM     70  F   UNL A   1      41.985  29.556  28.521  1.00  0.00    -0.203 F 
ATOM     71  C   UNL A   1      41.074  27.721  27.363  1.00  0.00     0.198 A 
ATOM     72  C   UNL A   1      39.578  26.214  28.480  1.00  0.00     0.198 A 
ATOM     73  F   UNL A   1      38.969  26.600  30.717  1.00  0.00    -0.203 F 
ATOM     74  F   UNL A   1      41.719  28.105  26.252  1.00  0.00    -0.200 F 
ATOM     75  C   UNL A   1      40.272  26.590  27.341  1.00  0.00     0.200 A 
ATOM     76  F   UNL A   1      38.816  25.112  28.468  1.00  0.00    -0.200 F 
ATOM     77  F   UNL A   1      40.160  25.867  26.218  1.00  0.00    -0.200 F 
ENDBRANCH  53  67
BRANCH  54  78
ATOM     78  C   UNL A   1      40.759  33.490  38.119  1.00  0.00     0.064 A 
ATOM     79  C   UNL A   1      39.870  33.204  39.166  1.00  0.00     0.173 A 
ATOM     80  C   UNL A   1      41.660  34.549  38.303  1.00  0.00     0.173 A 
ATOM     81  F   UNL A   1      38.972  32.218  39.031  1.00  0.00    -0.203 F 
ATOM     82  C   UNL A   1      39.860  33.967  40.332  1.00  0.00     0.198 A 
ATOM     83  C   UNL A   1      41.674  35.288  39.485  1.00  0.00     0.198 A 
ATOM     84  F   UNL A   1      42.530  34.870  37.334  1.00  0.00    -0.203 F 
ATOM     85  F   UNL A   1      38.957  33.713  41.287  1.00  0.00    -0.200 F 
ATOM     86  C   UNL A   1      40.766  35.004  40.493  1.00  0.00     0.200 A 
ATOM     87  F   UNL A   1      42.561  36.280  39.641  1.00  0.00    -0.200 F 
ATOM     88  F   UNL A   1      40.757  35.737  41.614  1.00  0.00    -0.200 F 
ENDBRANCH  54  78
BRANCH  66  89
ATOM     89  C   UNL A   1      44.857  28.528  35.414  1.00  0.00     0.064 A 
ATOM     90  C   UNL A   1      44.877  27.345  36.167  1.00  0.00     0.173 A 
ATOM     91  C   UNL A   1      46.092  29.102  35.066  1.00  0.00     0.173 A 
ATOM     92  F   UNL A   1      43.728  26.759  36.536  1.00  0.00    -0.203 F 
ATOM     93  C   UNL A   1      46.081  26.781  36.584  1.00  0.00     0.198 A 
ATOM     94  C   UNL A   1      47.293  28.512  35.449  1.00  0.00     0.198 A 
ATOM     95  F   UNL A   1      46.134  30.227  34.337  1.00  0.00    -0.203 F 
ATOM     96  F   UNL A   1      46.072  25.685  37.356  1.00  0.00    -0.200 F 
ATOM     97  C   UNL A   1      47.287  27.360  36.218  1.00  0.00     0.200 A 
ATOM     98  F   UNL A   1      48.456  29.061  35.073  1.00  0.00    -0.200 F 
ATOM     99  F   UNL A   1      48.444  26.810  36.613  1.00  0.00    -0.200 F 
ENDBRANCH  66  89
ENDBRANCH  40  41
ENDBRANCH  33  35
ENDBRANCH  32  33
ENDBRANCH  31  32
ENDBRANCH  30  31
ENDBRANCH  29  30
ENDBRANCH  28  29
ENDBRANCH  27  28
ENDBRANCH  26  27
ENDBRANCH   1  26
TORSDOF 25
ENDMDL
MODEL 3
REMARK VINA RESULT:      -9.6      3.897      9.615
REMARK SMILES C#CC[N@H+](CC(=O)OCCOCCOCCOCCOC(=O)c1ccc(-c2c3nc(c(-c4c(F)c(F)c(F)c(F)c4F)c4ccc([nH]4)c(-c4c(F)c(F)c(F)c(F)c4F)c4nc(c(-c5c(F)c(F)c(F)c(F)c5F)c5ccc2[nH]5)C=C4)C=C3)cc1)[C@H](C)c1nc2ccccc2s1
REMARK SMILES IDX 13 1 12 2 11 3 10 4 9 5 8 6 6 7 7 8 5 9 4 10 3 12 2 13 1 14
REMARK SMILES IDX 86 15 87 16 88 17 89 18 96 19 90 20 95 21 91 22 94 23 92 24
REMARK SMILES IDX 93 25 14 26 15 27 16 28 17 29 18 30 19 31 20 32 21 33 22 34
REMARK SMILES IDX 23 35 24 36 85 37 25 38 84 39 26 40 27 41 28 42 78 43 29 44
REMARK SMILES IDX 83 45 77 46 79 47 30 48 82 49 76 50 75 51 31 53 63 54 43 55
REMARK SMILES IDX 62 56 44 57 47 58 61 59 80 60 45 61 46 62 60 64 81 65 48 66
REMARK SMILES IDX 32 67 33 68 41 69 34 70 35 71 39 72 42 73 36 74 37 75 40 76
REMARK SMILES IDX 38 77 64 78 65 79 73 80 66 81 67 82 71 83 74 84 68 85 69 86
REMARK SMILES IDX 72 87 70 88 49 89 50 90 58 91 51 92 52 93 56 94 59 95 53 96
REMARK SMILES IDX 54 97 57 98 55 99
REMARK H PARENT 4 11 79 52 47 63
REMARK Flexibility Score: inf
ROOT
ATOM      1  C   UNL A   1      35.140  30.749  27.621  1.00  0.00     0.188 C 
ENDROOT
BRANCH   1   2
ATOM      2  C   UNL A   1      33.729  30.228  27.307  1.00  0.00     0.188 C 
BRANCH   2   3
ATOM      3  O   UNL A   1      33.501  28.836  27.194  1.00  0.00    -0.376 OA
BRANCH   3   4
ATOM      4  C   UNL A   1      32.244  28.303  26.812  1.00  0.00     0.202 C 
BRANCH   4   5
ATOM      5  C   UNL A   1      31.977  26.841  26.408  1.00  0.00     0.261 C 
BRANCH   5   6
ATOM      6  O   UNL A   1      32.041  26.527  25.014  1.00  0.00    -0.459 OA
BRANCH   6   7
ATOM      7  C   UNL A   1      33.274  26.391  24.484  1.00  0.00     0.361 C 
ATOM      8  O   UNL A   1      33.811  27.249  23.785  1.00  0.00    -0.245 OA
BRANCH   7   9
ATOM      9  C   UNL A   1      34.009  25.093  24.807  1.00  0.00     0.387 C 
BRANCH   9  10
ATOM     10  N   UNL A   1      33.475  23.773  24.360  1.00  0.00    -0.308 N 
ATOM     11  H   UNL A   1      32.496  23.875  24.095  1.00  0.00     0.350 HD
BRANCH  10  12
ATOM     12  C   UNL A   1      34.125  23.292  23.126  1.00  0.00     0.355 C 
BRANCH  12  13
ATOM     13  C   UNL A   1      35.594  23.202  23.238  1.00  0.00    -0.047 C 
ATOM     14  C   UNL A   1      36.789  23.113  23.377  1.00  0.00     0.010 C 
ENDBRANCH  12  13
ENDBRANCH  10  12
BRANCH  10  15
ATOM     15  C   UNL A   1      33.526  22.795  25.512  1.00  0.00     0.242 C 
ATOM     16  C   UNL A   1      34.750  22.973  26.435  1.00  0.00     0.083 C 
BRANCH  15  17
ATOM     17  C   UNL A   1      33.441  21.322  25.130  1.00  0.00     0.151 A 
ATOM     18  N   UNL A   1      34.413  20.464  25.371  1.00  0.00    -0.235 NA
ATOM     19  S   UNL A   1      32.054  20.656  24.357  1.00  0.00    -0.113 S 
ATOM     20  C   UNL A   1      34.158  19.272  24.729  1.00  0.00     0.082 A 
ATOM     21  C   UNL A   1      32.911  19.174  24.112  1.00  0.00     0.055 A 
ATOM     22  C   UNL A   1      35.068  18.202  24.617  1.00  0.00     0.030 A 
ATOM     23  C   UNL A   1      32.531  18.021  23.403  1.00  0.00     0.021 A 
ATOM     24  C   UNL A   1      34.721  17.074  23.873  1.00  0.00     0.002 A 
ATOM     25  C   UNL A   1      33.466  16.983  23.280  1.00  0.00     0.002 A 
ENDBRANCH  15  17
ENDBRANCH  10  15
ENDBRANCH   9  10
ENDBRANCH   7   9
ENDBRANCH   6   7
ENDBRANCH   5   6
ENDBRANCH   4   5
ENDBRANCH   3   4
ENDBRANCH   2   3
ENDBRANCH   1   2
BRANCH   1  26
ATOM     26  O   UNL A   1      35.218  32.107  27.995  1.00  0.00    -0.377 OA
BRANCH  26  27
ATOM     27  C   UNL A   1      34.103  32.738  28.598  1.00  0.00     0.188 C 
BRANCH  27  28
ATOM     28  C   UNL A   1      33.387  33.932  27.929  1.00  0.00     0.188 C 
BRANCH  28  29
ATOM     29  O   UNL A   1      32.701  34.805  28.806  1.00  0.00    -0.376 OA
BRANCH  29  30
ATOM     30  C   UNL A   1      33.137  36.147  28.946  1.00  0.00     0.202 C 
BRANCH  30  31
ATOM     31  C   UNL A   1      32.723  36.961  30.185  1.00  0.00     0.261 C 
BRANCH  31  32
ATOM     32  O   UNL A   1      33.417  36.682  31.408  1.00  0.00    -0.460 OA
BRANCH  32  33
ATOM     33  C   UNL A   1      33.037  35.582  32.091  1.00  0.00     0.338 C 
ATOM     34  O   UNL A   1      31.944  35.357  32.573  1.00  0.00    -0.246 OA
BRANCH  33  35
ATOM     35  C   UNL A   1      34.131  34.591  32.014  1.00  0.00     0.060 A 
ATOM     36  C   UNL A   1      34.013  33.396  32.738  1.00  0.00     0.016 A 
ATOM     37  C   UNL A   1      35.281  34.853  31.265  1.00  0.00     0.016 A 
ATOM     38  C   UNL A   1      35.072  32.492  32.774  1.00  0.00     0.010 A 
ATOM     39  C   UNL A   1      36.352  33.956  31.320  1.00  0.00     0.010 A 
ATOM     40  C   UNL A   1      36.271  32.801  32.121  1.00  0.00    -0.014 A 
BRANCH  40  41
ATOM     41  C   UNL A   1      37.503  32.056  32.481  1.00  0.00     0.031 A 
ATOM     42  C   UNL A   1      38.191  32.411  33.773  1.00  0.00     0.074 A 
ATOM     43  C   UNL A   1      37.979  31.060  31.715  1.00  0.00     0.049 A 
ATOM     44  N   UNL A   1      39.301  31.945  34.285  1.00  0.00    -0.248 NA
ATOM     45  C   UNL A   1      37.534  33.440  34.598  1.00  0.00     0.031 C 
ATOM     46  C   UNL A   1      37.372  30.584  30.475  1.00  0.00     0.029 A 
ATOM     47  N   UNL A   1      39.093  30.273  31.872  1.00  0.00    -0.354 N 
ATOM     48  C   UNL A   1      39.481  32.632  35.479  1.00  0.00     0.074 A 
ATOM     49  C   UNL A   1      38.391  33.573  35.599  1.00  0.00     0.031 C 
ATOM     50  C   UNL A   1      38.129  29.592  29.975  1.00  0.00     0.029 A 
ATOM     51  C   UNL A   1      39.292  29.391  30.839  1.00  0.00     0.049 A 
ATOM     52  H   UNL A   1      39.690  30.334  32.652  1.00  0.00     0.167 HD
ATOM     53  C   UNL A   1      40.463  32.484  36.400  1.00  0.00     0.037 A 
ATOM     54  C   UNL A   1      40.314  28.544  30.608  1.00  0.00     0.037 A 
ATOM     55  C   UNL A   1      41.546  31.545  36.276  1.00  0.00     0.049 A 
ATOM     56  C   UNL A   1      41.444  28.460  31.605  1.00  0.00     0.074 A 
ATOM     57  C   UNL A   1      42.586  31.308  37.158  1.00  0.00     0.029 A 
ATOM     58  N   UNL A   1      41.736  30.696  35.196  1.00  0.00    -0.354 N 
ATOM     59  N   UNL A   1      41.602  29.097  32.741  1.00  0.00    -0.248 NA
ATOM     60  C   UNL A   1      42.538  27.528  31.290  1.00  0.00     0.031 C 
ATOM     61  C   UNL A   1      43.445  30.371  36.577  1.00  0.00     0.029 A 
ATOM     62  C   UNL A   1      42.895  29.956  35.374  1.00  0.00     0.049 A 
ATOM     63  H   UNL A   1      41.137  30.629  34.418  1.00  0.00     0.167 HD
ATOM     64  C   UNL A   1      42.784  28.616  33.292  1.00  0.00     0.074 A 
ATOM     65  C   UNL A   1      43.297  27.624  32.372  1.00  0.00     0.031 C 
ATOM     66  C   UNL A   1      43.387  28.960  34.457  1.00  0.00     0.037 A 
BRANCH  53  67
ATOM     67  C   UNL A   1      40.432  33.385  37.603  1.00  0.00     0.064 A 
ATOM     68  C   UNL A   1      41.259  34.514  37.709  1.00  0.00     0.173 A 
ATOM     69  C   UNL A   1      39.537  33.129  38.653  1.00  0.00     0.173 A 
ATOM     70  F   UNL A   1      42.142  34.799  36.740  1.00  0.00    -0.203 F 
ATOM     71  C   UNL A   1      41.214  35.332  38.836  1.00  0.00     0.198 A 
ATOM     72  C   UNL A   1      39.468  33.972  39.760  1.00  0.00     0.198 A 
ATOM     73  F   UNL A   1      38.720  32.066  38.604  1.00  0.00    -0.203 F 
ATOM     74  F   UNL A   1      42.055  36.371  38.941  1.00  0.00    -0.200 F 
ATOM     75  C   UNL A   1      40.313  35.066  39.855  1.00  0.00     0.200 A 
ATOM     76  F   UNL A   1      38.583  33.721  40.735  1.00  0.00    -0.200 F 
ATOM     77  F   UNL A   1      40.264  35.860  40.933  1.00  0.00    -0.200 F 
ENDBRANCH  53  67
BRANCH  54  78
ATOM     78  C   UNL A   1      40.332  27.713  29.372  1.00  0.00     0.064 A 
ATOM     79  C   UNL A   1      41.103  28.083  28.260  1.00  0.00     0.173 A 
ATOM     80  C   UNL A   1      39.550  26.554  29.263  1.00  0.00     0.173 A 
ATOM     81  F   UNL A   1      41.848  29.197  28.303  1.00  0.00    -0.203 F 
ATOM     82  C   UNL A   1      41.066  27.344  27.079  1.00  0.00     0.198 A 
ATOM     83  C   UNL A   1      39.543  25.795  28.094  1.00  0.00     0.198 A 
ATOM     84  F   UNL A   1      38.790  26.155  30.294  1.00  0.00    -0.203 F 
ATOM     85  F   UNL A   1      41.762  27.757  26.012  1.00  0.00    -0.200 F 
ATOM     86  C   UNL A   1      40.292  26.197  26.999  1.00  0.00     0.200 A 
ATOM     87  F   UNL A   1      38.805  24.678  28.028  1.00  0.00    -0.200 F 
ATOM     88  F   UNL A   1      40.258  25.486  25.864  1.00  0.00    -0.200 F 
ENDBRANCH  54  78
BRANCH  66  89
ATOM     89  C   UNL A   1      44.637  28.215  34.844  1.00  0.00     0.064 A 
ATOM     90  C   UNL A   1      45.918  28.679  34.511  1.00  0.00     0.173 A 
ATOM     91  C   UNL A   1      44.546  27.033  35.598  1.00  0.00     0.173 A 
ATOM     92  F   UNL A   1      46.064  29.797  33.784  1.00  0.00    -0.203 F 
ATOM     93  C   UNL A   1      47.057  27.970  34.886  1.00  0.00     0.198 A 
ATOM     94  C   UNL A   1      45.688  26.350  36.007  1.00  0.00     0.198 A 
ATOM     95  F   UNL A   1      43.348  26.549  35.956  1.00  0.00    -0.203 F 
ATOM     96  F   UNL A   1      48.267  28.400  34.502  1.00  0.00    -0.200 F 
ATOM     97  C   UNL A   1      46.942  26.812  35.641  1.00  0.00     0.200 A 
ATOM     98  F   UNL A   1      45.573  25.246  36.757  1.00  0.00    -0.200 F 
ATOM     99  F   UNL A   1      48.040  26.138  36.009  1.00  0.00    -0.200 F 
ENDBRANCH  66  89
ENDBRANCH  40  41
ENDBRANCH  33  35
ENDBRANCH  32  33
ENDBRANCH  31  32
ENDBRANCH  30  31
ENDBRANCH  29  30
ENDBRANCH  28  29
ENDBRANCH  27  28
ENDBRANCH  26  27
ENDBRANCH   1  26
TORSDOF 25
ENDMDL
