MODEL 1
REMARK VINA RESULT:     -10.6      0.000      0.000
REMARK SMILES COc1c(N)cc(-c2ccccc2)cc1C(=O)OCCOCCOCCOCCOC(=O)c1ccc(-c2c3nc(c(-c4c(F)c(F)c(F)c(F)c4F)c4ccc([nH]4)c(-c4c(F)c(F)c(F)c(F)c4F)c4nc(c(-c5c(F)c(F)c(F)c(F)c5F)c5ccc2[nH]5)C=C4)C=C3)cc1
REMARK SMILES IDX 25 1 24 2 23 3 22 4 21 5 20 6 19 7 18 8 16 9 17 10 15 11
REMARK SMILES IDX 3 12 4 13 6 14 14 15 7 16 2 17 1 18 5 19 8 22 9 23 13 24
REMARK SMILES IDX 10 25 12 26 11 27 26 28 27 29 28 30 29 31 30 32 31 33 32 34
REMARK SMILES IDX 33 35 34 36 95 37 35 38 94 39 36 40 37 41 38 42 88 43 39 44
REMARK SMILES IDX 93 45 87 46 89 47 40 48 92 49 86 50 85 51 41 53 73 54 53 55
REMARK SMILES IDX 72 56 54 57 57 58 71 59 90 60 55 61 56 62 70 64 91 65 58 66
REMARK SMILES IDX 42 67 43 68 51 69 44 70 45 71 49 72 52 73 46 74 47 75 50 76
REMARK SMILES IDX 48 77 74 78 75 79 83 80 76 81 77 82 81 83 84 84 78 85 79 86
REMARK SMILES IDX 82 87 80 88 59 89 60 90 68 91 61 92 62 93 66 94 69 95 63 96
REMARK SMILES IDX 64 97 67 98 65 99
REMARK H PARENT 5 20 5 21 89 52 57 63
REMARK Flexibility Score: inf
ROOT
ATOM      1  C   UNL A   1      33.601  27.361  24.229  1.00  0.00     0.188 C 
ENDROOT
BRANCH   1   2
ATOM      2  O   UNL A   1      32.497  26.468  24.341  1.00  0.00    -0.377 OA
BRANCH   2   3
ATOM      3  C   UNL A   1      31.920  26.209  25.617  1.00  0.00     0.188 C 
BRANCH   3   4
ATOM      4  C   UNL A   1      32.416  25.029  26.485  1.00  0.00     0.188 C 
BRANCH   4   5
ATOM      5  O   UNL A   1      31.402  24.401  27.247  1.00  0.00    -0.376 OA
BRANCH   5   6
ATOM      6  C   UNL A   1      30.787  23.234  26.739  1.00  0.00     0.202 C 
BRANCH   6   7
ATOM      7  C   UNL A   1      31.005  22.860  25.263  1.00  0.00     0.261 C 
BRANCH   7   8
ATOM      8  O   UNL A   1      31.401  21.506  25.018  1.00  0.00    -0.460 OA
BRANCH   8   9
ATOM      9  C   UNL A   1      32.173  21.288  23.930  1.00  0.00     0.342 C 
ATOM     10  O   UNL A   1      31.969  21.728  22.809  1.00  0.00    -0.246 OA
BRANCH   9  11
ATOM     11  C   UNL A   1      33.444  20.639  24.331  1.00  0.00     0.104 A 
ATOM     12  C   UNL A   1      33.632  19.251  24.372  1.00  0.00     0.156 A 
ATOM     13  C   UNL A   1      34.916  18.731  24.625  1.00  0.00     0.076 A 
ATOM     14  C   UNL A   1      35.921  19.597  25.066  1.00  0.00     0.038 A 
ATOM     15  C   UNL A   1      34.490  21.499  24.713  1.00  0.00     0.028 A 
ATOM     16  C   UNL A   1      35.724  20.985  25.125  1.00  0.00    -0.015 A 
BRANCH  12  17
ATOM     17  O   UNL A   1      32.584  18.404  24.099  1.00  0.00    -0.494 OA
ATOM     18  C   UNL A   1      32.544  18.068  22.702  1.00  0.00     0.278 C 
ENDBRANCH  12  17
BRANCH  13  19
ATOM     19  N   UNL A   1      35.180  17.362  24.562  1.00  0.00    -0.396 N 
ATOM     20  H   UNL A   1      35.637  16.914  25.309  1.00  0.00     0.156 HD
ATOM     21  H   UNL A   1      34.909  16.844  23.768  1.00  0.00     0.156 HD
ENDBRANCH  13  19
BRANCH  16  22
ATOM     22  C   UNL A   1      36.814  21.865  25.554  1.00  0.00    -0.018 A 
ATOM     23  C   UNL A   1      36.571  23.231  25.757  1.00  0.00     0.009 A 
ATOM     24  C   UNL A   1      38.119  21.381  25.735  1.00  0.00     0.009 A 
ATOM     25  C   UNL A   1      37.603  24.095  26.124  1.00  0.00     0.001 A 
ATOM     26  C   UNL A   1      39.154  22.248  26.102  1.00  0.00     0.001 A 
ATOM     27  C   UNL A   1      38.896  23.603  26.294  1.00  0.00     0.000 A 
ENDBRANCH  16  22
ENDBRANCH   9  11
ENDBRANCH   8   9
ENDBRANCH   7   8
ENDBRANCH   6   7
ENDBRANCH   5   6
ENDBRANCH   4   5
ENDBRANCH   3   4
ENDBRANCH   2   3
ENDBRANCH   1   2
BRANCH   1  28
ATOM     28  C   UNL A   1      33.679  28.624  25.116  1.00  0.00     0.188 C 
BRANCH  28  29
ATOM     29  O   UNL A   1      32.841  29.686  24.693  1.00  0.00    -0.376 OA
BRANCH  29  30
ATOM     30  C   UNL A   1      31.725  30.007  25.503  1.00  0.00     0.202 C 
BRANCH  30  31
ATOM     31  C   UNL A   1      31.859  31.190  26.476  1.00  0.00     0.261 C 
BRANCH  31  32
ATOM     32  O   UNL A   1      32.857  31.068  27.502  1.00  0.00    -0.460 OA
BRANCH  32  33
ATOM     33  C   UNL A   1      33.704  32.103  27.669  1.00  0.00     0.338 C 
ATOM     34  O   UNL A   1      33.434  33.295  27.642  1.00  0.00    -0.246 OA
BRANCH  33  35
ATOM     35  C   UNL A   1      35.009  31.550  28.086  1.00  0.00     0.060 A 
ATOM     36  C   UNL A   1      35.131  30.169  28.294  1.00  0.00     0.016 A 
ATOM     37  C   UNL A   1      36.109  32.391  28.265  1.00  0.00     0.016 A 
ATOM     38  C   UNL A   1      36.345  29.632  28.720  1.00  0.00     0.010 A 
ATOM     39  C   UNL A   1      37.320  31.855  28.712  1.00  0.00     0.010 A 
ATOM     40  C   UNL A   1      37.431  30.479  28.979  1.00  0.00    -0.014 A 
BRANCH  40  41
ATOM     41  C   UNL A   1      38.601  29.953  29.724  1.00  0.00     0.031 A 
ATOM     42  C   UNL A   1      38.826  30.436  31.131  1.00  0.00     0.074 A 
ATOM     43  C   UNL A   1      39.419  29.030  29.188  1.00  0.00     0.049 A 
ATOM     44  N   UNL A   1      39.771  30.125  31.981  1.00  0.00    -0.248 NA
ATOM     45  C   UNL A   1      37.848  31.406  31.647  1.00  0.00     0.031 C 
ATOM     46  C   UNL A   1      39.280  28.448  27.857  1.00  0.00     0.029 A 
ATOM     47  N   UNL A   1      40.532  28.420  29.711  1.00  0.00    -0.354 N 
ATOM     48  C   UNL A   1      39.500  30.859  33.129  1.00  0.00     0.074 A 
ATOM     49  C   UNL A   1      38.332  31.666  32.851  1.00  0.00     0.031 C 
ATOM     50  C   UNL A   1      40.272  27.560  27.665  1.00  0.00     0.029 A 
ATOM     51  C   UNL A   1      41.131  27.536  28.849  1.00  0.00     0.049 A 
ATOM     52  H   UNL A   1      40.869  28.599  30.619  1.00  0.00     0.167 HD
ATOM     53  C   UNL A   1      40.155  30.852  34.314  1.00  0.00     0.037 A 
ATOM     54  C   UNL A   1      42.253  26.804  28.998  1.00  0.00     0.037 A 
ATOM     55  C   UNL A   1      41.326  30.060  34.584  1.00  0.00     0.049 A 
ATOM     56  C   UNL A   1      43.020  26.885  30.295  1.00  0.00     0.074 A 
ATOM     57  C   UNL A   1      42.067  29.981  35.750  1.00  0.00     0.029 A 
ATOM     58  N   UNL A   1      41.937  29.216  33.667  1.00  0.00    -0.354 N 
ATOM     59  N   UNL A   1      42.747  27.562  31.384  1.00  0.00    -0.248 NA
ATOM     60  C   UNL A   1      44.253  26.089  30.381  1.00  0.00     0.031 C 
ATOM     61  C   UNL A   1      43.160  29.138  35.518  1.00  0.00     0.029 A 
ATOM     62  C   UNL A   1      43.060  28.634  34.232  1.00  0.00     0.049 A 
ATOM     63  H   UNL A   1      41.618  29.055  32.749  1.00  0.00     0.167 HD
ATOM     64  C   UNL A   1      43.748  27.244  32.296  1.00  0.00     0.074 A 
ATOM     65  C   UNL A   1      44.625  26.300  31.635  1.00  0.00     0.031 C 
ATOM     66  C   UNL A   1      43.924  27.690  33.565  1.00  0.00     0.037 A 
BRANCH  53  67
ATOM     67  C   UNL A   1      39.634  31.759  35.394  1.00  0.00     0.064 A 
ATOM     68  C   UNL A   1      38.669  31.330  36.320  1.00  0.00     0.173 A 
ATOM     69  C   UNL A   1      40.108  33.075  35.506  1.00  0.00     0.173 A 
ATOM     70  F   UNL A   1      38.170  30.087  36.249  1.00  0.00    -0.203 F 
ATOM     71  C   UNL A   1      38.170  32.197  37.290  1.00  0.00     0.198 A 
ATOM     72  C   UNL A   1      39.634  33.926  36.501  1.00  0.00     0.198 A 
ATOM     73  F   UNL A   1      41.031  33.538  34.651  1.00  0.00    -0.203 F 
ATOM     74  F   UNL A   1      37.202  31.785  38.120  1.00  0.00    -0.200 F 
ATOM     75  C   UNL A   1      38.658  33.492  37.384  1.00  0.00     0.200 A 
ATOM     76  F   UNL A   1      40.117  35.173  36.599  1.00  0.00    -0.200 F 
ATOM     77  F   UNL A   1      38.178  34.324  38.319  1.00  0.00    -0.200 F 
ENDBRANCH  53  67
BRANCH  54  78
ATOM     78  C   UNL A   1      42.722  25.919  27.898  1.00  0.00     0.064 A 
ATOM     79  C   UNL A   1      42.314  24.580  27.823  1.00  0.00     0.173 A 
ATOM     80  C   UNL A   1      43.615  26.382  26.920  1.00  0.00     0.173 A 
ATOM     81  F   UNL A   1      41.482  24.081  28.750  1.00  0.00    -0.203 F 
ATOM     82  C   UNL A   1      42.797  23.733  26.827  1.00  0.00     0.198 A 
ATOM     83  C   UNL A   1      44.073  25.543  25.906  1.00  0.00     0.198 A 
ATOM     84  F   UNL A   1      44.043  27.653  26.948  1.00  0.00    -0.203 F 
ATOM     85  F   UNL A   1      42.435  22.443  26.814  1.00  0.00    -0.200 F 
ATOM     86  C   UNL A   1      43.672  24.216  25.867  1.00  0.00     0.200 A 
ATOM     87  F   UNL A   1      44.910  26.018  24.973  1.00  0.00    -0.200 F 
ATOM     88  F   UNL A   1      44.138  23.402  24.910  1.00  0.00    -0.200 F 
ENDBRANCH  54  78
BRANCH  66  89
ATOM     89  C   UNL A   1      45.080  27.119  34.343  1.00  0.00     0.064 A 
ATOM     90  C   UNL A   1      46.358  27.696  34.308  1.00  0.00     0.173 A 
ATOM     91  C   UNL A   1      44.899  25.983  35.147  1.00  0.00     0.173 A 
ATOM     92  F   UNL A   1      46.591  28.777  33.547  1.00  0.00    -0.203 F 
ATOM     93  C   UNL A   1      47.421  27.129  35.008  1.00  0.00     0.198 A 
ATOM     94  C   UNL A   1      45.953  25.443  35.879  1.00  0.00     0.198 A 
ATOM     95  F   UNL A   1      43.695  25.396  35.230  1.00  0.00    -0.203 F 
ATOM     96  F   UNL A   1      48.648  27.656  34.901  1.00  0.00    -0.200 F 
ATOM     97  C   UNL A   1      47.216  26.008  35.798  1.00  0.00     0.200 A 
ATOM     98  F   UNL A   1      45.748  24.371  36.657  1.00  0.00    -0.200 F 
ATOM     99  F   UNL A   1      48.239  25.465  36.472  1.00  0.00    -0.200 F 
ENDBRANCH  66  89
ENDBRANCH  40  41
ENDBRANCH  33  35
ENDBRANCH  32  33
ENDBRANCH  31  32
ENDBRANCH  30  31
ENDBRANCH  29  30
ENDBRANCH  28  29
ENDBRANCH   1  28
TORSDOF 23
ENDMDL
MODEL 2
REMARK VINA RESULT:     -10.3      1.040      2.073
REMARK SMILES COc1c(N)cc(-c2ccccc2)cc1C(=O)OCCOCCOCCOCCOC(=O)c1ccc(-c2c3nc(c(-c4c(F)c(F)c(F)c(F)c4F)c4ccc([nH]4)c(-c4c(F)c(F)c(F)c(F)c4F)c4nc(c(-c5c(F)c(F)c(F)c(F)c5F)c5ccc2[nH]5)C=C4)C=C3)cc1
REMARK SMILES IDX 25 1 24 2 23 3 22 4 21 5 20 6 19 7 18 8 16 9 17 10 15 11
REMARK SMILES IDX 3 12 4 13 6 14 14 15 7 16 2 17 1 18 5 19 8 22 9 23 13 24
REMARK SMILES IDX 10 25 12 26 11 27 26 28 27 29 28 30 29 31 30 32 31 33 32 34
REMARK SMILES IDX 33 35 34 36 95 37 35 38 94 39 36 40 37 41 38 42 88 43 39 44
REMARK SMILES IDX 93 45 87 46 89 47 40 48 92 49 86 50 85 51 41 53 73 54 53 55
REMARK SMILES IDX 72 56 54 57 57 58 71 59 90 60 55 61 56 62 70 64 91 65 58 66
REMARK SMILES IDX 42 67 43 68 51 69 44 70 45 71 49 72 52 73 46 74 47 75 50 76
REMARK SMILES IDX 48 77 74 78 75 79 83 80 76 81 77 82 81 83 84 84 78 85 79 86
REMARK SMILES IDX 82 87 80 88 59 89 60 90 68 91 61 92 62 93 66 94 69 95 63 96
REMARK SMILES IDX 64 97 67 98 65 99
REMARK H PARENT 5 20 5 21 89 52 57 63
REMARK Flexibility Score: inf
ROOT
ATOM      1  C   UNL A   1      33.068  27.371  23.627  1.00  0.00     0.188 C 
ENDROOT
BRANCH   1   2
ATOM      2  O   UNL A   1      32.386  26.209  24.089  1.00  0.00    -0.377 OA
BRANCH   2   3
ATOM      3  C   UNL A   1      32.029  26.096  25.464  1.00  0.00     0.188 C 
BRANCH   3   4
ATOM      4  C   UNL A   1      32.112  24.737  26.195  1.00  0.00     0.188 C 
BRANCH   4   5
ATOM      5  O   UNL A   1      30.924  24.364  26.868  1.00  0.00    -0.376 OA
BRANCH   5   6
ATOM      6  C   UNL A   1      30.647  22.991  27.059  1.00  0.00     0.202 C 
BRANCH   6   7
ATOM      7  C   UNL A   1      30.824  22.024  25.877  1.00  0.00     0.261 C 
BRANCH   7   8
ATOM      8  O   UNL A   1      31.727  20.934  26.096  1.00  0.00    -0.460 OA
BRANCH   8   9
ATOM      9  C   UNL A   1      32.370  20.451  25.010  1.00  0.00     0.342 C 
ATOM     10  O   UNL A   1      32.120  19.402  24.439  1.00  0.00    -0.246 OA
BRANCH   9  11
ATOM     11  C   UNL A   1      33.267  21.490  24.449  1.00  0.00     0.104 A 
ATOM     12  C   UNL A   1      32.946  22.280  23.337  1.00  0.00     0.156 A 
ATOM     13  C   UNL A   1      33.799  23.337  22.967  1.00  0.00     0.076 A 
ATOM     14  C   UNL A   1      35.061  23.428  23.563  1.00  0.00     0.038 A 
ATOM     15  C   UNL A   1      34.516  21.642  25.079  1.00  0.00     0.028 A 
ATOM     16  C   UNL A   1      35.441  22.583  24.616  1.00  0.00    -0.015 A 
BRANCH  12  17
ATOM     17  O   UNL A   1      31.772  22.067  22.654  1.00  0.00    -0.494 OA
ATOM     18  C   UNL A   1      31.936  21.053  21.649  1.00  0.00     0.278 C 
ENDBRANCH  12  17
BRANCH  13  19
ATOM     19  N   UNL A   1      33.467  24.225  21.942  1.00  0.00    -0.396 N 
ATOM     20  H   UNL A   1      32.542  24.270  21.609  1.00  0.00     0.156 HD
ATOM     21  H   UNL A   1      34.159  24.808  21.552  1.00  0.00     0.156 HD
ENDBRANCH  13  19
BRANCH  16  22
ATOM     22  C   UNL A   1      36.756  22.734  25.241  1.00  0.00    -0.018 A 
ATOM     23  C   UNL A   1      37.645  21.650  25.273  1.00  0.00     0.009 A 
ATOM     24  C   UNL A   1      37.146  23.938  25.850  1.00  0.00     0.009 A 
ATOM     25  C   UNL A   1      38.886  21.758  25.901  1.00  0.00     0.001 A 
ATOM     26  C   UNL A   1      38.389  24.046  26.482  1.00  0.00     0.001 A 
ATOM     27  C   UNL A   1      39.257  22.956  26.508  1.00  0.00     0.000 A 
ENDBRANCH  16  22
ENDBRANCH   9  11
ENDBRANCH   8   9
ENDBRANCH   7   8
ENDBRANCH   6   7
ENDBRANCH   5   6
ENDBRANCH   4   5
ENDBRANCH   3   4
ENDBRANCH   2   3
ENDBRANCH   1   2
BRANCH   1  28
ATOM     28  C   UNL A   1      33.280  28.580  24.566  1.00  0.00     0.188 C 
BRANCH  28  29
ATOM     29  O   UNL A   1      32.294  29.591  24.447  1.00  0.00    -0.376 OA
BRANCH  29  30
ATOM     30  C   UNL A   1      31.525  29.899  25.596  1.00  0.00     0.202 C 
BRANCH  30  31
ATOM     31  C   UNL A   1      31.853  31.194  26.356  1.00  0.00     0.261 C 
BRANCH  31  32
ATOM     32  O   UNL A   1      32.804  31.087  27.428  1.00  0.00    -0.460 OA
BRANCH  32  33
ATOM     33  C   UNL A   1      33.632  32.131  27.628  1.00  0.00     0.338 C 
ATOM     34  O   UNL A   1      33.342  33.319  27.633  1.00  0.00    -0.246 OA
BRANCH  33  35
ATOM     35  C   UNL A   1      34.944  31.589  28.038  1.00  0.00     0.060 A 
ATOM     36  C   UNL A   1      35.067  30.216  28.290  1.00  0.00     0.016 A 
ATOM     37  C   UNL A   1      36.049  32.433  28.167  1.00  0.00     0.016 A 
ATOM     38  C   UNL A   1      36.288  29.690  28.710  1.00  0.00     0.010 A 
ATOM     39  C   UNL A   1      37.267  31.910  28.608  1.00  0.00     0.010 A 
ATOM     40  C   UNL A   1      37.381  30.542  28.919  1.00  0.00    -0.014 A 
BRANCH  40  41
ATOM     41  C   UNL A   1      38.564  30.039  29.658  1.00  0.00     0.031 A 
ATOM     42  C   UNL A   1      38.789  30.529  31.063  1.00  0.00     0.074 A 
ATOM     43  C   UNL A   1      39.396  29.130  29.119  1.00  0.00     0.049 A 
ATOM     44  N   UNL A   1      39.745  30.237  31.909  1.00  0.00    -0.248 NA
ATOM     45  C   UNL A   1      37.796  31.483  31.583  1.00  0.00     0.031 C 
ATOM     46  C   UNL A   1      39.260  28.543  27.790  1.00  0.00     0.029 A 
ATOM     47  N   UNL A   1      40.523  28.541  29.637  1.00  0.00    -0.354 N 
ATOM     48  C   UNL A   1      39.466  30.968  33.057  1.00  0.00     0.074 A 
ATOM     49  C   UNL A   1      38.283  31.753  32.783  1.00  0.00     0.031 C 
ATOM     50  C   UNL A   1      40.266  27.672  27.595  1.00  0.00     0.029 A 
ATOM     51  C   UNL A   1      41.133  27.666  28.773  1.00  0.00     0.049 A 
ATOM     52  H   UNL A   1      40.861  28.728  30.543  1.00  0.00     0.167 HD
ATOM     53  C   UNL A   1      40.129  30.975  34.238  1.00  0.00     0.037 A 
ATOM     54  C   UNL A   1      42.268  26.955  28.918  1.00  0.00     0.037 A 
ATOM     55  C   UNL A   1      41.315  30.204  34.503  1.00  0.00     0.049 A 
ATOM     56  C   UNL A   1      43.041  27.053  30.209  1.00  0.00     0.074 A 
ATOM     57  C   UNL A   1      42.064  30.141  35.664  1.00  0.00     0.029 A 
ATOM     58  N   UNL A   1      41.936  29.370  33.583  1.00  0.00    -0.354 N 
ATOM     59  N   UNL A   1      42.762  27.726  31.299  1.00  0.00    -0.248 NA
ATOM     60  C   UNL A   1      44.288  26.279  30.290  1.00  0.00     0.031 C 
ATOM     61  C   UNL A   1      43.170  29.318  35.428  1.00  0.00     0.029 A 
ATOM     62  C   UNL A   1      43.072  28.809  34.143  1.00  0.00     0.049 A 
ATOM     63  H   UNL A   1      41.614  29.202  32.667  1.00  0.00     0.167 HD
ATOM     64  C   UNL A   1      43.774  27.428  32.206  1.00  0.00     0.074 A 
ATOM     65  C   UNL A   1      44.664  26.498  31.542  1.00  0.00     0.031 C 
ATOM     66  C   UNL A   1      43.949  27.879  33.473  1.00  0.00     0.037 A 
BRANCH  53  67
ATOM     67  C   UNL A   1      39.597  31.874  35.319  1.00  0.00     0.064 A 
ATOM     68  C   UNL A   1      39.982  33.221  35.419  1.00  0.00     0.173 A 
ATOM     69  C   UNL A   1      38.687  31.384  36.267  1.00  0.00     0.173 A 
ATOM     70  F   UNL A   1      40.862  33.738  34.548  1.00  0.00    -0.203 F 
ATOM     71  C   UNL A   1      39.508  34.029  36.450  1.00  0.00     0.198 A 
ATOM     72  C   UNL A   1      38.186  32.205  37.274  1.00  0.00     0.198 A 
ATOM     73  F   UNL A   1      38.281  30.106  36.219  1.00  0.00    -0.203 F 
ATOM     74  F   UNL A   1      39.942  35.292  36.563  1.00  0.00    -0.200 F 
ATOM     75  C   UNL A   1      38.605  33.522  37.372  1.00  0.00     0.200 A 
ATOM     76  F   UNL A   1      37.302  31.716  38.156  1.00  0.00    -0.200 F 
ATOM     77  F   UNL A   1      38.148  34.300  38.363  1.00  0.00    -0.200 F 
ENDBRANCH  53  67
BRANCH  54  78
ATOM     78  C   UNL A   1      42.746  26.077  27.816  1.00  0.00     0.064 A 
ATOM     79  C   UNL A   1      42.393  24.721  27.767  1.00  0.00     0.173 A 
ATOM     80  C   UNL A   1      43.595  26.564  26.811  1.00  0.00     0.173 A 
ATOM     81  F   UNL A   1      41.605  24.199  28.720  1.00  0.00    -0.203 F 
ATOM     82  C   UNL A   1      42.887  23.882  26.769  1.00  0.00     0.198 A 
ATOM     83  C   UNL A   1      44.063  25.731  25.796  1.00  0.00     0.198 A 
ATOM     84  F   UNL A   1      43.971  27.851  26.813  1.00  0.00    -0.203 F 
ATOM     85  F   UNL A   1      42.578  22.577  26.780  1.00  0.00    -0.200 F 
ATOM     86  C   UNL A   1      43.717  24.388  25.782  1.00  0.00     0.200 A 
ATOM     87  F   UNL A   1      44.856  26.228  24.837  1.00  0.00    -0.200 F 
ATOM     88  F   UNL A   1      44.193  23.582  24.823  1.00  0.00    -0.200 F 
ENDBRANCH  54  78
BRANCH  66  89
ATOM     89  C   UNL A   1      45.119  27.331  34.245  1.00  0.00     0.064 A 
ATOM     90  C   UNL A   1      45.024  26.157  35.008  1.00  0.00     0.173 A 
ATOM     91  C   UNL A   1      46.360  27.986  34.209  1.00  0.00     0.173 A 
ATOM     92  F   UNL A   1      43.859  25.495  35.086  1.00  0.00    -0.203 F 
ATOM     93  C   UNL A   1      46.111  25.689  35.742  1.00  0.00     0.198 A 
ATOM     94  C   UNL A   1      47.456  27.493  34.912  1.00  0.00     0.198 A 
ATOM     95  F   UNL A   1      46.515  29.107  33.487  1.00  0.00    -0.203 F 
ATOM     96  F   UNL A   1      45.974  24.606  36.520  1.00  0.00    -0.200 F 
ATOM     97  C   UNL A   1      47.326  26.353  35.689  1.00  0.00     0.200 A 
ATOM     98  F   UNL A   1      48.635  28.126  34.843  1.00  0.00    -0.200 F 
ATOM     99  F   UNL A   1      48.371  25.899  36.396  1.00  0.00    -0.200 F 
ENDBRANCH  66  89
ENDBRANCH  40  41
ENDBRANCH  33  35
ENDBRANCH  32  33
ENDBRANCH  31  32
ENDBRANCH  30  31
ENDBRANCH  29  30
ENDBRANCH  28  29
ENDBRANCH   1  28
TORSDOF 23
ENDMDL
MODEL 3
REMARK VINA RESULT:     -10.2      2.032      3.697
REMARK SMILES COc1c(N)cc(-c2ccccc2)cc1C(=O)OCCOCCOCCOCCOC(=O)c1ccc(-c2c3nc(c(-c4c(F)c(F)c(F)c(F)c4F)c4ccc([nH]4)c(-c4c(F)c(F)c(F)c(F)c4F)c4nc(c(-c5c(F)c(F)c(F)c(F)c5F)c5ccc2[nH]5)C=C4)C=C3)cc1
REMARK SMILES IDX 25 1 24 2 23 3 22 4 21 5 20 6 19 7 18 8 16 9 17 10 15 11
REMARK SMILES IDX 3 12 4 13 6 14 14 15 7 16 2 17 1 18 5 19 8 22 9 23 13 24
REMARK SMILES IDX 10 25 12 26 11 27 26 28 27 29 28 30 29 31 30 32 31 33 32 34
REMARK SMILES IDX 33 35 34 36 95 37 35 38 94 39 36 40 37 41 38 42 88 43 39 44
REMARK SMILES IDX 93 45 87 46 89 47 40 48 92 49 86 50 85 51 41 53 73 54 53 55
REMARK SMILES IDX 72 56 54 57 57 58 71 59 90 60 55 61 56 62 70 64 91 65 58 66
REMARK SMILES IDX 42 67 43 68 51 69 44 70 45 71 49 72 52 73 46 74 47 75 50 76
REMARK SMILES IDX 48 77 74 78 75 79 83 80 76 81 77 82 81 83 84 84 78 85 79 86
REMARK SMILES IDX 82 87 80 88 59 89 60 90 68 91 61 92 62 93 66 94 69 95 63 96
REMARK SMILES IDX 64 97 67 98 65 99
REMARK H PARENT 5 20 5 21 89 52 57 63
REMARK Flexibility Score: inf
ROOT
ATOM      1  C   UNL A   1      33.326  29.029  25.685  1.00  0.00     0.188 C 
ENDROOT
BRANCH   1   2
ATOM      2  O   UNL A   1      33.038  29.430  24.349  1.00  0.00    -0.377 OA
BRANCH   2   3
ATOM      3  C   UNL A   1      32.184  28.631  23.537  1.00  0.00     0.188 C 
BRANCH   3   4
ATOM      4  C   UNL A   1      30.737  28.314  23.980  1.00  0.00     0.188 C 
BRANCH   4   5
ATOM      5  O   UNL A   1      30.195  27.140  23.404  1.00  0.00    -0.376 OA
BRANCH   5   6
ATOM      6  C   UNL A   1      29.445  26.261  24.219  1.00  0.00     0.202 C 
BRANCH   6   7
ATOM      7  C   UNL A   1      30.160  25.499  25.347  1.00  0.00     0.261 C 
BRANCH   7   8
ATOM      8  O   UNL A   1      30.845  24.305  24.951  1.00  0.00    -0.460 OA
BRANCH   8   9
ATOM      9  C   UNL A   1      31.046  23.376  25.913  1.00  0.00     0.342 C 
ATOM     10  O   UNL A   1      30.207  22.970  26.701  1.00  0.00    -0.246 OA
BRANCH   9  11
ATOM     11  C   UNL A   1      32.367  22.729  25.724  1.00  0.00     0.104 A 
ATOM     12  C   UNL A   1      33.586  23.335  26.059  1.00  0.00     0.156 A 
ATOM     13  C   UNL A   1      34.777  22.589  25.980  1.00  0.00     0.076 A 
ATOM     14  C   UNL A   1      34.754  21.344  25.343  1.00  0.00     0.038 A 
ATOM     15  C   UNL A   1      32.358  21.446  25.147  1.00  0.00     0.028 A 
ATOM     16  C   UNL A   1      33.553  20.759  24.912  1.00  0.00    -0.015 A 
BRANCH  12  17
ATOM     17  O   UNL A   1      33.610  24.627  26.529  1.00  0.00    -0.494 OA
ATOM     18  C   UNL A   1      34.135  25.526  25.538  1.00  0.00     0.278 C 
ENDBRANCH  12  17
BRANCH  13  19
ATOM     19  N   UNL A   1      35.999  23.106  26.412  1.00  0.00    -0.396 N 
ATOM     20  H   UNL A   1      36.019  23.886  27.013  1.00  0.00     0.156 HD
ATOM     21  H   UNL A   1      36.842  22.690  26.117  1.00  0.00     0.156 HD
ENDBRANCH  13  19
BRANCH  16  22
ATOM     22  C   UNL A   1      33.564  19.436  24.285  1.00  0.00    -0.018 A 
ATOM     23  C   UNL A   1      32.544  19.077  23.392  1.00  0.00     0.009 A 
ATOM     24  C   UNL A   1      34.558  18.490  24.583  1.00  0.00     0.009 A 
ATOM     25  C   UNL A   1      32.510  17.807  22.816  1.00  0.00     0.001 A 
ATOM     26  C   UNL A   1      34.523  17.216  24.007  1.00  0.00     0.001 A 
ATOM     27  C   UNL A   1      33.498  16.875  23.126  1.00  0.00     0.000 A 
ENDBRANCH  16  22
ENDBRANCH   9  11
ENDBRANCH   8   9
ENDBRANCH   7   8
ENDBRANCH   6   7
ENDBRANCH   5   6
ENDBRANCH   4   5
ENDBRANCH   3   4
ENDBRANCH   2   3
ENDBRANCH   1   2
BRANCH   1  28
ATOM     28  C   UNL A   1      32.766  29.833  26.881  1.00  0.00     0.188 C 
BRANCH  28  29
ATOM     29  O   UNL A   1      31.614  30.602  26.579  1.00  0.00    -0.376 OA
BRANCH  29  30
ATOM     30  C   UNL A   1      31.675  31.998  26.813  1.00  0.00     0.202 C 
BRANCH  30  31
ATOM     31  C   UNL A   1      32.858  32.539  27.633  1.00  0.00     0.261 C 
BRANCH  31  32
ATOM     32  O   UNL A   1      33.155  33.937  27.486  1.00  0.00    -0.460 OA
BRANCH  32  33
ATOM     33  C   UNL A   1      33.258  34.670  28.612  1.00  0.00     0.338 C 
ATOM     34  O   UNL A   1      32.466  35.501  29.032  1.00  0.00    -0.246 OA
BRANCH  33  35
ATOM     35  C   UNL A   1      34.419  34.163  29.372  1.00  0.00     0.060 A 
ATOM     36  C   UNL A   1      35.712  34.447  28.913  1.00  0.00     0.016 A 
ATOM     37  C   UNL A   1      34.231  33.414  30.536  1.00  0.00     0.016 A 
ATOM     38  C   UNL A   1      36.821  33.949  29.597  1.00  0.00     0.010 A 
ATOM     39  C   UNL A   1      35.341  32.898  31.209  1.00  0.00     0.010 A 
ATOM     40  C   UNL A   1      36.639  33.131  30.720  1.00  0.00    -0.014 A 
BRANCH  40  41
ATOM     41  C   UNL A   1      37.788  32.354  31.247  1.00  0.00     0.031 A 
ATOM     42  C   UNL A   1      38.281  32.664  32.635  1.00  0.00     0.074 A 
ATOM     43  C   UNL A   1      38.352  31.362  30.535  1.00  0.00     0.049 A 
ATOM     44  N   UNL A   1      39.263  32.126  33.313  1.00  0.00    -0.248 NA
ATOM     45  C   UNL A   1      37.567  33.730  33.353  1.00  0.00     0.031 C 
ATOM     46  C   UNL A   1      37.936  30.935  29.204  1.00  0.00     0.029 A 
ATOM     47  N   UNL A   1      39.401  30.533  30.846  1.00  0.00    -0.354 N 
ATOM     48  C   UNL A   1      39.281  32.787  34.535  1.00  0.00     0.074 A 
ATOM     49  C   UNL A   1      38.246  33.796  34.487  1.00  0.00     0.031 C 
ATOM     50  C   UNL A   1      38.721  29.917  28.809  1.00  0.00     0.029 A 
ATOM     51  C   UNL A   1      39.714  29.645  29.847  1.00  0.00     0.049 A 
ATOM     52  H   UNL A   1      39.883  30.571  31.704  1.00  0.00     0.167 HD
ATOM     53  C   UNL A   1      40.079  32.564  35.606  1.00  0.00     0.037 A 
ATOM     54  C   UNL A   1      40.700  28.728  29.780  1.00  0.00     0.037 A 
ATOM     55  C   UNL A   1      41.118  31.569  35.647  1.00  0.00     0.049 A 
ATOM     56  C   UNL A   1      41.637  28.564  30.951  1.00  0.00     0.074 A 
ATOM     57  C   UNL A   1      41.983  31.264  36.682  1.00  0.00     0.029 A 
ATOM     58  N   UNL A   1      41.443  30.724  34.595  1.00  0.00    -0.354 N 
ATOM     59  N   UNL A   1      41.636  29.174  32.112  1.00  0.00    -0.248 NA
ATOM     60  C   UNL A   1      42.711  27.572  30.801  1.00  0.00     0.031 C 
ATOM     61  C   UNL A   1      42.870  30.278  36.235  1.00  0.00     0.029 A 
ATOM     62  C   UNL A   1      42.512  29.917  34.947  1.00  0.00     0.049 A 
ATOM     63  H   UNL A   1      40.980  30.702  33.725  1.00  0.00     0.167 HD
ATOM     64  C   UNL A   1      42.678  28.615  32.842  1.00  0.00     0.074 A 
ATOM     65  C   UNL A   1      43.279  27.604  31.997  1.00  0.00     0.031 C 
ATOM     66  C   UNL A   1      43.099  28.908  34.098  1.00  0.00     0.037 A 
BRANCH  53  67
ATOM     67  C   UNL A   1      39.874  33.442  36.810  1.00  0.00     0.064 A 
ATOM     68  C   UNL A   1      38.973  33.102  37.831  1.00  0.00     0.173 A 
ATOM     69  C   UNL A   1      40.592  34.640  36.945  1.00  0.00     0.173 A 
ATOM     70  F   UNL A   1      38.248  31.977  37.745  1.00  0.00    -0.203 F 
ATOM     71  C   UNL A   1      38.768  33.947  38.919  1.00  0.00     0.198 A 
ATOM     72  C   UNL A   1      40.414  35.463  38.054  1.00  0.00     0.198 A 
ATOM     73  F   UNL A   1      41.470  35.014  36.002  1.00  0.00    -0.203 F 
ATOM     74  F   UNL A   1      37.854  33.633  39.848  1.00  0.00    -0.200 F 
ATOM     75  C   UNL A   1      39.494  35.123  39.033  1.00  0.00     0.200 A 
ATOM     76  F   UNL A   1      41.126  36.593  38.168  1.00  0.00    -0.200 F 
ATOM     77  F   UNL A   1      39.299  35.934  40.082  1.00  0.00    -0.200 F 
ENDBRANCH  53  67
BRANCH  54  78
ATOM     78  C   UNL A   1      40.854  27.883  28.566  1.00  0.00     0.064 A 
ATOM     79  C   UNL A   1      41.639  28.308  27.484  1.00  0.00     0.173 A 
ATOM     80  C   UNL A   1      40.192  26.652  28.444  1.00  0.00     0.173 A 
ATOM     81  F   UNL A   1      42.270  29.490  27.539  1.00  0.00    -0.203 F 
ATOM     82  C   UNL A   1      41.738  27.546  26.322  1.00  0.00     0.198 A 
ATOM     83  C   UNL A   1      40.318  25.876  27.294  1.00  0.00     0.198 A 
ATOM     84  F   UNL A   1      39.423  26.200  29.446  1.00  0.00    -0.203 F 
ATOM     85  F   UNL A   1      42.449  28.004  25.282  1.00  0.00    -0.200 F 
ATOM     86  C   UNL A   1      41.083  26.328  26.229  1.00  0.00     0.200 A 
ATOM     87  F   UNL A   1      39.691  24.694  27.214  1.00  0.00    -0.200 F 
ATOM     88  F   UNL A   1      41.177  25.596  25.111  1.00  0.00    -0.200 F 
ENDBRANCH  54  78
BRANCH  66  89
ATOM     89  C   UNL A   1      44.230  28.087  34.657  1.00  0.00     0.064 A 
ATOM     90  C   UNL A   1      44.012  26.863  35.306  1.00  0.00     0.173 A 
ATOM     91  C   UNL A   1      45.556  28.529  34.527  1.00  0.00     0.173 A 
ATOM     92  F   UNL A   1      42.764  26.397  35.468  1.00  0.00    -0.203 F 
ATOM     93  C   UNL A   1      45.072  26.138  35.846  1.00  0.00     0.198 A 
ATOM     94  C   UNL A   1      46.617  27.782  35.031  1.00  0.00     0.198 A 
ATOM     95  F   UNL A   1      45.827  29.686  33.904  1.00  0.00    -0.203 F 
ATOM     96  F   UNL A   1      44.832  25.008  36.525  1.00  0.00    -0.200 F 
ATOM     97  C   UNL A   1      46.373  26.595  35.703  1.00  0.00     0.200 A 
ATOM     98  F   UNL A   1      47.876  28.216  34.874  1.00  0.00    -0.200 F 
ATOM     99  F   UNL A   1      47.392  25.895  36.222  1.00  0.00    -0.200 F 
ENDBRANCH  66  89
ENDBRANCH  40  41
ENDBRANCH  33  35
ENDBRANCH  32  33
ENDBRANCH  31  32
ENDBRANCH  30  31
ENDBRANCH  29  30
ENDBRANCH  28  29
ENDBRANCH   1  28
TORSDOF 23
ENDMDL
