MODEL 1
REMARK VINA RESULT:     -10.5      0.000      0.000
REMARK SMILES NS(=O)(=O)c1ccc(-c2coc(=O)n2-c2ccc(C(=O)OCCOCCOCCOCCOC(=O)c3ccc(-c4c5nc(c(-c6c(F)c(F)c(F)c(F)c6F)c6ccc([nH]6)c(-c6c(F)c(F)c(F)c(F)c6F)c6nc(c(-c7c(F)c(F)c(F)c(F)c7F)c7ccc4[nH]7)C=C6)C=C5)cc3)cc2)cc1
REMARK SMILES IDX 26 1 25 2 24 3 23 4 22 5 21 6 19 7 20 8 18 9 15 10 16 11
REMARK SMILES IDX 100 12 17 13 99 14 14 15 9 16 10 17 11 18 12 19 13 20 8 21
REMARK SMILES IDX 5 22 6 23 102 24 7 25 101 26 2 27 3 28 4 29 1 30 27 33 28 34
REMARK SMILES IDX 29 35 30 36 31 37 32 38 33 39 34 40 35 41 36 42 37 43 98 44
REMARK SMILES IDX 38 45 97 46 39 47 40 48 41 49 91 50 42 51 96 52 90 53 92 54
REMARK SMILES IDX 43 55 95 56 89 57 88 58 44 60 76 61 56 62 75 63 57 64 60 65
REMARK SMILES IDX 74 66 93 67 58 68 59 69 73 71 94 72 61 73 45 74 46 75 54 76
REMARK SMILES IDX 47 77 48 78 52 79 55 80 49 81 50 82 53 83 51 84 77 85 78 86
REMARK SMILES IDX 86 87 79 88 80 89 84 90 87 91 81 92 82 93 85 94 83 95 62 96
REMARK SMILES IDX 63 97 71 98 64 99 65 100 69 101 72 102 66 103 67 104 70 105
REMARK SMILES IDX 68 106
REMARK H PARENT 1 31 1 32 92 59 60 70
REMARK Flexibility Score: inf
ROOT
ATOM      1  C   UNL A   1      33.247  29.036  26.392  1.00  0.00     0.188 C 
ENDROOT
BRANCH   1   2
ATOM      2  C   UNL A   1      33.389  28.871  24.863  1.00  0.00     0.188 C 
BRANCH   2   3
ATOM      3  O   UNL A   1      32.176  29.036  24.159  1.00  0.00    -0.376 OA
BRANCH   3   4
ATOM      4  C   UNL A   1      31.675  28.037  23.305  1.00  0.00     0.202 C 
BRANCH   4   5
ATOM      5  C   UNL A   1      30.533  27.110  23.740  1.00  0.00     0.261 C 
BRANCH   5   6
ATOM      6  O   UNL A   1      30.906  25.833  24.259  1.00  0.00    -0.460 OA
BRANCH   6   7
ATOM      7  C   UNL A   1      31.434  25.817  25.501  1.00  0.00     0.338 C 
ATOM      8  O   UNL A   1      30.965  26.314  26.509  1.00  0.00    -0.246 OA
BRANCH   7   9
ATOM      9  C   UNL A   1      32.604  24.910  25.480  1.00  0.00     0.060 A 
ATOM     10  C   UNL A   1      34.897  23.338  25.572  1.00  0.00     0.053 A 
ATOM     11  C   UNL A   1      34.016  23.330  26.657  1.00  0.00     0.028 A 
ATOM     12  C   UNL A   1      34.555  24.024  24.396  1.00  0.00     0.028 A 
ATOM     13  C   UNL A   1      32.889  24.151  26.625  1.00  0.00     0.018 A 
ATOM     14  C   UNL A   1      33.398  24.796  24.339  1.00  0.00     0.018 A 
BRANCH  10  15
ATOM     15  N   UNL A   1      36.219  22.891  25.753  1.00  0.00    -0.242 N 
ATOM     16  C   UNL A   1      36.659  21.600  25.631  1.00  0.00     0.095 A 
ATOM     17  C   UNL A   1      37.972  21.644  25.815  1.00  0.00     0.228 A 
ATOM     18  O   UNL A   1      38.475  22.924  26.049  1.00  0.00    -0.415 OA
ATOM     19  C   UNL A   1      37.324  23.709  25.957  1.00  0.00     0.424 A 
ATOM     20  O   UNL A   1      37.343  24.928  26.066  1.00  0.00    -0.223 OA
BRANCH  16  21
ATOM     21  C   UNL A   1      35.839  20.470  25.191  1.00  0.00     0.002 A 
ATOM     22  C   UNL A   1      34.220  18.278  24.540  1.00  0.00     0.082 A 
ATOM     23  C   UNL A   1      33.625  19.505  24.829  1.00  0.00     0.022 A 
ATOM     24  C   UNL A   1      35.611  18.140  24.554  1.00  0.00     0.022 A 
ATOM     25  C   UNL A   1      34.437  20.597  25.141  1.00  0.00     0.012 A 
ATOM     26  C   UNL A   1      36.419  19.238  24.875  1.00  0.00     0.012 A 
BRANCH  22  27
ATOM     27  S   UNL A   1      33.214  16.864  24.196  1.00  0.00     0.238 S 
ATOM     28  O   UNL A   1      33.292  16.566  22.793  1.00  0.00    -0.207 OA
ATOM     29  O   UNL A   1      31.956  17.023  24.901  1.00  0.00    -0.207 OA
BRANCH  27  30
ATOM     30  N   UNL A   1      34.023  15.605  24.962  1.00  0.00    -0.225 NA
ATOM     31  H   UNL A   1      33.344  14.959  25.363  1.00  0.00     0.137 HD
ATOM     32  H   UNL A   1      34.613  15.982  25.703  1.00  0.00     0.137 HD
ENDBRANCH  27  30
ENDBRANCH  22  27
ENDBRANCH  16  21
ENDBRANCH  10  15
ENDBRANCH   7   9
ENDBRANCH   6   7
ENDBRANCH   5   6
ENDBRANCH   4   5
ENDBRANCH   3   4
ENDBRANCH   2   3
ENDBRANCH   1   2
BRANCH   1  33
ATOM     33  O   UNL A   1      32.557  30.164  26.902  1.00  0.00    -0.377 OA
BRANCH  33  34
ATOM     34  C   UNL A   1      33.247  31.174  27.635  1.00  0.00     0.188 C 
BRANCH  34  35
ATOM     35  C   UNL A   1      34.787  31.398  27.592  1.00  0.00     0.188 C 
BRANCH  35  36
ATOM     36  O   UNL A   1      35.272  32.608  28.139  1.00  0.00    -0.376 OA
BRANCH  36  37
ATOM     37  C   UNL A   1      34.537  33.476  28.970  1.00  0.00     0.202 C 
BRANCH  37  38
ATOM     38  C   UNL A   1      34.700  33.425  30.478  1.00  0.00     0.261 C 
BRANCH  38  39
ATOM     39  O   UNL A   1      34.686  32.119  31.004  1.00  0.00    -0.460 OA
BRANCH  39  40
ATOM     40  C   UNL A   1      35.769  31.812  31.737  1.00  0.00     0.338 C 
ATOM     41  O   UNL A   1      36.011  32.133  32.887  1.00  0.00    -0.246 OA
BRANCH  40  42
ATOM     42  C   UNL A   1      36.715  31.156  30.841  1.00  0.00     0.060 A 
ATOM     43  C   UNL A   1      36.647  29.764  30.784  1.00  0.00     0.016 A 
ATOM     44  C   UNL A   1      37.858  31.886  30.484  1.00  0.00     0.016 A 
ATOM     45  C   UNL A   1      37.829  29.085  30.635  1.00  0.00     0.010 A 
ATOM     46  C   UNL A   1      39.038  31.212  30.395  1.00  0.00     0.010 A 
ATOM     47  C   UNL A   1      39.009  29.830  30.560  1.00  0.00    -0.014 A 
BRANCH  47  48
ATOM     48  C   UNL A   1      40.265  29.127  30.508  1.00  0.00     0.031 A 
ATOM     49  C   UNL A   1      40.847  29.025  31.857  1.00  0.00     0.074 A 
ATOM     50  C   UNL A   1      40.693  28.544  29.372  1.00  0.00     0.049 A 
ATOM     51  N   UNL A   1      41.883  29.648  32.308  1.00  0.00    -0.248 NA
ATOM     52  C   UNL A   1      40.057  28.349  32.905  1.00  0.00     0.031 C 
ATOM     53  C   UNL A   1      39.943  28.415  28.115  1.00  0.00     0.029 A 
ATOM     54  N   UNL A   1      41.828  27.827  29.131  1.00  0.00    -0.354 N 
ATOM     55  C   UNL A   1      42.030  29.179  33.607  1.00  0.00     0.074 A 
ATOM     56  C   UNL A   1      40.758  28.646  33.999  1.00  0.00     0.031 C 
ATOM     57  C   UNL A   1      40.532  27.479  27.338  1.00  0.00     0.029 A 
ATOM     58  C   UNL A   1      41.759  27.043  27.980  1.00  0.00     0.049 A 
ATOM     59  H   UNL A   1      42.622  27.860  29.714  1.00  0.00     0.167 HD
ATOM     60  C   UNL A   1      43.274  28.849  34.046  1.00  0.00     0.037 A 
ATOM     61  C   UNL A   1      42.623  26.054  27.644  1.00  0.00     0.037 A 
ATOM     62  C   UNL A   1      44.279  29.447  33.205  1.00  0.00     0.049 A 
ATOM     63  C   UNL A   1      43.869  26.273  28.416  1.00  0.00     0.074 A 
ATOM     64  C   UNL A   1      44.802  30.704  33.005  1.00  0.00     0.029 A 
ATOM     65  N   UNL A   1      44.567  28.703  32.092  1.00  0.00    -0.354 N 
ATOM     66  N   UNL A   1      44.671  27.281  28.208  1.00  0.00    -0.248 NA
ATOM     67  C   UNL A   1      44.049  25.584  29.691  1.00  0.00     0.031 C 
ATOM     68  C   UNL A   1      45.362  30.704  31.692  1.00  0.00     0.029 A 
ATOM     69  C   UNL A   1      45.207  29.438  31.135  1.00  0.00     0.049 A 
ATOM     70  H   UNL A   1      44.340  27.749  31.993  1.00  0.00     0.167 HD
ATOM     71  C   UNL A   1      45.135  27.609  29.466  1.00  0.00     0.074 A 
ATOM     72  C   UNL A   1      44.871  26.444  30.299  1.00  0.00     0.031 C 
ATOM     73  C   UNL A   1      45.359  28.912  29.799  1.00  0.00     0.037 A 
BRANCH  60  74
ATOM     74  C   UNL A   1      43.583  27.581  34.819  1.00  0.00     0.064 A 
ATOM     75  C   UNL A   1      44.167  27.707  36.094  1.00  0.00     0.173 A 
ATOM     76  C   UNL A   1      43.639  26.285  34.254  1.00  0.00     0.173 A 
ATOM     77  F   UNL A   1      44.198  28.897  36.713  1.00  0.00    -0.203 F 
ATOM     78  C   UNL A   1      44.810  26.635  36.721  1.00  0.00     0.198 A 
ATOM     79  C   UNL A   1      44.234  25.208  34.905  1.00  0.00     0.198 A 
ATOM     80  F   UNL A   1      43.235  26.019  33.009  1.00  0.00    -0.203 F 
ATOM     81  F   UNL A   1      45.454  26.832  37.879  1.00  0.00    -0.200 F 
ATOM     82  C   UNL A   1      44.845  25.388  36.124  1.00  0.00     0.200 A 
ATOM     83  F   UNL A   1      44.281  24.016  34.292  1.00  0.00    -0.200 F 
ATOM     84  F   UNL A   1      45.509  24.375  36.695  1.00  0.00    -0.200 F 
ENDBRANCH  60  74
BRANCH  61  85
ATOM     85  C   UNL A   1      42.366  24.794  26.906  1.00  0.00     0.064 A 
ATOM     86  C   UNL A   1      43.069  24.489  25.729  1.00  0.00     0.173 A 
ATOM     87  C   UNL A   1      41.638  23.742  27.491  1.00  0.00     0.173 A 
ATOM     88  F   UNL A   1      43.820  25.425  25.129  1.00  0.00    -0.203 F 
ATOM     89  C   UNL A   1      43.073  23.198  25.190  1.00  0.00     0.198 A 
ATOM     90  C   UNL A   1      41.637  22.455  26.948  1.00  0.00     0.198 A 
ATOM     91  F   UNL A   1      40.994  23.915  28.654  1.00  0.00    -0.203 F 
ATOM     92  F   UNL A   1      43.810  22.929  24.102  1.00  0.00    -0.200 F 
ATOM     93  C   UNL A   1      42.367  22.180  25.807  1.00  0.00     0.200 A 
ATOM     94  F   UNL A   1      40.980  21.471  27.577  1.00  0.00    -0.200 F 
ATOM     95  F   UNL A   1      42.424  20.928  25.331  1.00  0.00    -0.200 F 
ENDBRANCH  61  85
BRANCH  73  96
ATOM     96  C   UNL A   1      45.640  29.869  28.687  1.00  0.00     0.064 A 
ATOM     97  C   UNL A   1      44.662  30.602  27.998  1.00  0.00     0.173 A 
ATOM     98  C   UNL A   1      46.982  30.099  28.360  1.00  0.00     0.173 A 
ATOM     99  F   UNL A   1      43.365  30.484  28.312  1.00  0.00    -0.203 F 
ATOM    100  C   UNL A   1      45.020  31.501  26.994  1.00  0.00     0.198 A 
ATOM    101  C   UNL A   1      47.338  31.024  27.386  1.00  0.00     0.198 A 
ATOM    102  F   UNL A   1      47.955  29.450  29.017  1.00  0.00    -0.203 F 
ATOM    103  F   UNL A   1      44.073  32.178  26.329  1.00  0.00    -0.200 F 
ATOM    104  C   UNL A   1      46.357  31.716  26.695  1.00  0.00     0.200 A 
ATOM    105  F   UNL A   1      48.632  31.257  27.132  1.00  0.00    -0.200 F 
ATOM    106  F   UNL A   1      46.703  32.606  25.753  1.00  0.00    -0.200 F 
ENDBRANCH  73  96
ENDBRANCH  47  48
ENDBRANCH  40  42
ENDBRANCH  39  40
ENDBRANCH  38  39
ENDBRANCH  37  38
ENDBRANCH  36  37
ENDBRANCH  35  36
ENDBRANCH  34  35
ENDBRANCH  33  34
ENDBRANCH   1  33
TORSDOF 24
ENDMDL
MODEL 2
REMARK VINA RESULT:     -10.4      3.979      8.606
REMARK SMILES NS(=O)(=O)c1ccc(-c2coc(=O)n2-c2ccc(C(=O)OCCOCCOCCOCCOC(=O)c3ccc(-c4c5nc(c(-c6c(F)c(F)c(F)c(F)c6F)c6ccc([nH]6)c(-c6c(F)c(F)c(F)c(F)c6F)c6nc(c(-c7c(F)c(F)c(F)c(F)c7F)c7ccc4[nH]7)C=C6)C=C5)cc3)cc2)cc1
REMARK SMILES IDX 26 1 25 2 24 3 23 4 22 5 21 6 19 7 20 8 18 9 15 10 16 11
REMARK SMILES IDX 100 12 17 13 99 14 14 15 9 16 10 17 11 18 12 19 13 20 8 21
REMARK SMILES IDX 5 22 6 23 102 24 7 25 101 26 2 27 3 28 4 29 1 30 27 33 28 34
REMARK SMILES IDX 29 35 30 36 31 37 32 38 33 39 34 40 35 41 36 42 37 43 98 44
REMARK SMILES IDX 38 45 97 46 39 47 40 48 41 49 91 50 42 51 96 52 90 53 92 54
REMARK SMILES IDX 43 55 95 56 89 57 88 58 44 60 76 61 56 62 75 63 57 64 60 65
REMARK SMILES IDX 74 66 93 67 58 68 59 69 73 71 94 72 61 73 45 74 46 75 54 76
REMARK SMILES IDX 47 77 48 78 52 79 55 80 49 81 50 82 53 83 51 84 77 85 78 86
REMARK SMILES IDX 86 87 79 88 80 89 84 90 87 91 81 92 82 93 85 94 83 95 62 96
REMARK SMILES IDX 63 97 71 98 64 99 65 100 69 101 72 102 66 103 67 104 70 105
REMARK SMILES IDX 68 106
REMARK H PARENT 1 31 1 32 92 59 60 70
REMARK Flexibility Score: inf
ROOT
ATOM      1  C   UNL A   1      43.295  24.776  26.734  1.00  0.00     0.188 C 
ENDROOT
BRANCH   1   2
ATOM      2  C   UNL A   1      41.865  24.198  26.656  1.00  0.00     0.188 C 
BRANCH   2   3
ATOM      3  O   UNL A   1      41.483  23.469  27.804  1.00  0.00    -0.376 OA
BRANCH   3   4
ATOM      4  C   UNL A   1      40.786  22.252  27.709  1.00  0.00     0.202 C 
BRANCH   4   5
ATOM      5  C   UNL A   1      40.075  21.835  26.415  1.00  0.00     0.261 C 
BRANCH   5   6
ATOM      6  O   UNL A   1      38.836  22.483  26.127  1.00  0.00    -0.460 OA
BRANCH   6   7
ATOM      7  C   UNL A   1      37.985  21.823  25.314  1.00  0.00     0.338 C 
ATOM      8  O   UNL A   1      37.995  20.637  25.041  1.00  0.00    -0.246 OA
BRANCH   7   9
ATOM      9  C   UNL A   1      36.893  22.756  24.954  1.00  0.00     0.060 A 
ATOM     10  C   UNL A   1      34.708  24.372  24.363  1.00  0.00     0.053 A 
ATOM     11  C   UNL A   1      35.182  24.314  25.676  1.00  0.00     0.028 A 
ATOM     12  C   UNL A   1      35.414  23.731  23.333  1.00  0.00     0.028 A 
ATOM     13  C   UNL A   1      36.251  23.470  25.977  1.00  0.00     0.018 A 
ATOM     14  C   UNL A   1      36.520  22.937  23.622  1.00  0.00     0.018 A 
BRANCH  10  15
ATOM     15  N   UNL A   1      33.403  24.841  24.120  1.00  0.00    -0.242 N 
ATOM     16  C   UNL A   1      32.308  24.071  23.832  1.00  0.00     0.095 A 
ATOM     17  C   UNL A   1      31.284  24.910  23.749  1.00  0.00     0.228 A 
ATOM     18  O   UNL A   1      31.617  26.245  23.981  1.00  0.00    -0.415 OA
ATOM     19  C   UNL A   1      32.983  26.158  24.262  1.00  0.00     0.424 A 
ATOM     20  O   UNL A   1      33.659  27.132  24.565  1.00  0.00    -0.223 OA
BRANCH  16  21
ATOM     21  C   UNL A   1      32.288  22.607  23.825  1.00  0.00     0.002 A 
ATOM     22  C   UNL A   1      32.449  19.810  23.829  1.00  0.00     0.082 A 
ATOM     23  C   UNL A   1      32.567  20.503  25.033  1.00  0.00     0.022 A 
ATOM     24  C   UNL A   1      32.233  20.496  22.630  1.00  0.00     0.022 A 
ATOM     25  C   UNL A   1      32.474  21.896  25.027  1.00  0.00     0.012 A 
ATOM     26  C   UNL A   1      32.148  21.894  22.630  1.00  0.00     0.012 A 
BRANCH  22  27
ATOM     27  S   UNL A   1      32.618  18.049  23.800  1.00  0.00     0.238 S 
ATOM     28  O   UNL A   1      31.774  17.482  24.814  1.00  0.00    -0.207 OA
ATOM     29  O   UNL A   1      34.029  17.732  23.678  1.00  0.00    -0.207 OA
BRANCH  27  30
ATOM     30  N   UNL A   1      31.912  17.607  22.339  1.00  0.00    -0.225 NA
ATOM     31  H   UNL A   1      31.769  18.439  21.766  1.00  0.00     0.137 HD
ATOM     32  H   UNL A   1      31.015  17.159  22.517  1.00  0.00     0.137 HD
ENDBRANCH  27  30
ENDBRANCH  22  27
ENDBRANCH  16  21
ENDBRANCH  10  15
ENDBRANCH   7   9
ENDBRANCH   6   7
ENDBRANCH   5   6
ENDBRANCH   4   5
ENDBRANCH   3   4
ENDBRANCH   2   3
ENDBRANCH   1   2
BRANCH   1  33
ATOM     33  O   UNL A   1      44.391  23.886  26.868  1.00  0.00    -0.377 OA
BRANCH  33  34
ATOM     34  C   UNL A   1      45.111  23.791  28.095  1.00  0.00     0.188 C 
BRANCH  34  35
ATOM     35  C   UNL A   1      44.515  23.252  29.428  1.00  0.00     0.188 C 
BRANCH  35  36
ATOM     36  O   UNL A   1      43.967  24.206  30.315  1.00  0.00    -0.376 OA
BRANCH  36  37
ATOM     37  C   UNL A   1      44.565  24.636  31.516  1.00  0.00     0.202 C 
BRANCH  37  38
ATOM     38  C   UNL A   1      44.416  23.823  32.788  1.00  0.00     0.261 C 
BRANCH  38  39
ATOM     39  O   UNL A   1      44.503  24.592  33.964  1.00  0.00    -0.460 OA
BRANCH  39  40
ATOM     40  C   UNL A   1      43.407  24.535  34.738  1.00  0.00     0.338 C 
ATOM     41  O   UNL A   1      42.729  23.560  35.009  1.00  0.00    -0.246 OA
BRANCH  40  42
ATOM     42  C   UNL A   1      43.053  25.912  35.070  1.00  0.00     0.060 A 
ATOM     43  C   UNL A   1      41.692  26.219  35.055  1.00  0.00     0.016 A 
ATOM     44  C   UNL A   1      44.061  26.876  34.925  1.00  0.00     0.016 A 
ATOM     45  C   UNL A   1      41.336  27.467  34.613  1.00  0.00     0.010 A 
ATOM     46  C   UNL A   1      43.706  28.094  34.430  1.00  0.00     0.010 A 
ATOM     47  C   UNL A   1      42.353  28.333  34.202  1.00  0.00    -0.014 A 
BRANCH  47  48
ATOM     48  C   UNL A   1      41.988  29.607  33.639  1.00  0.00     0.031 A 
ATOM     49  C   UNL A   1      41.355  30.454  34.664  1.00  0.00     0.074 A 
ATOM     50  C   UNL A   1      42.354  29.948  32.389  1.00  0.00     0.049 A 
ATOM     51  N   UNL A   1      40.112  30.790  34.738  1.00  0.00    -0.248 NA
ATOM     52  C   UNL A   1      42.130  30.765  35.882  1.00  0.00     0.031 C 
ATOM     53  C   UNL A   1      43.241  29.191  31.495  1.00  0.00     0.029 A 
ATOM     54  N   UNL A   1      42.124  31.099  31.694  1.00  0.00    -0.354 N 
ATOM     55  C   UNL A   1      40.043  31.614  35.855  1.00  0.00     0.074 A 
ATOM     56  C   UNL A   1      41.197  31.323  36.655  1.00  0.00     0.031 C 
ATOM     57  C   UNL A   1      43.659  29.995  30.493  1.00  0.00     0.029 A 
ATOM     58  C   UNL A   1      42.973  31.270  30.601  1.00  0.00     0.049 A 
ATOM     59  H   UNL A   1      41.425  31.749  31.941  1.00  0.00     0.167 HD
ATOM     60  C   UNL A   1      39.318  32.762  35.776  1.00  0.00     0.037 A 
ATOM     61  C   UNL A   1      43.139  32.420  29.901  1.00  0.00     0.037 A 
ATOM     62  C   UNL A   1      38.405  32.704  34.664  1.00  0.00     0.049 A 
ATOM     63  C   UNL A   1      41.958  33.274  30.167  1.00  0.00     0.074 A 
ATOM     64  C   UNL A   1      37.221  32.065  34.369  1.00  0.00     0.029 A 
ATOM     65  N   UNL A   1      38.972  33.081  33.476  1.00  0.00    -0.354 N 
ATOM     66  N   UNL A   1      40.758  32.988  29.745  1.00  0.00    -0.248 NA
ATOM     67  C   UNL A   1      42.024  34.271  31.234  1.00  0.00     0.031 C 
ATOM     68  C   UNL A   1      37.133  32.017  32.946  1.00  0.00     0.029 A 
ATOM     69  C   UNL A   1      38.240  32.661  32.402  1.00  0.00     0.049 A 
ATOM     70  H   UNL A   1      39.809  33.595  33.404  1.00  0.00     0.167 HD
ATOM     71  C   UNL A   1      39.929  33.423  30.759  1.00  0.00     0.074 A 
ATOM     72  C   UNL A   1      40.729  34.350  31.549  1.00  0.00     0.031 C 
ATOM     73  C   UNL A   1      38.799  32.728  31.073  1.00  0.00     0.037 A 
BRANCH  60  74
ATOM     74  C   UNL A   1      39.809  34.102  36.290  1.00  0.00     0.064 A 
ATOM     75  C   UNL A   1      41.052  34.575  35.828  1.00  0.00     0.173 A 
ATOM     76  C   UNL A   1      39.295  34.767  37.428  1.00  0.00     0.173 A 
ATOM     77  F   UNL A   1      41.649  33.999  34.774  1.00  0.00    -0.203 F 
ATOM     78  C   UNL A   1      41.750  35.589  36.491  1.00  0.00     0.198 A 
ATOM     79  C   UNL A   1      39.968  35.812  38.055  1.00  0.00     0.198 A 
ATOM     80  F   UNL A   1      38.186  34.371  38.061  1.00  0.00    -0.203 F 
ATOM     81  F   UNL A   1      42.981  35.924  36.085  1.00  0.00    -0.200 F 
ATOM     82  C   UNL A   1      41.209  36.204  37.605  1.00  0.00     0.200 A 
ATOM     83  F   UNL A   1      39.436  36.372  39.151  1.00  0.00    -0.200 F 
ATOM     84  F   UNL A   1      41.898  37.136  38.276  1.00  0.00    -0.200 F 
ENDBRANCH  60  74
BRANCH  61  85
ATOM     85  C   UNL A   1      44.352  32.941  29.228  1.00  0.00     0.064 A 
ATOM     86  C   UNL A   1      45.399  33.517  29.967  1.00  0.00     0.173 A 
ATOM     87  C   UNL A   1      44.632  32.628  27.884  1.00  0.00     0.173 A 
ATOM     88  F   UNL A   1      45.228  33.809  31.264  1.00  0.00    -0.203 F 
ATOM     89  C   UNL A   1      46.662  33.732  29.404  1.00  0.00     0.198 A 
ATOM     90  C   UNL A   1      45.891  32.850  27.322  1.00  0.00     0.198 A 
ATOM     91  F   UNL A   1      43.721  32.011  27.119  1.00  0.00    -0.203 F 
ATOM     92  F   UNL A   1      47.656  34.221  30.160  1.00  0.00    -0.200 F 
ATOM     93  C   UNL A   1      46.910  33.387  28.087  1.00  0.00     0.200 A 
ATOM     94  F   UNL A   1      46.128  32.477  26.057  1.00  0.00    -0.200 F 
ATOM     95  F   UNL A   1      48.137  33.530  27.567  1.00  0.00    -0.200 F 
ENDBRANCH  61  85
BRANCH  73  96
ATOM     96  C   UNL A   1      38.195  31.877  30.004  1.00  0.00     0.064 A 
ATOM     97  C   UNL A   1      38.517  30.530  29.778  1.00  0.00     0.173 A 
ATOM     98  C   UNL A   1      37.187  32.449  29.218  1.00  0.00     0.173 A 
ATOM     99  F   UNL A   1      39.419  29.900  30.543  1.00  0.00    -0.203 F 
ATOM    100  C   UNL A   1      37.875  29.801  28.778  1.00  0.00     0.198 A 
ATOM    101  C   UNL A   1      36.522  31.710  28.248  1.00  0.00     0.198 A 
ATOM    102  F   UNL A   1      36.818  33.724  29.422  1.00  0.00    -0.203 F 
ATOM    103  F   UNL A   1      38.208  28.521  28.560  1.00  0.00    -0.200 F 
ATOM    104  C   UNL A   1      36.875  30.390  28.019  1.00  0.00     0.200 A 
ATOM    105  F   UNL A   1      35.528  32.273  27.549  1.00  0.00    -0.200 F 
ATOM    106  F   UNL A   1      36.234  29.680  27.080  1.00  0.00    -0.200 F 
ENDBRANCH  73  96
ENDBRANCH  47  48
ENDBRANCH  40  42
ENDBRANCH  39  40
ENDBRANCH  38  39
ENDBRANCH  37  38
ENDBRANCH  36  37
ENDBRANCH  35  36
ENDBRANCH  34  35
ENDBRANCH  33  34
ENDBRANCH   1  33
TORSDOF 24
ENDMDL
MODEL 3
REMARK VINA RESULT:     -10.0      5.190     11.299
REMARK SMILES NS(=O)(=O)c1ccc(-c2coc(=O)n2-c2ccc(C(=O)OCCOCCOCCOCCOC(=O)c3ccc(-c4c5nc(c(-c6c(F)c(F)c(F)c(F)c6F)c6ccc([nH]6)c(-c6c(F)c(F)c(F)c(F)c6F)c6nc(c(-c7c(F)c(F)c(F)c(F)c7F)c7ccc4[nH]7)C=C6)C=C5)cc3)cc2)cc1
REMARK SMILES IDX 26 1 25 2 24 3 23 4 22 5 21 6 19 7 20 8 18 9 15 10 16 11
REMARK SMILES IDX 100 12 17 13 99 14 14 15 9 16 10 17 11 18 12 19 13 20 8 21
REMARK SMILES IDX 5 22 6 23 102 24 7 25 101 26 2 27 3 28 4 29 1 30 27 33 28 34
REMARK SMILES IDX 29 35 30 36 31 37 32 38 33 39 34 40 35 41 36 42 37 43 98 44
REMARK SMILES IDX 38 45 97 46 39 47 40 48 41 49 91 50 42 51 96 52 90 53 92 54
REMARK SMILES IDX 43 55 95 56 89 57 88 58 44 60 76 61 56 62 75 63 57 64 60 65
REMARK SMILES IDX 74 66 93 67 58 68 59 69 73 71 94 72 61 73 45 74 46 75 54 76
REMARK SMILES IDX 47 77 48 78 52 79 55 80 49 81 50 82 53 83 51 84 77 85 78 86
REMARK SMILES IDX 86 87 79 88 80 89 84 90 87 91 81 92 82 93 85 94 83 95 62 96
REMARK SMILES IDX 63 97 71 98 64 99 65 100 69 101 72 102 66 103 67 104 70 105
REMARK SMILES IDX 68 106
REMARK H PARENT 1 31 1 32 92 59 60 70
REMARK Flexibility Score: inf
ROOT
ATOM      1  C   UNL A   1      43.064  26.412  34.782  1.00  0.00     0.188 C 
ENDROOT
BRANCH   1   2
ATOM      2  C   UNL A   1      41.898  27.104  35.522  1.00  0.00     0.188 C 
BRANCH   2   3
ATOM      3  O   UNL A   1      40.962  27.716  34.659  1.00  0.00    -0.376 OA
BRANCH   3   4
ATOM      4  C   UNL A   1      41.325  28.179  33.382  1.00  0.00     0.202 C 
BRANCH   4   5
ATOM      5  C   UNL A   1      40.419  29.127  32.586  1.00  0.00     0.261 C 
BRANCH   5   6
ATOM      6  O   UNL A   1      40.702  29.264  31.193  1.00  0.00    -0.460 OA
BRANCH   6   7
ATOM      7  C   UNL A   1      39.878  28.615  30.343  1.00  0.00     0.338 C 
ATOM      8  O   UNL A   1      39.972  27.463  29.959  1.00  0.00    -0.246 OA
BRANCH   7   9
ATOM      9  C   UNL A   1      38.706  29.485  30.102  1.00  0.00     0.060 A 
ATOM     10  C   UNL A   1      36.569  31.241  29.804  1.00  0.00     0.053 A 
ATOM     11  C   UNL A   1      37.833  31.615  29.341  1.00  0.00     0.028 A 
ATOM     12  C   UNL A   1      36.355  29.940  30.286  1.00  0.00     0.028 A 
ATOM     13  C   UNL A   1      38.911  30.750  29.530  1.00  0.00     0.018 A 
ATOM     14  C   UNL A   1      37.418  29.052  30.418  1.00  0.00     0.018 A 
BRANCH  10  15
ATOM     15  N   UNL A   1      35.596  32.232  30.032  1.00  0.00    -0.242 N 
ATOM     16  C   UNL A   1      35.525  33.061  31.119  1.00  0.00     0.095 A 
ATOM     17  C   UNL A   1      34.504  33.877  30.890  1.00  0.00     0.228 A 
ATOM     18  O   UNL A   1      33.860  33.660  29.672  1.00  0.00    -0.415 OA
ATOM     19  C   UNL A   1      34.619  32.622  29.124  1.00  0.00     0.424 A 
ATOM     20  O   UNL A   1      34.398  32.155  28.014  1.00  0.00    -0.223 OA
BRANCH  16  21
ATOM     21  C   UNL A   1      36.517  33.124  32.194  1.00  0.00     0.002 A 
ATOM     22  C   UNL A   1      38.276  33.332  34.365  1.00  0.00     0.082 A 
ATOM     23  C   UNL A   1      37.302  32.335  34.368  1.00  0.00     0.022 A 
ATOM     24  C   UNL A   1      38.392  34.211  33.283  1.00  0.00     0.022 A 
ATOM     25  C   UNL A   1      36.436  32.228  33.278  1.00  0.00     0.012 A 
ATOM     26  C   UNL A   1      37.515  34.102  32.197  1.00  0.00     0.012 A 
BRANCH  22  27
ATOM     27  S   UNL A   1      39.351  33.526  35.756  1.00  0.00     0.238 S 
ATOM     28  O   UNL A   1      39.058  34.773  36.404  1.00  0.00    -0.207 OA
ATOM     29  O   UNL A   1      40.690  33.142  35.350  1.00  0.00    -0.207 OA
BRANCH  27  30
ATOM     30  N   UNL A   1      38.830  32.338  36.827  1.00  0.00    -0.225 NA
ATOM     31  H   UNL A   1      38.656  32.757  37.741  1.00  0.00     0.137 HD
ATOM     32  H   UNL A   1      39.549  31.620  36.913  1.00  0.00     0.137 HD
ENDBRANCH  27  30
ENDBRANCH  22  27
ENDBRANCH  16  21
ENDBRANCH  10  15
ENDBRANCH   7   9
ENDBRANCH   6   7
ENDBRANCH   5   6
ENDBRANCH   4   5
ENDBRANCH   3   4
ENDBRANCH   2   3
ENDBRANCH   1   2
BRANCH   1  33
ATOM     33  O   UNL A   1      42.902  25.076  34.337  1.00  0.00    -0.377 OA
BRANCH  33  34
ATOM     34  C   UNL A   1      43.000  23.985  35.249  1.00  0.00     0.188 C 
BRANCH  34  35
ATOM     35  C   UNL A   1      44.338  23.422  35.811  1.00  0.00     0.188 C 
BRANCH  35  36
ATOM     36  O   UNL A   1      44.769  22.174  35.305  1.00  0.00    -0.376 OA
BRANCH  36  37
ATOM     37  C   UNL A   1      45.944  21.501  35.696  1.00  0.00     0.202 C 
BRANCH  37  38
ATOM     38  C   UNL A   1      47.259  22.247  35.811  1.00  0.00     0.261 C 
BRANCH  38  39
ATOM     39  O   UNL A   1      47.574  23.016  34.675  1.00  0.00    -0.460 OA
BRANCH  39  40
ATOM     40  C   UNL A   1      48.492  23.971  34.897  1.00  0.00     0.338 C 
ATOM     41  O   UNL A   1      49.343  24.006  35.769  1.00  0.00    -0.246 OA
BRANCH  40  42
ATOM     42  C   UNL A   1      48.178  25.077  33.999  1.00  0.00     0.060 A 
ATOM     43  C   UNL A   1      46.891  25.606  34.100  1.00  0.00     0.016 A 
ATOM     44  C   UNL A   1      48.975  25.206  32.852  1.00  0.00     0.016 A 
ATOM     45  C   UNL A   1      46.294  26.029  32.940  1.00  0.00     0.010 A 
ATOM     46  C   UNL A   1      48.362  25.570  31.692  1.00  0.00     0.010 A 
ATOM     47  C   UNL A   1      47.008  25.890  31.746  1.00  0.00    -0.014 A 
BRANCH  47  48
ATOM     48  C   UNL A   1      46.355  26.232  30.509  1.00  0.00     0.031 A 
ATOM     49  C   UNL A   1      45.456  25.143  30.090  1.00  0.00     0.074 A 
ATOM     50  C   UNL A   1      46.485  27.458  29.966  1.00  0.00     0.049 A 
ATOM     51  N   UNL A   1      45.622  24.333  29.099  1.00  0.00    -0.248 NA
ATOM     52  C   UNL A   1      44.376  24.741  31.013  1.00  0.00     0.031 C 
ATOM     53  C   UNL A   1      47.157  28.618  30.567  1.00  0.00     0.029 A 
ATOM     54  N   UNL A   1      45.938  27.972  28.826  1.00  0.00    -0.354 N 
ATOM     55  C   UNL A   1      44.488  23.531  29.116  1.00  0.00     0.074 A 
ATOM     56  C   UNL A   1      43.937  23.622  30.437  1.00  0.00     0.031 C 
ATOM     57  C   UNL A   1      46.781  29.740  29.913  1.00  0.00     0.029 A 
ATOM     58  C   UNL A   1      45.955  29.365  28.780  1.00  0.00     0.049 A 
ATOM     59  H   UNL A   1      45.567  27.412  28.106  1.00  0.00     0.167 HD
ATOM     60  C   UNL A   1      43.863  23.259  27.940  1.00  0.00     0.037 A 
ATOM     61  C   UNL A   1      45.262  30.135  27.905  1.00  0.00     0.037 A 
ATOM     62  C   UNL A   1      44.744  23.520  26.830  1.00  0.00     0.049 A 
ATOM     63  C   UNL A   1      44.897  29.277  26.753  1.00  0.00     0.074 A 
ATOM     64  C   UNL A   1      45.842  22.919  26.258  1.00  0.00     0.029 A 
ATOM     65  N   UNL A   1      44.741  24.830  26.432  1.00  0.00    -0.354 N 
ATOM     66  N   UNL A   1      45.771  28.803  25.909  1.00  0.00    -0.248 NA
ATOM     67  C   UNL A   1      43.593  28.618  26.738  1.00  0.00     0.031 C 
ATOM     68  C   UNL A   1      46.539  23.944  25.549  1.00  0.00     0.029 A 
ATOM     69  C   UNL A   1      45.831  25.137  25.668  1.00  0.00     0.049 A 
ATOM     70  H   UNL A   1      44.035  25.476  26.667  1.00  0.00     0.167 HD
ATOM     71  C   UNL A   1      45.287  27.551  25.587  1.00  0.00     0.074 A 
ATOM     72  C   UNL A   1      43.883  27.562  25.973  1.00  0.00     0.031 C 
ATOM     73  C   UNL A   1      46.146  26.514  25.374  1.00  0.00     0.037 A 
BRANCH  60  74
ATOM     74  C   UNL A   1      42.359  23.331  27.752  1.00  0.00     0.064 A 
ATOM     75  C   UNL A   1      41.714  22.240  27.139  1.00  0.00     0.173 A 
ATOM     76  C   UNL A   1      41.591  24.516  27.837  1.00  0.00     0.173 A 
ATOM     77  F   UNL A   1      42.358  21.074  26.977  1.00  0.00    -0.203 F 
ATOM     78  C   UNL A   1      40.428  22.348  26.601  1.00  0.00     0.198 A 
ATOM     79  C   UNL A   1      40.291  24.605  27.347  1.00  0.00     0.198 A 
ATOM     80  F   UNL A   1      42.089  25.673  28.285  1.00  0.00    -0.203 F 
ATOM     81  F   UNL A   1      39.902  21.320  25.924  1.00  0.00    -0.200 F 
ATOM     82  C   UNL A   1      39.719  23.532  26.703  1.00  0.00     0.200 A 
ATOM     83  F   UNL A   1      39.636  25.772  27.432  1.00  0.00    -0.200 F 
ATOM     84  F   UNL A   1      38.511  23.656  26.140  1.00  0.00    -0.200 F 
ENDBRANCH  60  74
BRANCH  61  85
ATOM     85  C   UNL A   1      44.671  31.480  28.103  1.00  0.00     0.064 A 
ATOM     86  C   UNL A   1      43.538  31.660  28.913  1.00  0.00     0.173 A 
ATOM     87  C   UNL A   1      45.370  32.644  27.735  1.00  0.00     0.173 A 
ATOM     88  F   UNL A   1      42.838  30.599  29.341  1.00  0.00    -0.203 F 
ATOM     89  C   UNL A   1      43.149  32.928  29.359  1.00  0.00     0.198 A 
ATOM     90  C   UNL A   1      44.976  33.910  28.175  1.00  0.00     0.198 A 
ATOM     91  F   UNL A   1      46.503  32.570  27.023  1.00  0.00    -0.203 F 
ATOM     92  F   UNL A   1      42.102  33.054  30.187  1.00  0.00    -0.200 F 
ATOM     93  C   UNL A   1      43.876  34.050  29.000  1.00  0.00     0.200 A 
ATOM     94  F   UNL A   1      45.710  34.983  27.850  1.00  0.00    -0.200 F 
ATOM     95  F   UNL A   1      43.545  35.256  29.481  1.00  0.00    -0.200 F 
ENDBRANCH  61  85
BRANCH  73  96
ATOM     96  C   UNL A   1      47.537  26.849  24.943  1.00  0.00     0.064 A 
ATOM     97  C   UNL A   1      47.885  27.327  23.670  1.00  0.00     0.173 A 
ATOM     98  C   UNL A   1      48.552  26.743  25.902  1.00  0.00     0.173 A 
ATOM     99  F   UNL A   1      46.950  27.522  22.729  1.00  0.00    -0.203 F 
ATOM    100  C   UNL A   1      49.206  27.648  23.365  1.00  0.00     0.198 A 
ATOM    101  C   UNL A   1      49.862  27.100  25.607  1.00  0.00     0.198 A 
ATOM    102  F   UNL A   1      48.261  26.327  27.144  1.00  0.00    -0.203 F 
ATOM    103  F   UNL A   1      49.527  28.084  22.138  1.00  0.00    -0.200 F 
ATOM    104  C   UNL A   1      50.191  27.541  24.336  1.00  0.00     0.200 A 
ATOM    105  F   UNL A   1      50.798  27.035  26.562  1.00  0.00    -0.200 F 
ATOM    106  F   UNL A   1      51.457  27.883  24.054  1.00  0.00    -0.200 F 
ENDBRANCH  73  96
ENDBRANCH  47  48
ENDBRANCH  40  42
ENDBRANCH  39  40
ENDBRANCH  38  39
ENDBRANCH  37  38
ENDBRANCH  36  37
ENDBRANCH  35  36
ENDBRANCH  34  35
ENDBRANCH  33  34
ENDBRANCH   1  33
TORSDOF 24
ENDMDL
