MODEL 1
REMARK VINA RESULT:     -10.6      0.000      0.000
REMARK SMILES C=C(C(=O)OCCOCCOCCOCCOC(=O)c1ccc(-c2c3nc(c(-c4c(F)c(F)c(F)c(F)c4F)c4ccc([nH]4)c(-c4c(F)c(F)c(F)c(F)c4F)c4nc(c(-c5c(F)c(F)c(F)c(F)c5F)c5ccc2[nH]5)C=C4)C=C3)cc1)[C@@H]1CC[C@]2(C)C[C@@H](O)CC(=C)[C@H]2C1
REMARK SMILES IDX 11 1 10 2 9 3 8 4 7 5 6 6 5 7 3 8 4 9 2 10 1 11 83 12 84 13
REMARK SMILES IDX 95 14 85 15 94 16 86 17 92 18 87 19 88 20 91 21 93 22 89 23
REMARK SMILES IDX 90 24 12 26 13 27 14 28 15 29 16 30 17 31 18 32 19 33 20 34
REMARK SMILES IDX 21 35 82 36 22 37 81 38 23 39 24 40 25 41 75 42 26 43 80 44
REMARK SMILES IDX 74 45 76 46 27 47 79 48 73 49 72 50 28 52 60 53 40 54 59 55
REMARK SMILES IDX 41 56 44 57 58 58 77 59 42 60 43 61 57 63 78 64 45 65 29 66
REMARK SMILES IDX 30 67 38 68 31 69 32 70 36 71 39 72 33 73 34 74 37 75 35 76
REMARK SMILES IDX 61 77 62 78 70 79 63 80 64 81 68 82 71 83 65 84 66 85 69 86
REMARK SMILES IDX 67 87 46 88 47 89 55 90 48 91 49 92 53 93 56 94 50 95 51 96
REMARK SMILES IDX 54 97 52 98
REMARK H PARENT 90 25 76 51 44 62
REMARK Flexibility Score: inf
ROOT
ATOM      1  O   UNL A   1      33.566  31.887  27.583  1.00  0.00    -0.377 OA
ENDROOT
BRANCH   1   2
ATOM      2  C   UNL A   1      33.140  30.579  27.230  1.00  0.00     0.188 C 
BRANCH   2   3
ATOM      3  C   UNL A   1      34.090  29.368  27.315  1.00  0.00     0.188 C 
BRANCH   3   4
ATOM      4  O   UNL A   1      33.466  28.093  27.220  1.00  0.00    -0.376 OA
BRANCH   4   5
ATOM      5  C   UNL A   1      33.341  27.557  25.909  1.00  0.00     0.202 C 
BRANCH   5   6
ATOM      6  C   UNL A   1      31.891  27.592  25.420  1.00  0.00     0.261 C 
BRANCH   6   7
ATOM      7  O   UNL A   1      31.775  28.169  24.107  1.00  0.00    -0.460 OA
BRANCH   7   8
ATOM      8  C   UNL A   1      31.318  27.356  23.116  1.00  0.00     0.333 C 
ATOM      9  O   UNL A   1      30.174  27.343  22.699  1.00  0.00    -0.247 OA
BRANCH   8  10
ATOM     10  C   UNL A   1      32.470  26.594  22.527  1.00  0.00     0.033 C 
ATOM     11  C   UNL A   1      33.506  27.353  22.109  1.00  0.00     0.020 C 
BRANCH  10  12
ATOM     12  C   UNL A   1      32.519  25.055  22.518  1.00  0.00     0.026 C 
ATOM     13  C   UNL A   1      31.488  24.376  23.467  1.00  0.00     0.009 C 
ATOM     14  C   UNL A   1      33.887  24.321  22.639  1.00  0.00     0.017 C 
ATOM     15  C   UNL A   1      31.990  24.060  24.880  1.00  0.00     0.008 C 
ATOM     16  C   UNL A   1      34.368  24.069  24.084  1.00  0.00     0.021 C 
ATOM     17  C   UNL A   1      33.330  23.287  24.933  1.00  0.00    -0.024 C 
ATOM     18  C   UNL A   1      35.753  23.474  24.270  1.00  0.00    -0.071 C 
ATOM     19  C   UNL A   1      33.101  21.853  24.398  1.00  0.00     0.012 C 
ATOM     20  C   UNL A   1      33.790  23.212  26.426  1.00  0.00     0.039 C 
ATOM     21  C   UNL A   1      36.235  23.557  25.707  1.00  0.00     0.062 C 
ATOM     22  C   UNL A   1      36.513  22.940  23.302  1.00  0.00     0.008 C 
ATOM     23  C   UNL A   1      35.266  22.849  26.663  1.00  0.00     0.119 C 
BRANCH  23  24
ATOM     24  O   UNL A   1      35.439  21.433  26.605  1.00  0.00    -0.393 OA
ATOM     25  H   UNL A   1      34.575  21.006  26.496  1.00  0.00     0.210 HD
ENDBRANCH  23  24
ENDBRANCH  10  12
ENDBRANCH   8  10
ENDBRANCH   7   8
ENDBRANCH   6   7
ENDBRANCH   5   6
ENDBRANCH   4   5
ENDBRANCH   3   4
ENDBRANCH   2   3
ENDBRANCH   1   2
BRANCH   1  26
ATOM     26  C   UNL A   1      34.444  32.000  28.685  1.00  0.00     0.188 C 
BRANCH  26  27
ATOM     27  C   UNL A   1      34.448  33.384  29.365  1.00  0.00     0.188 C 
BRANCH  27  28
ATOM     28  O   UNL A   1      33.402  34.246  28.915  1.00  0.00    -0.376 OA
BRANCH  28  29
ATOM     29  C   UNL A   1      33.643  35.642  29.010  1.00  0.00     0.202 C 
BRANCH  29  30
ATOM     30  C   UNL A   1      32.718  36.396  29.973  1.00  0.00     0.261 C 
BRANCH  30  31
ATOM     31  O   UNL A   1      32.328  35.674  31.149  1.00  0.00    -0.460 OA
BRANCH  31  32
ATOM     32  C   UNL A   1      32.804  36.082  32.344  1.00  0.00     0.338 C 
ATOM     33  O   UNL A   1      32.300  36.879  33.112  1.00  0.00    -0.246 OA
BRANCH  32  34
ATOM     34  C   UNL A   1      33.947  35.196  32.659  1.00  0.00     0.060 A 
ATOM     35  C   UNL A   1      33.693  33.887  33.094  1.00  0.00     0.016 A 
ATOM     36  C   UNL A   1      35.252  35.611  32.384  1.00  0.00     0.016 A 
ATOM     37  C   UNL A   1      34.744  32.973  33.200  1.00  0.00     0.010 A 
ATOM     38  C   UNL A   1      36.307  34.713  32.541  1.00  0.00     0.010 A 
ATOM     39  C   UNL A   1      36.058  33.392  32.947  1.00  0.00    -0.014 A 
BRANCH  39  40
ATOM     40  C   UNL A   1      37.205  32.525  33.298  1.00  0.00     0.031 A 
ATOM     41  C   UNL A   1      37.943  32.842  34.565  1.00  0.00     0.074 A 
ATOM     42  C   UNL A   1      37.620  31.536  32.486  1.00  0.00     0.049 A 
ATOM     43  N   UNL A   1      39.056  32.336  35.027  1.00  0.00    -0.248 NA
ATOM     44  C   UNL A   1      37.349  33.880  35.424  1.00  0.00     0.031 C 
ATOM     45  C   UNL A   1      36.965  31.125  31.245  1.00  0.00     0.029 A 
ATOM     46  N   UNL A   1      38.720  30.719  32.573  1.00  0.00    -0.354 N 
ATOM     47  C   UNL A   1      39.298  33.003  36.220  1.00  0.00     0.074 A 
ATOM     48  C   UNL A   1      38.226  33.951  36.413  1.00  0.00     0.031 C 
ATOM     49  C   UNL A   1      37.699  30.156  30.667  1.00  0.00     0.029 A 
ATOM     50  C   UNL A   1      38.891  29.908  31.476  1.00  0.00     0.049 A 
ATOM     51  H   UNL A   1      39.329  30.713  33.348  1.00  0.00     0.167 HD
ATOM     52  C   UNL A   1      40.333  32.840  37.073  1.00  0.00     0.037 A 
ATOM     53  C   UNL A   1      39.919  29.098  31.150  1.00  0.00     0.037 A 
ATOM     54  C   UNL A   1      41.401  31.903  36.873  1.00  0.00     0.049 A 
ATOM     55  C   UNL A   1      41.099  28.993  32.089  1.00  0.00     0.074 A 
ATOM     56  C   UNL A   1      42.469  31.623  37.706  1.00  0.00     0.029 A 
ATOM     57  N   UNL A   1      41.546  31.108  35.747  1.00  0.00    -0.354 N 
ATOM     58  N   UNL A   1      41.291  29.575  33.249  1.00  0.00    -0.248 NA
ATOM     59  C   UNL A   1      42.210  28.124  31.669  1.00  0.00     0.031 C 
ATOM     60  C   UNL A   1      43.294  30.702  37.056  1.00  0.00     0.029 A 
ATOM     61  C   UNL A   1      42.712  30.369  35.843  1.00  0.00     0.049 A 
ATOM     62  H   UNL A   1      40.916  31.075  34.992  1.00  0.00     0.167 HD
ATOM     63  C   UNL A   1      42.528  29.131  33.702  1.00  0.00     0.074 A 
ATOM     64  C   UNL A   1      43.033  28.213  32.704  1.00  0.00     0.031 C 
ATOM     65  C   UNL A   1      43.191  29.455  34.839  1.00  0.00     0.037 A 
BRANCH  52  66
ATOM     66  C   UNL A   1      40.380  33.716  38.287  1.00  0.00     0.064 A 
ATOM     67  C   UNL A   1      39.694  33.384  39.463  1.00  0.00     0.173 A 
ATOM     68  C   UNL A   1      41.170  34.875  38.286  1.00  0.00     0.173 A 
ATOM     69  F   UNL A   1      38.908  32.297  39.503  1.00  0.00    -0.203 F 
ATOM     70  C   UNL A   1      39.794  34.185  40.596  1.00  0.00     0.198 A 
ATOM     71  C   UNL A   1      41.288  35.661  39.429  1.00  0.00     0.198 A 
ATOM     72  F   UNL A   1      41.839  35.236  37.181  1.00  0.00    -0.203 F 
ATOM     73  F   UNL A   1      39.110  33.866  41.704  1.00  0.00    -0.200 F 
ATOM     74  C   UNL A   1      40.599  35.315  40.582  1.00  0.00     0.200 A 
ATOM     75  F   UNL A   1      42.071  36.747  39.416  1.00  0.00    -0.200 F 
ATOM     76  F   UNL A   1      40.709  36.075  41.681  1.00  0.00    -0.200 F 
ENDBRANCH  52  66
BRANCH  53  77
ATOM     77  C   UNL A   1      39.925  28.361  29.856  1.00  0.00     0.064 A 
ATOM     78  C   UNL A   1      39.344  27.091  29.739  1.00  0.00     0.173 A 
ATOM     79  C   UNL A   1      40.575  28.883  28.727  1.00  0.00     0.173 A 
ATOM     80  F   UNL A   1      38.739  26.531  30.797  1.00  0.00    -0.203 F 
ATOM     81  C   UNL A   1      39.438  26.359  28.555  1.00  0.00     0.198 A 
ATOM     82  C   UNL A   1      40.641  28.165  27.534  1.00  0.00     0.198 A 
ATOM     83  F   UNL A   1      41.159  30.089  28.784  1.00  0.00    -0.203 F 
ATOM     84  F   UNL A   1      38.930  25.121  28.493  1.00  0.00    -0.200 F 
ATOM     85  C   UNL A   1      40.083  26.898  27.453  1.00  0.00     0.200 A 
ATOM     86  F   UNL A   1      41.260  28.693  26.469  1.00  0.00    -0.200 F 
ATOM     87  F   UNL A   1      40.182  26.192  26.318  1.00  0.00    -0.200 F 
ENDBRANCH  53  77
BRANCH  65  88
ATOM     88  C   UNL A   1      44.522  28.804  35.078  1.00  0.00     0.064 A 
ATOM     89  C   UNL A   1      44.624  27.562  35.719  1.00  0.00     0.173 A 
ATOM     90  C   UNL A   1      45.699  29.397  34.596  1.00  0.00     0.173 A 
ATOM     91  F   UNL A   1      43.528  26.962  36.209  1.00  0.00    -0.203 F 
ATOM     92  C   UNL A   1      45.860  26.943  35.883  1.00  0.00     0.198 A 
ATOM     93  C   UNL A   1      46.928  28.761  34.735  1.00  0.00     0.198 A 
ATOM     94  F   UNL A   1      45.652  30.581  33.966  1.00  0.00    -0.203 F 
ATOM     95  F   UNL A   1      45.940  25.773  36.532  1.00  0.00    -0.200 F 
ATOM     96  C   UNL A   1      47.010  27.538  35.382  1.00  0.00     0.200 A 
ATOM     97  F   UNL A   1      48.035  29.328  34.235  1.00  0.00    -0.200 F 
ATOM     98  F   UNL A   1      48.196  26.932  35.528  1.00  0.00    -0.200 F 
ENDBRANCH  65  88
ENDBRANCH  39  40
ENDBRANCH  32  34
ENDBRANCH  31  32
ENDBRANCH  30  31
ENDBRANCH  29  30
ENDBRANCH  28  29
ENDBRANCH  27  28
ENDBRANCH  26  27
ENDBRANCH   1  26
TORSDOF 22
ENDMDL
MODEL 2
REMARK VINA RESULT:     -10.4      4.820      7.159
REMARK SMILES C=C(C(=O)OCCOCCOCCOCCOC(=O)c1ccc(-c2c3nc(c(-c4c(F)c(F)c(F)c(F)c4F)c4ccc([nH]4)c(-c4c(F)c(F)c(F)c(F)c4F)c4nc(c(-c5c(F)c(F)c(F)c(F)c5F)c5ccc2[nH]5)C=C4)C=C3)cc1)[C@@H]1CC[C@]2(C)C[C@@H](O)CC(=C)[C@H]2C1
REMARK SMILES IDX 11 1 10 2 9 3 8 4 7 5 6 6 5 7 3 8 4 9 2 10 1 11 83 12 84 13
REMARK SMILES IDX 95 14 85 15 94 16 86 17 92 18 87 19 88 20 91 21 93 22 89 23
REMARK SMILES IDX 90 24 12 26 13 27 14 28 15 29 16 30 17 31 18 32 19 33 20 34
REMARK SMILES IDX 21 35 82 36 22 37 81 38 23 39 24 40 25 41 75 42 26 43 80 44
REMARK SMILES IDX 74 45 76 46 27 47 79 48 73 49 72 50 28 52 60 53 40 54 59 55
REMARK SMILES IDX 41 56 44 57 58 58 77 59 42 60 43 61 57 63 78 64 45 65 29 66
REMARK SMILES IDX 30 67 38 68 31 69 32 70 36 71 39 72 33 73 34 74 37 75 35 76
REMARK SMILES IDX 61 77 62 78 70 79 63 80 64 81 68 82 71 83 65 84 66 85 69 86
REMARK SMILES IDX 67 87 46 88 47 89 55 90 48 91 49 92 53 93 56 94 50 95 51 96
REMARK SMILES IDX 54 97 52 98
REMARK H PARENT 90 25 76 51 44 62
REMARK Flexibility Score: inf
ROOT
ATOM      1  O   UNL A   1      34.543  34.083  28.480  1.00  0.00    -0.377 OA
ENDROOT
BRANCH   1   2
ATOM      2  C   UNL A   1      33.744  33.006  28.014  1.00  0.00     0.188 C 
BRANCH   2   3
ATOM      3  C   UNL A   1      34.310  31.578  27.879  1.00  0.00     0.188 C 
BRANCH   3   4
ATOM      4  O   UNL A   1      33.677  30.760  26.902  1.00  0.00    -0.376 OA
BRANCH   4   5
ATOM      5  C   UNL A   1      32.264  30.635  27.014  1.00  0.00     0.202 C 
BRANCH   5   6
ATOM      6  C   UNL A   1      31.778  29.266  26.534  1.00  0.00     0.261 C 
BRANCH   6   7
ATOM      7  O   UNL A   1      32.564  28.764  25.438  1.00  0.00    -0.460 OA
BRANCH   7   8
ATOM      8  C   UNL A   1      31.977  28.763  24.210  1.00  0.00     0.333 C 
ATOM      9  O   UNL A   1      30.988  29.407  23.911  1.00  0.00    -0.247 OA
BRANCH   8  10
ATOM     10  C   UNL A   1      32.821  27.968  23.256  1.00  0.00     0.033 C 
ATOM     11  C   UNL A   1      33.940  28.589  22.825  1.00  0.00     0.020 C 
BRANCH  10  12
ATOM     12  C   UNL A   1      32.499  26.505  22.897  1.00  0.00     0.026 C 
ATOM     13  C   UNL A   1      31.254  25.925  23.629  1.00  0.00     0.009 C 
ATOM     14  C   UNL A   1      33.634  25.439  22.894  1.00  0.00     0.017 C 
ATOM     15  C   UNL A   1      31.535  25.199  24.948  1.00  0.00     0.008 C 
ATOM     16  C   UNL A   1      33.906  24.771  24.258  1.00  0.00     0.021 C 
ATOM     17  C   UNL A   1      32.638  24.117  24.869  1.00  0.00    -0.024 C 
ATOM     18  C   UNL A   1      35.086  23.817  24.351  1.00  0.00    -0.071 C 
ATOM     19  C   UNL A   1      32.121  22.937  24.012  1.00  0.00     0.012 C 
ATOM     20  C   UNL A   1      32.929  23.612  26.321  1.00  0.00     0.039 C 
ATOM     21  C   UNL A   1      35.441  23.467  25.785  1.00  0.00     0.062 C 
ATOM     22  C   UNL A   1      35.780  23.326  23.314  1.00  0.00     0.008 C 
ATOM     23  C   UNL A   1      34.247  22.843  26.520  1.00  0.00     0.119 C 
BRANCH  23  24
ATOM     24  O   UNL A   1      34.079  21.475  26.145  1.00  0.00    -0.393 OA
ATOM     25  H   UNL A   1      34.241  21.379  25.193  1.00  0.00     0.210 HD
ENDBRANCH  23  24
ENDBRANCH  10  12
ENDBRANCH   8  10
ENDBRANCH   7   8
ENDBRANCH   6   7
ENDBRANCH   5   6
ENDBRANCH   4   5
ENDBRANCH   3   4
ENDBRANCH   2   3
ENDBRANCH   1   2
BRANCH   1  26
ATOM     26  C   UNL A   1      33.871  35.279  28.822  1.00  0.00     0.188 C 
BRANCH  26  27
ATOM     27  C   UNL A   1      33.135  35.239  30.176  1.00  0.00     0.188 C 
BRANCH  27  28
ATOM     28  O   UNL A   1      33.851  35.877  31.235  1.00  0.00    -0.376 OA
BRANCH  28  29
ATOM     29  C   UNL A   1      34.155  35.077  32.368  1.00  0.00     0.202 C 
BRANCH  29  30
ATOM     30  C   UNL A   1      35.632  34.690  32.513  1.00  0.00     0.261 C 
BRANCH  30  31
ATOM     31  O   UNL A   1      35.884  33.303  32.774  1.00  0.00    -0.460 OA
BRANCH  31  32
ATOM     32  C   UNL A   1      35.515  32.394  31.847  1.00  0.00     0.338 C 
ATOM     33  O   UNL A   1      34.408  32.225  31.371  1.00  0.00    -0.246 OA
BRANCH  32  34
ATOM     34  C   UNL A   1      36.766  31.790  31.338  1.00  0.00     0.060 A 
ATOM     35  C   UNL A   1      37.594  31.091  32.228  1.00  0.00     0.016 A 
ATOM     36  C   UNL A   1      37.038  31.791  29.967  1.00  0.00     0.016 A 
ATOM     37  C   UNL A   1      38.668  30.343  31.738  1.00  0.00     0.010 A 
ATOM     38  C   UNL A   1      38.140  31.086  29.485  1.00  0.00     0.010 A 
ATOM     39  C   UNL A   1      38.957  30.358  30.366  1.00  0.00    -0.014 A 
BRANCH  39  40
ATOM     40  C   UNL A   1      40.226  29.792  29.858  1.00  0.00     0.031 A 
ATOM     41  C   UNL A   1      41.390  30.727  29.716  1.00  0.00     0.074 A 
ATOM     42  C   UNL A   1      40.322  28.507  29.470  1.00  0.00     0.049 A 
ATOM     43  N   UNL A   1      42.558  30.524  29.169  1.00  0.00    -0.248 NA
ATOM     44  C   UNL A   1      41.205  32.085  30.258  1.00  0.00     0.031 C 
ATOM     45  C   UNL A   1      39.266  27.503  29.585  1.00  0.00     0.029 A 
ATOM     46  N   UNL A   1      41.358  27.837  28.865  1.00  0.00    -0.354 N 
ATOM     47  C   UNL A   1      43.239  31.728  29.290  1.00  0.00     0.074 A 
ATOM     48  C   UNL A   1      42.358  32.659  29.956  1.00  0.00     0.031 C 
ATOM     49  C   UNL A   1      39.695  26.354  29.032  1.00  0.00     0.029 A 
ATOM     50  C   UNL A   1      41.040  26.553  28.492  1.00  0.00     0.049 A 
ATOM     51  H   UNL A   1      42.245  28.238  28.714  1.00  0.00     0.167 HD
ATOM     52  C   UNL A   1      44.488  32.027  28.873  1.00  0.00     0.037 A 
ATOM     53  C   UNL A   1      41.741  25.666  27.758  1.00  0.00     0.037 A 
ATOM     54  C   UNL A   1      45.356  31.101  28.203  1.00  0.00     0.049 A 
ATOM     55  C   UNL A   1      43.106  26.057  27.239  1.00  0.00     0.074 A 
ATOM     56  C   UNL A   1      46.662  31.291  27.787  1.00  0.00     0.029 A 
ATOM     57  N   UNL A   1      44.996  29.815  27.832  1.00  0.00    -0.354 N 
ATOM     58  N   UNL A   1      43.772  27.173  27.414  1.00  0.00    -0.248 NA
ATOM     59  C   UNL A   1      43.813  25.066  26.412  1.00  0.00     0.031 C 
ATOM     60  C   UNL A   1      47.071  30.139  27.110  1.00  0.00     0.029 A 
ATOM     61  C   UNL A   1      46.040  29.214  27.152  1.00  0.00     0.049 A 
ATOM     62  H   UNL A   1      44.127  29.393  28.024  1.00  0.00     0.167 HD
ATOM     63  C   UNL A   1      44.977  27.012  26.740  1.00  0.00     0.074 A 
ATOM     64  C   UNL A   1      44.961  25.682  26.169  1.00  0.00     0.031 C 
ATOM     65  C   UNL A   1      46.003  27.885  26.599  1.00  0.00     0.037 A 
BRANCH  52  66
ATOM     66  C   UNL A   1      44.982  33.423  29.096  1.00  0.00     0.064 A 
ATOM     67  C   UNL A   1      44.716  34.453  28.184  1.00  0.00     0.173 A 
ATOM     68  C   UNL A   1      45.680  33.743  30.270  1.00  0.00     0.173 A 
ATOM     69  F   UNL A   1      44.071  34.191  27.036  1.00  0.00    -0.203 F 
ATOM     70  C   UNL A   1      45.138  35.755  28.436  1.00  0.00     0.198 A 
ATOM     71  C   UNL A   1      46.079  35.050  30.531  1.00  0.00     0.198 A 
ATOM     72  F   UNL A   1      45.962  32.788  31.169  1.00  0.00    -0.203 F 
ATOM     73  F   UNL A   1      44.899  36.722  27.539  1.00  0.00    -0.200 F 
ATOM     74  C   UNL A   1      45.808  36.054  29.614  1.00  0.00     0.200 A 
ATOM     75  F   UNL A   1      46.719  35.339  31.672  1.00  0.00    -0.200 F 
ATOM     76  F   UNL A   1      46.197  37.313  29.864  1.00  0.00    -0.200 F 
ENDBRANCH  52  66
BRANCH  53  77
ATOM     77  C   UNL A   1      41.159  24.341  27.407  1.00  0.00     0.064 A 
ATOM     78  C   UNL A   1      40.113  24.228  26.479  1.00  0.00     0.173 A 
ATOM     79  C   UNL A   1      41.589  23.167  28.044  1.00  0.00     0.173 A 
ATOM     80  F   UNL A   1      39.642  25.323  25.866  1.00  0.00    -0.203 F 
ATOM     81  C   UNL A   1      39.502  23.000  26.225  1.00  0.00     0.198 A 
ATOM     82  C   UNL A   1      40.999  21.935  27.767  1.00  0.00     0.198 A 
ATOM     83  F   UNL A   1      42.578  23.216  28.949  1.00  0.00    -0.203 F 
ATOM     84  F   UNL A   1      38.462  22.933  25.383  1.00  0.00    -0.200 F 
ATOM     85  C   UNL A   1      39.947  21.855  26.867  1.00  0.00     0.200 A 
ATOM     86  F   UNL A   1      41.437  20.830  28.384  1.00  0.00    -0.200 F 
ATOM     87  F   UNL A   1      39.354  20.676  26.631  1.00  0.00    -0.200 F 
ENDBRANCH  53  77
BRANCH  65  88
ATOM     88  C   UNL A   1      47.201  27.431  25.817  1.00  0.00     0.064 A 
ATOM     89  C   UNL A   1      47.313  27.674  24.442  1.00  0.00     0.173 A 
ATOM     90  C   UNL A   1      48.280  26.811  26.467  1.00  0.00     0.173 A 
ATOM     91  F   UNL A   1      46.302  28.252  23.774  1.00  0.00    -0.203 F 
ATOM     92  C   UNL A   1      48.454  27.297  23.740  1.00  0.00     0.198 A 
ATOM     93  C   UNL A   1      49.432  26.465  25.769  1.00  0.00     0.198 A 
ATOM     94  F   UNL A   1      48.226  26.567  27.785  1.00  0.00    -0.203 F 
ATOM     95  F   UNL A   1      48.524  27.505  22.418  1.00  0.00    -0.200 F 
ATOM     96  C   UNL A   1      49.517  26.702  24.405  1.00  0.00     0.200 A 
ATOM     97  F   UNL A   1      50.464  25.906  26.416  1.00  0.00    -0.200 F 
ATOM     98  F   UNL A   1      50.621  26.356  23.731  1.00  0.00    -0.200 F 
ENDBRANCH  65  88
ENDBRANCH  39  40
ENDBRANCH  32  34
ENDBRANCH  31  32
ENDBRANCH  30  31
ENDBRANCH  29  30
ENDBRANCH  28  29
ENDBRANCH  27  28
ENDBRANCH  26  27
ENDBRANCH   1  26
TORSDOF 22
ENDMDL
MODEL 3
REMARK VINA RESULT:     -10.0      4.481      8.986
REMARK SMILES C=C(C(=O)OCCOCCOCCOCCOC(=O)c1ccc(-c2c3nc(c(-c4c(F)c(F)c(F)c(F)c4F)c4ccc([nH]4)c(-c4c(F)c(F)c(F)c(F)c4F)c4nc(c(-c5c(F)c(F)c(F)c(F)c5F)c5ccc2[nH]5)C=C4)C=C3)cc1)[C@@H]1CC[C@]2(C)C[C@@H](O)CC(=C)[C@H]2C1
REMARK SMILES IDX 11 1 10 2 9 3 8 4 7 5 6 6 5 7 3 8 4 9 2 10 1 11 83 12 84 13
REMARK SMILES IDX 95 14 85 15 94 16 86 17 92 18 87 19 88 20 91 21 93 22 89 23
REMARK SMILES IDX 90 24 12 26 13 27 14 28 15 29 16 30 17 31 18 32 19 33 20 34
REMARK SMILES IDX 21 35 82 36 22 37 81 38 23 39 24 40 25 41 75 42 26 43 80 44
REMARK SMILES IDX 74 45 76 46 27 47 79 48 73 49 72 50 28 52 60 53 40 54 59 55
REMARK SMILES IDX 41 56 44 57 58 58 77 59 42 60 43 61 57 63 78 64 45 65 29 66
REMARK SMILES IDX 30 67 38 68 31 69 32 70 36 71 39 72 33 73 34 74 37 75 35 76
REMARK SMILES IDX 61 77 62 78 70 79 63 80 64 81 68 82 71 83 65 84 66 85 69 86
REMARK SMILES IDX 67 87 46 88 47 89 55 90 48 91 49 92 53 93 56 94 50 95 51 96
REMARK SMILES IDX 54 97 52 98
REMARK H PARENT 90 25 76 51 44 62
REMARK Flexibility Score: inf
ROOT
ATOM      1  O   UNL A   1      32.852  37.006  30.033  1.00  0.00    -0.377 OA
ENDROOT
BRANCH   1   2
ATOM      2  C   UNL A   1      32.973  36.449  31.333  1.00  0.00     0.188 C 
BRANCH   2   3
ATOM      3  C   UNL A   1      33.714  37.188  32.465  1.00  0.00     0.188 C 
BRANCH   3   4
ATOM      4  O   UNL A   1      34.778  36.466  33.073  1.00  0.00    -0.376 OA
BRANCH   4   5
ATOM      5  C   UNL A   1      34.406  35.295  33.790  1.00  0.00     0.202 C 
BRANCH   5   6
ATOM      6  C   UNL A   1      35.546  34.276  33.838  1.00  0.00     0.261 C 
BRANCH   6   7
ATOM      7  O   UNL A   1      36.194  34.126  32.562  1.00  0.00    -0.460 OA
BRANCH   7   8
ATOM      8  C   UNL A   1      36.140  32.893  31.986  1.00  0.00     0.333 C 
ATOM      9  O   UNL A   1      35.133  32.216  31.887  1.00  0.00    -0.247 OA
BRANCH   8  10
ATOM     10  C   UNL A   1      37.470  32.573  31.369  1.00  0.00     0.033 C 
ATOM     11  C   UNL A   1      37.611  32.948  30.079  1.00  0.00     0.020 C 
BRANCH  10  12
ATOM     12  C   UNL A   1      38.633  31.978  32.185  1.00  0.00     0.026 C 
ATOM     13  C   UNL A   1      38.287  30.648  32.917  1.00  0.00     0.009 C 
ATOM     14  C   UNL A   1      39.457  32.889  33.142  1.00  0.00     0.017 C 
ATOM     15  C   UNL A   1      37.779  30.792  34.355  1.00  0.00     0.008 C 
ATOM     16  C   UNL A   1      38.877  33.036  34.565  1.00  0.00     0.021 C 
ATOM     17  C   UNL A   1      38.667  31.670  35.270  1.00  0.00    -0.024 C 
ATOM     18  C   UNL A   1      39.562  34.013  35.506  1.00  0.00    -0.071 C 
ATOM     19  C   UNL A   1      40.004  30.934  35.525  1.00  0.00     0.012 C 
ATOM     20  C   UNL A   1      37.919  31.866  36.631  1.00  0.00     0.039 C 
ATOM     21  C   UNL A   1      38.737  34.302  36.747  1.00  0.00     0.062 C 
ATOM     22  C   UNL A   1      40.751  34.597  35.299  1.00  0.00     0.008 C 
ATOM     23  C   UNL A   1      38.423  33.015  37.522  1.00  0.00     0.119 C 
BRANCH  23  24
ATOM     24  O   UNL A   1      39.557  32.589  38.278  1.00  0.00    -0.393 OA
ATOM     25  H   UNL A   1      40.224  32.217  37.680  1.00  0.00     0.210 HD
ENDBRANCH  23  24
ENDBRANCH  10  12
ENDBRANCH   8  10
ENDBRANCH   7   8
ENDBRANCH   6   7
ENDBRANCH   5   6
ENDBRANCH   4   5
ENDBRANCH   3   4
ENDBRANCH   2   3
ENDBRANCH   1   2
BRANCH   1  26
ATOM     26  C   UNL A   1      32.901  36.108  28.943  1.00  0.00     0.188 C 
BRANCH  26  27
ATOM     27  C   UNL A   1      34.299  35.929  28.319  1.00  0.00     0.188 C 
BRANCH  27  28
ATOM     28  O   UNL A   1      34.885  34.654  28.583  1.00  0.00    -0.376 OA
BRANCH  28  29
ATOM     29  C   UNL A   1      34.001  33.623  29.001  1.00  0.00     0.202 C 
BRANCH  29  30
ATOM     30  C   UNL A   1      33.914  32.420  28.055  1.00  0.00     0.261 C 
BRANCH  30  31
ATOM     31  O   UNL A   1      35.123  31.663  27.905  1.00  0.00    -0.460 OA
BRANCH  31  32
ATOM     32  C   UNL A   1      35.050  30.316  27.952  1.00  0.00     0.338 C 
ATOM     33  O   UNL A   1      34.111  29.610  27.632  1.00  0.00    -0.246 OA
BRANCH  32  34
ATOM     34  C   UNL A   1      36.418  29.836  28.245  1.00  0.00     0.060 A 
ATOM     35  C   UNL A   1      37.419  30.000  27.275  1.00  0.00     0.016 A 
ATOM     36  C   UNL A   1      36.738  29.367  29.521  1.00  0.00     0.016 A 
ATOM     37  C   UNL A   1      38.753  29.745  27.602  1.00  0.00     0.010 A 
ATOM     38  C   UNL A   1      38.064  29.063  29.831  1.00  0.00     0.010 A 
ATOM     39  C   UNL A   1      39.075  29.252  28.874  1.00  0.00    -0.014 A 
BRANCH  39  40
ATOM     40  C   UNL A   1      40.432  28.735  29.159  1.00  0.00     0.031 A 
ATOM     41  C   UNL A   1      41.411  29.680  29.789  1.00  0.00     0.074 A 
ATOM     42  C   UNL A   1      40.803  27.491  28.807  1.00  0.00     0.049 A 
ATOM     43  N   UNL A   1      42.690  29.528  30.010  1.00  0.00    -0.248 NA
ATOM     44  C   UNL A   1      40.875  30.983  30.219  1.00  0.00     0.031 C 
ATOM     45  C   UNL A   1      39.930  26.480  28.212  1.00  0.00     0.029 A 
ATOM     46  N   UNL A   1      42.031  26.879  28.870  1.00  0.00    -0.354 N 
ATOM     47  C   UNL A   1      43.109  30.716  30.592  1.00  0.00     0.074 A 
ATOM     48  C   UNL A   1      41.957  31.583  30.688  1.00  0.00     0.031 C 
ATOM     49  C   UNL A   1      40.660  25.385  27.931  1.00  0.00     0.029 A 
ATOM     50  C   UNL A   1      42.057  25.634  28.289  1.00  0.00     0.049 A 
ATOM     51  H   UNL A   1      42.819  27.292  29.292  1.00  0.00     0.167 HD
ATOM     52  C   UNL A   1      44.351  31.053  31.003  1.00  0.00     0.037 A 
ATOM     53  C   UNL A   1      43.099  24.816  28.037  1.00  0.00     0.037 A 
ATOM     54  C   UNL A   1      45.494  30.192  30.897  1.00  0.00     0.049 A 
ATOM     55  C   UNL A   1      44.489  25.254  28.439  1.00  0.00     0.074 A 
ATOM     56  C   UNL A   1      46.787  30.420  31.333  1.00  0.00     0.029 A 
ATOM     57  N   UNL A   1      45.484  28.945  30.293  1.00  0.00    -0.354 N 
ATOM     58  N   UNL A   1      44.871  26.350  29.050  1.00  0.00    -0.248 NA
ATOM     59  C   UNL A   1      45.597  24.342  28.108  1.00  0.00     0.031 C 
ATOM     60  C   UNL A   1      47.573  29.334  30.939  1.00  0.00     0.029 A 
ATOM     61  C   UNL A   1      46.760  28.408  30.305  1.00  0.00     0.049 A 
ATOM     62  H   UNL A   1      44.689  28.507  29.913  1.00  0.00     0.167 HD
ATOM     63  C   UNL A   1      46.250  26.251  29.192  1.00  0.00     0.074 A 
ATOM     64  C   UNL A   1      46.638  24.979  28.624  1.00  0.00     0.031 C 
ATOM     65  C   UNL A   1      47.120  27.135  29.739  1.00  0.00     0.037 A 
BRANCH  52  66
ATOM     66  C   UNL A   1      44.549  32.424  31.573  1.00  0.00     0.064 A 
ATOM     67  C   UNL A   1      44.352  32.691  32.934  1.00  0.00     0.173 A 
ATOM     68  C   UNL A   1      44.997  33.468  30.751  1.00  0.00     0.173 A 
ATOM     69  F   UNL A   1      43.902  31.729  33.754  1.00  0.00    -0.203 F 
ATOM     70  C   UNL A   1      44.593  33.960  33.453  1.00  0.00     0.198 A 
ATOM     71  C   UNL A   1      45.261  34.729  31.278  1.00  0.00     0.198 A 
ATOM     72  F   UNL A   1      45.194  33.261  29.440  1.00  0.00    -0.203 F 
ATOM     73  F   UNL A   1      44.373  34.204  34.753  1.00  0.00    -0.200 F 
ATOM     74  C   UNL A   1      45.058  34.973  32.628  1.00  0.00     0.200 A 
ATOM     75  F   UNL A   1      45.717  35.705  30.481  1.00  0.00    -0.200 F 
ATOM     76  F   UNL A   1      45.307  36.190  33.133  1.00  0.00    -0.200 F 
ENDBRANCH  52  66
BRANCH  53  77
ATOM     77  C   UNL A   1      42.899  23.528  27.318  1.00  0.00     0.064 A 
ATOM     78  C   UNL A   1      42.374  22.404  27.971  1.00  0.00     0.173 A 
ATOM     79  C   UNL A   1      43.295  23.374  25.980  1.00  0.00     0.173 A 
ATOM     80  F   UNL A   1      42.011  22.488  29.259  1.00  0.00    -0.203 F 
ATOM     81  C   UNL A   1      42.280  21.171  27.325  1.00  0.00     0.198 A 
ATOM     82  C   UNL A   1      43.171  22.150  25.325  1.00  0.00     0.198 A 
ATOM     83  F   UNL A   1      43.814  24.412  25.308  1.00  0.00    -0.203 F 
ATOM     84  F   UNL A   1      41.836  20.099  27.995  1.00  0.00    -0.200 F 
ATOM     85  C   UNL A   1      42.675  21.046  26.002  1.00  0.00     0.200 A 
ATOM     86  F   UNL A   1      43.548  22.036  24.045  1.00  0.00    -0.200 F 
ATOM     87  F   UNL A   1      42.594  19.859  25.384  1.00  0.00    -0.200 F 
ENDBRANCH  53  77
BRANCH  65  88
ATOM     88  C   UNL A   1      48.572  26.754  29.769  1.00  0.00     0.064 A 
ATOM     89  C   UNL A   1      49.460  27.175  28.770  1.00  0.00     0.173 A 
ATOM     90  C   UNL A   1      49.091  26.020  30.847  1.00  0.00     0.173 A 
ATOM     91  F   UNL A   1      49.008  27.868  27.713  1.00  0.00    -0.203 F 
ATOM     92  C   UNL A   1      50.814  26.863  28.841  1.00  0.00     0.198 A 
ATOM     93  C   UNL A   1      50.450  25.736  30.930  1.00  0.00     0.198 A 
ATOM     94  F   UNL A   1      48.283  25.603  31.833  1.00  0.00    -0.203 F 
ATOM     95  F   UNL A   1      51.640  27.243  27.856  1.00  0.00    -0.200 F 
ATOM     96  C   UNL A   1      51.310  26.152  29.925  1.00  0.00     0.200 A 
ATOM     97  F   UNL A   1      50.930  25.065  31.986  1.00  0.00    -0.200 F 
ATOM     98  F   UNL A   1      52.617  25.867  29.998  1.00  0.00    -0.200 F 
ENDBRANCH  65  88
ENDBRANCH  39  40
ENDBRANCH  32  34
ENDBRANCH  31  32
ENDBRANCH  30  31
ENDBRANCH  29  30
ENDBRANCH  28  29
ENDBRANCH  27  28
ENDBRANCH  26  27
ENDBRANCH   1  26
TORSDOF 22
ENDMDL
