MODEL 1
REMARK VINA RESULT:      -8.7      0.000      0.000
REMARK SMILES CC(C)C[C@H](CNC(=O)[C@H]1CCO[C@@H]1C)C(=O)OCCOCCOCCOCCOC(=O)c1ccc(-c2c3nc(c(-c4c(F)c(F)c(F)c(F)c4F)c4ccc([nH]4)c(-c4c(F)c(F)c(F)c(F)c4F)c4nc(c(-c5c(F)c(F)c(F)c(F)c5F)c5ccc2[nH]5)C=C4)C=C3)cc1
REMARK SMILES IDX 23 1 22 2 21 3 20 4 19 5 18 6 16 7 17 8 5 9 4 10 2 11 1 12
REMARK SMILES IDX 3 13 6 14 7 15 8 16 9 18 10 19 11 20 14 21 12 22 13 23 15 24
REMARK SMILES IDX 24 25 25 26 26 27 27 28 28 29 29 30 30 31 31 32 32 33 33 34
REMARK SMILES IDX 34 35 95 36 35 37 94 38 36 39 37 40 38 41 88 42 39 43 93 44
REMARK SMILES IDX 87 45 89 46 40 47 92 48 86 49 85 50 41 52 73 53 53 54 72 55
REMARK SMILES IDX 54 56 57 57 71 58 90 59 55 60 56 61 70 63 91 64 58 65 42 66
REMARK SMILES IDX 43 67 51 68 44 69 45 70 49 71 52 72 46 73 47 74 50 75 48 76
REMARK SMILES IDX 74 77 75 78 83 79 76 80 77 81 81 82 84 83 78 84 79 85 82 86
REMARK SMILES IDX 80 87 59 88 60 89 68 90 61 91 62 92 66 93 69 94 63 95 64 96
REMARK SMILES IDX 67 97 65 98
REMARK H PARENT 7 17 89 51 57 62
REMARK Flexibility Score: inf
ROOT
ATOM      1  C   UNL A   1      33.947  34.011  29.440  1.00  0.00     0.188 C 
ENDROOT
BRANCH   1   2
ATOM      2  C   UNL A   1      34.142  33.636  27.965  1.00  0.00     0.188 C 
BRANCH   2   3
ATOM      3  O   UNL A   1      34.569  32.346  27.569  1.00  0.00    -0.376 OA
BRANCH   3   4
ATOM      4  C   UNL A   1      33.807  31.171  27.777  1.00  0.00     0.202 C 
BRANCH   4   5
ATOM      5  C   UNL A   1      33.390  30.201  26.659  1.00  0.00     0.261 C 
BRANCH   5   6
ATOM      6  O   UNL A   1      32.007  29.821  26.546  1.00  0.00    -0.463 OA
BRANCH   6   7
ATOM      7  C   UNL A   1      31.763  28.512  26.778  1.00  0.00     0.310 C 
ATOM      8  O   UNL A   1      31.150  28.088  27.754  1.00  0.00    -0.252 OA
BRANCH   7   9
ATOM      9  C   UNL A   1      32.409  27.561  25.797  1.00  0.00     0.118 C 
BRANCH   9  10
ATOM     10  C   UNL A   1      31.827  27.673  24.380  1.00  0.00     0.020 C 
BRANCH  10  11
ATOM     11  C   UNL A   1      30.307  27.886  24.236  1.00  0.00    -0.017 C 
ATOM     12  C   UNL A   1      29.929  28.616  22.939  1.00  0.00     0.007 C 
ATOM     13  C   UNL A   1      29.632  26.512  24.240  1.00  0.00     0.007 C 
ENDBRANCH  10  11
ENDBRANCH   9  10
BRANCH   9  14
ATOM     14  C   UNL A   1      32.734  26.112  26.174  1.00  0.00     0.131 C 
BRANCH  14  15
ATOM     15  N   UNL A   1      31.716  25.297  26.790  1.00  0.00    -0.355 N 
ATOM     16  C   UNL A   1      31.579  23.934  26.676  1.00  0.00     0.225 C 
ATOM     17  H   UNL A   1      31.053  25.764  27.348  1.00  0.00     0.163 HD
ATOM     18  O   UNL A   1      30.731  23.377  27.374  1.00  0.00    -0.275 OA
BRANCH  16  19
ATOM     19  C   UNL A   1      32.416  23.174  25.638  1.00  0.00     0.109 C 
ATOM     20  C   UNL A   1      32.807  21.762  26.043  1.00  0.00     0.044 C 
ATOM     21  C   UNL A   1      31.648  22.922  24.329  1.00  0.00     0.127 C 
ATOM     22  C   UNL A   1      32.998  21.068  24.717  1.00  0.00     0.161 C 
ATOM     23  O   UNL A   1      32.007  21.608  23.850  1.00  0.00    -0.378 OA
ATOM     24  C   UNL A   1      31.994  23.923  23.236  1.00  0.00     0.039 C 
ENDBRANCH  16  19
ENDBRANCH  14  15
ENDBRANCH   9  14
ENDBRANCH   7   9
ENDBRANCH   6   7
ENDBRANCH   5   6
ENDBRANCH   4   5
ENDBRANCH   3   4
ENDBRANCH   2   3
ENDBRANCH   1   2
BRANCH   1  25
ATOM     25  O   UNL A   1      32.861  34.871  29.714  1.00  0.00    -0.377 OA
BRANCH  25  26
ATOM     26  C   UNL A   1      32.847  35.519  30.983  1.00  0.00     0.188 C 
BRANCH  26  27
ATOM     27  C   UNL A   1      34.029  35.279  31.944  1.00  0.00     0.188 C 
BRANCH  27  28
ATOM     28  O   UNL A   1      33.744  34.357  32.986  1.00  0.00    -0.376 OA
BRANCH  28  29
ATOM     29  C   UNL A   1      34.729  34.118  33.981  1.00  0.00     0.202 C 
BRANCH  29  30
ATOM     30  C   UNL A   1      36.177  33.899  33.518  1.00  0.00     0.261 C 
BRANCH  30  31
ATOM     31  O   UNL A   1      36.805  32.671  33.922  1.00  0.00    -0.460 OA
BRANCH  31  32
ATOM     32  C   UNL A   1      36.721  31.604  33.098  1.00  0.00     0.338 C 
ATOM     33  O   UNL A   1      35.774  31.265  32.422  1.00  0.00    -0.246 OA
BRANCH  32  34
ATOM     34  C   UNL A   1      38.078  31.020  32.998  1.00  0.00     0.060 A 
ATOM     35  C   UNL A   1      39.109  31.549  33.787  1.00  0.00     0.016 A 
ATOM     36  C   UNL A   1      38.327  29.955  32.133  1.00  0.00     0.016 A 
ATOM     37  C   UNL A   1      40.401  31.029  33.693  1.00  0.00     0.010 A 
ATOM     38  C   UNL A   1      39.625  29.454  32.018  1.00  0.00     0.010 A 
ATOM     39  C   UNL A   1      40.673  30.008  32.776  1.00  0.00    -0.014 A 
BRANCH  39  40
ATOM     40  C   UNL A   1      42.074  29.640  32.463  1.00  0.00     0.031 A 
ATOM     41  C   UNL A   1      42.784  30.403  31.380  1.00  0.00     0.074 A 
ATOM     42  C   UNL A   1      42.698  28.641  33.112  1.00  0.00     0.049 A 
ATOM     43  N   UNL A   1      43.955  30.188  30.839  1.00  0.00    -0.248 NA
ATOM     44  C   UNL A   1      42.069  31.565  30.826  1.00  0.00     0.031 C 
ATOM     45  C   UNL A   1      42.132  27.862  34.210  1.00  0.00     0.029 A 
ATOM     46  N   UNL A   1      43.943  28.094  32.915  1.00  0.00    -0.354 N 
ATOM     47  C   UNL A   1      44.105  31.170  29.868  1.00  0.00     0.074 A 
ATOM     48  C   UNL A   1      42.905  31.974  29.885  1.00  0.00     0.031 C 
ATOM     49  C   UNL A   1      43.016  26.915  34.572  1.00  0.00     0.029 A 
ATOM     50  C   UNL A   1      44.187  26.993  33.700  1.00  0.00     0.049 A 
ATOM     51  H   UNL A   1      44.597  28.456  32.274  1.00  0.00     0.167 HD
ATOM     52  C   UNL A   1      45.154  31.376  29.038  1.00  0.00     0.037 A 
ATOM     53  C   UNL A   1      45.217  26.124  33.680  1.00  0.00     0.037 A 
ATOM     54  C   UNL A   1      46.349  30.575  29.034  1.00  0.00     0.049 A 
ATOM     55  C   UNL A   1      46.338  26.330  32.688  1.00  0.00     0.074 A 
ATOM     56  C   UNL A   1      47.486  30.731  28.263  1.00  0.00     0.029 A 
ATOM     57  N   UNL A   1      46.551  29.457  29.829  1.00  0.00    -0.354 N 
ATOM     58  N   UNL A   1      46.497  27.283  31.802  1.00  0.00    -0.248 NA
ATOM     59  C   UNL A   1      47.419  25.333  32.690  1.00  0.00     0.031 C 
ATOM     60  C   UNL A   1      48.347  29.665  28.540  1.00  0.00     0.029 A 
ATOM     61  C   UNL A   1      47.778  28.885  29.533  1.00  0.00     0.049 A 
ATOM     62  H   UNL A   1      45.917  29.120  30.502  1.00  0.00     0.167 HD
ATOM     63  C   UNL A   1      47.703  27.018  31.164  1.00  0.00     0.074 A 
ATOM     64  C   UNL A   1      48.244  25.824  31.775  1.00  0.00     0.031 C 
ATOM     65  C   UNL A   1      48.308  27.701  30.160  1.00  0.00     0.037 A 
BRANCH  52  66
ATOM     66  C   UNL A   1      45.044  32.485  28.032  1.00  0.00     0.064 A 
ATOM     67  C   UNL A   1      45.605  33.750  28.255  1.00  0.00     0.173 A 
ATOM     68  C   UNL A   1      44.412  32.255  26.800  1.00  0.00     0.173 A 
ATOM     69  F   UNL A   1      46.209  34.027  29.420  1.00  0.00    -0.203 F 
ATOM     70  C   UNL A   1      45.518  34.751  27.290  1.00  0.00     0.198 A 
ATOM     71  C   UNL A   1      44.355  33.247  25.826  1.00  0.00     0.198 A 
ATOM     72  F   UNL A   1      43.861  31.060  26.535  1.00  0.00    -0.203 F 
ATOM     73  F   UNL A   1      46.024  35.967  27.540  1.00  0.00    -0.200 F 
ATOM     74  C   UNL A   1      44.902  34.496  26.073  1.00  0.00     0.200 A 
ATOM     75  F   UNL A   1      43.772  32.993  24.646  1.00  0.00    -0.200 F 
ATOM     76  F   UNL A   1      44.833  35.456  25.142  1.00  0.00    -0.200 F 
ENDBRANCH  52  66
BRANCH  53  77
ATOM     77  C   UNL A   1      45.225  24.949  34.594  1.00  0.00     0.064 A 
ATOM     78  C   UNL A   1      45.732  25.046  35.897  1.00  0.00     0.173 A 
ATOM     79  C   UNL A   1      44.764  23.694  34.167  1.00  0.00     0.173 A 
ATOM     80  F   UNL A   1      46.213  26.215  36.343  1.00  0.00    -0.203 F 
ATOM     81  C   UNL A   1      45.802  23.929  36.728  1.00  0.00     0.198 A 
ATOM     82  C   UNL A   1      44.801  22.586  35.011  1.00  0.00     0.198 A 
ATOM     83  F   UNL A   1      44.275  23.542  32.927  1.00  0.00    -0.203 F 
ATOM     84  F   UNL A   1      46.348  24.036  37.947  1.00  0.00    -0.200 F 
ATOM     85  C   UNL A   1      45.330  22.701  36.287  1.00  0.00     0.200 A 
ATOM     86  F   UNL A   1      44.335  21.405  34.584  1.00  0.00    -0.200 F 
ATOM     87  F   UNL A   1      45.399  21.628  37.086  1.00  0.00    -0.200 F 
ENDBRANCH  53  77
BRANCH  65  88
ATOM     88  C   UNL A   1      49.640  27.201  29.679  1.00  0.00     0.064 A 
ATOM     89  C   UNL A   1      49.749  26.307  28.605  1.00  0.00     0.173 A 
ATOM     90  C   UNL A   1      50.827  27.682  30.255  1.00  0.00     0.173 A 
ATOM     91  F   UNL A   1      48.646  25.807  28.027  1.00  0.00    -0.203 F 
ATOM     92  C   UNL A   1      50.996  25.897  28.138  1.00  0.00     0.198 A 
ATOM     93  C   UNL A   1      52.072  27.298  29.763  1.00  0.00     0.198 A 
ATOM     94  F   UNL A   1      50.780  28.547  31.279  1.00  0.00    -0.203 F 
ATOM     95  F   UNL A   1      51.075  25.009  27.137  1.00  0.00    -0.200 F 
ATOM     96  C   UNL A   1      52.155  26.401  28.709  1.00  0.00     0.200 A 
ATOM     97  F   UNL A   1      53.189  27.801  30.305  1.00  0.00    -0.200 F 
ATOM     98  F   UNL A   1      53.352  26.020  28.245  1.00  0.00    -0.200 F 
ENDBRANCH  65  88
ENDBRANCH  39  40
ENDBRANCH  32  34
ENDBRANCH  31  32
ENDBRANCH  30  31
ENDBRANCH  29  30
ENDBRANCH  28  29
ENDBRANCH  27  28
ENDBRANCH  26  27
ENDBRANCH  25  26
ENDBRANCH   1  25
TORSDOF 25
ENDMDL
MODEL 2
REMARK VINA RESULT:      -8.5      4.072      8.669
REMARK SMILES CC(C)C[C@H](CNC(=O)[C@H]1CCO[C@@H]1C)C(=O)OCCOCCOCCOCCOC(=O)c1ccc(-c2c3nc(c(-c4c(F)c(F)c(F)c(F)c4F)c4ccc([nH]4)c(-c4c(F)c(F)c(F)c(F)c4F)c4nc(c(-c5c(F)c(F)c(F)c(F)c5F)c5ccc2[nH]5)C=C4)C=C3)cc1
REMARK SMILES IDX 23 1 22 2 21 3 20 4 19 5 18 6 16 7 17 8 5 9 4 10 2 11 1 12
REMARK SMILES IDX 3 13 6 14 7 15 8 16 9 18 10 19 11 20 14 21 12 22 13 23 15 24
REMARK SMILES IDX 24 25 25 26 26 27 27 28 28 29 29 30 30 31 31 32 32 33 33 34
REMARK SMILES IDX 34 35 95 36 35 37 94 38 36 39 37 40 38 41 88 42 39 43 93 44
REMARK SMILES IDX 87 45 89 46 40 47 92 48 86 49 85 50 41 52 73 53 53 54 72 55
REMARK SMILES IDX 54 56 57 57 71 58 90 59 55 60 56 61 70 63 91 64 58 65 42 66
REMARK SMILES IDX 43 67 51 68 44 69 45 70 49 71 52 72 46 73 47 74 50 75 48 76
REMARK SMILES IDX 74 77 75 78 83 79 76 80 77 81 81 82 84 83 78 84 79 85 82 86
REMARK SMILES IDX 80 87 59 88 60 89 68 90 61 91 62 92 66 93 69 94 63 95 64 96
REMARK SMILES IDX 67 97 65 98
REMARK H PARENT 7 17 89 51 57 62
REMARK Flexibility Score: inf
ROOT
ATOM      1  C   UNL A   1      35.536  33.938  34.829  1.00  0.00     0.188 C 
ENDROOT
BRANCH   1   2
ATOM      2  C   UNL A   1      36.956  33.364  34.917  1.00  0.00     0.188 C 
BRANCH   2   3
ATOM      3  O   UNL A   1      37.220  31.983  34.743  1.00  0.00    -0.376 OA
BRANCH   3   4
ATOM      4  C   UNL A   1      38.422  31.481  34.186  1.00  0.00     0.202 C 
BRANCH   4   5
ATOM      5  C   UNL A   1      39.813  32.083  34.446  1.00  0.00     0.261 C 
BRANCH   5   6
ATOM      6  O   UNL A   1      40.873  31.218  34.890  1.00  0.00    -0.463 OA
BRANCH   6   7
ATOM      7  C   UNL A   1      41.519  31.644  36.000  1.00  0.00     0.310 C 
ATOM      8  O   UNL A   1      41.515  32.806  36.396  1.00  0.00    -0.252 OA
BRANCH   7   9
ATOM      9  C   UNL A   1      42.370  30.597  36.681  1.00  0.00     0.118 C 
BRANCH   9  10
ATOM     10  C   UNL A   1      43.583  31.191  37.411  1.00  0.00     0.020 C 
BRANCH  10  11
ATOM     11  C   UNL A   1      44.935  31.215  36.670  1.00  0.00    -0.017 C 
ATOM     12  C   UNL A   1      45.441  32.640  36.402  1.00  0.00     0.007 C 
ATOM     13  C   UNL A   1      45.963  30.483  37.536  1.00  0.00     0.007 C 
ENDBRANCH  10  11
ENDBRANCH   9  10
BRANCH   9  14
ATOM     14  C   UNL A   1      42.700  29.263  36.004  1.00  0.00     0.131 C 
BRANCH  14  15
ATOM     15  N   UNL A   1      41.649  28.523  35.349  1.00  0.00    -0.355 N 
ATOM     16  C   UNL A   1      41.710  27.217  34.924  1.00  0.00     0.225 C 
ATOM     17  H   UNL A   1      40.804  29.001  35.190  1.00  0.00     0.163 HD
ATOM     18  O   UNL A   1      40.678  26.696  34.502  1.00  0.00    -0.275 OA
BRANCH  16  19
ATOM     19  C   UNL A   1      43.062  26.488  34.913  1.00  0.00     0.109 C 
ATOM     20  C   UNL A   1      42.984  24.996  35.196  1.00  0.00     0.044 C 
ATOM     21  C   UNL A   1      43.732  26.508  33.528  1.00  0.00     0.127 C 
ATOM     22  C   UNL A   1      44.214  24.455  34.510  1.00  0.00     0.161 C 
ATOM     23  O   UNL A   1      44.370  25.228  33.326  1.00  0.00    -0.378 OA
ATOM     24  C   UNL A   1      44.803  27.583  33.404  1.00  0.00     0.039 C 
ENDBRANCH  16  19
ENDBRANCH  14  15
ENDBRANCH   9  14
ENDBRANCH   7   9
ENDBRANCH   6   7
ENDBRANCH   5   6
ENDBRANCH   4   5
ENDBRANCH   3   4
ENDBRANCH   2   3
ENDBRANCH   1   2
BRANCH   1  25
ATOM     25  O   UNL A   1      35.222  34.609  33.627  1.00  0.00    -0.377 OA
BRANCH  25  26
ATOM     26  C   UNL A   1      35.094  33.813  32.451  1.00  0.00     0.188 C 
BRANCH  26  27
ATOM     27  C   UNL A   1      35.320  34.485  31.081  1.00  0.00     0.188 C 
BRANCH  27  28
ATOM     28  O   UNL A   1      34.133  34.989  30.487  1.00  0.00    -0.376 OA
BRANCH  28  29
ATOM     29  C   UNL A   1      33.601  34.329  29.347  1.00  0.00     0.202 C 
BRANCH  29  30
ATOM     30  C   UNL A   1      34.480  33.278  28.652  1.00  0.00     0.261 C 
BRANCH  30  31
ATOM     31  O   UNL A   1      34.308  31.914  29.073  1.00  0.00    -0.460 OA
BRANCH  31  32
ATOM     32  C   UNL A   1      34.436  30.935  28.151  1.00  0.00     0.338 C 
ATOM     33  O   UNL A   1      33.693  30.693  27.225  1.00  0.00    -0.246 OA
BRANCH  32  34
ATOM     34  C   UNL A   1      35.770  30.323  28.344  1.00  0.00     0.060 A 
ATOM     35  C   UNL A   1      36.096  29.775  29.591  1.00  0.00     0.016 A 
ATOM     36  C   UNL A   1      36.689  30.290  27.295  1.00  0.00     0.016 A 
ATOM     37  C   UNL A   1      37.356  29.212  29.802  1.00  0.00     0.010 A 
ATOM     38  C   UNL A   1      37.959  29.753  27.515  1.00  0.00     0.010 A 
ATOM     39  C   UNL A   1      38.308  29.238  28.777  1.00  0.00    -0.014 A 
BRANCH  39  40
ATOM     40  C   UNL A   1      39.723  28.906  29.064  1.00  0.00     0.031 A 
ATOM     41  C   UNL A   1      40.577  29.949  29.730  1.00  0.00     0.074 A 
ATOM     42  C   UNL A   1      40.246  27.714  28.727  1.00  0.00     0.049 A 
ATOM     43  N   UNL A   1      41.863  29.947  29.968  1.00  0.00    -0.248 NA
ATOM     44  C   UNL A   1      39.882  31.165  30.186  1.00  0.00     0.031 C 
ATOM     45  C   UNL A   1      39.508  26.608  28.122  1.00  0.00     0.029 A 
ATOM     46  N   UNL A   1      41.535  27.248  28.824  1.00  0.00    -0.354 N 
ATOM     47  C   UNL A   1      42.134  31.166  30.575  1.00  0.00     0.074 A 
ATOM     48  C   UNL A   1      40.885  31.887  30.661  1.00  0.00     0.031 C 
ATOM     49  C   UNL A   1      40.364  25.601  27.872  1.00  0.00     0.029 A 
ATOM     50  C   UNL A   1      41.713  26.010  28.257  1.00  0.00     0.049 A 
ATOM     51  H   UNL A   1      42.260  27.753  29.258  1.00  0.00     0.167 HD
ATOM     52  C   UNL A   1      43.322  31.637  31.018  1.00  0.00     0.037 A 
ATOM     53  C   UNL A   1      42.845  25.313  28.034  1.00  0.00     0.037 A 
ATOM     54  C   UNL A   1      44.560  30.909  30.936  1.00  0.00     0.049 A 
ATOM     55  C   UNL A   1      44.170  25.897  28.465  1.00  0.00     0.074 A 
ATOM     56  C   UNL A   1      45.809  31.280  31.397  1.00  0.00     0.029 A 
ATOM     57  N   UNL A   1      44.705  29.665  30.337  1.00  0.00    -0.354 N 
ATOM     58  N   UNL A   1      44.417  27.030  29.077  1.00  0.00    -0.248 NA
ATOM     59  C   UNL A   1      45.374  25.106  28.168  1.00  0.00     0.031 C 
ATOM     60  C   UNL A   1      46.725  30.295  31.013  1.00  0.00     0.029 A 
ATOM     61  C   UNL A   1      46.034  29.277  30.376  1.00  0.00     0.049 A 
ATOM     62  H   UNL A   1      43.973  29.140  29.942  1.00  0.00     0.167 HD
ATOM     63  C   UNL A   1      45.794  27.075  29.262  1.00  0.00     0.074 A 
ATOM     64  C   UNL A   1      46.328  25.848  28.713  1.00  0.00     0.031 C 
ATOM     65  C   UNL A   1      46.548  28.045  29.834  1.00  0.00     0.037 A 
BRANCH  52  66
ATOM     66  C   UNL A   1      43.356  33.022  31.594  1.00  0.00     0.064 A 
ATOM     67  C   UNL A   1      43.457  33.254  32.973  1.00  0.00     0.173 A 
ATOM     68  C   UNL A   1      43.342  34.137  30.741  1.00  0.00     0.173 A 
ATOM     69  F   UNL A   1      43.461  32.224  33.833  1.00  0.00    -0.203 F 
ATOM     70  C   UNL A   1      43.521  34.550  33.479  1.00  0.00     0.198 A 
ATOM     71  C   UNL A   1      43.439  35.430  31.248  1.00  0.00     0.198 A 
ATOM     72  F   UNL A   1      43.249  33.973  29.413  1.00  0.00    -0.203 F 
ATOM     73  F   UNL A   1      43.574  34.749  34.803  1.00  0.00    -0.200 F 
ATOM     74  C   UNL A   1      43.522  35.636  32.615  1.00  0.00     0.200 A 
ATOM     75  F   UNL A   1      43.454  36.477  30.411  1.00  0.00    -0.200 F 
ATOM     76  F   UNL A   1      43.598  36.881  33.104  1.00  0.00    -0.200 F 
ENDBRANCH  52  66
BRANCH  53  77
ATOM     77  C   UNL A   1      42.792  24.003  27.327  1.00  0.00     0.064 A 
ATOM     78  C   UNL A   1      42.436  22.827  28.002  1.00  0.00     0.173 A 
ATOM     79  C   UNL A   1      43.138  23.895  25.972  1.00  0.00     0.173 A 
ATOM     80  F   UNL A   1      42.126  22.872  29.306  1.00  0.00    -0.203 F 
ATOM     81  C   UNL A   1      42.453  21.592  27.356  1.00  0.00     0.198 A 
ATOM     82  C   UNL A   1      43.120  22.664  25.318  1.00  0.00     0.198 A 
ATOM     83  F   UNL A   1      43.495  24.986  25.278  1.00  0.00    -0.203 F 
ATOM     84  F   UNL A   1      42.168  20.477  28.041  1.00  0.00    -0.200 F 
ATOM     85  C   UNL A   1      42.789  21.513  26.013  1.00  0.00     0.200 A 
ATOM     86  F   UNL A   1      43.435  22.594  24.018  1.00  0.00    -0.200 F 
ATOM     87  F   UNL A   1      42.806  20.325  25.394  1.00  0.00    -0.200 F 
ENDBRANCH  53  77
BRANCH  65  88
ATOM     88  C   UNL A   1      48.030  27.813  29.932  1.00  0.00     0.064 A 
ATOM     89  C   UNL A   1      48.600  27.131  31.017  1.00  0.00     0.173 A 
ATOM     90  C   UNL A   1      48.880  28.214  28.889  1.00  0.00     0.173 A 
ATOM     91  F   UNL A   1      47.835  26.737  32.045  1.00  0.00    -0.203 F 
ATOM     92  C   UNL A   1      49.969  26.877  31.062  1.00  0.00     0.198 A 
ATOM     93  C   UNL A   1      50.242  27.928  28.922  1.00  0.00     0.198 A 
ATOM     94  F   UNL A   1      48.384  28.862  27.823  1.00  0.00    -0.203 F 
ATOM     95  F   UNL A   1      50.498  26.261  32.128  1.00  0.00    -0.200 F 
ATOM     96  C   UNL A   1      50.786  27.266  30.011  1.00  0.00     0.200 A 
ATOM     97  F   UNL A   1      51.025  28.288  27.896  1.00  0.00    -0.200 F 
ATOM     98  F   UNL A   1      52.099  27.003  30.049  1.00  0.00    -0.200 F 
ENDBRANCH  65  88
ENDBRANCH  39  40
ENDBRANCH  32  34
ENDBRANCH  31  32
ENDBRANCH  30  31
ENDBRANCH  29  30
ENDBRANCH  28  29
ENDBRANCH  27  28
ENDBRANCH  26  27
ENDBRANCH  25  26
ENDBRANCH   1  25
TORSDOF 25
ENDMDL
MODEL 3
REMARK VINA RESULT:      -8.5      5.839      9.626
REMARK SMILES CC(C)C[C@H](CNC(=O)[C@H]1CCO[C@@H]1C)C(=O)OCCOCCOCCOCCOC(=O)c1ccc(-c2c3nc(c(-c4c(F)c(F)c(F)c(F)c4F)c4ccc([nH]4)c(-c4c(F)c(F)c(F)c(F)c4F)c4nc(c(-c5c(F)c(F)c(F)c(F)c5F)c5ccc2[nH]5)C=C4)C=C3)cc1
REMARK SMILES IDX 23 1 22 2 21 3 20 4 19 5 18 6 16 7 17 8 5 9 4 10 2 11 1 12
REMARK SMILES IDX 3 13 6 14 7 15 8 16 9 18 10 19 11 20 14 21 12 22 13 23 15 24
REMARK SMILES IDX 24 25 25 26 26 27 27 28 28 29 29 30 30 31 31 32 32 33 33 34
REMARK SMILES IDX 34 35 95 36 35 37 94 38 36 39 37 40 38 41 88 42 39 43 93 44
REMARK SMILES IDX 87 45 89 46 40 47 92 48 86 49 85 50 41 52 73 53 53 54 72 55
REMARK SMILES IDX 54 56 57 57 71 58 90 59 55 60 56 61 70 63 91 64 58 65 42 66
REMARK SMILES IDX 43 67 51 68 44 69 45 70 49 71 52 72 46 73 47 74 50 75 48 76
REMARK SMILES IDX 74 77 75 78 83 79 76 80 77 81 81 82 84 83 78 84 79 85 82 86
REMARK SMILES IDX 80 87 59 88 60 89 68 90 61 91 62 92 66 93 69 94 63 95 64 96
REMARK SMILES IDX 67 97 65 98
REMARK H PARENT 7 17 89 51 57 62
REMARK Flexibility Score: inf
ROOT
ATOM      1  C   UNL A   1      34.731  34.521  28.232  1.00  0.00     0.188 C 
ENDROOT
BRANCH   1   2
ATOM      2  C   UNL A   1      35.384  33.133  28.209  1.00  0.00     0.188 C 
BRANCH   2   3
ATOM      3  O   UNL A   1      34.680  31.966  28.591  1.00  0.00    -0.376 OA
BRANCH   3   4
ATOM      4  C   UNL A   1      34.619  30.794  27.797  1.00  0.00     0.202 C 
BRANCH   4   5
ATOM      5  C   UNL A   1      33.388  30.365  26.982  1.00  0.00     0.261 C 
BRANCH   5   6
ATOM      6  O   UNL A   1      33.448  29.146  26.220  1.00  0.00    -0.463 OA
BRANCH   6   7
ATOM      7  C   UNL A   1      32.575  28.193  26.616  1.00  0.00     0.310 C 
ATOM      8  O   UNL A   1      31.997  28.194  27.699  1.00  0.00    -0.252 OA
BRANCH   7   9
ATOM      9  C   UNL A   1      32.435  27.026  25.665  1.00  0.00     0.118 C 
BRANCH   9  10
ATOM     10  C   UNL A   1      30.973  26.633  25.409  1.00  0.00     0.020 C 
BRANCH  10  11
ATOM     11  C   UNL A   1      30.330  27.061  24.074  1.00  0.00    -0.017 C 
ATOM     12  C   UNL A   1      31.149  26.623  22.852  1.00  0.00     0.007 C 
ATOM     13  C   UNL A   1      28.941  26.423  23.990  1.00  0.00     0.007 C 
ENDBRANCH  10  11
ENDBRANCH   9  10
BRANCH   9  14
ATOM     14  C   UNL A   1      33.355  25.804  25.750  1.00  0.00     0.131 C 
BRANCH  14  15
ATOM     15  N   UNL A   1      34.142  25.430  24.601  1.00  0.00    -0.355 N 
ATOM     16  C   UNL A   1      34.265  24.168  24.069  1.00  0.00     0.225 C 
ATOM     17  H   UNL A   1      34.641  26.151  24.153  1.00  0.00     0.163 HD
ATOM     18  O   UNL A   1      34.873  24.045  23.006  1.00  0.00    -0.275 OA
BRANCH  16  19
ATOM     19  C   UNL A   1      33.721  22.963  24.849  1.00  0.00     0.109 C 
ATOM     20  C   UNL A   1      32.264  22.630  24.574  1.00  0.00     0.044 C 
ATOM     21  C   UNL A   1      34.419  21.646  24.464  1.00  0.00     0.127 C 
ATOM     22  C   UNL A   1      32.185  21.156  24.888  1.00  0.00     0.161 C 
ATOM     23  O   UNL A   1      33.423  20.601  24.457  1.00  0.00    -0.378 OA
ATOM     24  C   UNL A   1      35.507  21.242  25.449  1.00  0.00     0.039 C 
ENDBRANCH  16  19
ENDBRANCH  14  15
ENDBRANCH   9  14
ENDBRANCH   7   9
ENDBRANCH   6   7
ENDBRANCH   5   6
ENDBRANCH   4   5
ENDBRANCH   3   4
ENDBRANCH   2   3
ENDBRANCH   1   2
BRANCH   1  25
ATOM     25  O   UNL A   1      33.507  34.608  28.931  1.00  0.00    -0.377 OA
BRANCH  25  26
ATOM     26  C   UNL A   1      33.005  35.914  29.206  1.00  0.00     0.188 C 
BRANCH  26  27
ATOM     27  C   UNL A   1      32.626  36.264  30.660  1.00  0.00     0.188 C 
BRANCH  27  28
ATOM     28  O   UNL A   1      32.893  37.614  31.013  1.00  0.00    -0.376 OA
BRANCH  28  29
ATOM     29  C   UNL A   1      33.663  37.881  32.176  1.00  0.00     0.202 C 
BRANCH  29  30
ATOM     30  C   UNL A   1      33.887  36.729  33.168  1.00  0.00     0.261 C 
BRANCH  30  31
ATOM     31  O   UNL A   1      35.122  36.004  33.045  1.00  0.00    -0.460 OA
BRANCH  31  32
ATOM     32  C   UNL A   1      35.085  34.654  33.106  1.00  0.00     0.338 C 
ATOM     33  O   UNL A   1      34.266  33.915  32.605  1.00  0.00    -0.246 OA
BRANCH  32  34
ATOM     34  C   UNL A   1      36.353  34.209  33.728  1.00  0.00     0.060 A 
ATOM     35  C   UNL A   1      36.320  33.623  35.000  1.00  0.00     0.016 A 
ATOM     36  C   UNL A   1      37.563  34.369  33.054  1.00  0.00     0.016 A 
ATOM     37  C   UNL A   1      37.506  33.216  35.615  1.00  0.00     0.010 A 
ATOM     38  C   UNL A   1      38.752  33.988  33.681  1.00  0.00     0.010 A 
ATOM     39  C   UNL A   1      38.730  33.437  34.976  1.00  0.00    -0.014 A 
BRANCH  39  40
ATOM     40  C   UNL A   1      40.002  33.273  35.720  1.00  0.00     0.031 A 
ATOM     41  C   UNL A   1      40.712  31.951  35.628  1.00  0.00     0.074 A 
ATOM     42  C   UNL A   1      40.506  34.265  36.474  1.00  0.00     0.049 A 
ATOM     43  N   UNL A   1      41.761  31.521  36.281  1.00  0.00    -0.248 NA
ATOM     44  C   UNL A   1      40.158  30.979  34.671  1.00  0.00     0.031 C 
ATOM     45  C   UNL A   1      39.934  35.602  36.604  1.00  0.00     0.029 A 
ATOM     46  N   UNL A   1      41.606  34.285  37.298  1.00  0.00    -0.354 N 
ATOM     47  C   UNL A   1      41.975  30.224  35.832  1.00  0.00     0.074 A 
ATOM     48  C   UNL A   1      40.945  29.932  34.862  1.00  0.00     0.031 C 
ATOM     49  C   UNL A   1      40.671  36.306  37.482  1.00  0.00     0.029 A 
ATOM     50  C   UNL A   1      41.735  35.453  38.009  1.00  0.00     0.049 A 
ATOM     51  H   UNL A   1      42.239  33.535  37.371  1.00  0.00     0.167 HD
ATOM     52  C   UNL A   1      42.947  29.358  36.202  1.00  0.00     0.037 A 
ATOM     53  C   UNL A   1      42.587  35.774  39.003  1.00  0.00     0.037 A 
ATOM     54  C   UNL A   1      43.973  29.660  37.164  1.00  0.00     0.049 A 
ATOM     55  C   UNL A   1      43.611  34.760  39.454  1.00  0.00     0.074 A 
ATOM     56  C   UNL A   1      45.029  28.868  37.573  1.00  0.00     0.029 A 
ATOM     57  N   UNL A   1      44.060  30.847  37.878  1.00  0.00    -0.354 N 
ATOM     58  N   UNL A   1      43.838  33.551  38.999  1.00  0.00    -0.248 NA
ATOM     59  C   UNL A   1      44.493  35.153  40.564  1.00  0.00     0.031 C 
ATOM     60  C   UNL A   1      45.713  29.544  38.588  1.00  0.00     0.029 A 
ATOM     61  C   UNL A   1      45.127  30.788  38.760  1.00  0.00     0.049 A 
ATOM     62  H   UNL A   1      43.454  31.615  37.773  1.00  0.00     0.167 HD
ATOM     63  C   UNL A   1      44.902  33.053  39.743  1.00  0.00     0.074 A 
ATOM     64  C   UNL A   1      45.286  34.095  40.669  1.00  0.00     0.031 C 
ATOM     65  C   UNL A   1      45.504  31.841  39.668  1.00  0.00     0.037 A 
BRANCH  52  66
ATOM     66  C   UNL A   1      42.926  27.983  35.602  1.00  0.00     0.064 A 
ATOM     67  C   UNL A   1      43.782  27.614  34.555  1.00  0.00     0.173 A 
ATOM     68  C   UNL A   1      42.068  27.002  36.124  1.00  0.00     0.173 A 
ATOM     69  F   UNL A   1      44.612  28.517  34.011  1.00  0.00    -0.203 F 
ATOM     70  C   UNL A   1      43.766  26.321  34.039  1.00  0.00     0.198 A 
ATOM     71  C   UNL A   1      42.077  25.702  35.628  1.00  0.00     0.198 A 
ATOM     72  F   UNL A   1      41.229  27.301  37.129  1.00  0.00    -0.203 F 
ATOM     73  F   UNL A   1      44.562  26.001  33.009  1.00  0.00    -0.200 F 
ATOM     74  C   UNL A   1      42.920  25.364  34.582  1.00  0.00     0.200 A 
ATOM     75  F   UNL A   1      41.270  24.776  36.164  1.00  0.00    -0.200 F 
ATOM     76  F   UNL A   1      42.917  24.116  34.093  1.00  0.00    -0.200 F 
ENDBRANCH  52  66
BRANCH  53  77
ATOM     77  C   UNL A   1      42.487  37.097  39.679  1.00  0.00     0.064 A 
ATOM     78  C   UNL A   1      41.712  37.264  40.835  1.00  0.00     0.173 A 
ATOM     79  C   UNL A   1      43.129  38.230  39.158  1.00  0.00     0.173 A 
ATOM     80  F   UNL A   1      41.052  36.219  41.357  1.00  0.00    -0.203 F 
ATOM     81  C   UNL A   1      41.563  38.517  41.428  1.00  0.00     0.198 A 
ATOM     82  C   UNL A   1      43.010  39.475  39.772  1.00  0.00     0.198 A 
ATOM     83  F   UNL A   1      43.878  38.129  38.049  1.00  0.00    -0.203 F 
ATOM     84  F   UNL A   1      40.767  38.661  42.496  1.00  0.00    -0.200 F 
ATOM     85  C   UNL A   1      42.217  39.620  40.899  1.00  0.00     0.200 A 
ATOM     86  F   UNL A   1      43.652  40.535  39.264  1.00  0.00    -0.200 F 
ATOM     87  F   UNL A   1      42.073  40.824  41.469  1.00  0.00    -0.200 F 
ENDBRANCH  53  77
BRANCH  65  88
ATOM     88  C   UNL A   1      46.667  31.580  40.584  1.00  0.00     0.064 A 
ATOM     89  C   UNL A   1      46.499  30.965  41.833  1.00  0.00     0.173 A 
ATOM     90  C   UNL A   1      47.974  31.885  40.172  1.00  0.00     0.173 A 
ATOM     91  F   UNL A   1      45.270  30.665  42.279  1.00  0.00    -0.203 F 
ATOM     92  C   UNL A   1      47.596  30.683  42.644  1.00  0.00     0.198 A 
ATOM     93  C   UNL A   1      49.070  31.569  40.971  1.00  0.00     0.198 A 
ATOM     94  F   UNL A   1      48.191  32.465  38.982  1.00  0.00    -0.203 F 
ATOM     95  F   UNL A   1      47.408  30.132  43.851  1.00  0.00    -0.200 F 
ATOM     96  C   UNL A   1      48.880  30.974  42.208  1.00  0.00     0.200 A 
ATOM     97  F   UNL A   1      50.310  31.835  40.538  1.00  0.00    -0.200 F 
ATOM     98  F   UNL A   1      49.934  30.684  42.982  1.00  0.00    -0.200 F 
ENDBRANCH  65  88
ENDBRANCH  39  40
ENDBRANCH  32  34
ENDBRANCH  31  32
ENDBRANCH  30  31
ENDBRANCH  29  30
ENDBRANCH  28  29
ENDBRANCH  27  28
ENDBRANCH  26  27
ENDBRANCH  25  26
ENDBRANCH   1  25
TORSDOF 25
ENDMDL
