MODEL 1
REMARK VINA RESULT:     -10.0      0.000      0.000
REMARK SMILES C[C@@H](C(=O)OCCOCCOCCOCCOC(=O)c1ccc(-c2c3nc(c(-c4c(F)c(F)c(F)c(F)c4F)c4ccc([nH]4)c(-c4c(F)c(F)c(F)c(F)c4F)c4nc(c(-c5c(F)c(F)c(F)c(F)c5F)c5ccc2[nH]5)C=C4)C=C3)cc1)c1ccc(-c2cccc(OC(=O)NCCC3CCCCC3)c2)c(F)c1
REMARK SMILES IDX 9 1 8 2 7 3 6 4 5 5 3 6 4 7 2 8 1 9 83 10 84 11 107 12 85 13
REMARK SMILES IDX 105 14 86 15 106 16 87 17 88 18 104 19 89 20 91 21 90 22
REMARK SMILES IDX 92 23 93 24 94 25 95 26 96 28 97 29 98 30 99 31 103 32
REMARK SMILES IDX 100 33 102 34 101 35 10 36 11 37 12 38 13 39 14 40 15 41
REMARK SMILES IDX 16 42 17 43 18 44 19 45 20 46 21 47 82 48 22 49 81 50 23 51
REMARK SMILES IDX 24 52 25 53 75 54 26 55 80 56 74 57 76 58 27 59 79 60 73 61
REMARK SMILES IDX 72 62 28 64 60 65 40 66 59 67 41 68 44 69 58 70 77 71 42 72
REMARK SMILES IDX 43 73 57 75 78 76 45 77 29 78 30 79 38 80 31 81 32 82 36 83
REMARK SMILES IDX 39 84 33 85 34 86 37 87 35 88 61 89 62 90 70 91 63 92 64 93
REMARK SMILES IDX 68 94 71 95 65 96 66 97 69 98 67 99 46 100 47 101 55 102
REMARK SMILES IDX 48 103 49 104 53 105 56 106 50 107 51 108 54 109 52 110
REMARK H PARENT 95 27 76 63 44 74
REMARK Flexibility Score: inf
ROOT
ATOM      1  C   UNL A   1      38.785  28.168  29.295  1.00  0.00     0.188 C 
ENDROOT
BRANCH   1   2
ATOM      2  O   UNL A   1      37.621  28.927  29.038  1.00  0.00    -0.376 OA
BRANCH   2   3
ATOM      3  C   UNL A   1      36.835  29.445  30.098  1.00  0.00     0.202 C 
BRANCH   3   4
ATOM      4  C   UNL A   1      36.699  30.935  30.485  1.00  0.00     0.261 C 
BRANCH   4   5
ATOM      5  O   UNL A   1      36.229  31.828  29.473  1.00  0.00    -0.463 OA
BRANCH   5   6
ATOM      6  C   UNL A   1      34.923  32.186  29.492  1.00  0.00     0.313 C 
ATOM      7  O   UNL A   1      34.269  32.340  30.517  1.00  0.00    -0.252 OA
BRANCH   6   8
ATOM      8  C   UNL A   1      34.365  32.472  28.088  1.00  0.00     0.126 C 
ATOM      9  C   UNL A   1      33.654  33.836  28.008  1.00  0.00     0.025 C 
BRANCH   8  10
ATOM     10  C   UNL A   1      33.631  31.278  27.459  1.00  0.00    -0.031 A 
ATOM     11  C   UNL A   1      32.282  31.323  27.067  1.00  0.00     0.005 A 
ATOM     12  C   UNL A   1      34.336  30.098  27.165  1.00  0.00     0.044 A 
ATOM     13  C   UNL A   1      31.671  30.235  26.411  1.00  0.00     0.012 A 
ATOM     14  C   UNL A   1      33.723  29.021  26.523  1.00  0.00     0.131 A 
ATOM     15  C   UNL A   1      32.386  29.065  26.116  1.00  0.00     0.018 A 
ATOM     16  F   UNL A   1      34.469  27.933  26.277  1.00  0.00    -0.206 F 
BRANCH  15  17
ATOM     17  C   UNL A   1      31.776  27.931  25.400  1.00  0.00    -0.012 A 
ATOM     18  C   UNL A   1      30.988  28.128  24.255  1.00  0.00     0.009 A 
ATOM     19  C   UNL A   1      32.009  26.611  25.826  1.00  0.00     0.056 A 
ATOM     20  C   UNL A   1      30.462  27.041  23.548  1.00  0.00     0.004 A 
ATOM     21  C   UNL A   1      31.466  25.527  25.135  1.00  0.00     0.133 A 
ATOM     22  C   UNL A   1      30.702  25.738  23.988  1.00  0.00     0.047 A 
BRANCH  21  23
ATOM     23  O   UNL A   1      31.640  24.168  25.509  1.00  0.00    -0.410 OA
BRANCH  23  24
ATOM     24  C   UNL A   1      31.119  23.588  26.662  1.00  0.00     0.412 C 
ATOM     25  O   UNL A   1      30.132  23.965  27.288  1.00  0.00    -0.224 OA
ATOM     26  N   UNL A   1      31.788  22.478  27.083  1.00  0.00    -0.321 N 
ATOM     27  H   UNL A   1      31.429  22.042  27.889  1.00  0.00     0.167 HD
BRANCH  26  28
ATOM     28  C   UNL A   1      32.958  21.855  26.501  1.00  0.00     0.119 C 
BRANCH  28  29
ATOM     29  C   UNL A   1      34.239  22.282  27.223  1.00  0.00     0.025 C 
BRANCH  29  30
ATOM     30  C   UNL A   1      35.468  22.464  26.305  1.00  0.00    -0.009 C 
ATOM     31  C   UNL A   1      35.855  21.160  25.587  1.00  0.00     0.003 C 
ATOM     32  C   UNL A   1      35.197  23.583  25.284  1.00  0.00     0.003 C 
ATOM     33  C   UNL A   1      37.015  21.362  24.612  1.00  0.00     0.000 C 
ATOM     34  C   UNL A   1      36.374  23.779  24.332  1.00  0.00     0.000 C 
ATOM     35  C   UNL A   1      36.732  22.481  23.617  1.00  0.00     0.000 C 
ENDBRANCH  29  30
ENDBRANCH  28  29
ENDBRANCH  26  28
ENDBRANCH  23  24
ENDBRANCH  21  23
ENDBRANCH  15  17
ENDBRANCH   8  10
ENDBRANCH   6   8
ENDBRANCH   5   6
ENDBRANCH   4   5
ENDBRANCH   3   4
ENDBRANCH   2   3
ENDBRANCH   1   2
BRANCH   1  36
ATOM     36  C   UNL A   1      39.288  27.310  28.124  1.00  0.00     0.188 C 
BRANCH  36  37
ATOM     37  O   UNL A   1      40.226  26.301  28.458  1.00  0.00    -0.377 OA
BRANCH  37  38
ATOM     38  C   UNL A   1      39.879  24.937  28.244  1.00  0.00     0.188 C 
BRANCH  38  39
ATOM     39  C   UNL A   1      38.889  24.510  27.137  1.00  0.00     0.188 C 
BRANCH  39  40
ATOM     40  O   UNL A   1      39.036  23.176  26.680  1.00  0.00    -0.376 OA
BRANCH  40  41
ATOM     41  C   UNL A   1      40.145  22.418  27.133  1.00  0.00     0.202 C 
BRANCH  41  42
ATOM     42  C   UNL A   1      41.235  22.077  26.105  1.00  0.00     0.261 C 
BRANCH  42  43
ATOM     43  O   UNL A   1      42.156  23.132  25.784  1.00  0.00    -0.460 OA
BRANCH  43  44
ATOM     44  C   UNL A   1      43.423  23.022  26.237  1.00  0.00     0.338 C 
ATOM     45  O   UNL A   1      44.069  22.003  26.384  1.00  0.00    -0.246 OA
BRANCH  44  46
ATOM     46  C   UNL A   1      43.978  24.387  26.353  1.00  0.00     0.060 A 
ATOM     47  C   UNL A   1      44.079  25.178  25.201  1.00  0.00     0.016 A 
ATOM     48  C   UNL A   1      44.398  24.881  27.589  1.00  0.00     0.016 A 
ATOM     49  C   UNL A   1      44.639  26.453  25.276  1.00  0.00     0.010 A 
ATOM     50  C   UNL A   1      44.980  26.150  27.660  1.00  0.00     0.010 A 
ATOM     51  C   UNL A   1      45.137  26.926  26.497  1.00  0.00    -0.014 A 
BRANCH  51  52
ATOM     52  C   UNL A   1      46.005  28.129  26.521  1.00  0.00     0.031 A 
ATOM     53  C   UNL A   1      47.483  27.946  26.305  1.00  0.00     0.074 A 
ATOM     54  C   UNL A   1      45.498  29.360  26.705  1.00  0.00     0.049 A 
ATOM     55  N   UNL A   1      48.448  28.828  26.342  1.00  0.00    -0.248 NA
ATOM     56  C   UNL A   1      47.930  26.574  26.011  1.00  0.00     0.031 C 
ATOM     57  C   UNL A   1      44.082  29.674  26.877  1.00  0.00     0.029 A 
ATOM     58  N   UNL A   1      46.128  30.578  26.788  1.00  0.00    -0.354 N 
ATOM     59  C   UNL A   1      49.614  28.118  26.083  1.00  0.00     0.074 A 
ATOM     60  C   UNL A   1      49.242  26.729  25.928  1.00  0.00     0.031 C 
ATOM     61  C   UNL A   1      43.951  30.999  27.063  1.00  0.00     0.029 A 
ATOM     62  C   UNL A   1      45.275  31.619  27.060  1.00  0.00     0.049 A 
ATOM     63  H   UNL A   1      47.097  30.693  26.665  1.00  0.00     0.167 HD
ATOM     64  C   UNL A   1      50.881  28.585  25.973  1.00  0.00     0.037 A 
ATOM     65  C   UNL A   1      45.542  32.918  27.306  1.00  0.00     0.037 A 
ATOM     66  C   UNL A   1      51.248  29.968  26.135  1.00  0.00     0.049 A 
ATOM     67  C   UNL A   1      46.971  33.401  27.266  1.00  0.00     0.074 A 
ATOM     68  C   UNL A   1      52.502  30.544  26.037  1.00  0.00     0.029 A 
ATOM     69  N   UNL A   1      50.361  30.989  26.442  1.00  0.00    -0.354 N 
ATOM     70  N   UNL A   1      48.068  32.731  27.001  1.00  0.00    -0.248 NA
ATOM     71  C   UNL A   1      47.199  34.825  27.554  1.00  0.00     0.031 C 
ATOM     72  C   UNL A   1      52.383  31.903  26.347  1.00  0.00     0.029 A 
ATOM     73  C   UNL A   1      51.046  32.188  26.567  1.00  0.00     0.049 A 
ATOM     74  H   UNL A   1      49.389  30.879  26.555  1.00  0.00     0.167 HD
ATOM     75  C   UNL A   1      49.105  33.654  27.059  1.00  0.00     0.074 A 
ATOM     76  C   UNL A   1      48.506  34.935  27.369  1.00  0.00     0.031 C 
ATOM     77  C   UNL A   1      50.435  33.459  26.868  1.00  0.00     0.037 A 
BRANCH  64  78
ATOM     78  C   UNL A   1      51.966  27.585  25.695  1.00  0.00     0.064 A 
ATOM     79  C   UNL A   1      52.352  27.253  24.388  1.00  0.00     0.173 A 
ATOM     80  C   UNL A   1      52.645  26.963  26.755  1.00  0.00     0.173 A 
ATOM     81  F   UNL A   1      51.725  27.806  23.337  1.00  0.00    -0.203 F 
ATOM     82  C   UNL A   1      53.353  26.314  24.151  1.00  0.00     0.198 A 
ATOM     83  C   UNL A   1      53.669  26.052  26.515  1.00  0.00     0.198 A 
ATOM     84  F   UNL A   1      52.319  27.245  28.025  1.00  0.00    -0.203 F 
ATOM     85  F   UNL A   1      53.664  25.972  22.893  1.00  0.00    -0.200 F 
ATOM     86  C   UNL A   1      54.016  25.720  25.215  1.00  0.00     0.200 A 
ATOM     87  F   UNL A   1      54.320  25.491  27.545  1.00  0.00    -0.200 F 
ATOM     88  F   UNL A   1      54.984  24.823  24.986  1.00  0.00    -0.200 F 
ENDBRANCH  64  78
BRANCH  65  89
ATOM     89  C   UNL A   1      44.435  33.855  27.638  1.00  0.00     0.064 A 
ATOM     90  C   UNL A   1      43.873  33.891  28.922  1.00  0.00     0.173 A 
ATOM     91  C   UNL A   1      43.898  34.717  26.670  1.00  0.00     0.173 A 
ATOM     92  F   UNL A   1      44.331  33.066  29.877  1.00  0.00    -0.203 F 
ATOM     93  C   UNL A   1      42.805  34.737  29.219  1.00  0.00     0.198 A 
ATOM     94  C   UNL A   1      42.853  35.587  26.977  1.00  0.00     0.198 A 
ATOM     95  F   UNL A   1      44.394  34.721  25.424  1.00  0.00    -0.203 F 
ATOM     96  F   UNL A   1      42.252  34.710  30.440  1.00  0.00    -0.200 F 
ATOM     97  C   UNL A   1      42.301  35.588  28.248  1.00  0.00     0.200 A 
ATOM     98  F   UNL A   1      42.378  36.417  26.038  1.00  0.00    -0.200 F 
ATOM     99  F   UNL A   1      41.277  36.404  28.535  1.00  0.00    -0.200 F 
ENDBRANCH  65  89
BRANCH  77 100
ATOM    100  C   UNL A   1      51.332  34.663  26.943  1.00  0.00     0.064 A 
ATOM    101  C   UNL A   1      52.026  35.001  28.115  1.00  0.00     0.173 A 
ATOM    102  C   UNL A   1      51.536  35.464  25.808  1.00  0.00     0.173 A 
ATOM    103  F   UNL A   1      51.860  34.276  29.231  1.00  0.00    -0.203 F 
ATOM    104  C   UNL A   1      52.864  36.112  28.155  1.00  0.00     0.198 A 
ATOM    105  C   UNL A   1      52.403  36.552  25.842  1.00  0.00     0.198 A 
ATOM    106  F   UNL A   1      50.906  35.182  24.658  1.00  0.00    -0.203 F 
ATOM    107  F   UNL A   1      53.475  36.447  29.301  1.00  0.00    -0.200 F 
ATOM    108  C   UNL A   1      53.059  36.881  27.018  1.00  0.00     0.200 A 
ATOM    109  F   UNL A   1      52.605  37.283  24.736  1.00  0.00    -0.200 F 
ATOM    110  F   UNL A   1      53.875  37.945  27.056  1.00  0.00    -0.200 F 
ENDBRANCH  77 100
ENDBRANCH  51  52
ENDBRANCH  44  46
ENDBRANCH  43  44
ENDBRANCH  42  43
ENDBRANCH  41  42
ENDBRANCH  40  41
ENDBRANCH  39  40
ENDBRANCH  38  39
ENDBRANCH  37  38
ENDBRANCH  36  37
ENDBRANCH   1  36
TORSDOF 27
ENDMDL
MODEL 2
REMARK VINA RESULT:     -10.0      4.570      8.880
REMARK SMILES C[C@@H](C(=O)OCCOCCOCCOCCOC(=O)c1ccc(-c2c3nc(c(-c4c(F)c(F)c(F)c(F)c4F)c4ccc([nH]4)c(-c4c(F)c(F)c(F)c(F)c4F)c4nc(c(-c5c(F)c(F)c(F)c(F)c5F)c5ccc2[nH]5)C=C4)C=C3)cc1)c1ccc(-c2cccc(OC(=O)NCCC3CCCCC3)c2)c(F)c1
REMARK SMILES IDX 9 1 8 2 7 3 6 4 5 5 3 6 4 7 2 8 1 9 83 10 84 11 107 12 85 13
REMARK SMILES IDX 105 14 86 15 106 16 87 17 88 18 104 19 89 20 91 21 90 22
REMARK SMILES IDX 92 23 93 24 94 25 95 26 96 28 97 29 98 30 99 31 103 32
REMARK SMILES IDX 100 33 102 34 101 35 10 36 11 37 12 38 13 39 14 40 15 41
REMARK SMILES IDX 16 42 17 43 18 44 19 45 20 46 21 47 82 48 22 49 81 50 23 51
REMARK SMILES IDX 24 52 25 53 75 54 26 55 80 56 74 57 76 58 27 59 79 60 73 61
REMARK SMILES IDX 72 62 28 64 60 65 40 66 59 67 41 68 44 69 58 70 77 71 42 72
REMARK SMILES IDX 43 73 57 75 78 76 45 77 29 78 30 79 38 80 31 81 32 82 36 83
REMARK SMILES IDX 39 84 33 85 34 86 37 87 35 88 61 89 62 90 70 91 63 92 64 93
REMARK SMILES IDX 68 94 71 95 65 96 66 97 69 98 67 99 46 100 47 101 55 102
REMARK SMILES IDX 48 103 49 104 53 105 56 106 50 107 51 108 54 109 52 110
REMARK H PARENT 95 27 76 63 44 74
REMARK Flexibility Score: inf
ROOT
ATOM      1  C   UNL A   1      37.566  23.735  25.671  1.00  0.00     0.188 C 
ENDROOT
BRANCH   1   2
ATOM      2  O   UNL A   1      36.258  23.545  26.169  1.00  0.00    -0.376 OA
BRANCH   2   3
ATOM      3  C   UNL A   1      35.265  22.895  25.394  1.00  0.00     0.202 C 
BRANCH   3   4
ATOM      4  C   UNL A   1      33.919  22.344  25.916  1.00  0.00     0.261 C 
BRANCH   4   5
ATOM      5  O   UNL A   1      32.817  23.253  25.958  1.00  0.00    -0.463 OA
BRANCH   5   6
ATOM      6  C   UNL A   1      32.156  23.509  24.804  1.00  0.00     0.313 C 
ATOM      7  O   UNL A   1      32.118  22.741  23.850  1.00  0.00    -0.252 OA
BRANCH   6   8
ATOM      8  C   UNL A   1      31.377  24.834  24.848  1.00  0.00     0.126 C 
ATOM      9  C   UNL A   1      30.701  25.159  23.503  1.00  0.00     0.025 C 
BRANCH   8  10
ATOM     10  C   UNL A   1      32.142  25.980  25.526  1.00  0.00    -0.031 A 
ATOM     11  C   UNL A   1      33.435  26.376  25.142  1.00  0.00     0.005 A 
ATOM     12  C   UNL A   1      31.515  26.748  26.523  1.00  0.00     0.044 A 
ATOM     13  C   UNL A   1      34.066  27.491  25.730  1.00  0.00     0.012 A 
ATOM     14  C   UNL A   1      32.149  27.846  27.107  1.00  0.00     0.131 A 
ATOM     15  C   UNL A   1      33.428  28.255  26.718  1.00  0.00     0.018 A 
ATOM     16  F   UNL A   1      31.478  28.528  28.048  1.00  0.00    -0.206 F 
BRANCH  15  17
ATOM     17  C   UNL A   1      34.057  29.444  27.320  1.00  0.00    -0.012 A 
ATOM     18  C   UNL A   1      33.500  30.724  27.163  1.00  0.00     0.009 A 
ATOM     19  C   UNL A   1      35.214  29.315  28.109  1.00  0.00     0.056 A 
ATOM     20  C   UNL A   1      34.073  31.837  27.788  1.00  0.00     0.004 A 
ATOM     21  C   UNL A   1      35.799  30.428  28.714  1.00  0.00     0.133 A 
ATOM     22  C   UNL A   1      35.223  31.690  28.565  1.00  0.00     0.047 A 
BRANCH  21  23
ATOM     23  O   UNL A   1      36.974  30.386  29.510  1.00  0.00    -0.410 OA
BRANCH  23  24
ATOM     24  C   UNL A   1      36.997  30.467  30.899  1.00  0.00     0.412 C 
ATOM     25  O   UNL A   1      36.034  30.357  31.654  1.00  0.00    -0.224 OA
ATOM     26  N   UNL A   1      38.237  30.664  31.429  1.00  0.00    -0.321 N 
ATOM     27  H   UNL A   1      38.279  30.711  32.412  1.00  0.00     0.167 HD
BRANCH  26  28
ATOM     28  C   UNL A   1      39.500  30.811  30.739  1.00  0.00     0.119 C 
BRANCH  28  29
ATOM     29  C   UNL A   1      40.471  29.684  31.098  1.00  0.00     0.025 C 
BRANCH  29  30
ATOM     30  C   UNL A   1      40.568  28.555  30.047  1.00  0.00    -0.009 C 
ATOM     31  C   UNL A   1      39.416  27.544  30.173  1.00  0.00     0.003 C 
ATOM     32  C   UNL A   1      40.605  29.159  28.633  1.00  0.00     0.003 C 
ATOM     33  C   UNL A   1      39.464  26.478  29.078  1.00  0.00     0.000 C 
ATOM     34  C   UNL A   1      40.669  28.079  27.556  1.00  0.00     0.000 C 
ATOM     35  C   UNL A   1      39.511  27.096  27.685  1.00  0.00     0.000 C 
ENDBRANCH  29  30
ENDBRANCH  28  29
ENDBRANCH  26  28
ENDBRANCH  23  24
ENDBRANCH  21  23
ENDBRANCH  15  17
ENDBRANCH   8  10
ENDBRANCH   6   8
ENDBRANCH   5   6
ENDBRANCH   4   5
ENDBRANCH   3   4
ENDBRANCH   2   3
ENDBRANCH   1   2
BRANCH   1  36
ATOM     36  C   UNL A   1      38.688  23.066  26.481  1.00  0.00     0.188 C 
BRANCH  36  37
ATOM     37  O   UNL A   1      39.208  21.864  25.937  1.00  0.00    -0.377 OA
BRANCH  37  38
ATOM     38  C   UNL A   1      40.514  21.443  26.318  1.00  0.00     0.188 C 
BRANCH  38  39
ATOM     39  C   UNL A   1      41.733  22.390  26.242  1.00  0.00     0.188 C 
BRANCH  39  40
ATOM     40  O   UNL A   1      42.796  21.938  25.421  1.00  0.00    -0.376 OA
BRANCH  40  41
ATOM     41  C   UNL A   1      43.427  22.862  24.550  1.00  0.00     0.202 C 
BRANCH  41  42
ATOM     42  C   UNL A   1      44.625  23.649  25.103  1.00  0.00     0.261 C 
BRANCH  42  43
ATOM     43  O   UNL A   1      44.714  25.028  24.710  1.00  0.00    -0.460 OA
BRANCH  43  44
ATOM     44  C   UNL A   1      45.876  25.675  24.944  1.00  0.00     0.338 C 
ATOM     45  O   UNL A   1      46.956  25.464  24.429  1.00  0.00    -0.246 OA
BRANCH  44  46
ATOM     46  C   UNL A   1      45.575  26.835  25.810  1.00  0.00     0.060 A 
ATOM     47  C   UNL A   1      46.612  27.410  26.557  1.00  0.00     0.016 A 
ATOM     48  C   UNL A   1      44.280  27.349  25.886  1.00  0.00     0.016 A 
ATOM     49  C   UNL A   1      46.347  28.477  27.415  1.00  0.00     0.010 A 
ATOM     50  C   UNL A   1      44.010  28.404  26.763  1.00  0.00     0.010 A 
ATOM     51  C   UNL A   1      45.035  28.947  27.558  1.00  0.00    -0.014 A 
BRANCH  51  52
ATOM     52  C   UNL A   1      44.697  29.854  28.684  1.00  0.00     0.031 A 
ATOM     53  C   UNL A   1      44.382  29.242  30.021  1.00  0.00     0.074 A 
ATOM     54  C   UNL A   1      44.693  31.190  28.535  1.00  0.00     0.049 A 
ATOM     55  N   UNL A   1      44.001  29.815  31.133  1.00  0.00    -0.248 NA
ATOM     56  C   UNL A   1      44.512  27.778  30.112  1.00  0.00     0.031 C 
ATOM     57  C   UNL A   1      45.027  31.905  27.307  1.00  0.00     0.029 A 
ATOM     58  N   UNL A   1      44.384  32.183  29.432  1.00  0.00    -0.354 N 
ATOM     59  C   UNL A   1      43.840  28.785  32.050  1.00  0.00     0.074 A 
ATOM     60  C   UNL A   1      44.128  27.548  31.357  1.00  0.00     0.031 C 
ATOM     61  C   UNL A   1      44.888  33.225  27.521  1.00  0.00     0.029 A 
ATOM     62  C   UNL A   1      44.420  33.443  28.889  1.00  0.00     0.049 A 
ATOM     63  H   UNL A   1      44.158  32.007  30.374  1.00  0.00     0.167 HD
ATOM     64  C   UNL A   1      43.494  28.863  33.358  1.00  0.00     0.037 A 
ATOM     65  C   UNL A   1      44.085  34.631  29.431  1.00  0.00     0.037 A 
ATOM     66  C   UNL A   1      43.202  30.095  34.043  1.00  0.00     0.049 A 
ATOM     67  C   UNL A   1      43.617  34.687  30.865  1.00  0.00     0.074 A 
ATOM     68  C   UNL A   1      42.848  30.282  35.367  1.00  0.00     0.029 A 
ATOM     69  N   UNL A   1      43.218  31.349  33.451  1.00  0.00    -0.354 N 
ATOM     70  N   UNL A   1      43.485  33.712  31.734  1.00  0.00    -0.248 NA
ATOM     71  C   UNL A   1      43.255  36.009  31.395  1.00  0.00     0.031 C 
ATOM     72  C   UNL A   1      42.589  31.643  35.561  1.00  0.00     0.029 A 
ATOM     73  C   UNL A   1      42.850  32.313  34.378  1.00  0.00     0.049 A 
ATOM     74  H   UNL A   1      43.454  31.529  32.512  1.00  0.00     0.167 HD
ATOM     75  C   UNL A   1      43.059  34.306  32.915  1.00  0.00     0.074 A 
ATOM     76  C   UNL A   1      42.968  35.728  32.657  1.00  0.00     0.031 C 
ATOM     77  C   UNL A   1      42.773  33.727  34.109  1.00  0.00     0.037 A 
BRANCH  64  78
ATOM     78  C   UNL A   1      43.382  27.575  34.123  1.00  0.00     0.064 A 
ATOM     79  C   UNL A   1      44.513  26.889  34.590  1.00  0.00     0.173 A 
ATOM     80  C   UNL A   1      42.121  27.029  34.410  1.00  0.00     0.173 A 
ATOM     81  F   UNL A   1      45.743  27.358  34.330  1.00  0.00    -0.203 F 
ATOM     82  C   UNL A   1      44.387  25.690  35.288  1.00  0.00     0.198 A 
ATOM     83  C   UNL A   1      41.998  25.850  35.138  1.00  0.00     0.198 A 
ATOM     84  F   UNL A   1      41.005  27.645  33.989  1.00  0.00    -0.203 F 
ATOM     85  F   UNL A   1      45.484  25.024  35.674  1.00  0.00    -0.200 F 
ATOM     86  C   UNL A   1      43.130  25.176  35.569  1.00  0.00     0.200 A 
ATOM     87  F   UNL A   1      40.781  25.362  35.422  1.00  0.00    -0.200 F 
ATOM     88  F   UNL A   1      43.011  24.026  36.246  1.00  0.00    -0.200 F 
ENDBRANCH  64  78
BRANCH  65  89
ATOM     89  C   UNL A   1      44.155  35.870  28.609  1.00  0.00     0.064 A 
ATOM     90  C   UNL A   1      43.026  36.363  27.940  1.00  0.00     0.173 A 
ATOM     91  C   UNL A   1      45.360  36.573  28.456  1.00  0.00     0.173 A 
ATOM     92  F   UNL A   1      41.856  35.713  28.030  1.00  0.00    -0.203 F 
ATOM     93  C   UNL A   1      43.105  37.498  27.133  1.00  0.00     0.198 A 
ATOM     94  C   UNL A   1      45.430  37.727  27.677  1.00  0.00     0.198 A 
ATOM     95  F   UNL A   1      46.472  36.143  29.070  1.00  0.00    -0.203 F 
ATOM     96  F   UNL A   1      42.023  37.916  26.461  1.00  0.00    -0.200 F 
ATOM     97  C   UNL A   1      44.304  38.182  27.008  1.00  0.00     0.200 A 
ATOM     98  F   UNL A   1      46.588  38.391  27.569  1.00  0.00    -0.200 F 
ATOM     99  F   UNL A   1      44.378  39.275  26.236  1.00  0.00    -0.200 F 
ENDBRANCH  65  89
BRANCH  77 100
ATOM    100  C   UNL A   1      42.377  34.632  35.244  1.00  0.00     0.064 A 
ATOM    101  C   UNL A   1      43.324  35.186  36.118  1.00  0.00     0.173 A 
ATOM    102  C   UNL A   1      41.031  34.986  35.428  1.00  0.00     0.173 A 
ATOM    103  F   UNL A   1      44.622  34.873  35.994  1.00  0.00    -0.203 F 
ATOM    104  C   UNL A   1      42.935  36.034  37.152  1.00  0.00     0.198 A 
ATOM    105  C   UNL A   1      40.650  35.864  36.439  1.00  0.00     0.198 A 
ATOM    106  F   UNL A   1      40.084  34.495  34.614  1.00  0.00    -0.203 F 
ATOM    107  F   UNL A   1      43.851  36.508  38.008  1.00  0.00    -0.200 F 
ATOM    108  C   UNL A   1      41.601  36.379  37.306  1.00  0.00     0.200 A 
ATOM    109  F   UNL A   1      39.362  36.211  36.574  1.00  0.00    -0.200 F 
ATOM    110  F   UNL A   1      41.229  37.205  38.295  1.00  0.00    -0.200 F 
ENDBRANCH  77 100
ENDBRANCH  51  52
ENDBRANCH  44  46
ENDBRANCH  43  44
ENDBRANCH  42  43
ENDBRANCH  41  42
ENDBRANCH  40  41
ENDBRANCH  39  40
ENDBRANCH  38  39
ENDBRANCH  37  38
ENDBRANCH  36  37
ENDBRANCH   1  36
TORSDOF 27
ENDMDL
MODEL 3
REMARK VINA RESULT:      -9.7      1.434      6.904
REMARK SMILES C[C@@H](C(=O)OCCOCCOCCOCCOC(=O)c1ccc(-c2c3nc(c(-c4c(F)c(F)c(F)c(F)c4F)c4ccc([nH]4)c(-c4c(F)c(F)c(F)c(F)c4F)c4nc(c(-c5c(F)c(F)c(F)c(F)c5F)c5ccc2[nH]5)C=C4)C=C3)cc1)c1ccc(-c2cccc(OC(=O)NCCC3CCCCC3)c2)c(F)c1
REMARK SMILES IDX 9 1 8 2 7 3 6 4 5 5 3 6 4 7 2 8 1 9 83 10 84 11 107 12 85 13
REMARK SMILES IDX 105 14 86 15 106 16 87 17 88 18 104 19 89 20 91 21 90 22
REMARK SMILES IDX 92 23 93 24 94 25 95 26 96 28 97 29 98 30 99 31 103 32
REMARK SMILES IDX 100 33 102 34 101 35 10 36 11 37 12 38 13 39 14 40 15 41
REMARK SMILES IDX 16 42 17 43 18 44 19 45 20 46 21 47 82 48 22 49 81 50 23 51
REMARK SMILES IDX 24 52 25 53 75 54 26 55 80 56 74 57 76 58 27 59 79 60 73 61
REMARK SMILES IDX 72 62 28 64 60 65 40 66 59 67 41 68 44 69 58 70 77 71 42 72
REMARK SMILES IDX 43 73 57 75 78 76 45 77 29 78 30 79 38 80 31 81 32 82 36 83
REMARK SMILES IDX 39 84 33 85 34 86 37 87 35 88 61 89 62 90 70 91 63 92 64 93
REMARK SMILES IDX 68 94 71 95 65 96 66 97 69 98 67 99 46 100 47 101 55 102
REMARK SMILES IDX 48 103 49 104 53 105 56 106 50 107 51 108 54 109 52 110
REMARK H PARENT 95 27 76 63 44 74
REMARK Flexibility Score: inf
ROOT
ATOM      1  C   UNL A   1      40.070  27.275  29.049  1.00  0.00     0.188 C 
ENDROOT
BRANCH   1   2
ATOM      2  O   UNL A   1      38.729  27.717  29.090  1.00  0.00    -0.376 OA
BRANCH   2   3
ATOM      3  C   UNL A   1      38.309  28.701  30.020  1.00  0.00     0.202 C 
BRANCH   3   4
ATOM      4  C   UNL A   1      38.227  30.222  29.761  1.00  0.00     0.261 C 
BRANCH   4   5
ATOM      5  O   UNL A   1      37.336  30.658  28.732  1.00  0.00    -0.463 OA
BRANCH   5   6
ATOM      6  C   UNL A   1      36.091  31.052  29.090  1.00  0.00     0.313 C 
ATOM      7  O   UNL A   1      35.688  31.086  30.247  1.00  0.00    -0.252 OA
BRANCH   6   8
ATOM      8  C   UNL A   1      35.258  31.545  27.895  1.00  0.00     0.126 C 
ATOM      9  C   UNL A   1      34.721  32.974  28.106  1.00  0.00     0.025 C 
BRANCH   8  10
ATOM     10  C   UNL A   1      34.256  30.507  27.368  1.00  0.00    -0.031 A 
ATOM     11  C   UNL A   1      32.871  30.738  27.301  1.00  0.00     0.005 A 
ATOM     12  C   UNL A   1      34.721  29.291  26.839  1.00  0.00     0.044 A 
ATOM     13  C   UNL A   1      31.996  29.793  26.727  1.00  0.00     0.012 A 
ATOM     14  C   UNL A   1      33.848  28.356  26.279  1.00  0.00     0.131 A 
ATOM     15  C   UNL A   1      32.472  28.586  26.195  1.00  0.00     0.018 A 
ATOM     16  F   UNL A   1      34.375  27.222  25.792  1.00  0.00    -0.206 F 
BRANCH  15  17
ATOM     17  C   UNL A   1      31.578  27.602  25.559  1.00  0.00    -0.012 A 
ATOM     18  C   UNL A   1      30.627  27.989  24.602  1.00  0.00     0.009 A 
ATOM     19  C   UNL A   1      31.691  26.234  25.868  1.00  0.00     0.056 A 
ATOM     20  C   UNL A   1      29.824  27.039  23.962  1.00  0.00     0.004 A 
ATOM     21  C   UNL A   1      30.875  25.288  25.247  1.00  0.00     0.133 A 
ATOM     22  C   UNL A   1      29.948  25.686  24.283  1.00  0.00     0.047 A 
BRANCH  21  23
ATOM     23  O   UNL A   1      30.914  23.894  25.514  1.00  0.00    -0.410 OA
BRANCH  23  24
ATOM     24  C   UNL A   1      30.592  23.309  26.735  1.00  0.00     0.412 C 
ATOM     25  O   UNL A   1      29.566  23.492  27.385  1.00  0.00    -0.224 OA
ATOM     26  N   UNL A   1      31.527  22.434  27.202  1.00  0.00    -0.321 N 
ATOM     27  H   UNL A   1      31.314  21.998  28.058  1.00  0.00     0.167 HD
BRANCH  26  28
ATOM     28  C   UNL A   1      32.792  22.062  26.605  1.00  0.00     0.119 C 
BRANCH  28  29
ATOM     29  C   UNL A   1      33.941  22.914  27.149  1.00  0.00     0.025 C 
BRANCH  29  30
ATOM     30  C   UNL A   1      35.296  22.705  26.436  1.00  0.00    -0.009 C 
ATOM     31  C   UNL A   1      35.405  21.310  25.795  1.00  0.00     0.003 C 
ATOM     32  C   UNL A   1      35.505  23.803  25.379  1.00  0.00     0.003 C 
ATOM     33  C   UNL A   1      36.708  21.136  25.014  1.00  0.00     0.000 C 
ATOM     34  C   UNL A   1      36.819  23.619  24.623  1.00  0.00     0.000 C 
ATOM     35  C   UNL A   1      36.902  22.240  23.981  1.00  0.00     0.000 C 
ENDBRANCH  29  30
ENDBRANCH  28  29
ENDBRANCH  26  28
ENDBRANCH  23  24
ENDBRANCH  21  23
ENDBRANCH  15  17
ENDBRANCH   8  10
ENDBRANCH   6   8
ENDBRANCH   5   6
ENDBRANCH   4   5
ENDBRANCH   3   4
ENDBRANCH   2   3
ENDBRANCH   1   2
BRANCH   1  36
ATOM     36  C   UNL A   1      40.384  26.208  27.989  1.00  0.00     0.188 C 
BRANCH  36  37
ATOM     37  O   UNL A   1      41.642  25.566  28.114  1.00  0.00    -0.377 OA
BRANCH  37  38
ATOM     38  C   UNL A   1      41.718  24.155  27.942  1.00  0.00     0.188 C 
BRANCH  38  39
ATOM     39  C   UNL A   1      40.591  23.354  27.252  1.00  0.00     0.188 C 
BRANCH  39  40
ATOM     40  O   UNL A   1      41.005  22.158  26.615  1.00  0.00    -0.376 OA
BRANCH  40  41
ATOM     41  C   UNL A   1      42.295  21.643  26.902  1.00  0.00     0.202 C 
BRANCH  41  42
ATOM     42  C   UNL A   1      43.324  21.638  25.761  1.00  0.00     0.261 C 
BRANCH  42  43
ATOM     43  O   UNL A   1      44.129  22.820  25.627  1.00  0.00    -0.460 OA
BRANCH  43  44
ATOM     44  C   UNL A   1      45.453  22.711  25.866  1.00  0.00     0.338 C 
ATOM     45  O   UNL A   1      46.129  21.702  25.831  1.00  0.00    -0.246 OA
BRANCH  44  46
ATOM     46  C   UNL A   1      45.999  24.079  25.996  1.00  0.00     0.060 A 
ATOM     47  C   UNL A   1      45.873  24.965  24.918  1.00  0.00     0.016 A 
ATOM     48  C   UNL A   1      46.633  24.482  27.173  1.00  0.00     0.016 A 
ATOM     49  C   UNL A   1      46.418  26.246  25.000  1.00  0.00     0.010 A 
ATOM     50  C   UNL A   1      47.199  25.758  27.246  1.00  0.00     0.010 A 
ATOM     51  C   UNL A   1      47.126  26.632  26.146  1.00  0.00    -0.014 A 
BRANCH  51  52
ATOM     52  C   UNL A   1      47.965  27.855  26.115  1.00  0.00     0.031 A 
ATOM     53  C   UNL A   1      47.312  29.174  26.427  1.00  0.00     0.074 A 
ATOM     54  C   UNL A   1      49.280  27.801  25.842  1.00  0.00     0.049 A 
ATOM     55  N   UNL A   1      47.815  30.381  26.406  1.00  0.00    -0.248 NA
ATOM     56  C   UNL A   1      45.892  29.120  26.814  1.00  0.00     0.031 C 
ATOM     57  C   UNL A   1      50.037  26.583  25.570  1.00  0.00     0.029 A 
ATOM     58  N   UNL A   1      50.208  28.808  25.737  1.00  0.00    -0.354 N 
ATOM     59  C   UNL A   1      46.776  31.227  26.769  1.00  0.00     0.074 A 
ATOM     60  C   UNL A   1      45.605  30.402  26.968  1.00  0.00     0.031 C 
ATOM     61  C   UNL A   1      51.315  26.914  25.312  1.00  0.00     0.029 A 
ATOM     62  C   UNL A   1      51.454  28.369  25.364  1.00  0.00     0.049 A 
ATOM     63  H   UNL A   1      49.999  29.753  25.912  1.00  0.00     0.167 HD
ATOM     64  C   UNL A   1      46.798  32.572  26.931  1.00  0.00     0.037 A 
ATOM     65  C   UNL A   1      52.569  29.068  25.071  1.00  0.00     0.037 A 
ATOM     66  C   UNL A   1      47.964  33.390  26.725  1.00  0.00     0.049 A 
ATOM     67  C   UNL A   1      52.548  30.574  25.174  1.00  0.00     0.074 A 
ATOM     68  C   UNL A   1      48.092  34.760  26.869  1.00  0.00     0.029 A 
ATOM     69  N   UNL A   1      49.200  32.914  26.316  1.00  0.00    -0.354 N 
ATOM     70  N   UNL A   1      51.569  31.368  25.536  1.00  0.00    -0.248 NA
ATOM     71  C   UNL A   1      53.791  31.280  24.831  1.00  0.00     0.031 C 
ATOM     72  C   UNL A   1      49.389  35.120  26.487  1.00  0.00     0.029 A 
ATOM     73  C   UNL A   1      50.090  33.967  26.174  1.00  0.00     0.049 A 
ATOM     74  H   UNL A   1      49.415  31.967  26.150  1.00  0.00     0.167 HD
ATOM     75  C   UNL A   1      52.085  32.657  25.496  1.00  0.00     0.074 A 
ATOM     76  C   UNL A   1      53.469  32.539  25.088  1.00  0.00     0.031 C 
ATOM     77  C   UNL A   1      51.469  33.834  25.775  1.00  0.00     0.037 A 
BRANCH  64  78
ATOM     78  C   UNL A   1      45.512  33.244  27.322  1.00  0.00     0.064 A 
ATOM     79  C   UNL A   1      45.053  33.250  28.648  1.00  0.00     0.173 A 
ATOM     80  C   UNL A   1      44.738  33.909  26.358  1.00  0.00     0.173 A 
ATOM     81  F   UNL A   1      45.745  32.616  29.607  1.00  0.00    -0.203 F 
ATOM     82  C   UNL A   1      43.852  33.869  28.987  1.00  0.00     0.198 A 
ATOM     83  C   UNL A   1      43.558  34.557  26.708  1.00  0.00     0.198 A 
ATOM     84  F   UNL A   1      45.132  33.936  25.076  1.00  0.00    -0.203 F 
ATOM     85  F   UNL A   1      43.405  33.813  30.250  1.00  0.00    -0.200 F 
ATOM     86  C   UNL A   1      43.110  34.529  28.019  1.00  0.00     0.200 A 
ATOM     87  F   UNL A   1      42.850  35.207  25.773  1.00  0.00    -0.200 F 
ATOM     88  F   UNL A   1      41.959  35.130  28.349  1.00  0.00    -0.200 F 
ENDBRANCH  64  78
BRANCH  65  89
ATOM     89  C   UNL A   1      53.799  28.356  24.628  1.00  0.00     0.064 A 
ATOM     90  C   UNL A   1      54.774  27.947  25.549  1.00  0.00     0.173 A 
ATOM     91  C   UNL A   1      54.036  28.092  23.270  1.00  0.00     0.173 A 
ATOM     92  F   UNL A   1      54.609  28.201  26.856  1.00  0.00    -0.203 F 
ATOM     93  C   UNL A   1      55.947  27.322  25.127  1.00  0.00     0.198 A 
ATOM     94  C   UNL A   1      55.193  27.437  22.853  1.00  0.00     0.198 A 
ATOM     95  F   UNL A   1      53.138  28.465  22.346  1.00  0.00    -0.203 F 
ATOM     96  F   UNL A   1      56.887  26.992  26.024  1.00  0.00    -0.200 F 
ATOM     97  C   UNL A   1      56.152  27.062  23.781  1.00  0.00     0.200 A 
ATOM     98  F   UNL A   1      55.380  27.176  21.552  1.00  0.00    -0.200 F 
ATOM     99  F   UNL A   1      57.277  26.457  23.377  1.00  0.00    -0.200 F 
ENDBRANCH  65  89
BRANCH  77 100
ATOM    100  C   UNL A   1      52.296  35.088  25.695  1.00  0.00     0.064 A 
ATOM    101  C   UNL A   1      52.448  35.803  24.498  1.00  0.00     0.173 A 
ATOM    102  C   UNL A   1      52.907  35.606  26.849  1.00  0.00     0.173 A 
ATOM    103  F   UNL A   1      51.894  35.348  23.365  1.00  0.00    -0.203 F 
ATOM    104  C   UNL A   1      53.206  36.971  24.452  1.00  0.00     0.198 A 
ATOM    105  C   UNL A   1      53.633  36.793  26.807  1.00  0.00     0.198 A 
ATOM    106  F   UNL A   1      52.786  34.969  28.023  1.00  0.00    -0.203 F 
ATOM    107  F   UNL A   1      53.381  37.608  23.286  1.00  0.00    -0.200 F 
ATOM    108  C   UNL A   1      53.789  37.469  25.607  1.00  0.00     0.200 A 
ATOM    109  F   UNL A   1      54.180  37.283  27.928  1.00  0.00    -0.200 F 
ATOM    110  F   UNL A   1      54.510  38.600  25.563  1.00  0.00    -0.200 F 
ENDBRANCH  77 100
ENDBRANCH  51  52
ENDBRANCH  44  46
ENDBRANCH  43  44
ENDBRANCH  42  43
ENDBRANCH  41  42
ENDBRANCH  40  41
ENDBRANCH  39  40
ENDBRANCH  38  39
ENDBRANCH  37  38
ENDBRANCH  36  37
ENDBRANCH   1  36
TORSDOF 27
ENDMDL
