MODEL 1
REMARK VINA RESULT:      -9.3      0.000      0.000
REMARK SMILES Cc1nc(SCc2cccc(Cl)c2)[nH]c(=O)c1CC(=O)OCCOCCOCCOCCOC(=O)c1ccc(-c2c3nc(c(-c4c(F)c(F)c(F)c(F)c4F)c4ccc([nH]4)c(-c4c(F)c(F)c(F)c(F)c4F)c4nc(c(-c5c(F)c(F)c(F)c(F)c5F)c5ccc2[nH]5)C=C4)C=C3)cc1
REMARK SMILES IDX 26 1 25 2 24 3 23 4 22 5 21 6 19 7 20 8 18 9 17 10 1 11 2 12
REMARK SMILES IDX 3 13 4 14 15 15 14 16 16 17 5 19 6 20 7 21 8 22 13 23 9 24
REMARK SMILES IDX 11 25 10 26 12 27 27 28 28 29 29 30 30 31 31 32 32 33 33 34
REMARK SMILES IDX 34 35 35 36 36 37 37 38 98 39 38 40 97 41 39 42 40 43 41 44
REMARK SMILES IDX 91 45 42 46 96 47 90 48 92 49 43 50 95 51 89 52 88 53 44 55
REMARK SMILES IDX 76 56 56 57 75 58 57 59 60 60 74 61 93 62 58 63 59 64 73 66
REMARK SMILES IDX 94 67 61 68 45 69 46 70 54 71 47 72 48 73 52 74 55 75 49 76
REMARK SMILES IDX 50 77 53 78 51 79 77 80 78 81 86 82 79 83 80 84 84 85 87 86
REMARK SMILES IDX 81 87 82 88 85 89 83 90 62 91 63 92 71 93 64 94 65 95 69 96
REMARK SMILES IDX 72 97 66 98 67 99 70 100 68 101
REMARK H PARENT 14 18 92 54 60 65
REMARK Flexibility Score: inf
ROOT
ATOM      1  C   UNL A   1      32.149  19.148  23.323  1.00  0.00     0.188 C 
ENDROOT
BRANCH   1   2
ATOM      2  C   UNL A   1      32.351  20.493  22.594  1.00  0.00     0.188 C 
BRANCH   2   3
ATOM      3  O   UNL A   1      31.533  21.614  22.918  1.00  0.00    -0.376 OA
BRANCH   3   4
ATOM      4  C   UNL A   1      32.136  22.839  23.300  1.00  0.00     0.202 C 
BRANCH   4   5
ATOM      5  C   UNL A   1      33.086  23.563  22.319  1.00  0.00     0.261 C 
BRANCH   5   6
ATOM      6  O   UNL A   1      32.553  24.714  21.617  1.00  0.00    -0.463 OA
BRANCH   6   7
ATOM      7  C   UNL A   1      32.975  25.934  22.026  1.00  0.00     0.310 C 
ATOM      8  O   UNL A   1      33.832  26.585  21.434  1.00  0.00    -0.252 OA
BRANCH   7   9
ATOM      9  C   UNL A   1      32.264  26.518  23.261  1.00  0.00     0.166 C 
BRANCH   9  10
ATOM     10  C   UNL A   1      32.967  27.254  24.378  1.00  0.00     0.050 A 
ATOM     11  C   UNL A   1      33.512  25.221  25.724  1.00  0.00     0.067 C 
ATOM     12  C   UNL A   1      33.574  26.698  25.446  1.00  0.00     0.050 A 
ATOM     13  N   UNL A   1      34.217  27.411  26.434  1.00  0.00    -0.229 NA
ATOM     14  C   UNL A   1      34.131  28.693  26.400  1.00  0.00     0.168 A 
ATOM     15  C   UNL A   1      33.160  28.728  24.243  1.00  0.00     0.255 A 
ATOM     16  N   UNL A   1      33.626  29.376  25.348  1.00  0.00    -0.301 N 
ATOM     17  O   UNL A   1      32.866  29.337  23.221  1.00  0.00    -0.269 OA
ATOM     18  H   UNL A   1      33.596  30.358  25.379  1.00  0.00     0.172 HD
BRANCH  14  19
ATOM     19  S   UNL A   1      34.605  29.722  27.715  1.00  0.00    -0.083 SA
BRANCH  19  20
ATOM     20  C   UNL A   1      33.917  31.329  27.226  1.00  0.00     0.113 C 
BRANCH  20  21
ATOM     21  C   UNL A   1      34.491  32.571  27.887  1.00  0.00    -0.036 A 
ATOM     22  C   UNL A   1      35.883  32.756  27.942  1.00  0.00     0.005 A 
ATOM     23  C   UNL A   1      33.696  33.490  28.588  1.00  0.00     0.025 A 
ATOM     24  C   UNL A   1      36.446  33.807  28.679  1.00  0.00     0.002 A 
ATOM     25  C   UNL A   1      34.255  34.527  29.336  1.00  0.00     0.041 A 
ATOM     26  C   UNL A   1      35.631  34.688  29.388  1.00  0.00     0.020 A 
ATOM     27  Cl  UNL A   1      33.223  35.584  30.222  1.00  0.00    -0.084 Cl
ENDBRANCH  20  21
ENDBRANCH  19  20
ENDBRANCH  14  19
ENDBRANCH   9  10
ENDBRANCH   7   9
ENDBRANCH   6   7
ENDBRANCH   5   6
ENDBRANCH   4   5
ENDBRANCH   3   4
ENDBRANCH   2   3
ENDBRANCH   1   2
BRANCH   1  28
ATOM     28  O   UNL A   1      33.100  18.867  24.329  1.00  0.00    -0.377 OA
BRANCH  28  29
ATOM     29  C   UNL A   1      32.916  19.512  25.572  1.00  0.00     0.188 C 
BRANCH  29  30
ATOM     30  C   UNL A   1      33.811  20.720  25.890  1.00  0.00     0.188 C 
BRANCH  30  31
ATOM     31  O   UNL A   1      35.132  20.603  25.378  1.00  0.00    -0.376 OA
BRANCH  31  32
ATOM     32  C   UNL A   1      35.586  21.537  24.413  1.00  0.00     0.202 C 
BRANCH  32  33
ATOM     33  C   UNL A   1      37.053  21.989  24.498  1.00  0.00     0.261 C 
BRANCH  33  34
ATOM     34  O   UNL A   1      37.568  22.263  25.807  1.00  0.00    -0.460 OA
BRANCH  34  35
ATOM     35  C   UNL A   1      38.814  21.816  26.098  1.00  0.00     0.338 C 
ATOM     36  O   UNL A   1      39.291  20.744  25.819  1.00  0.00    -0.246 OA
BRANCH  35  37
ATOM     37  C   UNL A   1      39.566  22.965  26.661  1.00  0.00     0.060 A 
ATOM     38  C   UNL A   1      39.228  24.260  26.246  1.00  0.00     0.016 A 
ATOM     39  C   UNL A   1      40.554  22.768  27.628  1.00  0.00     0.016 A 
ATOM     40  C   UNL A   1      39.884  25.364  26.795  1.00  0.00     0.010 A 
ATOM     41  C   UNL A   1      41.234  23.872  28.151  1.00  0.00     0.010 A 
ATOM     42  C   UNL A   1      40.916  25.173  27.723  1.00  0.00    -0.014 A 
BRANCH  42  43
ATOM     43  C   UNL A   1      41.790  26.308  28.104  1.00  0.00     0.031 A 
ATOM     44  C   UNL A   1      41.229  27.359  29.020  1.00  0.00     0.074 A 
ATOM     45  C   UNL A   1      43.050  26.411  27.646  1.00  0.00     0.049 A 
ATOM     46  N   UNL A   1      41.760  28.482  29.428  1.00  0.00    -0.248 NA
ATOM     47  C   UNL A   1      39.876  27.106  29.542  1.00  0.00     0.031 C 
ATOM     48  C   UNL A   1      43.721  25.437  26.788  1.00  0.00     0.029 A 
ATOM     49  N   UNL A   1      43.985  27.401  27.830  1.00  0.00    -0.354 N 
ATOM     50  C   UNL A   1      40.805  29.072  30.245  1.00  0.00     0.074 A 
ATOM     51  C   UNL A   1      39.653  28.199  30.257  1.00  0.00     0.031 C 
ATOM     52  C   UNL A   1      44.956  25.889  26.502  1.00  0.00     0.029 A 
ATOM     53  C   UNL A   1      45.145  27.199  27.124  1.00  0.00     0.049 A 
ATOM     54  H   UNL A   1      43.837  28.180  28.413  1.00  0.00     0.167 HD
ATOM     55  C   UNL A   1      40.885  30.240  30.925  1.00  0.00     0.037 A 
ATOM     56  C   UNL A   1      46.220  28.000  26.973  1.00  0.00     0.037 A 
ATOM     57  C   UNL A   1      42.031  31.111  30.902  1.00  0.00     0.049 A 
ATOM     58  C   UNL A   1      46.251  29.336  27.676  1.00  0.00     0.074 A 
ATOM     59  C   UNL A   1      42.220  32.304  31.576  1.00  0.00     0.029 A 
ATOM     60  N   UNL A   1      43.176  30.886  30.153  1.00  0.00    -0.354 N 
ATOM     61  N   UNL A   1      45.361  29.875  28.474  1.00  0.00    -0.248 NA
ATOM     62  C   UNL A   1      47.437  30.176  27.453  1.00  0.00     0.031 C 
ATOM     63  C   UNL A   1      43.452  32.836  31.181  1.00  0.00     0.029 A 
ATOM     64  C   UNL A   1      44.061  31.940  30.317  1.00  0.00     0.049 A 
ATOM     65  H   UNL A   1      43.337  30.096  29.588  1.00  0.00     0.167 HD
ATOM     66  C   UNL A   1      45.890  31.099  28.869  1.00  0.00     0.074 A 
ATOM     67  C   UNL A   1      47.185  31.217  28.235  1.00  0.00     0.031 C 
ATOM     68  C   UNL A   1      45.352  32.040  29.684  1.00  0.00     0.037 A 
BRANCH  55  69
ATOM     69  C   UNL A   1      39.685  30.665  31.719  1.00  0.00     0.064 A 
ATOM     70  C   UNL A   1      38.584  31.294  31.119  1.00  0.00     0.173 A 
ATOM     71  C   UNL A   1      39.623  30.408  33.098  1.00  0.00     0.173 A 
ATOM     72  F   UNL A   1      38.598  31.577  29.808  1.00  0.00    -0.203 F 
ATOM     73  C   UNL A   1      37.477  31.673  31.875  1.00  0.00     0.198 A 
ATOM     74  C   UNL A   1      38.502  30.760  33.844  1.00  0.00     0.198 A 
ATOM     75  F   UNL A   1      40.649  29.809  33.721  1.00  0.00    -0.203 F 
ATOM     76  F   UNL A   1      36.457  32.318  31.291  1.00  0.00    -0.200 F 
ATOM     77  C   UNL A   1      37.433  31.398  33.233  1.00  0.00     0.200 A 
ATOM     78  F   UNL A   1      38.458  30.481  35.154  1.00  0.00    -0.200 F 
ATOM     79  F   UNL A   1      36.364  31.756  33.958  1.00  0.00    -0.200 F 
ENDBRANCH  55  69
BRANCH  56  80
ATOM     80  C   UNL A   1      47.347  27.578  26.096  1.00  0.00     0.064 A 
ATOM     81  C   UNL A   1      47.315  27.809  24.713  1.00  0.00     0.173 A 
ATOM     82  C   UNL A   1      48.462  26.905  26.618  1.00  0.00     0.173 A 
ATOM     83  F   UNL A   1      46.257  28.420  24.160  1.00  0.00    -0.203 F 
ATOM     84  C   UNL A   1      48.344  27.362  23.885  1.00  0.00     0.198 A 
ATOM     85  C   UNL A   1      49.505  26.489  25.793  1.00  0.00     0.198 A 
ATOM     86  F   UNL A   1      48.539  26.650  27.934  1.00  0.00    -0.203 F 
ATOM     87  F   UNL A   1      48.260  27.544  22.559  1.00  0.00    -0.200 F 
ATOM     88  C   UNL A   1      49.441  26.709  24.425  1.00  0.00     0.200 A 
ATOM     89  F   UNL A   1      50.566  25.863  26.322  1.00  0.00    -0.200 F 
ATOM     90  F   UNL A   1      50.428  26.278  23.628  1.00  0.00    -0.200 F 
ENDBRANCH  56  80
BRANCH  68  91
ATOM     91  C   UNL A   1      46.170  33.268  29.969  1.00  0.00     0.064 A 
ATOM     92  C   UNL A   1      46.089  34.414  29.164  1.00  0.00     0.173 A 
ATOM     93  C   UNL A   1      47.000  33.320  31.100  1.00  0.00     0.173 A 
ATOM     94  F   UNL A   1      45.320  34.414  28.065  1.00  0.00    -0.203 F 
ATOM     95  C   UNL A   1      46.823  35.558  29.470  1.00  0.00     0.198 A 
ATOM     96  C   UNL A   1      47.706  34.475  31.421  1.00  0.00     0.198 A 
ATOM     97  F   UNL A   1      47.107  32.255  31.910  1.00  0.00    -0.203 F 
ATOM     98  F   UNL A   1      46.763  36.626  28.662  1.00  0.00    -0.200 F 
ATOM     99  C   UNL A   1      47.623  35.591  30.603  1.00  0.00     0.200 A 
ATOM    100  F   UNL A   1      48.463  34.511  32.527  1.00  0.00    -0.200 F 
ATOM    101  F   UNL A   1      48.317  36.698  30.903  1.00  0.00    -0.200 F 
ENDBRANCH  68  91
ENDBRANCH  42  43
ENDBRANCH  35  37
ENDBRANCH  34  35
ENDBRANCH  33  34
ENDBRANCH  32  33
ENDBRANCH  31  32
ENDBRANCH  30  31
ENDBRANCH  29  30
ENDBRANCH  28  29
ENDBRANCH   1  28
TORSDOF 24
ENDMDL
MODEL 2
REMARK VINA RESULT:      -9.2      0.640      2.018
REMARK SMILES Cc1nc(SCc2cccc(Cl)c2)[nH]c(=O)c1CC(=O)OCCOCCOCCOCCOC(=O)c1ccc(-c2c3nc(c(-c4c(F)c(F)c(F)c(F)c4F)c4ccc([nH]4)c(-c4c(F)c(F)c(F)c(F)c4F)c4nc(c(-c5c(F)c(F)c(F)c(F)c5F)c5ccc2[nH]5)C=C4)C=C3)cc1
REMARK SMILES IDX 26 1 25 2 24 3 23 4 22 5 21 6 19 7 20 8 18 9 17 10 1 11 2 12
REMARK SMILES IDX 3 13 4 14 15 15 14 16 16 17 5 19 6 20 7 21 8 22 13 23 9 24
REMARK SMILES IDX 11 25 10 26 12 27 27 28 28 29 29 30 30 31 31 32 32 33 33 34
REMARK SMILES IDX 34 35 35 36 36 37 37 38 98 39 38 40 97 41 39 42 40 43 41 44
REMARK SMILES IDX 91 45 42 46 96 47 90 48 92 49 43 50 95 51 89 52 88 53 44 55
REMARK SMILES IDX 76 56 56 57 75 58 57 59 60 60 74 61 93 62 58 63 59 64 73 66
REMARK SMILES IDX 94 67 61 68 45 69 46 70 54 71 47 72 48 73 52 74 55 75 49 76
REMARK SMILES IDX 50 77 53 78 51 79 77 80 78 81 86 82 79 83 80 84 84 85 87 86
REMARK SMILES IDX 81 87 82 88 85 89 83 90 62 91 63 92 71 93 64 94 65 95 69 96
REMARK SMILES IDX 72 97 66 98 67 99 70 100 68 101
REMARK H PARENT 14 18 92 54 60 65
REMARK Flexibility Score: inf
ROOT
ATOM      1  C   UNL A   1      32.151  19.111  23.265  1.00  0.00     0.188 C 
ENDROOT
BRANCH   1   2
ATOM      2  C   UNL A   1      32.408  20.525  22.703  1.00  0.00     0.188 C 
BRANCH   2   3
ATOM      3  O   UNL A   1      31.466  21.570  22.932  1.00  0.00    -0.376 OA
BRANCH   3   4
ATOM      4  C   UNL A   1      31.924  22.888  23.183  1.00  0.00     0.202 C 
BRANCH   4   5
ATOM      5  C   UNL A   1      32.814  23.600  22.139  1.00  0.00     0.261 C 
BRANCH   5   6
ATOM      6  O   UNL A   1      32.283  24.808  21.538  1.00  0.00    -0.463 OA
BRANCH   6   7
ATOM      7  C   UNL A   1      32.833  25.982  21.925  1.00  0.00     0.310 C 
ATOM      8  O   UNL A   1      33.771  26.515  21.337  1.00  0.00    -0.252 OA
BRANCH   7   9
ATOM      9  C   UNL A   1      32.169  26.678  23.128  1.00  0.00     0.166 C 
BRANCH   9  10
ATOM     10  C   UNL A   1      32.929  27.301  24.276  1.00  0.00     0.050 A 
ATOM     11  C   UNL A   1      32.909  25.270  25.731  1.00  0.00     0.067 C 
ATOM     12  C   UNL A   1      33.316  26.683  25.410  1.00  0.00     0.050 A 
ATOM     13  N   UNL A   1      34.021  27.290  26.424  1.00  0.00    -0.229 NA
ATOM     14  C   UNL A   1      34.223  28.556  26.341  1.00  0.00     0.168 A 
ATOM     15  C   UNL A   1      33.451  28.690  24.109  1.00  0.00     0.255 A 
ATOM     16  N   UNL A   1      33.962  29.278  25.226  1.00  0.00    -0.301 N 
ATOM     17  O   UNL A   1      33.377  29.295  23.045  1.00  0.00    -0.269 OA
ATOM     18  H   UNL A   1      34.145  30.244  25.222  1.00  0.00     0.172 HD
BRANCH  14  19
ATOM     19  S   UNL A   1      34.809  29.525  27.656  1.00  0.00    -0.083 SA
BRANCH  19  20
ATOM     20  C   UNL A   1      34.008  31.126  27.355  1.00  0.00     0.113 C 
BRANCH  20  21
ATOM     21  C   UNL A   1      34.541  32.333  28.108  1.00  0.00    -0.036 A 
ATOM     22  C   UNL A   1      33.657  33.333  28.548  1.00  0.00     0.005 A 
ATOM     23  C   UNL A   1      35.914  32.579  28.266  1.00  0.00     0.025 A 
ATOM     24  C   UNL A   1      34.134  34.528  29.104  1.00  0.00     0.002 A 
ATOM     25  C   UNL A   1      36.391  33.775  28.803  1.00  0.00     0.041 A 
ATOM     26  C   UNL A   1      35.504  34.755  29.222  1.00  0.00     0.020 A 
ATOM     27  Cl  UNL A   1      38.089  34.037  28.912  1.00  0.00    -0.084 Cl
ENDBRANCH  20  21
ENDBRANCH  19  20
ENDBRANCH  14  19
ENDBRANCH   9  10
ENDBRANCH   7   9
ENDBRANCH   6   7
ENDBRANCH   5   6
ENDBRANCH   4   5
ENDBRANCH   3   4
ENDBRANCH   2   3
ENDBRANCH   1   2
BRANCH   1  28
ATOM     28  O   UNL A   1      33.113  18.654  24.193  1.00  0.00    -0.377 OA
BRANCH  28  29
ATOM     29  C   UNL A   1      33.044  19.195  25.496  1.00  0.00     0.188 C 
BRANCH  29  30
ATOM     30  C   UNL A   1      33.805  20.502  25.768  1.00  0.00     0.188 C 
BRANCH  30  31
ATOM     31  O   UNL A   1      35.071  20.571  25.125  1.00  0.00    -0.376 OA
BRANCH  31  32
ATOM     32  C   UNL A   1      35.397  21.719  24.360  1.00  0.00     0.202 C 
BRANCH  32  33
ATOM     33  C   UNL A   1      36.794  22.330  24.556  1.00  0.00     0.261 C 
BRANCH  33  34
ATOM     34  O   UNL A   1      37.341  22.273  25.879  1.00  0.00    -0.460 OA
BRANCH  34  35
ATOM     35  C   UNL A   1      38.610  21.816  26.015  1.00  0.00     0.338 C 
ATOM     36  O   UNL A   1      39.060  20.771  25.614  1.00  0.00    -0.246 OA
BRANCH  35  37
ATOM     37  C   UNL A   1      39.412  22.928  26.584  1.00  0.00     0.060 A 
ATOM     38  C   UNL A   1      39.096  24.243  26.219  1.00  0.00     0.016 A 
ATOM     39  C   UNL A   1      40.428  22.676  27.509  1.00  0.00     0.016 A 
ATOM     40  C   UNL A   1      39.800  25.313  26.777  1.00  0.00     0.010 A 
ATOM     41  C   UNL A   1      41.155  23.746  28.040  1.00  0.00     0.010 A 
ATOM     42  C   UNL A   1      40.858  25.067  27.662  1.00  0.00    -0.014 A 
BRANCH  42  43
ATOM     43  C   UNL A   1      41.775  26.167  28.045  1.00  0.00     0.031 A 
ATOM     44  C   UNL A   1      41.277  27.198  29.018  1.00  0.00     0.074 A 
ATOM     45  C   UNL A   1      43.017  26.256  27.538  1.00  0.00     0.049 A 
ATOM     46  N   UNL A   1      41.853  28.293  29.442  1.00  0.00    -0.248 NA
ATOM     47  C   UNL A   1      39.941  26.959  29.588  1.00  0.00     0.031 C 
ATOM     48  C   UNL A   1      43.627  25.297  26.621  1.00  0.00     0.029 A 
ATOM     49  N   UNL A   1      43.984  27.216  27.718  1.00  0.00    -0.354 N 
ATOM     50  C   UNL A   1      40.948  28.877  30.317  1.00  0.00     0.074 A 
ATOM     51  C   UNL A   1      39.776  28.031  30.348  1.00  0.00     0.031 C 
ATOM     52  C   UNL A   1      44.861  25.729  26.299  1.00  0.00     0.029 A 
ATOM     53  C   UNL A   1      45.108  27.012  26.957  1.00  0.00     0.049 A 
ATOM     54  H   UNL A   1      43.879  27.978  28.332  1.00  0.00     0.167 HD
ATOM     55  C   UNL A   1      41.085  30.018  31.033  1.00  0.00     0.037 A 
ATOM     56  C   UNL A   1      46.196  27.791  26.789  1.00  0.00     0.037 A 
ATOM     57  C   UNL A   1      42.250  30.861  30.993  1.00  0.00     0.049 A 
ATOM     58  C   UNL A   1      46.289  29.101  27.535  1.00  0.00     0.074 A 
ATOM     59  C   UNL A   1      42.496  32.025  31.699  1.00  0.00     0.029 A 
ATOM     60  N   UNL A   1      43.358  30.636  30.189  1.00  0.00    -0.354 N 
ATOM     61  N   UNL A   1      45.447  29.633  28.387  1.00  0.00    -0.248 NA
ATOM     62  C   UNL A   1      47.486  29.921  27.292  1.00  0.00     0.031 C 
ATOM     63  C   UNL A   1      43.724  32.541  31.271  1.00  0.00     0.029 A 
ATOM     64  C   UNL A   1      44.275  31.663  30.352  1.00  0.00     0.049 A 
ATOM     65  H   UNL A   1      43.476  29.863  29.592  1.00  0.00     0.167 HD
ATOM     66  C   UNL A   1      46.021  30.829  28.802  1.00  0.00     0.074 A 
ATOM     67  C   UNL A   1      47.292  30.939  28.118  1.00  0.00     0.031 C 
ATOM     68  C   UNL A   1      45.541  31.754  29.670  1.00  0.00     0.037 A 
BRANCH  55  69
ATOM     69  C   UNL A   1      39.929  30.443  31.890  1.00  0.00     0.064 A 
ATOM     70  C   UNL A   1      39.897  30.192  33.270  1.00  0.00     0.173 A 
ATOM     71  C   UNL A   1      38.850  31.142  31.325  1.00  0.00     0.173 A 
ATOM     72  F   UNL A   1      40.894  29.514  33.857  1.00  0.00    -0.203 F 
ATOM     73  C   UNL A   1      38.817  30.603  34.048  1.00  0.00     0.198 A 
ATOM     74  C   UNL A   1      37.788  31.579  32.111  1.00  0.00     0.198 A 
ATOM     75  F   UNL A   1      38.830  31.408  30.011  1.00  0.00    -0.203 F 
ATOM     76  F   UNL A   1      38.783  30.310  35.355  1.00  0.00    -0.200 F 
ATOM     77  C   UNL A   1      37.769  31.303  33.470  1.00  0.00     0.200 A 
ATOM     78  F   UNL A   1      36.782  32.266  31.552  1.00  0.00    -0.200 F 
ATOM     79  F   UNL A   1      36.734  31.706  34.221  1.00  0.00    -0.200 F 
ENDBRANCH  55  69
BRANCH  56  80
ATOM     80  C   UNL A   1      47.275  27.374  25.852  1.00  0.00     0.064 A 
ATOM     81  C   UNL A   1      48.416  26.701  26.314  1.00  0.00     0.173 A 
ATOM     82  C   UNL A   1      47.205  27.672  24.483  1.00  0.00     0.173 A 
ATOM     83  F   UNL A   1      48.546  26.421  27.619  1.00  0.00    -0.203 F 
ATOM     84  C   UNL A   1      49.453  26.362  25.446  1.00  0.00     0.198 A 
ATOM     85  C   UNL A   1      48.228  27.303  23.611  1.00  0.00     0.198 A 
ATOM     86  F   UNL A   1      46.141  28.323  23.989  1.00  0.00    -0.203 F 
ATOM     87  F   UNL A   1      50.557  25.772  25.925  1.00  0.00    -0.200 F 
ATOM     88  C   UNL A   1      49.356  26.657  24.095  1.00  0.00     0.200 A 
ATOM     89  F   UNL A   1      48.126  27.586  22.305  1.00  0.00    -0.200 F 
ATOM     90  F   UNL A   1      50.355  26.333  23.262  1.00  0.00    -0.200 F 
ENDBRANCH  56  80
BRANCH  68  91
ATOM     91  C   UNL A   1      46.401  32.951  29.962  1.00  0.00     0.064 A 
ATOM     92  C   UNL A   1      47.453  32.897  30.889  1.00  0.00     0.173 A 
ATOM     93  C   UNL A   1      46.211  34.151  29.257  1.00  0.00     0.173 A 
ATOM     94  F   UNL A   1      47.671  31.780  31.598  1.00  0.00    -0.203 F 
ATOM     95  C   UNL A   1      48.266  34.005  31.115  1.00  0.00     0.198 A 
ATOM     96  C   UNL A   1      47.047  35.244  29.460  1.00  0.00     0.198 A 
ATOM     97  F   UNL A   1      45.226  34.253  28.351  1.00  0.00    -0.203 F 
ATOM     98  F   UNL A   1      49.237  33.945  32.037  1.00  0.00    -0.200 F 
ATOM     99  C   UNL A   1      48.069  35.174  30.393  1.00  0.00     0.200 A 
ATOM    100  F   UNL A   1      46.866  36.365  28.748  1.00  0.00    -0.200 F 
ATOM    101  F   UNL A   1      48.864  36.233  30.601  1.00  0.00    -0.200 F 
ENDBRANCH  68  91
ENDBRANCH  42  43
ENDBRANCH  35  37
ENDBRANCH  34  35
ENDBRANCH  33  34
ENDBRANCH  32  33
ENDBRANCH  31  32
ENDBRANCH  30  31
ENDBRANCH  29  30
ENDBRANCH  28  29
ENDBRANCH   1  28
TORSDOF 24
ENDMDL
MODEL 3
REMARK VINA RESULT:      -8.5      5.230     10.175
REMARK SMILES Cc1nc(SCc2cccc(Cl)c2)[nH]c(=O)c1CC(=O)OCCOCCOCCOCCOC(=O)c1ccc(-c2c3nc(c(-c4c(F)c(F)c(F)c(F)c4F)c4ccc([nH]4)c(-c4c(F)c(F)c(F)c(F)c4F)c4nc(c(-c5c(F)c(F)c(F)c(F)c5F)c5ccc2[nH]5)C=C4)C=C3)cc1
REMARK SMILES IDX 26 1 25 2 24 3 23 4 22 5 21 6 19 7 20 8 18 9 17 10 1 11 2 12
REMARK SMILES IDX 3 13 4 14 15 15 14 16 16 17 5 19 6 20 7 21 8 22 13 23 9 24
REMARK SMILES IDX 11 25 10 26 12 27 27 28 28 29 29 30 30 31 31 32 32 33 33 34
REMARK SMILES IDX 34 35 35 36 36 37 37 38 98 39 38 40 97 41 39 42 40 43 41 44
REMARK SMILES IDX 91 45 42 46 96 47 90 48 92 49 43 50 95 51 89 52 88 53 44 55
REMARK SMILES IDX 76 56 56 57 75 58 57 59 60 60 74 61 93 62 58 63 59 64 73 66
REMARK SMILES IDX 94 67 61 68 45 69 46 70 54 71 47 72 48 73 52 74 55 75 49 76
REMARK SMILES IDX 50 77 53 78 51 79 77 80 78 81 86 82 79 83 80 84 84 85 87 86
REMARK SMILES IDX 81 87 82 88 85 89 83 90 62 91 63 92 71 93 64 94 65 95 69 96
REMARK SMILES IDX 72 97 66 98 67 99 70 100 68 101
REMARK H PARENT 14 18 92 54 60 65
REMARK Flexibility Score: inf
ROOT
ATOM      1  C   UNL A   1      34.852  32.539  29.901  1.00  0.00     0.188 C 
ENDROOT
BRANCH   1   2
ATOM      2  C   UNL A   1      34.778  32.295  28.379  1.00  0.00     0.188 C 
BRANCH   2   3
ATOM      3  O   UNL A   1      35.590  31.292  27.773  1.00  0.00    -0.376 OA
BRANCH   3   4
ATOM      4  C   UNL A   1      36.789  30.879  28.408  1.00  0.00     0.202 C 
BRANCH   4   5
ATOM      5  C   UNL A   1      37.127  29.374  28.499  1.00  0.00     0.261 C 
BRANCH   5   6
ATOM      6  O   UNL A   1      38.392  28.950  27.930  1.00  0.00    -0.463 OA
BRANCH   6   7
ATOM      7  C   UNL A   1      39.439  28.826  28.779  1.00  0.00     0.310 C 
ATOM      8  O   UNL A   1      40.160  29.766  29.104  1.00  0.00    -0.252 OA
BRANCH   7   9
ATOM      9  C   UNL A   1      39.651  27.430  29.393  1.00  0.00     0.166 C 
BRANCH   9  10
ATOM     10  C   UNL A   1      40.612  26.399  28.850  1.00  0.00     0.050 A 
ATOM     11  C   UNL A   1      38.903  25.099  27.573  1.00  0.00     0.067 C 
ATOM     12  C   UNL A   1      40.315  25.395  28.000  1.00  0.00     0.050 A 
ATOM     13  N   UNL A   1      41.231  24.486  27.520  1.00  0.00    -0.229 NA
ATOM     14  C   UNL A   1      42.421  24.522  28.002  1.00  0.00     0.168 A 
ATOM     15  C   UNL A   1      42.067  26.566  29.139  1.00  0.00     0.255 A 
ATOM     16  N   UNL A   1      42.872  25.522  28.794  1.00  0.00    -0.301 N 
ATOM     17  O   UNL A   1      42.514  27.557  29.706  1.00  0.00    -0.269 OA
ATOM     18  H   UNL A   1      43.797  25.496  29.126  1.00  0.00     0.172 HD
BRANCH  14  19
ATOM     19  S   UNL A   1      43.599  23.273  27.748  1.00  0.00    -0.083 SA
BRANCH  19  20
ATOM     20  C   UNL A   1      45.168  24.160  27.961  1.00  0.00     0.113 C 
BRANCH  20  21
ATOM     21  C   UNL A   1      45.765  24.836  26.738  1.00  0.00    -0.036 A 
ATOM     22  C   UNL A   1      46.517  24.085  25.818  1.00  0.00     0.005 A 
ATOM     23  C   UNL A   1      45.728  26.227  26.549  1.00  0.00     0.025 A 
ATOM     24  C   UNL A   1      47.209  24.707  24.769  1.00  0.00     0.002 A 
ATOM     25  C   UNL A   1      46.430  26.848  25.516  1.00  0.00     0.041 A 
ATOM     26  C   UNL A   1      47.175  26.092  24.624  1.00  0.00     0.020 A 
ATOM     27  Cl  UNL A   1      46.389  28.564  25.378  1.00  0.00    -0.084 Cl
ENDBRANCH  20  21
ENDBRANCH  19  20
ENDBRANCH  14  19
ENDBRANCH   9  10
ENDBRANCH   7   9
ENDBRANCH   6   7
ENDBRANCH   5   6
ENDBRANCH   4   5
ENDBRANCH   3   4
ENDBRANCH   2   3
ENDBRANCH   1   2
BRANCH   1  28
ATOM     28  O   UNL A   1      34.917  33.896  30.285  1.00  0.00    -0.377 OA
BRANCH  28  29
ATOM     29  C   UNL A   1      34.437  34.214  31.575  1.00  0.00     0.188 C 
BRANCH  29  30
ATOM     30  C   UNL A   1      35.155  33.586  32.780  1.00  0.00     0.188 C 
BRANCH  30  31
ATOM     31  O   UNL A   1      35.469  34.517  33.807  1.00  0.00    -0.376 OA
BRANCH  31  32
ATOM     32  C   UNL A   1      35.912  34.037  35.065  1.00  0.00     0.202 C 
BRANCH  32  33
ATOM     33  C   UNL A   1      37.255  33.290  35.107  1.00  0.00     0.261 C 
BRANCH  33  34
ATOM     34  O   UNL A   1      37.195  31.858  35.108  1.00  0.00    -0.460 OA
BRANCH  34  35
ATOM     35  C   UNL A   1      38.081  31.193  35.887  1.00  0.00     0.338 C 
ATOM     36  O   UNL A   1      37.905  30.779  37.007  1.00  0.00    -0.246 OA
BRANCH  35  37
ATOM     37  C   UNL A   1      39.261  30.889  35.041  1.00  0.00     0.060 A 
ATOM     38  C   UNL A   1      39.097  30.048  33.932  1.00  0.00     0.016 A 
ATOM     39  C   UNL A   1      40.502  31.471  35.308  1.00  0.00     0.016 A 
ATOM     40  C   UNL A   1      40.177  29.783  33.088  1.00  0.00     0.010 A 
ATOM     41  C   UNL A   1      41.592  31.177  34.482  1.00  0.00     0.010 A 
ATOM     42  C   UNL A   1      41.439  30.317  33.381  1.00  0.00    -0.014 A 
BRANCH  42  43
ATOM     43  C   UNL A   1      42.637  29.830  32.654  1.00  0.00     0.031 A 
ATOM     44  C   UNL A   1      43.358  28.630  33.200  1.00  0.00     0.074 A 
ATOM     45  C   UNL A   1      43.080  30.439  31.540  1.00  0.00     0.049 A 
ATOM     46  N   UNL A   1      44.468  28.069  32.798  1.00  0.00    -0.248 NA
ATOM     47  C   UNL A   1      42.739  27.979  34.366  1.00  0.00     0.031 C 
ATOM     48  C   UNL A   1      42.443  31.583  30.891  1.00  0.00     0.029 A 
ATOM     49  N   UNL A   1      44.187  30.184  30.768  1.00  0.00    -0.354 N 
ATOM     50  C   UNL A   1      44.686  27.007  33.665  1.00  0.00     0.074 A 
ATOM     51  C   UNL A   1      43.608  27.014  34.629  1.00  0.00     0.031 C 
ATOM     52  C   UNL A   1      43.184  31.945  29.828  1.00  0.00     0.029 A 
ATOM     53  C   UNL A   1      44.364  31.084  29.747  1.00  0.00     0.049 A 
ATOM     54  H   UNL A   1      44.795  29.428  30.931  1.00  0.00     0.167 HD
ATOM     55  C   UNL A   1      45.695  26.105  33.655  1.00  0.00     0.037 A 
ATOM     56  C   UNL A   1      45.381  31.215  28.871  1.00  0.00     0.037 A 
ATOM     57  C   UNL A   1      46.770  26.107  32.698  1.00  0.00     0.049 A 
ATOM     58  C   UNL A   1      46.538  30.246  28.932  1.00  0.00     0.074 A 
ATOM     59  C   UNL A   1      47.827  25.221  32.588  1.00  0.00     0.029 A 
ATOM     60  N   UNL A   1      46.930  27.051  31.695  1.00  0.00    -0.354 N 
ATOM     61  N   UNL A   1      46.724  29.223  29.731  1.00  0.00    -0.248 NA
ATOM     62  C   UNL A   1      47.630  30.454  27.969  1.00  0.00     0.031 C 
ATOM     63  C   UNL A   1      48.665  25.670  31.561  1.00  0.00     0.029 A 
ATOM     64  C   UNL A   1      48.093  26.793  30.986  1.00  0.00     0.049 A 
ATOM     65  H   UNL A   1      46.311  27.795  31.514  1.00  0.00     0.167 HD
ATOM     66  C   UNL A   1      47.933  28.651  29.352  1.00  0.00     0.074 A 
ATOM     67  C   UNL A   1      48.431  29.432  28.240  1.00  0.00     0.031 C 
ATOM     68  C   UNL A   1      48.572  27.576  29.875  1.00  0.00     0.037 A 
BRANCH  55  69
ATOM     69  C   UNL A   1      45.708  25.064  34.736  1.00  0.00     0.064 A 
ATOM     70  C   UNL A   1      46.259  25.316  36.001  1.00  0.00     0.173 A 
ATOM     71  C   UNL A   1      45.129  23.805  34.511  1.00  0.00     0.173 A 
ATOM     72  F   UNL A   1      46.838  26.497  36.263  1.00  0.00    -0.203 F 
ATOM     73  C   UNL A   1      46.252  24.337  36.992  1.00  0.00     0.198 A 
ATOM     74  C   UNL A   1      45.096  22.840  35.514  1.00  0.00     0.198 A 
ATOM     75  F   UNL A   1      44.588  23.512  33.319  1.00  0.00    -0.203 F 
ATOM     76  F   UNL A   1      46.829  24.581  38.177  1.00  0.00    -0.200 F 
ATOM     77  C   UNL A   1      45.664  23.105  36.751  1.00  0.00     0.200 A 
ATOM     78  F   UNL A   1      44.516  21.655  35.282  1.00  0.00    -0.200 F 
ATOM     79  F   UNL A   1      45.651  22.167  37.709  1.00  0.00    -0.200 F 
ENDBRANCH  55  69
BRANCH  56  80
ATOM     80  C   UNL A   1      45.373  32.323  27.877  1.00  0.00     0.064 A 
ATOM     81  C   UNL A   1      44.619  32.234  26.698  1.00  0.00     0.173 A 
ATOM     82  C   UNL A   1      46.145  33.479  28.070  1.00  0.00     0.173 A 
ATOM     83  F   UNL A   1      43.889  31.136  26.451  1.00  0.00    -0.203 F 
ATOM     84  C   UNL A   1      44.657  33.246  25.740  1.00  0.00     0.198 A 
ATOM     85  C   UNL A   1      46.156  34.505  27.126  1.00  0.00     0.198 A 
ATOM     86  F   UNL A   1      46.892  33.612  29.176  1.00  0.00    -0.203 F 
ATOM     87  F   UNL A   1      43.973  33.107  24.595  1.00  0.00    -0.200 F 
ATOM     88  C   UNL A   1      45.419  34.383  25.957  1.00  0.00     0.200 A 
ATOM     89  F   UNL A   1      46.890  35.604  27.345  1.00  0.00    -0.200 F 
ATOM     90  F   UNL A   1      45.457  35.355  25.035  1.00  0.00    -0.200 F 
ENDBRANCH  56  80
BRANCH  68  91
ATOM     91  C   UNL A   1      49.865  27.154  29.236  1.00  0.00     0.064 A 
ATOM     92  C   UNL A   1      51.106  27.615  29.701  1.00  0.00     0.173 A 
ATOM     93  C   UNL A   1      49.866  26.223  28.184  1.00  0.00     0.173 A 
ATOM     94  F   UNL A   1      51.162  28.513  30.695  1.00  0.00    -0.203 F 
ATOM     95  C   UNL A   1      52.295  27.178  29.124  1.00  0.00     0.198 A 
ATOM     96  C   UNL A   1      51.057  25.763  27.632  1.00  0.00     0.198 A 
ATOM     97  F   UNL A   1      48.708  25.741  27.708  1.00  0.00    -0.203 F 
ATOM     98  F   UNL A   1      53.467  27.666  29.555  1.00  0.00    -0.200 F 
ATOM     99  C   UNL A   1      52.270  26.245  28.097  1.00  0.00     0.200 A 
ATOM    100  F   UNL A   1      51.031  24.847  26.654  1.00  0.00    -0.200 F 
ATOM    101  F   UNL A   1      53.418  25.815  27.553  1.00  0.00    -0.200 F 
ENDBRANCH  68  91
ENDBRANCH  42  43
ENDBRANCH  35  37
ENDBRANCH  34  35
ENDBRANCH  33  34
ENDBRANCH  32  33
ENDBRANCH  31  32
ENDBRANCH  30  31
ENDBRANCH  29  30
ENDBRANCH  28  29
ENDBRANCH   1  28
TORSDOF 24
ENDMDL
