MODEL 1
REMARK VINA RESULT:     -10.5      0.000      0.000
REMARK SMILES Cc1cccc(NS(=O)(=O)c2ccc(Br)c(C(=O)OCCOCCOCCOCCOC(=O)c3ccc(-c4c5nc(c(-c6c(F)c(F)c(F)c(F)c6F)c6ccc([nH]6)c(-c6c(F)c(F)c(F)c(F)c6F)c6nc(c(-c7c(F)c(F)c(F)c(F)c7F)c7ccc4[nH]7)C=C6)C=C5)cc3)c2)c1
REMARK SMILES IDX 24 1 23 2 22 3 21 4 20 5 19 6 17 7 18 8 16 9 11 10 12 11
REMARK SMILES IDX 97 12 13 13 14 14 15 15 8 16 9 17 10 18 7 19 6 21 1 22 2 23
REMARK SMILES IDX 3 24 98 25 4 26 5 27 25 28 26 29 27 30 28 31 29 32 30 33
REMARK SMILES IDX 31 34 32 35 33 36 34 37 35 38 96 39 36 40 95 41 37 42 38 43
REMARK SMILES IDX 39 44 89 45 40 46 94 47 88 48 90 49 41 50 93 51 87 52 86 53
REMARK SMILES IDX 42 55 74 56 54 57 73 58 55 59 58 60 72 61 91 62 56 63 57 64
REMARK SMILES IDX 71 66 92 67 59 68 43 69 44 70 52 71 45 72 46 73 50 74 53 75
REMARK SMILES IDX 47 76 48 77 51 78 49 79 75 80 76 81 84 82 77 83 78 84 82 85
REMARK SMILES IDX 85 86 79 87 80 88 83 89 81 90 60 91 61 92 69 93 62 94 63 95
REMARK SMILES IDX 67 96 70 97 64 98 65 99 68 100 66 101
REMARK H PARENT 7 20 90 54 58 65
REMARK Flexibility Score: inf
ROOT
ATOM      1  C   UNL A   1      40.847  20.012  26.041  1.00  0.00     0.188 C 
ENDROOT
BRANCH   1   2
ATOM      2  C   UNL A   1      39.933  21.214  26.271  1.00  0.00     0.188 C 
BRANCH   2   3
ATOM      3  O   UNL A   1      38.611  21.111  25.752  1.00  0.00    -0.376 OA
BRANCH   3   4
ATOM      4  C   UNL A   1      38.321  19.876  25.094  1.00  0.00     0.202 C 
BRANCH   4   5
ATOM      5  C   UNL A   1      36.840  19.473  24.972  1.00  0.00     0.261 C 
BRANCH   5   6
ATOM      6  O   UNL A   1      35.973  20.543  25.375  1.00  0.00    -0.460 OA
BRANCH   6   7
ATOM      7  C   UNL A   1      34.737  20.568  24.822  1.00  0.00     0.339 C 
ATOM      8  O   UNL A   1      33.928  19.662  24.759  1.00  0.00    -0.246 OA
BRANCH   7   9
ATOM      9  C   UNL A   1      34.381  21.994  24.833  1.00  0.00     0.075 A 
ATOM     10  C   UNL A   1      32.835  23.522  25.832  1.00  0.00     0.088 A 
ATOM     11  C   UNL A   1      33.863  24.457  26.005  1.00  0.00     0.023 A 
ATOM     12  C   UNL A   1      33.115  22.250  25.352  1.00  0.00     0.039 A 
ATOM     13  C   UNL A   1      35.090  24.234  25.372  1.00  0.00     0.018 A 
ATOM     14  C   UNL A   1      35.306  23.030  24.696  1.00  0.00     0.032 A 
ATOM     15  Br  UNL A   1      36.650  22.953  23.363  1.00  0.00    -0.050 Br
BRANCH  10  16
ATOM     16  S   UNL A   1      31.152  23.956  26.129  1.00  0.00     0.261 S 
ATOM     17  O   UNL A   1      31.142  25.198  26.874  1.00  0.00    -0.201 OA
ATOM     18  O   UNL A   1      30.481  22.786  26.653  1.00  0.00    -0.201 OA
BRANCH  16  19
ATOM     19  N   UNL A   1      30.440  24.243  24.602  1.00  0.00    -0.280 N 
ATOM     20  H   UNL A   1      29.920  23.525  24.174  1.00  0.00     0.180 HD
BRANCH  19  21
ATOM     21  C   UNL A   1      30.578  25.505  23.920  1.00  0.00     0.049 A 
ATOM     22  C   UNL A   1      33.351  27.588  22.362  1.00  0.00     0.044 C 
ATOM     23  C   UNL A   1      31.989  27.121  22.777  1.00  0.00    -0.049 A 
ATOM     24  C   UNL A   1      30.886  27.961  22.594  1.00  0.00     0.003 A 
ATOM     25  C   UNL A   1      31.814  25.866  23.386  1.00  0.00     0.030 A 
ATOM     26  C   UNL A   1      29.673  27.638  23.187  1.00  0.00     0.002 A 
ATOM     27  C   UNL A   1      29.561  26.460  23.928  1.00  0.00     0.027 A 
ENDBRANCH  19  21
ENDBRANCH  16  19
ENDBRANCH  10  16
ENDBRANCH   7   9
ENDBRANCH   6   7
ENDBRANCH   5   6
ENDBRANCH   4   5
ENDBRANCH   3   4
ENDBRANCH   2   3
ENDBRANCH   1   2
BRANCH   1  28
ATOM     28  O   UNL A   1      41.927  19.908  26.975  1.00  0.00    -0.377 OA
BRANCH  28  29
ATOM     29  C   UNL A   1      43.066  19.162  26.554  1.00  0.00     0.188 C 
BRANCH  29  30
ATOM     30  C   UNL A   1      43.336  19.233  25.056  1.00  0.00     0.188 C 
BRANCH  30  31
ATOM     31  O   UNL A   1      44.705  19.592  24.872  1.00  0.00    -0.376 OA
BRANCH  31  32
ATOM     32  C   UNL A   1      45.288  20.323  25.949  1.00  0.00     0.202 C 
BRANCH  32  33
ATOM     33  C   UNL A   1      45.441  21.820  25.659  1.00  0.00     0.261 C 
BRANCH  33  34
ATOM     34  O   UNL A   1      44.351  22.531  26.277  1.00  0.00    -0.460 OA
BRANCH  34  35
ATOM     35  C   UNL A   1      43.371  22.932  25.425  1.00  0.00     0.338 C 
ATOM     36  O   UNL A   1      43.237  22.557  24.273  1.00  0.00    -0.246 OA
BRANCH  35  37
ATOM     37  C   UNL A   1      42.664  24.115  25.997  1.00  0.00     0.060 A 
ATOM     38  C   UNL A   1      42.240  25.149  25.145  1.00  0.00     0.016 A 
ATOM     39  C   UNL A   1      42.715  24.334  27.370  1.00  0.00     0.016 A 
ATOM     40  C   UNL A   1      42.009  26.437  25.654  1.00  0.00     0.010 A 
ATOM     41  C   UNL A   1      42.575  25.623  27.850  1.00  0.00     0.010 A 
ATOM     42  C   UNL A   1      42.258  26.699  27.004  1.00  0.00    -0.014 A 
BRANCH  42  43
ATOM     43  C   UNL A   1      42.474  28.039  27.593  1.00  0.00     0.031 A 
ATOM     44  C   UNL A   1      41.320  28.876  28.064  1.00  0.00     0.074 A 
ATOM     45  C   UNL A   1      43.703  28.280  28.107  1.00  0.00     0.049 A 
ATOM     46  N   UNL A   1      41.421  29.948  28.779  1.00  0.00    -0.248 NA
ATOM     47  C   UNL A   1      39.930  28.582  27.730  1.00  0.00     0.031 C 
ATOM     48  C   UNL A   1      43.956  28.955  29.377  1.00  0.00     0.029 A 
ATOM     49  N   UNL A   1      44.962  27.810  27.753  1.00  0.00    -0.354 N 
ATOM     50  C   UNL A   1      40.171  30.317  29.236  1.00  0.00     0.074 A 
ATOM     51  C   UNL A   1      39.275  29.506  28.446  1.00  0.00     0.031 C 
ATOM     52  C   UNL A   1      45.242  28.813  29.709  1.00  0.00     0.029 A 
ATOM     53  C   UNL A   1      45.955  28.421  28.535  1.00  0.00     0.049 A 
ATOM     54  H   UNL A   1      45.133  27.141  27.052  1.00  0.00     0.167 HD
ATOM     55  C   UNL A   1      40.058  31.184  30.298  1.00  0.00     0.037 A 
ATOM     56  C   UNL A   1      46.859  29.281  27.972  1.00  0.00     0.037 A 
ATOM     57  C   UNL A   1      41.368  31.774  30.701  1.00  0.00     0.049 A 
ATOM     58  C   UNL A   1      46.507  30.762  28.120  1.00  0.00     0.074 A 
ATOM     59  C   UNL A   1      42.009  32.093  31.890  1.00  0.00     0.029 A 
ATOM     60  N   UNL A   1      42.317  32.067  29.723  1.00  0.00    -0.354 N 
ATOM     61  N   UNL A   1      45.626  31.238  28.971  1.00  0.00    -0.248 NA
ATOM     62  C   UNL A   1      47.056  31.821  27.275  1.00  0.00     0.031 C 
ATOM     63  C   UNL A   1      43.310  32.615  31.600  1.00  0.00     0.029 A 
ATOM     64  C   UNL A   1      43.461  32.642  30.229  1.00  0.00     0.049 A 
ATOM     65  H   UNL A   1      42.182  31.880  28.766  1.00  0.00     0.167 HD
ATOM     66  C   UNL A   1      45.374  32.558  28.709  1.00  0.00     0.074 A 
ATOM     67  C   UNL A   1      46.329  32.886  27.662  1.00  0.00     0.031 C 
ATOM     68  C   UNL A   1      44.370  33.284  29.295  1.00  0.00     0.037 A 
BRANCH  55  69
ATOM     69  C   UNL A   1      38.766  31.435  31.113  1.00  0.00     0.064 A 
ATOM     70  C   UNL A   1      37.630  32.044  30.520  1.00  0.00     0.173 A 
ATOM     71  C   UNL A   1      38.598  31.184  32.496  1.00  0.00     0.173 A 
ATOM     72  F   UNL A   1      37.573  32.290  29.206  1.00  0.00    -0.203 F 
ATOM     73  C   UNL A   1      36.482  32.413  31.244  1.00  0.00     0.198 A 
ATOM     74  C   UNL A   1      37.416  31.474  33.200  1.00  0.00     0.198 A 
ATOM     75  F   UNL A   1      39.577  30.696  33.259  1.00  0.00    -0.203 F 
ATOM     76  F   UNL A   1      35.481  33.058  30.626  1.00  0.00    -0.200 F 
ATOM     77  C   UNL A   1      36.367  32.112  32.582  1.00  0.00     0.200 A 
ATOM     78  F   UNL A   1      37.321  31.142  34.497  1.00  0.00    -0.200 F 
ATOM     79  F   UNL A   1      35.263  32.434  33.269  1.00  0.00    -0.200 F 
ENDBRANCH  55  69
BRANCH  56  80
ATOM     80  C   UNL A   1      47.692  28.540  26.974  1.00  0.00     0.064 A 
ATOM     81  C   UNL A   1      48.480  27.532  27.580  1.00  0.00     0.173 A 
ATOM     82  C   UNL A   1      47.124  28.244  25.725  1.00  0.00     0.173 A 
ATOM     83  F   UNL A   1      49.098  27.785  28.744  1.00  0.00    -0.203 F 
ATOM     84  C   UNL A   1      48.400  26.210  27.146  1.00  0.00     0.198 A 
ATOM     85  C   UNL A   1      47.056  26.917  25.287  1.00  0.00     0.198 A 
ATOM     86  F   UNL A   1      46.413  29.177  25.076  1.00  0.00    -0.203 F 
ATOM     87  F   UNL A   1      48.933  25.229  27.888  1.00  0.00    -0.200 F 
ATOM     88  C   UNL A   1      47.633  25.898  26.035  1.00  0.00     0.200 A 
ATOM     89  F   UNL A   1      46.283  26.604  24.237  1.00  0.00    -0.200 F 
ATOM     90  F   UNL A   1      47.376  24.616  25.738  1.00  0.00    -0.200 F 
ENDBRANCH  56  80
BRANCH  68  91
ATOM     91  C   UNL A   1      44.066  34.719  28.946  1.00  0.00     0.064 A 
ATOM     92  C   UNL A   1      44.236  35.768  29.855  1.00  0.00     0.173 A 
ATOM     93  C   UNL A   1      43.505  35.069  27.693  1.00  0.00     0.173 A 
ATOM     94  F   UNL A   1      44.642  35.526  31.111  1.00  0.00    -0.203 F 
ATOM     95  C   UNL A   1      43.981  37.092  29.494  1.00  0.00     0.198 A 
ATOM     96  C   UNL A   1      43.199  36.383  27.357  1.00  0.00     0.198 A 
ATOM     97  F   UNL A   1      43.262  34.158  26.742  1.00  0.00    -0.203 F 
ATOM     98  F   UNL A   1      44.243  38.077  30.364  1.00  0.00    -0.200 F 
ATOM     99  C   UNL A   1      43.469  37.400  28.245  1.00  0.00     0.200 A 
ATOM    100  F   UNL A   1      42.661  36.655  26.158  1.00  0.00    -0.200 F 
ATOM    101  F   UNL A   1      43.243  38.673  27.896  1.00  0.00    -0.200 F 
ENDBRANCH  68  91
ENDBRANCH  42  43
ENDBRANCH  35  37
ENDBRANCH  34  35
ENDBRANCH  33  34
ENDBRANCH  32  33
ENDBRANCH  31  32
ENDBRANCH  30  31
ENDBRANCH  29  30
ENDBRANCH  28  29
ENDBRANCH   1  28
TORSDOF 23
ENDMDL
MODEL 2
REMARK VINA RESULT:     -10.3      2.428      4.922
REMARK SMILES Cc1cccc(NS(=O)(=O)c2ccc(Br)c(C(=O)OCCOCCOCCOCCOC(=O)c3ccc(-c4c5nc(c(-c6c(F)c(F)c(F)c(F)c6F)c6ccc([nH]6)c(-c6c(F)c(F)c(F)c(F)c6F)c6nc(c(-c7c(F)c(F)c(F)c(F)c7F)c7ccc4[nH]7)C=C6)C=C5)cc3)c2)c1
REMARK SMILES IDX 24 1 23 2 22 3 21 4 20 5 19 6 17 7 18 8 16 9 11 10 12 11
REMARK SMILES IDX 97 12 13 13 14 14 15 15 8 16 9 17 10 18 7 19 6 21 1 22 2 23
REMARK SMILES IDX 3 24 98 25 4 26 5 27 25 28 26 29 27 30 28 31 29 32 30 33
REMARK SMILES IDX 31 34 32 35 33 36 34 37 35 38 96 39 36 40 95 41 37 42 38 43
REMARK SMILES IDX 39 44 89 45 40 46 94 47 88 48 90 49 41 50 93 51 87 52 86 53
REMARK SMILES IDX 42 55 74 56 54 57 73 58 55 59 58 60 72 61 91 62 56 63 57 64
REMARK SMILES IDX 71 66 92 67 59 68 43 69 44 70 52 71 45 72 46 73 50 74 53 75
REMARK SMILES IDX 47 76 48 77 51 78 49 79 75 80 76 81 84 82 77 83 78 84 82 85
REMARK SMILES IDX 85 86 79 87 80 88 83 89 81 90 60 91 61 92 69 93 62 94 63 95
REMARK SMILES IDX 67 96 70 97 64 98 65 99 68 100 66 101
REMARK H PARENT 7 20 90 54 58 65
REMARK Flexibility Score: inf
ROOT
ATOM      1  C   UNL A   1      33.700  20.440  25.483  1.00  0.00     0.188 C 
ENDROOT
BRANCH   1   2
ATOM      2  C   UNL A   1      32.606  20.790  24.476  1.00  0.00     0.188 C 
BRANCH   2   3
ATOM      3  O   UNL A   1      31.688  21.805  24.867  1.00  0.00    -0.376 OA
BRANCH   3   4
ATOM      4  C   UNL A   1      31.812  22.233  26.225  1.00  0.00     0.202 C 
BRANCH   4   5
ATOM      5  C   UNL A   1      32.326  23.663  26.471  1.00  0.00     0.261 C 
BRANCH   5   6
ATOM      6  O   UNL A   1      31.985  24.534  25.383  1.00  0.00    -0.460 OA
BRANCH   6   7
ATOM      7  C   UNL A   1      32.992  24.902  24.555  1.00  0.00     0.339 C 
ATOM      8  O   UNL A   1      33.632  24.197  23.798  1.00  0.00    -0.246 OA
BRANCH   7   9
ATOM      9  C   UNL A   1      32.770  26.341  24.355  1.00  0.00     0.075 A 
ATOM     10  C   UNL A   1      33.065  28.442  25.458  1.00  0.00     0.088 A 
ATOM     11  C   UNL A   1      33.502  29.017  24.259  1.00  0.00     0.023 A 
ATOM     12  C   UNL A   1      32.809  27.081  25.534  1.00  0.00     0.039 A 
ATOM     13  C   UNL A   1      33.341  28.298  23.070  1.00  0.00     0.018 A 
ATOM     14  C   UNL A   1      32.874  26.982  23.120  1.00  0.00     0.032 A 
ATOM     15  Br  UNL A   1      32.085  26.228  21.572  1.00  0.00    -0.050 Br
BRANCH  10  16
ATOM     16  S   UNL A   1      32.740  29.438  26.878  1.00  0.00     0.261 S 
ATOM     17  O   UNL A   1      31.457  29.033  27.415  1.00  0.00    -0.201 OA
ATOM     18  O   UNL A   1      32.973  30.818  26.510  1.00  0.00    -0.201 OA
BRANCH  16  19
ATOM     19  N   UNL A   1      33.945  29.064  28.030  1.00  0.00    -0.280 N 
ATOM     20  H   UNL A   1      33.783  28.336  28.672  1.00  0.00     0.180 HD
BRANCH  19  21
ATOM     21  C   UNL A   1      35.193  29.782  28.089  1.00  0.00     0.049 A 
ATOM     22  C   UNL A   1      36.391  33.312  28.840  1.00  0.00     0.044 C 
ATOM     23  C   UNL A   1      36.400  31.844  28.536  1.00  0.00    -0.049 A 
ATOM     24  C   UNL A   1      37.605  31.214  28.210  1.00  0.00     0.003 A 
ATOM     25  C   UNL A   1      35.206  31.103  28.534  1.00  0.00     0.030 A 
ATOM     26  C   UNL A   1      37.587  29.924  27.698  1.00  0.00     0.002 A 
ATOM     27  C   UNL A   1      36.369  29.258  27.551  1.00  0.00     0.027 A 
ENDBRANCH  19  21
ENDBRANCH  16  19
ENDBRANCH  10  16
ENDBRANCH   7   9
ENDBRANCH   6   7
ENDBRANCH   5   6
ENDBRANCH   4   5
ENDBRANCH   3   4
ENDBRANCH   2   3
ENDBRANCH   1   2
BRANCH   1  28
ATOM     28  O   UNL A   1      35.032  20.619  24.990  1.00  0.00    -0.377 OA
BRANCH  28  29
ATOM     29  C   UNL A   1      35.299  21.838  24.301  1.00  0.00     0.188 C 
BRANCH  29  30
ATOM     30  C   UNL A   1      36.767  22.043  23.949  1.00  0.00     0.188 C 
BRANCH  30  31
ATOM     31  O   UNL A   1      37.194  23.272  24.538  1.00  0.00    -0.376 OA
BRANCH  31  32
ATOM     32  C   UNL A   1      37.777  23.150  25.834  1.00  0.00     0.202 C 
BRANCH  32  33
ATOM     33  C   UNL A   1      38.363  21.762  26.112  1.00  0.00     0.261 C 
BRANCH  33  34
ATOM     34  O   UNL A   1      39.751  21.754  25.725  1.00  0.00    -0.460 OA
BRANCH  34  35
ATOM     35  C   UNL A   1      40.578  21.078  26.565  1.00  0.00     0.338 C 
ATOM     36  O   UNL A   1      40.339  19.995  27.073  1.00  0.00    -0.246 OA
BRANCH  35  37
ATOM     37  C   UNL A   1      41.682  21.975  27.012  1.00  0.00     0.060 A 
ATOM     38  C   UNL A   1      41.885  22.195  28.386  1.00  0.00     0.016 A 
ATOM     39  C   UNL A   1      42.282  22.822  26.085  1.00  0.00     0.016 A 
ATOM     40  C   UNL A   1      42.566  23.342  28.827  1.00  0.00     0.010 A 
ATOM     41  C   UNL A   1      42.869  23.993  26.527  1.00  0.00     0.010 A 
ATOM     42  C   UNL A   1      42.989  24.292  27.894  1.00  0.00    -0.014 A 
BRANCH  42  43
ATOM     43  C   UNL A   1      43.323  25.702  28.196  1.00  0.00     0.031 A 
ATOM     44  C   UNL A   1      42.251  26.700  28.529  1.00  0.00     0.074 A 
ATOM     45  C   UNL A   1      44.589  25.946  28.611  1.00  0.00     0.049 A 
ATOM     46  N   UNL A   1      42.459  27.880  29.014  1.00  0.00    -0.248 NA
ATOM     47  C   UNL A   1      40.831  26.452  28.307  1.00  0.00     0.031 C 
ATOM     48  C   UNL A   1      44.946  26.835  29.712  1.00  0.00     0.029 A 
ATOM     49  N   UNL A   1      45.794  25.322  28.316  1.00  0.00    -0.354 N 
ATOM     50  C   UNL A   1      41.259  28.426  29.429  1.00  0.00     0.074 A 
ATOM     51  C   UNL A   1      40.274  27.545  28.847  1.00  0.00     0.031 C 
ATOM     52  C   UNL A   1      46.234  26.664  30.023  1.00  0.00     0.029 A 
ATOM     53  C   UNL A   1      46.863  25.997  28.927  1.00  0.00     0.049 A 
ATOM     54  H   UNL A   1      45.886  24.517  27.756  1.00  0.00     0.167 HD
ATOM     55  C   UNL A   1      41.255  29.490  30.300  1.00  0.00     0.037 A 
ATOM     56  C   UNL A   1      47.795  26.659  28.175  1.00  0.00     0.037 A 
ATOM     57  C   UNL A   1      42.620  30.046  30.535  1.00  0.00     0.049 A 
ATOM     58  C   UNL A   1      47.551  28.163  28.037  1.00  0.00     0.074 A 
ATOM     59  C   UNL A   1      43.337  30.542  31.614  1.00  0.00     0.029 A 
ATOM     60  N   UNL A   1      43.539  30.069  29.487  1.00  0.00    -0.354 N 
ATOM     61  N   UNL A   1      46.746  28.861  28.806  1.00  0.00    -0.248 NA
ATOM     62  C   UNL A   1      48.129  28.991  26.981  1.00  0.00     0.031 C 
ATOM     63  C   UNL A   1      44.655  30.898  31.183  1.00  0.00     0.029 A 
ATOM     64  C   UNL A   1      44.742  30.645  29.830  1.00  0.00     0.049 A 
ATOM     65  H   UNL A   1      43.347  29.710  28.591  1.00  0.00     0.167 HD
ATOM     66  C   UNL A   1      46.571  30.120  28.295  1.00  0.00     0.074 A 
ATOM     67  C   UNL A   1      47.495  30.164  27.172  1.00  0.00     0.031 C 
ATOM     68  C   UNL A   1      45.647  31.020  28.757  1.00  0.00     0.037 A 
BRANCH  55  69
ATOM     69  C   UNL A   1      40.024  29.992  31.092  1.00  0.00     0.064 A 
ATOM     70  C   UNL A   1      39.233  29.101  31.863  1.00  0.00     0.173 A 
ATOM     71  C   UNL A   1      39.510  31.311  31.075  1.00  0.00     0.173 A 
ATOM     72  F   UNL A   1      39.599  27.828  32.057  1.00  0.00    -0.203 F 
ATOM     73  C   UNL A   1      38.033  29.477  32.494  1.00  0.00     0.198 A 
ATOM     74  C   UNL A   1      38.357  31.704  31.778  1.00  0.00     0.198 A 
ATOM     75  F   UNL A   1      40.055  32.282  30.340  1.00  0.00    -0.203 F 
ATOM     76  F   UNL A   1      37.301  28.556  33.138  1.00  0.00    -0.200 F 
ATOM     77  C   UNL A   1      37.604  30.784  32.466  1.00  0.00     0.200 A 
ATOM     78  F   UNL A   1      37.979  32.992  31.758  1.00  0.00    -0.200 F 
ATOM     79  F   UNL A   1      36.478  31.153  33.090  1.00  0.00    -0.200 F 
ENDBRANCH  55  69
BRANCH  56  80
ATOM     80  C   UNL A   1      48.528  25.676  27.317  1.00  0.00     0.064 A 
ATOM     81  C   UNL A   1      48.293  25.893  25.938  1.00  0.00     0.173 A 
ATOM     82  C   UNL A   1      49.829  25.309  27.694  1.00  0.00     0.173 A 
ATOM     83  F   UNL A   1      47.052  26.185  25.516  1.00  0.00    -0.203 F 
ATOM     84  C   UNL A   1      49.354  26.085  25.057  1.00  0.00     0.198 A 
ATOM     85  C   UNL A   1      50.891  25.493  26.803  1.00  0.00     0.198 A 
ATOM     86  F   UNL A   1      50.102  25.037  28.979  1.00  0.00    -0.203 F 
ATOM     87  F   UNL A   1      49.122  26.554  23.822  1.00  0.00    -0.200 F 
ATOM     88  C   UNL A   1      50.656  25.948  25.510  1.00  0.00     0.200 A 
ATOM     89  F   UNL A   1      52.153  25.400  27.246  1.00  0.00    -0.200 F 
ATOM     90  F   UNL A   1      51.680  26.337  24.737  1.00  0.00    -0.200 F 
ENDBRANCH  56  80
BRANCH  68  91
ATOM     91  C   UNL A   1      45.424  32.378  28.140  1.00  0.00     0.064 A 
ATOM     92  C   UNL A   1      44.563  32.581  27.058  1.00  0.00     0.173 A 
ATOM     93  C   UNL A   1      46.150  33.514  28.578  1.00  0.00     0.173 A 
ATOM     94  F   UNL A   1      43.925  31.549  26.487  1.00  0.00    -0.203 F 
ATOM     95  C   UNL A   1      44.347  33.856  26.529  1.00  0.00     0.198 A 
ATOM     96  C   UNL A   1      45.974  34.772  28.012  1.00  0.00     0.198 A 
ATOM     97  F   UNL A   1      47.030  33.451  29.586  1.00  0.00    -0.203 F 
ATOM     98  F   UNL A   1      43.446  34.023  25.552  1.00  0.00    -0.200 F 
ATOM     99  C   UNL A   1      45.047  34.950  27.010  1.00  0.00     0.200 A 
ATOM    100  F   UNL A   1      46.696  35.809  28.461  1.00  0.00    -0.200 F 
ATOM    101  F   UNL A   1      44.824  36.173  26.512  1.00  0.00    -0.200 F 
ENDBRANCH  68  91
ENDBRANCH  42  43
ENDBRANCH  35  37
ENDBRANCH  34  35
ENDBRANCH  33  34
ENDBRANCH  32  33
ENDBRANCH  31  32
ENDBRANCH  30  31
ENDBRANCH  29  30
ENDBRANCH  28  29
ENDBRANCH   1  28
TORSDOF 23
ENDMDL
MODEL 3
REMARK VINA RESULT:     -10.0      1.714      2.186
REMARK SMILES Cc1cccc(NS(=O)(=O)c2ccc(Br)c(C(=O)OCCOCCOCCOCCOC(=O)c3ccc(-c4c5nc(c(-c6c(F)c(F)c(F)c(F)c6F)c6ccc([nH]6)c(-c6c(F)c(F)c(F)c(F)c6F)c6nc(c(-c7c(F)c(F)c(F)c(F)c7F)c7ccc4[nH]7)C=C6)C=C5)cc3)c2)c1
REMARK SMILES IDX 24 1 23 2 22 3 21 4 20 5 19 6 17 7 18 8 16 9 11 10 12 11
REMARK SMILES IDX 97 12 13 13 14 14 15 15 8 16 9 17 10 18 7 19 6 21 1 22 2 23
REMARK SMILES IDX 3 24 98 25 4 26 5 27 25 28 26 29 27 30 28 31 29 32 30 33
REMARK SMILES IDX 31 34 32 35 33 36 34 37 35 38 96 39 36 40 95 41 37 42 38 43
REMARK SMILES IDX 39 44 89 45 40 46 94 47 88 48 90 49 41 50 93 51 87 52 86 53
REMARK SMILES IDX 42 55 74 56 54 57 73 58 55 59 58 60 72 61 91 62 56 63 57 64
REMARK SMILES IDX 71 66 92 67 59 68 43 69 44 70 52 71 45 72 46 73 50 74 53 75
REMARK SMILES IDX 47 76 48 77 51 78 49 79 75 80 76 81 84 82 77 83 78 84 82 85
REMARK SMILES IDX 85 86 79 87 80 88 83 89 81 90 60 91 61 92 69 93 62 94 63 95
REMARK SMILES IDX 67 96 70 97 64 98 65 99 68 100 66 101
REMARK H PARENT 7 20 90 54 58 65
REMARK Flexibility Score: inf
ROOT
ATOM      1  C   UNL A   1      40.136  20.856  26.481  1.00  0.00     0.188 C 
ENDROOT
BRANCH   1   2
ATOM      2  C   UNL A   1      39.372  22.179  26.488  1.00  0.00     0.188 C 
BRANCH   2   3
ATOM      3  O   UNL A   1      38.301  22.296  25.557  1.00  0.00    -0.376 OA
BRANCH   3   4
ATOM      4  C   UNL A   1      37.807  21.052  25.055  1.00  0.00     0.202 C 
BRANCH   4   5
ATOM      5  C   UNL A   1      36.301  20.776  25.215  1.00  0.00     0.261 C 
BRANCH   5   6
ATOM      6  O   UNL A   1      35.592  21.960  25.611  1.00  0.00    -0.460 OA
BRANCH   6   7
ATOM      7  C   UNL A   1      34.469  21.781  26.348  1.00  0.00     0.339 C 
ATOM      8  O   UNL A   1      34.386  21.554  27.539  1.00  0.00    -0.246 OA
BRANCH   7   9
ATOM      9  C   UNL A   1      33.426  22.453  25.559  1.00  0.00     0.075 A 
ATOM     10  C   UNL A   1      32.645  24.639  24.983  1.00  0.00     0.088 A 
ATOM     11  C   UNL A   1      32.449  24.226  23.659  1.00  0.00     0.023 A 
ATOM     12  C   UNL A   1      33.238  23.789  25.904  1.00  0.00     0.039 A 
ATOM     13  C   UNL A   1      32.525  22.861  23.361  1.00  0.00     0.018 A 
ATOM     14  C   UNL A   1      32.922  21.962  24.355  1.00  0.00     0.032 A 
ATOM     15  Br  UNL A   1      32.453  20.135  24.178  1.00  0.00    -0.050 Br
BRANCH  10  16
ATOM     16  S   UNL A   1      32.061  26.207  25.541  1.00  0.00     0.261 S 
ATOM     17  O   UNL A   1      31.697  26.071  26.936  1.00  0.00    -0.201 OA
ATOM     18  O   UNL A   1      31.092  26.684  24.578  1.00  0.00    -0.201 OA
BRANCH  16  19
ATOM     19  N   UNL A   1      33.379  27.290  25.436  1.00  0.00    -0.280 N 
ATOM     20  H   UNL A   1      34.154  27.047  24.879  1.00  0.00     0.180 HD
BRANCH  19  21
ATOM     21  C   UNL A   1      33.391  28.549  26.136  1.00  0.00     0.049 A 
ATOM     22  C   UNL A   1      31.261  31.692  26.336  1.00  0.00     0.044 C 
ATOM     23  C   UNL A   1      32.331  30.682  26.621  1.00  0.00    -0.049 A 
ATOM     24  C   UNL A   1      33.382  31.015  27.480  1.00  0.00     0.003 A 
ATOM     25  C   UNL A   1      32.311  29.421  26.001  1.00  0.00     0.030 A 
ATOM     26  C   UNL A   1      34.490  30.182  27.560  1.00  0.00     0.002 A 
ATOM     27  C   UNL A   1      34.524  29.006  26.809  1.00  0.00     0.027 A 
ENDBRANCH  19  21
ENDBRANCH  16  19
ENDBRANCH  10  16
ENDBRANCH   7   9
ENDBRANCH   6   7
ENDBRANCH   5   6
ENDBRANCH   4   5
ENDBRANCH   3   4
ENDBRANCH   2   3
ENDBRANCH   1   2
BRANCH   1  28
ATOM     28  O   UNL A   1      41.234  20.807  27.397  1.00  0.00    -0.377 OA
BRANCH  28  29
ATOM     29  C   UNL A   1      42.302  19.922  27.067  1.00  0.00     0.188 C 
BRANCH  29  30
ATOM     30  C   UNL A   1      42.259  19.403  25.635  1.00  0.00     0.188 C 
BRANCH  30  31
ATOM     31  O   UNL A   1      43.581  19.474  25.102  1.00  0.00    -0.376 OA
BRANCH  31  32
ATOM     32  C   UNL A   1      44.539  20.112  25.943  1.00  0.00     0.202 C 
BRANCH  32  33
ATOM     33  C   UNL A   1      45.092  21.417  25.360  1.00  0.00     0.261 C 
BRANCH  33  34
ATOM     34  O   UNL A   1      44.402  22.529  25.961  1.00  0.00    -0.460 OA
BRANCH  34  35
ATOM     35  C   UNL A   1      43.338  22.994  25.255  1.00  0.00     0.338 C 
ATOM     36  O   UNL A   1      43.072  22.703  24.101  1.00  0.00    -0.246 OA
BRANCH  35  37
ATOM     37  C   UNL A   1      42.712  24.134  25.985  1.00  0.00     0.060 A 
ATOM     38  C   UNL A   1      42.086  25.164  25.261  1.00  0.00     0.016 A 
ATOM     39  C   UNL A   1      43.026  24.332  27.327  1.00  0.00     0.016 A 
ATOM     40  C   UNL A   1      41.910  26.431  25.838  1.00  0.00     0.010 A 
ATOM     41  C   UNL A   1      42.933  25.605  27.857  1.00  0.00     0.010 A 
ATOM     42  C   UNL A   1      42.412  26.680  27.119  1.00  0.00    -0.014 A 
BRANCH  42  43
ATOM     43  C   UNL A   1      42.688  28.019  27.687  1.00  0.00     0.031 A 
ATOM     44  C   UNL A   1      41.572  28.909  28.154  1.00  0.00     0.074 A 
ATOM     45  C   UNL A   1      43.930  28.216  28.189  1.00  0.00     0.049 A 
ATOM     46  N   UNL A   1      41.723  29.985  28.854  1.00  0.00    -0.248 NA
ATOM     47  C   UNL A   1      40.169  28.668  27.834  1.00  0.00     0.031 C 
ATOM     48  C   UNL A   1      44.219  28.897  29.448  1.00  0.00     0.029 A 
ATOM     49  N   UNL A   1      45.165  27.689  27.833  1.00  0.00    -0.354 N 
ATOM     50  C   UNL A   1      40.492  30.412  29.314  1.00  0.00     0.074 A 
ATOM     51  C   UNL A   1      39.558  29.627  28.542  1.00  0.00     0.031 C 
ATOM     52  C   UNL A   1      45.501  28.706  29.773  1.00  0.00     0.029 A 
ATOM     53  C   UNL A   1      46.189  28.269  28.599  1.00  0.00     0.049 A 
ATOM     54  H   UNL A   1      45.303  27.004  27.140  1.00  0.00     0.167 HD
ATOM     55  C   UNL A   1      40.423  31.297  30.364  1.00  0.00     0.037 A 
ATOM     56  C   UNL A   1      47.123  29.083  28.018  1.00  0.00     0.037 A 
ATOM     57  C   UNL A   1      41.760  31.838  30.750  1.00  0.00     0.049 A 
ATOM     58  C   UNL A   1      46.833  30.580  28.148  1.00  0.00     0.074 A 
ATOM     59  C   UNL A   1      42.423  32.146  31.930  1.00  0.00     0.029 A 
ATOM     60  N   UNL A   1      42.712  32.078  29.762  1.00  0.00    -0.354 N 
ATOM     61  N   UNL A   1      45.979  31.103  28.999  1.00  0.00    -0.248 NA
ATOM     62  C   UNL A   1      47.418  31.603  27.284  1.00  0.00     0.031 C 
ATOM     63  C   UNL A   1      43.741  32.611  31.624  1.00  0.00     0.029 A 
ATOM     64  C   UNL A   1      43.883  32.613  30.251  1.00  0.00     0.049 A 
ATOM     65  H   UNL A   1      42.563  31.884  28.808  1.00  0.00     0.167 HD
ATOM     66  C   UNL A   1      45.779  32.429  28.720  1.00  0.00     0.074 A 
ATOM     67  C   UNL A   1      46.739  32.703  27.661  1.00  0.00     0.031 C 
ATOM     68  C   UNL A   1      44.811  33.203  29.302  1.00  0.00     0.037 A 
BRANCH  55  69
ATOM     69  C   UNL A   1      39.149  31.612  31.185  1.00  0.00     0.064 A 
ATOM     70  C   UNL A   1      38.433  30.585  31.853  1.00  0.00     0.173 A 
ATOM     71  C   UNL A   1      38.525  32.878  31.292  1.00  0.00     0.173 A 
ATOM     72  F   UNL A   1      38.905  29.334  31.924  1.00  0.00    -0.203 F 
ATOM     73  C   UNL A   1      37.202  30.793  32.501  1.00  0.00     0.198 A 
ATOM     74  C   UNL A   1      37.339  33.100  32.015  1.00  0.00     0.198 A 
ATOM     75  F   UNL A   1      38.989  33.960  30.665  1.00  0.00    -0.203 F 
ATOM     76  F   UNL A   1      36.548  29.754  33.040  1.00  0.00    -0.200 F 
ATOM     77  C   UNL A   1      36.663  32.055  32.597  1.00  0.00     0.200 A 
ATOM     78  F   UNL A   1      36.853  34.347  32.118  1.00  0.00    -0.200 F 
ATOM     79  F   UNL A   1      35.507  32.264  33.240  1.00  0.00    -0.200 F 
ENDBRANCH  55  69
BRANCH  56  80
ATOM     80  C   UNL A   1      47.917  28.295  27.025  1.00  0.00     0.064 A 
ATOM     81  C   UNL A   1      48.665  27.262  27.639  1.00  0.00     0.173 A 
ATOM     82  C   UNL A   1      47.329  28.008  25.784  1.00  0.00     0.173 A 
ATOM     83  F   UNL A   1      49.301  27.503  28.797  1.00  0.00    -0.203 F 
ATOM     84  C   UNL A   1      48.527  25.939  27.222  1.00  0.00     0.198 A 
ATOM     85  C   UNL A   1      47.201  26.680  25.363  1.00  0.00     0.198 A 
ATOM     86  F   UNL A   1      46.654  28.963  25.126  1.00  0.00    -0.203 F 
ATOM     87  F   UNL A   1      49.021  24.946  27.974  1.00  0.00    -0.200 F 
ATOM     88  C   UNL A   1      47.740  25.646  26.120  1.00  0.00     0.200 A 
ATOM     89  F   UNL A   1      46.409  26.387  24.322  1.00  0.00    -0.200 F 
ATOM     90  F   UNL A   1      47.426  24.373  25.841  1.00  0.00    -0.200 F 
ENDBRANCH  56  80
BRANCH  68  91
ATOM     91  C   UNL A   1      44.563  34.645  28.935  1.00  0.00     0.064 A 
ATOM     92  C   UNL A   1      44.948  35.708  29.758  1.00  0.00     0.173 A 
ATOM     93  C   UNL A   1      43.843  34.994  27.766  1.00  0.00     0.173 A 
ATOM     94  F   UNL A   1      45.524  35.480  30.947  1.00  0.00    -0.203 F 
ATOM     95  C   UNL A   1      44.739  37.036  29.376  1.00  0.00     0.198 A 
ATOM     96  C   UNL A   1      43.587  36.316  27.417  1.00  0.00     0.198 A 
ATOM     97  F   UNL A   1      43.390  34.072  26.907  1.00  0.00    -0.203 F 
ATOM     98  F   UNL A   1      45.204  38.027  30.149  1.00  0.00    -0.200 F 
ATOM     99  C   UNL A   1      44.065  37.338  28.206  1.00  0.00     0.200 A 
ATOM    100  F   UNL A   1      42.892  36.587  26.302  1.00  0.00    -0.200 F 
ATOM    101  F   UNL A   1      43.882  38.612  27.835  1.00  0.00    -0.200 F 
ENDBRANCH  68  91
ENDBRANCH  42  43
ENDBRANCH  35  37
ENDBRANCH  34  35
ENDBRANCH  33  34
ENDBRANCH  32  33
ENDBRANCH  31  32
ENDBRANCH  30  31
ENDBRANCH  29  30
ENDBRANCH  28  29
ENDBRANCH   1  28
TORSDOF 23
ENDMDL
