MODEL 1
REMARK VINA RESULT:     -10.3      0.000      0.000
REMARK SMILES COc1ccc(-c2cc(Cl)cc3c2O[C@@H](C(F)(F)F)C(C(=O)OCCOCCOCCOCCOC(=O)c2ccc(-c4c5nc(c(-c6c(F)c(F)c(F)c(F)c6F)c6ccc([nH]6)c(-c6c(F)c(F)c(F)c(F)c6F)c6nc(c(-c7c(F)c(F)c(F)c(F)c7F)c7ccc4[nH]7)C=C6)C=C5)cc2)=C3)cc1C
REMARK SMILES IDX 29 1 28 2 27 3 26 4 25 5 24 6 23 7 21 8 22 9 20 10 7 11 8 12
REMARK SMILES IDX 13 13 9 14 12 15 14 16 10 17 11 18 101 19 15 20 6 21 3 22
REMARK SMILES IDX 4 23 103 24 5 25 102 26 104 27 2 28 1 29 16 30 17 31 18 32
REMARK SMILES IDX 19 33 30 34 31 35 32 36 33 37 34 38 35 39 36 40 37 41 38 42
REMARK SMILES IDX 39 43 100 44 40 45 99 46 41 47 42 48 43 49 93 50 44 51 98 52
REMARK SMILES IDX 92 53 94 54 45 55 97 56 91 57 90 58 46 60 78 61 58 62 77 63
REMARK SMILES IDX 59 64 62 65 76 66 95 67 60 68 61 69 75 71 96 72 63 73 47 74
REMARK SMILES IDX 48 75 56 76 49 77 50 78 54 79 57 80 51 81 52 82 55 83 53 84
REMARK SMILES IDX 79 85 80 86 88 87 81 88 82 89 86 90 89 91 83 92 84 93 87 94
REMARK SMILES IDX 85 95 64 96 65 97 73 98 66 99 67 100 71 101 74 102 68 103
REMARK SMILES IDX 69 104 72 105 70 106
REMARK H PARENT 94 59 62 70
REMARK Flexibility Score: inf
ROOT
ATOM      1  O   UNL A   1      33.638  30.547  26.391  1.00  0.00    -0.377 OA
ENDROOT
BRANCH   1   2
ATOM      2  C   UNL A   1      32.232  30.395  26.248  1.00  0.00     0.188 C 
BRANCH   2   3
ATOM      3  C   UNL A   1      31.671  29.064  26.717  1.00  0.00     0.188 C 
BRANCH   3   4
ATOM      4  O   UNL A   1      32.166  27.776  26.348  1.00  0.00    -0.376 OA
BRANCH   4   5
ATOM      5  C   UNL A   1      31.194  26.722  26.530  1.00  0.00     0.202 C 
BRANCH   5   6
ATOM      6  C   UNL A   1      31.371  25.167  26.812  1.00  0.00     0.261 C 
BRANCH   6   7
ATOM      7  O   UNL A   1      32.582  24.461  26.523  1.00  0.00    -0.460 OA
BRANCH   7   8
ATOM      8  C   UNL A   1      32.680  23.843  25.292  1.00  0.00     0.338 C 
ATOM      9  O   UNL A   1      32.071  22.883  24.901  1.00  0.00    -0.246 OA
BRANCH   8  10
ATOM     10  C   UNL A   1      33.368  24.846  24.359  1.00  0.00     0.087 C 
ATOM     11  C   UNL A   1      35.014  21.137  24.319  1.00  0.00     0.026 A 
ATOM     12  C   UNL A   1      36.298  21.104  24.918  1.00  0.00     0.033 A 
ATOM     13  C   UNL A   1      34.641  22.509  23.865  1.00  0.00     0.135 A 
ATOM     14  C   UNL A   1      37.094  22.246  25.135  1.00  0.00     0.042 A 
ATOM     15  C   UNL A   1      35.374  23.655  24.332  1.00  0.00     0.019 A 
ATOM     16  O   UNL A   1      33.551  22.908  23.038  1.00  0.00    -0.475 OA
ATOM     17  Cl  UNL A   1      38.639  22.080  25.868  1.00  0.00    -0.084 Cl
ATOM     18  C   UNL A   1      36.628  23.524  24.879  1.00  0.00     0.032 A 
ATOM     19  C   UNL A   1      34.706  24.992  24.445  1.00  0.00     0.027 C 
ATOM     20  C   UNL A   1      33.085  24.387  22.967  1.00  0.00     0.316 C 
BRANCH  11  21
ATOM     21  C   UNL A   1      34.241  19.720  24.610  1.00  0.00    -0.014 A 
ATOM     22  C   UNL A   1      33.229  16.856  24.725  1.00  0.00     0.121 A 
ATOM     23  C   UNL A   1      32.458  17.988  24.364  1.00  0.00     0.047 A 
ATOM     24  C   UNL A   1      34.570  17.085  24.968  1.00  0.00    -0.008 A 
ATOM     25  C   UNL A   1      32.934  19.367  24.296  1.00  0.00     0.013 A 
ATOM     26  C   UNL A   1      34.991  18.529  24.943  1.00  0.00     0.016 A 
ATOM     27  C   UNL A   1      35.471  15.836  25.182  1.00  0.00     0.048 C 
BRANCH  22  28
ATOM     28  O   UNL A   1      32.556  15.656  24.739  1.00  0.00    -0.496 OA
ATOM     29  C   UNL A   1      32.056  15.049  25.942  1.00  0.00     0.278 C 
ENDBRANCH  22  28
ENDBRANCH  11  21
BRANCH  20  30
ATOM     30  C   UNL A   1      31.632  24.945  22.545  1.00  0.00     0.430 C 
ATOM     31  F   UNL A   1      31.331  25.990  23.380  1.00  0.00    -0.167 F 
ATOM     32  F   UNL A   1      31.585  25.486  21.308  1.00  0.00    -0.167 F 
ATOM     33  F   UNL A   1      30.576  24.117  22.658  1.00  0.00    -0.167 F 
ENDBRANCH  20  30
ENDBRANCH   8  10
ENDBRANCH   7   8
ENDBRANCH   6   7
ENDBRANCH   5   6
ENDBRANCH   4   5
ENDBRANCH   3   4
ENDBRANCH   2   3
ENDBRANCH   1   2
BRANCH   1  34
ATOM     34  C   UNL A   1      34.069  30.768  27.724  1.00  0.00     0.188 C 
BRANCH  34  35
ATOM     35  C   UNL A   1      35.470  30.266  27.992  1.00  0.00     0.188 C 
BRANCH  35  36
ATOM     36  O   UNL A   1      35.883  30.910  29.198  1.00  0.00    -0.376 OA
BRANCH  36  37
ATOM     37  C   UNL A   1      36.330  30.056  30.239  1.00  0.00     0.202 C 
BRANCH  37  38
ATOM     38  C   UNL A   1      37.451  29.136  29.765  1.00  0.00     0.261 C 
BRANCH  38  39
ATOM     39  O   UNL A   1      38.704  29.843  29.931  1.00  0.00    -0.460 OA
BRANCH  39  40
ATOM     40  C   UNL A   1      39.638  29.218  30.706  1.00  0.00     0.338 C 
ATOM     41  O   UNL A   1      39.422  28.761  31.818  1.00  0.00    -0.246 OA
BRANCH  40  42
ATOM     42  C   UNL A   1      41.021  29.414  30.144  1.00  0.00     0.060 A 
ATOM     43  C   UNL A   1      41.254  29.425  28.760  1.00  0.00     0.016 A 
ATOM     44  C   UNL A   1      42.126  29.323  30.973  1.00  0.00     0.016 A 
ATOM     45  C   UNL A   1      42.553  29.168  28.227  1.00  0.00     0.010 A 
ATOM     46  C   UNL A   1      43.388  29.057  30.430  1.00  0.00     0.010 A 
ATOM     47  C   UNL A   1      43.641  28.877  29.058  1.00  0.00    -0.014 A 
BRANCH  47  48
ATOM     48  C   UNL A   1      44.965  28.218  28.659  1.00  0.00     0.031 A 
ATOM     49  C   UNL A   1      46.309  28.952  28.828  1.00  0.00     0.074 A 
ATOM     50  C   UNL A   1      45.008  26.857  28.573  1.00  0.00     0.049 A 
ATOM     51  N   UNL A   1      47.528  28.489  28.784  1.00  0.00    -0.248 NA
ATOM     52  C   UNL A   1      46.346  30.369  29.093  1.00  0.00     0.031 C 
ATOM     53  C   UNL A   1      46.137  25.985  28.949  1.00  0.00     0.029 A 
ATOM     54  N   UNL A   1      44.010  25.915  28.292  1.00  0.00    -0.354 N 
ATOM     55  C   UNL A   1      48.450  29.384  29.424  1.00  0.00     0.074 A 
ATOM     56  C   UNL A   1      47.636  30.553  29.420  1.00  0.00     0.031 C 
ATOM     57  C   UNL A   1      45.794  24.691  28.876  1.00  0.00     0.029 A 
ATOM     58  C   UNL A   1      44.648  24.672  28.027  1.00  0.00     0.049 A 
ATOM     59  H   UNL A   1      43.040  26.084  28.280  1.00  0.00     0.167 HD
ATOM     60  C   UNL A   1      49.715  28.971  29.919  1.00  0.00     0.037 A 
ATOM     61  C   UNL A   1      44.748  24.261  26.722  1.00  0.00     0.037 A 
ATOM     62  C   UNL A   1      49.970  27.575  29.408  1.00  0.00     0.049 A 
ATOM     63  C   UNL A   1      46.156  24.503  26.113  1.00  0.00     0.074 A 
ATOM     64  C   UNL A   1      50.637  26.421  29.791  1.00  0.00     0.029 A 
ATOM     65  N   UNL A   1      49.419  27.225  28.191  1.00  0.00    -0.354 N 
ATOM     66  N   UNL A   1      47.249  24.785  26.796  1.00  0.00    -0.248 NA
ATOM     67  C   UNL A   1      46.440  24.490  24.680  1.00  0.00     0.031 C 
ATOM     68  C   UNL A   1      50.424  25.401  28.804  1.00  0.00     0.029 A 
ATOM     69  C   UNL A   1      49.718  25.968  27.767  1.00  0.00     0.049 A 
ATOM     70  H   UNL A   1      48.853  27.840  27.669  1.00  0.00     0.167 HD
ATOM     71  C   UNL A   1      48.268  25.163  25.959  1.00  0.00     0.074 A 
ATOM     72  C   UNL A   1      47.722  24.906  24.639  1.00  0.00     0.031 C 
ATOM     73  C   UNL A   1      49.456  25.720  26.366  1.00  0.00     0.037 A 
BRANCH  60  74
ATOM     74  C   UNL A   1      50.949  29.591  30.919  1.00  0.00     0.064 A 
ATOM     75  C   UNL A   1      50.767  29.496  32.325  1.00  0.00     0.173 A 
ATOM     76  C   UNL A   1      52.136  30.372  30.721  1.00  0.00     0.173 A 
ATOM     77  F   UNL A   1      49.860  28.655  32.833  1.00  0.00    -0.203 F 
ATOM     78  C   UNL A   1      51.530  30.193  33.318  1.00  0.00     0.198 A 
ATOM     79  C   UNL A   1      52.977  30.969  31.696  1.00  0.00     0.198 A 
ATOM     80  F   UNL A   1      52.637  30.737  29.568  1.00  0.00    -0.203 F 
ATOM     81  F   UNL A   1      51.163  30.123  34.604  1.00  0.00    -0.200 F 
ATOM     82  C   UNL A   1      52.643  30.929  33.003  1.00  0.00     0.200 A 
ATOM     83  F   UNL A   1      54.088  31.622  31.304  1.00  0.00    -0.200 F 
ATOM     84  F   UNL A   1      53.386  31.560  33.922  1.00  0.00    -0.200 F 
ENDBRANCH  60  74
BRANCH  61  85
ATOM     85  C   UNL A   1      43.352  24.332  26.145  1.00  0.00     0.064 A 
ATOM     86  C   UNL A   1      42.435  23.463  26.800  1.00  0.00     0.173 A 
ATOM     87  C   UNL A   1      42.838  25.561  25.697  1.00  0.00     0.173 A 
ATOM     88  F   UNL A   1      42.851  22.258  27.223  1.00  0.00    -0.203 F 
ATOM     89  C   UNL A   1      41.204  23.930  27.269  1.00  0.00     0.198 A 
ATOM     90  C   UNL A   1      41.570  25.995  26.115  1.00  0.00     0.198 A 
ATOM     91  F   UNL A   1      43.636  26.433  25.065  1.00  0.00    -0.203 F 
ATOM     92  F   UNL A   1      40.487  23.189  28.126  1.00  0.00    -0.200 F 
ATOM     93  C   UNL A   1      40.798  25.217  26.969  1.00  0.00     0.200 A 
ATOM     94  F   UNL A   1      41.155  27.235  25.816  1.00  0.00    -0.200 F 
ATOM     95  F   UNL A   1      39.714  25.736  27.566  1.00  0.00    -0.200 F 
ENDBRANCH  61  85
BRANCH  73  96
ATOM     96  C   UNL A   1      50.516  26.258  25.429  1.00  0.00     0.064 A 
ATOM     97  C   UNL A   1      50.237  27.291  24.538  1.00  0.00     0.173 A 
ATOM     98  C   UNL A   1      51.801  25.654  25.300  1.00  0.00     0.173 A 
ATOM     99  F   UNL A   1      49.024  27.859  24.519  1.00  0.00    -0.203 F 
ATOM    100  C   UNL A   1      51.197  27.747  23.633  1.00  0.00     0.198 A 
ATOM    101  C   UNL A   1      52.726  26.061  24.346  1.00  0.00     0.198 A 
ATOM    102  F   UNL A   1      52.226  24.677  26.113  1.00  0.00    -0.203 F 
ATOM    103  F   UNL A   1      50.917  28.798  22.853  1.00  0.00    -0.200 F 
ATOM    104  C   UNL A   1      52.434  27.129  23.531  1.00  0.00     0.200 A 
ATOM    105  F   UNL A   1      53.902  25.424  24.241  1.00  0.00    -0.200 F 
ATOM    106  F   UNL A   1      53.347  27.572  22.656  1.00  0.00    -0.200 F 
ENDBRANCH  73  96
ENDBRANCH  47  48
ENDBRANCH  40  42
ENDBRANCH  39  40
ENDBRANCH  38  39
ENDBRANCH  37  38
ENDBRANCH  36  37
ENDBRANCH  35  36
ENDBRANCH  34  35
ENDBRANCH   1  34
TORSDOF 23
ENDMDL
MODEL 2
REMARK VINA RESULT:     -10.2      5.186     10.669
REMARK SMILES COc1ccc(-c2cc(Cl)cc3c2O[C@@H](C(F)(F)F)C(C(=O)OCCOCCOCCOCCOC(=O)c2ccc(-c4c5nc(c(-c6c(F)c(F)c(F)c(F)c6F)c6ccc([nH]6)c(-c6c(F)c(F)c(F)c(F)c6F)c6nc(c(-c7c(F)c(F)c(F)c(F)c7F)c7ccc4[nH]7)C=C6)C=C5)cc2)=C3)cc1C
REMARK SMILES IDX 29 1 28 2 27 3 26 4 25 5 24 6 23 7 21 8 22 9 20 10 7 11 8 12
REMARK SMILES IDX 13 13 9 14 12 15 14 16 10 17 11 18 101 19 15 20 6 21 3 22
REMARK SMILES IDX 4 23 103 24 5 25 102 26 104 27 2 28 1 29 16 30 17 31 18 32
REMARK SMILES IDX 19 33 30 34 31 35 32 36 33 37 34 38 35 39 36 40 37 41 38 42
REMARK SMILES IDX 39 43 100 44 40 45 99 46 41 47 42 48 43 49 93 50 44 51 98 52
REMARK SMILES IDX 92 53 94 54 45 55 97 56 91 57 90 58 46 60 78 61 58 62 77 63
REMARK SMILES IDX 59 64 62 65 76 66 95 67 60 68 61 69 75 71 96 72 63 73 47 74
REMARK SMILES IDX 48 75 56 76 49 77 50 78 54 79 57 80 51 81 52 82 55 83 53 84
REMARK SMILES IDX 79 85 80 86 88 87 81 88 82 89 86 90 89 91 83 92 84 93 87 94
REMARK SMILES IDX 85 95 64 96 65 97 73 98 66 99 67 100 71 101 74 102 68 103
REMARK SMILES IDX 69 104 72 105 70 106
REMARK H PARENT 94 59 62 70
REMARK Flexibility Score: inf
ROOT
ATOM      1  O   UNL A   1      37.626  31.758  37.075  1.00  0.00    -0.377 OA
ENDROOT
BRANCH   1   2
ATOM      2  C   UNL A   1      37.849  31.893  35.678  1.00  0.00     0.188 C 
BRANCH   2   3
ATOM      3  C   UNL A   1      37.384  33.205  35.070  1.00  0.00     0.188 C 
BRANCH   3   4
ATOM      4  O   UNL A   1      37.634  33.636  33.731  1.00  0.00    -0.376 OA
BRANCH   4   5
ATOM      5  C   UNL A   1      37.239  32.662  32.738  1.00  0.00     0.202 C 
BRANCH   5   6
ATOM      6  C   UNL A   1      38.073  31.549  31.968  1.00  0.00     0.261 C 
BRANCH   6   7
ATOM      7  O   UNL A   1      37.765  31.136  30.633  1.00  0.00    -0.460 OA
BRANCH   7   8
ATOM      8  C   UNL A   1      37.102  29.934  30.476  1.00  0.00     0.338 C 
ATOM      9  O   UNL A   1      36.024  29.627  30.911  1.00  0.00    -0.246 OA
BRANCH   8  10
ATOM     10  C   UNL A   1      37.772  29.225  29.293  1.00  0.00     0.087 C 
ATOM     11  C   UNL A   1      35.009  31.999  28.224  1.00  0.00     0.026 A 
ATOM     12  C   UNL A   1      33.843  31.419  27.665  1.00  0.00     0.033 A 
ATOM     13  C   UNL A   1      36.188  31.088  28.132  1.00  0.00     0.135 A 
ATOM     14  C   UNL A   1      33.784  30.106  27.157  1.00  0.00     0.042 A 
ATOM     15  C   UNL A   1      36.009  29.692  27.838  1.00  0.00     0.019 A 
ATOM     16  O   UNL A   1      37.562  31.382  28.377  1.00  0.00    -0.475 OA
ATOM     17  Cl  UNL A   1      32.311  29.515  26.498  1.00  0.00    -0.084 Cl
ATOM     18  C   UNL A   1      34.846  29.228  27.271  1.00  0.00     0.032 A 
ATOM     19  C   UNL A   1      36.987  28.675  28.344  1.00  0.00     0.027 C 
ATOM     20  C   UNL A   1      38.604  30.255  28.604  1.00  0.00     0.316 C 
BRANCH  11  21
ATOM     21  C   UNL A   1      34.598  33.346  29.065  1.00  0.00    -0.014 A 
ATOM     22  C   UNL A   1      33.471  35.436  30.961  1.00  0.00     0.121 A 
ATOM     23  C   UNL A   1      33.352  35.455  29.550  1.00  0.00     0.047 A 
ATOM     24  C   UNL A   1      34.089  34.327  31.506  1.00  0.00    -0.008 A 
ATOM     25  C   UNL A   1      33.881  34.453  28.629  1.00  0.00     0.013 A 
ATOM     26  C   UNL A   1      34.666  33.359  30.510  1.00  0.00     0.016 A 
ATOM     27  C   UNL A   1      34.064  34.195  33.055  1.00  0.00     0.048 C 
BRANCH  22  28
ATOM     28  O   UNL A   1      32.908  36.504  31.622  1.00  0.00    -0.496 OA
ATOM     29  C   UNL A   1      33.665  37.641  32.068  1.00  0.00     0.278 C 
ENDBRANCH  22  28
ENDBRANCH  11  21
BRANCH  20  30
ATOM     30  C   UNL A   1      40.014  30.356  29.380  1.00  0.00     0.430 C 
ATOM     31  F   UNL A   1      40.984  29.866  28.544  1.00  0.00    -0.167 F 
ATOM     32  F   UNL A   1      40.411  31.620  29.643  1.00  0.00    -0.167 F 
ATOM     33  F   UNL A   1      40.167  29.647  30.515  1.00  0.00    -0.167 F 
ENDBRANCH  20  30
ENDBRANCH   8  10
ENDBRANCH   7   8
ENDBRANCH   6   7
ENDBRANCH   5   6
ENDBRANCH   4   5
ENDBRANCH   3   4
ENDBRANCH   2   3
ENDBRANCH   1   2
BRANCH   1  34
ATOM     34  C   UNL A   1      37.755  32.966  37.807  1.00  0.00     0.188 C 
BRANCH  34  35
ATOM     35  C   UNL A   1      39.098  33.113  38.488  1.00  0.00     0.188 C 
BRANCH  35  36
ATOM     36  O   UNL A   1      39.871  33.954  37.631  1.00  0.00    -0.376 OA
BRANCH  36  37
ATOM     37  C   UNL A   1      39.594  35.343  37.704  1.00  0.00     0.202 C 
BRANCH  37  38
ATOM     38  C   UNL A   1      40.102  36.080  36.468  1.00  0.00     0.261 C 
BRANCH  38  39
ATOM     39  O   UNL A   1      40.296  35.101  35.418  1.00  0.00    -0.460 OA
BRANCH  39  40
ATOM     40  C   UNL A   1      41.464  35.206  34.720  1.00  0.00     0.338 C 
ATOM     41  O   UNL A   1      42.009  36.261  34.435  1.00  0.00    -0.246 OA
BRANCH  40  42
ATOM     42  C   UNL A   1      41.843  33.885  34.104  1.00  0.00     0.060 A 
ATOM     43  C   UNL A   1      43.075  33.273  34.386  1.00  0.00     0.016 A 
ATOM     44  C   UNL A   1      41.108  33.375  33.047  1.00  0.00     0.016 A 
ATOM     45  C   UNL A   1      43.630  32.292  33.511  1.00  0.00     0.010 A 
ATOM     46  C   UNL A   1      41.678  32.424  32.194  1.00  0.00     0.010 A 
ATOM     47  C   UNL A   1      42.982  31.913  32.330  1.00  0.00    -0.014 A 
BRANCH  47  48
ATOM     48  C   UNL A   1      43.594  31.192  31.124  1.00  0.00     0.031 A 
ATOM     49  C   UNL A   1      43.459  29.668  30.949  1.00  0.00     0.074 A 
ATOM     50  C   UNL A   1      43.866  31.924  30.005  1.00  0.00     0.049 A 
ATOM     51  N   UNL A   1      43.684  28.921  29.903  1.00  0.00    -0.248 NA
ATOM     52  C   UNL A   1      43.010  28.837  32.040  1.00  0.00     0.031 C 
ATOM     53  C   UNL A   1      43.723  31.481  28.606  1.00  0.00     0.029 A 
ATOM     54  N   UNL A   1      44.172  33.280  29.838  1.00  0.00    -0.354 N 
ATOM     55  C   UNL A   1      43.022  27.652  30.015  1.00  0.00     0.074 A 
ATOM     56  C   UNL A   1      42.788  27.667  31.420  1.00  0.00     0.031 C 
ATOM     57  C   UNL A   1      43.936  32.493  27.754  1.00  0.00     0.029 A 
ATOM     58  C   UNL A   1      44.664  33.455  28.515  1.00  0.00     0.049 A 
ATOM     59  H   UNL A   1      44.067  33.987  30.516  1.00  0.00     0.167 HD
ATOM     60  C   UNL A   1      42.713  26.837  28.894  1.00  0.00     0.037 A 
ATOM     61  C   UNL A   1      46.016  33.610  28.341  1.00  0.00     0.037 A 
ATOM     62  C   UNL A   1      43.430  27.415  27.700  1.00  0.00     0.049 A 
ATOM     63  C   UNL A   1      46.721  32.312  27.859  1.00  0.00     0.074 A 
ATOM     64  C   UNL A   1      43.273  27.512  26.325  1.00  0.00     0.029 A 
ATOM     65  N   UNL A   1      44.624  28.073  27.923  1.00  0.00    -0.354 N 
ATOM     66  N   UNL A   1      46.116  31.247  27.369  1.00  0.00    -0.248 NA
ATOM     67  C   UNL A   1      48.163  32.092  27.929  1.00  0.00     0.031 C 
ATOM     68  C   UNL A   1      44.363  28.267  25.775  1.00  0.00     0.029 A 
ATOM     69  C   UNL A   1      45.241  28.536  26.803  1.00  0.00     0.049 A 
ATOM     70  H   UNL A   1      45.000  28.198  28.824  1.00  0.00     0.167 HD
ATOM     71  C   UNL A   1      46.990  30.196  27.252  1.00  0.00     0.074 A 
ATOM     72  C   UNL A   1      48.273  30.799  27.564  1.00  0.00     0.031 C 
ATOM     73  C   UNL A   1      46.630  28.899  26.978  1.00  0.00     0.037 A 
BRANCH  60  74
ATOM     74  C   UNL A   1      41.764  25.463  28.549  1.00  0.00     0.064 A 
ATOM     75  C   UNL A   1      42.370  24.188  28.709  1.00  0.00     0.173 A 
ATOM     76  C   UNL A   1      40.480  25.225  27.957  1.00  0.00     0.173 A 
ATOM     77  F   UNL A   1      43.492  24.058  29.426  1.00  0.00    -0.203 F 
ATOM     78  C   UNL A   1      41.854  22.947  28.213  1.00  0.00     0.198 A 
ATOM     79  C   UNL A   1      39.898  23.989  27.571  1.00  0.00     0.198 A 
ATOM     80  F   UNL A   1      39.612  26.138  27.600  1.00  0.00    -0.203 F 
ATOM     81  F   UNL A   1      42.596  21.835  28.311  1.00  0.00    -0.200 F 
ATOM     82  C   UNL A   1      40.610  22.845  27.645  1.00  0.00     0.200 A 
ATOM     83  F   UNL A   1      38.644  23.971  27.080  1.00  0.00    -0.200 F 
ATOM     84  F   UNL A   1      40.099  21.687  27.206  1.00  0.00    -0.200 F 
ENDBRANCH  60  74
BRANCH  61  85
ATOM     85  C   UNL A   1      46.439  34.726  29.269  1.00  0.00     0.064 A 
ATOM     86  C   UNL A   1      45.871  35.983  28.923  1.00  0.00     0.173 A 
ATOM     87  C   UNL A   1      46.608  34.474  30.642  1.00  0.00     0.173 A 
ATOM     88  F   UNL A   1      45.713  36.304  27.628  1.00  0.00    -0.203 F 
ATOM     89  C   UNL A   1      45.213  36.768  29.873  1.00  0.00     0.198 A 
ATOM     90  C   UNL A   1      46.002  35.306  31.597  1.00  0.00     0.198 A 
ATOM     91  F   UNL A   1      47.142  33.314  31.052  1.00  0.00    -0.203 F 
ATOM     92  F   UNL A   1      44.442  37.793  29.482  1.00  0.00    -0.200 F 
ATOM     93  C   UNL A   1      45.236  36.396  31.205  1.00  0.00     0.200 A 
ATOM     94  F   UNL A   1      46.033  34.968  32.894  1.00  0.00    -0.200 F 
ATOM     95  F   UNL A   1      44.457  37.033  32.094  1.00  0.00    -0.200 F 
ENDBRANCH  61  85
BRANCH  73  96
ATOM     96  C   UNL A   1      47.584  27.725  26.985  1.00  0.00     0.064 A 
ATOM     97  C   UNL A   1      48.070  27.195  28.177  1.00  0.00     0.173 A 
ATOM     98  C   UNL A   1      48.149  27.191  25.790  1.00  0.00     0.173 A 
ATOM     99  F   UNL A   1      47.670  27.694  29.354  1.00  0.00    -0.203 F 
ATOM    100  C   UNL A   1      48.997  26.150  28.182  1.00  0.00     0.198 A 
ATOM    101  C   UNL A   1      49.127  26.204  25.801  1.00  0.00     0.198 A 
ATOM    102  F   UNL A   1      47.752  27.573  24.569  1.00  0.00    -0.203 F 
ATOM    103  F   UNL A   1      49.374  25.612  29.348  1.00  0.00    -0.200 F 
ATOM    104  C   UNL A   1      49.530  25.662  26.999  1.00  0.00     0.200 A 
ATOM    105  F   UNL A   1      49.656  25.774  24.645  1.00  0.00    -0.200 F 
ATOM    106  F   UNL A   1      50.421  24.662  27.014  1.00  0.00    -0.200 F 
ENDBRANCH  73  96
ENDBRANCH  47  48
ENDBRANCH  40  42
ENDBRANCH  39  40
ENDBRANCH  38  39
ENDBRANCH  37  38
ENDBRANCH  36  37
ENDBRANCH  35  36
ENDBRANCH  34  35
ENDBRANCH   1  34
TORSDOF 23
ENDMDL
MODEL 3
REMARK VINA RESULT:     -10.1      7.046     13.540
REMARK SMILES COc1ccc(-c2cc(Cl)cc3c2O[C@@H](C(F)(F)F)C(C(=O)OCCOCCOCCOCCOC(=O)c2ccc(-c4c5nc(c(-c6c(F)c(F)c(F)c(F)c6F)c6ccc([nH]6)c(-c6c(F)c(F)c(F)c(F)c6F)c6nc(c(-c7c(F)c(F)c(F)c(F)c7F)c7ccc4[nH]7)C=C6)C=C5)cc2)=C3)cc1C
REMARK SMILES IDX 29 1 28 2 27 3 26 4 25 5 24 6 23 7 21 8 22 9 20 10 7 11 8 12
REMARK SMILES IDX 13 13 9 14 12 15 14 16 10 17 11 18 101 19 15 20 6 21 3 22
REMARK SMILES IDX 4 23 103 24 5 25 102 26 104 27 2 28 1 29 16 30 17 31 18 32
REMARK SMILES IDX 19 33 30 34 31 35 32 36 33 37 34 38 35 39 36 40 37 41 38 42
REMARK SMILES IDX 39 43 100 44 40 45 99 46 41 47 42 48 43 49 93 50 44 51 98 52
REMARK SMILES IDX 92 53 94 54 45 55 97 56 91 57 90 58 46 60 78 61 58 62 77 63
REMARK SMILES IDX 59 64 62 65 76 66 95 67 60 68 61 69 75 71 96 72 63 73 47 74
REMARK SMILES IDX 48 75 56 76 49 77 50 78 54 79 57 80 51 81 52 82 55 83 53 84
REMARK SMILES IDX 79 85 80 86 88 87 81 88 82 89 86 90 89 91 83 92 84 93 87 94
REMARK SMILES IDX 85 95 64 96 65 97 73 98 66 99 67 100 71 101 74 102 68 103
REMARK SMILES IDX 69 104 72 105 70 106
REMARK H PARENT 94 59 62 70
REMARK Flexibility Score: inf
ROOT
ATOM      1  O   UNL A   1      47.925  26.963  32.703  1.00  0.00    -0.377 OA
ENDROOT
BRANCH   1   2
ATOM      2  C   UNL A   1      48.038  28.350  32.413  1.00  0.00     0.188 C 
BRANCH   2   3
ATOM      3  C   UNL A   1      47.625  28.756  31.009  1.00  0.00     0.188 C 
BRANCH   3   4
ATOM      4  O   UNL A   1      46.323  29.199  30.619  1.00  0.00    -0.376 OA
BRANCH   4   5
ATOM      5  C   UNL A   1      46.210  29.447  29.200  1.00  0.00     0.202 C 
BRANCH   5   6
ATOM      6  C   UNL A   1      46.098  28.452  27.965  1.00  0.00     0.261 C 
BRANCH   6   7
ATOM      7  O   UNL A   1      45.030  27.510  27.825  1.00  0.00    -0.460 OA
BRANCH   7   8
ATOM      8  C   UNL A   1      45.151  26.306  28.491  1.00  0.00     0.338 C 
ATOM      9  O   UNL A   1      45.405  26.132  29.653  1.00  0.00    -0.246 OA
BRANCH   8  10
ATOM     10  C   UNL A   1      44.477  25.253  27.605  1.00  0.00     0.087 C 
ATOM     11  C   UNL A   1      48.528  25.287  27.363  1.00  0.00     0.026 A 
ATOM     12  C   UNL A   1      48.995  25.764  26.113  1.00  0.00     0.033 A 
ATOM     13  C   UNL A   1      47.124  24.786  27.284  1.00  0.00     0.135 A 
ATOM     14  C   UNL A   1      48.201  25.833  24.952  1.00  0.00     0.042 A 
ATOM     15  C   UNL A   1      46.297  25.111  26.153  1.00  0.00     0.019 A 
ATOM     16  O   UNL A   1      46.388  24.042  28.252  1.00  0.00    -0.475 OA
ATOM     17  Cl  UNL A   1      48.882  26.427  23.490  1.00  0.00    -0.084 Cl
ATOM     18  C   UNL A   1      46.848  25.545  24.970  1.00  0.00     0.032 A 
ATOM     19  C   UNL A   1      44.809  25.203  26.298  1.00  0.00     0.027 C 
ATOM     20  C   UNL A   1      44.842  23.925  28.180  1.00  0.00     0.316 C 
BRANCH  11  21
ATOM     21  C   UNL A   1      49.575  25.736  28.543  1.00  0.00    -0.014 A 
ATOM     22  C   UNL A   1      51.916  26.164  30.434  1.00  0.00     0.121 A 
ATOM     23  C   UNL A   1      50.629  25.704  30.807  1.00  0.00     0.047 A 
ATOM     24  C   UNL A   1      52.126  26.356  29.082  1.00  0.00    -0.008 A 
ATOM     25  C   UNL A   1      49.499  25.486  29.908  1.00  0.00     0.013 A 
ATOM     26  C   UNL A   1      50.913  26.175  28.211  1.00  0.00     0.016 A 
ATOM     27  C   UNL A   1      53.579  26.678  28.632  1.00  0.00     0.048 C 
BRANCH  22  28
ATOM     28  O   UNL A   1      52.818  26.313  31.462  1.00  0.00    -0.496 OA
ATOM     29  C   UNL A   1      52.436  26.692  32.795  1.00  0.00     0.278 C 
ENDBRANCH  22  28
ENDBRANCH  11  21
BRANCH  20  30
ATOM     30  C   UNL A   1      43.819  23.607  29.386  1.00  0.00     0.430 C 
ATOM     31  F   UNL A   1      43.349  22.332  29.206  1.00  0.00    -0.167 F 
ATOM     32  F   UNL A   1      44.396  23.577  30.607  1.00  0.00    -0.167 F 
ATOM     33  F   UNL A   1      42.706  24.358  29.490  1.00  0.00    -0.167 F 
ENDBRANCH  20  30
ENDBRANCH   8  10
ENDBRANCH   7   8
ENDBRANCH   6   7
ENDBRANCH   5   6
ENDBRANCH   4   5
ENDBRANCH   3   4
ENDBRANCH   2   3
ENDBRANCH   1   2
BRANCH   1  34
ATOM     34  C   UNL A   1      46.887  26.639  33.613  1.00  0.00     0.188 C 
BRANCH  34  35
ATOM     35  C   UNL A   1      45.915  25.613  33.073  1.00  0.00     0.188 C 
BRANCH  35  36
ATOM     36  O   UNL A   1      45.379  24.954  34.220  1.00  0.00    -0.376 OA
BRANCH  36  37
ATOM     37  C   UNL A   1      46.268  24.775  35.311  1.00  0.00     0.202 C 
BRANCH  37  38
ATOM     38  C   UNL A   1      45.798  23.659  36.239  1.00  0.00     0.261 C 
BRANCH  38  39
ATOM     39  O   UNL A   1      44.458  23.987  36.683  1.00  0.00    -0.460 OA
BRANCH  39  40
ATOM     40  C   UNL A   1      44.377  24.909  37.685  1.00  0.00     0.338 C 
ATOM     41  O   UNL A   1      44.810  24.745  38.815  1.00  0.00    -0.246 OA
BRANCH  40  42
ATOM     42  C   UNL A   1      43.443  26.030  37.310  1.00  0.00     0.060 A 
ATOM     43  C   UNL A   1      42.171  25.774  36.775  1.00  0.00     0.016 A 
ATOM     44  C   UNL A   1      43.913  27.330  37.237  1.00  0.00     0.016 A 
ATOM     45  C   UNL A   1      41.472  26.766  36.024  1.00  0.00     0.010 A 
ATOM     46  C   UNL A   1      43.219  28.283  36.484  1.00  0.00     0.010 A 
ATOM     47  C   UNL A   1      42.031  28.025  35.776  1.00  0.00    -0.014 A 
BRANCH  47  48
ATOM     48  C   UNL A   1      41.608  29.034  34.702  1.00  0.00     0.031 A 
ATOM     49  C   UNL A   1      42.079  28.895  33.243  1.00  0.00     0.074 A 
ATOM     50  C   UNL A   1      40.489  29.782  34.925  1.00  0.00     0.049 A 
ATOM     51  N   UNL A   1      41.646  29.485  32.162  1.00  0.00    -0.248 NA
ATOM     52  C   UNL A   1      43.150  27.992  32.896  1.00  0.00     0.031 C 
ATOM     53  C   UNL A   1      39.493  30.199  33.920  1.00  0.00     0.029 A 
ATOM     54  N   UNL A   1      39.882  30.207  36.113  1.00  0.00    -0.354 N 
ATOM     55  C   UNL A   1      42.031  28.764  30.982  1.00  0.00     0.074 A 
ATOM     56  C   UNL A   1      43.072  27.977  31.555  1.00  0.00     0.031 C 
ATOM     57  C   UNL A   1      38.444  30.800  34.499  1.00  0.00     0.029 A 
ATOM     58  C   UNL A   1      38.926  31.207  35.779  1.00  0.00     0.049 A 
ATOM     59  H   UNL A   1      40.081  29.875  37.018  1.00  0.00     0.167 HD
ATOM     60  C   UNL A   1      41.358  28.895  29.739  1.00  0.00     0.037 A 
ATOM     61  C   UNL A   1      39.247  32.517  36.024  1.00  0.00     0.037 A 
ATOM     62  C   UNL A   1      40.420  30.069  29.851  1.00  0.00     0.049 A 
ATOM     63  C   UNL A   1      39.699  33.283  34.750  1.00  0.00     0.074 A 
ATOM     64  C   UNL A   1      39.202  30.495  29.340  1.00  0.00     0.029 A 
ATOM     65  N   UNL A   1      40.780  31.103  30.694  1.00  0.00    -0.354 N 
ATOM     66  N   UNL A   1      39.530  32.871  33.508  1.00  0.00    -0.248 NA
ATOM     67  C   UNL A   1      40.417  34.554  34.772  1.00  0.00     0.031 C 
ATOM     68  C   UNL A   1      38.854  31.755  29.931  1.00  0.00     0.029 A 
ATOM     69  C   UNL A   1      39.912  32.149  30.720  1.00  0.00     0.049 A 
ATOM     70  H   UNL A   1      41.603  31.083  31.233  1.00  0.00     0.167 HD
ATOM     71  C   UNL A   1      40.236  33.654  32.630  1.00  0.00     0.074 A 
ATOM     72  C   UNL A   1      40.728  34.730  33.472  1.00  0.00     0.031 C 
ATOM     73  C   UNL A   1      40.440  33.364  31.303  1.00  0.00     0.037 A 
BRANCH  60  74
ATOM     74  C   UNL A   1      41.307  28.092  28.235  1.00  0.00     0.064 A 
ATOM     75  C   UNL A   1      40.731  26.794  28.202  1.00  0.00     0.173 A 
ATOM     76  C   UNL A   1      41.858  28.320  26.931  1.00  0.00     0.173 A 
ATOM     77  F   UNL A   1      39.955  26.373  29.207  1.00  0.00    -0.203 F 
ATOM     78  C   UNL A   1      40.843  25.855  27.125  1.00  0.00     0.198 A 
ATOM     79  C   UNL A   1      41.871  27.449  25.811  1.00  0.00     0.198 A 
ATOM     80  F   UNL A   1      42.522  29.381  26.547  1.00  0.00    -0.203 F 
ATOM     81  F   UNL A   1      40.371  24.611  27.279  1.00  0.00    -0.200 F 
ATOM     82  C   UNL A   1      41.412  26.185  25.921  1.00  0.00     0.200 A 
ATOM     83  F   UNL A   1      42.393  27.876  24.645  1.00  0.00    -0.200 F 
ATOM     84  F   UNL A   1      41.496  25.330  24.893  1.00  0.00    -0.200 F 
ENDBRANCH  60  74
BRANCH  61  85
ATOM     85  C   UNL A   1      39.677  32.587  37.472  1.00  0.00     0.064 A 
ATOM     86  C   UNL A   1      41.060  32.882  37.627  1.00  0.00     0.173 A 
ATOM     87  C   UNL A   1      38.811  33.129  38.437  1.00  0.00     0.173 A 
ATOM     88  F   UNL A   1      41.948  32.368  36.760  1.00  0.00    -0.203 F 
ATOM     89  C   UNL A   1      41.493  33.909  38.471  1.00  0.00     0.198 A 
ATOM     90  C   UNL A   1      39.268  34.112  39.330  1.00  0.00     0.198 A 
ATOM     91  F   UNL A   1      37.493  32.894  38.366  1.00  0.00    -0.203 F 
ATOM     92  F   UNL A   1      42.752  34.361  38.388  1.00  0.00    -0.200 F 
ATOM     93  C   UNL A   1      40.582  34.559  39.283  1.00  0.00     0.200 A 
ATOM     94  F   UNL A   1      38.398  34.737  40.138  1.00  0.00    -0.200 F 
ATOM     95  F   UNL A   1      40.948  35.663  39.954  1.00  0.00    -0.200 F 
ENDBRANCH  61  85
BRANCH  73  96
ATOM     96  C   UNL A   1      41.331  34.162  30.377  1.00  0.00     0.064 A 
ATOM     97  C   UNL A   1      40.802  34.891  29.315  1.00  0.00     0.173 A 
ATOM     98  C   UNL A   1      42.754  34.103  30.445  1.00  0.00     0.173 A 
ATOM     99  F   UNL A   1      39.478  34.929  29.112  1.00  0.00    -0.203 F 
ATOM    100  C   UNL A   1      41.629  35.579  28.425  1.00  0.00     0.198 A 
ATOM    101  C   UNL A   1      43.573  34.728  29.512  1.00  0.00     0.198 A 
ATOM    102  F   UNL A   1      43.406  33.474  31.432  1.00  0.00    -0.203 F 
ATOM    103  F   UNL A   1      41.078  36.337  27.469  1.00  0.00    -0.200 F 
ATOM    104  C   UNL A   1      43.010  35.492  28.517  1.00  0.00     0.200 A 
ATOM    105  F   UNL A   1      44.906  34.597  29.600  1.00  0.00    -0.200 F 
ATOM    106  F   UNL A   1      43.794  36.153  27.656  1.00  0.00    -0.200 F 
ENDBRANCH  73  96
ENDBRANCH  47  48
ENDBRANCH  40  42
ENDBRANCH  39  40
ENDBRANCH  38  39
ENDBRANCH  37  38
ENDBRANCH  36  37
ENDBRANCH  35  36
ENDBRANCH  34  35
ENDBRANCH   1  34
TORSDOF 23
ENDMDL
