MODEL 1
REMARK VINA RESULT:     -11.8      0.000      0.000
REMARK SMILES Cc1cccc(S(=O)(=O)Nc2cc(C(=O)OCCOCCOCCOCCOC(=O)c3ccc(-c4c5nc(c(-c6c(F)c(F)c(F)c(F)c6F)c6ccc([nH]6)c(-c6c(F)c(F)c(F)c(F)c6F)c6nc(c(-c7c(F)c(F)c(F)c(F)c7F)c7ccc4[nH]7)C=C6)C=C5)cc3)cnc2N2CCC[C@H](C)C2)c1
REMARK SMILES IDX 21 1 20 2 19 3 18 4 17 5 16 6 14 7 15 8 13 9 11 10 12 11
REMARK SMILES IDX 96 12 95 13 94 14 10 15 7 17 8 18 9 19 6 20 1 21 2 22 3 23
REMARK SMILES IDX 104 24 4 25 5 26 97 27 98 28 103 29 99 30 101 31 100 32
REMARK SMILES IDX 102 33 22 34 23 35 24 36 25 37 26 38 27 39 28 40 29 41 30 42
REMARK SMILES IDX 31 43 32 44 93 45 33 46 92 47 34 48 35 49 36 50 86 51 37 52
REMARK SMILES IDX 91 53 85 54 87 55 38 56 90 57 84 58 83 59 39 61 71 62 51 63
REMARK SMILES IDX 70 64 52 65 55 66 69 67 88 68 53 69 54 70 68 72 89 73 56 74
REMARK SMILES IDX 40 75 41 76 49 77 42 78 43 79 47 80 50 81 44 82 45 83 48 84
REMARK SMILES IDX 46 85 72 86 73 87 81 88 74 89 75 90 79 91 82 92 76 93 77 94
REMARK SMILES IDX 80 95 78 96 57 97 58 98 66 99 59 100 60 101 64 102 67 103
REMARK SMILES IDX 61 104 62 105 65 106 63 107
REMARK H PARENT 10 16 87 60 55 71
REMARK Flexibility Score: inf
ROOT
ATOM      1  C   UNL A   1      35.555  30.773  27.634  1.00  0.00     0.188 C 
ENDROOT
BRANCH   1   2
ATOM      2  C   UNL A   1      36.504  29.612  28.383  1.00  0.00     0.188 C 
BRANCH   2   3
ATOM      3  O   UNL A   1      37.853  28.657  27.872  1.00  0.00    -0.376 OA
BRANCH   3   4
ATOM      4  C   UNL A   1      39.056  27.645  28.624  1.00  0.00     0.202 C 
BRANCH   4   5
ATOM      5  C   UNL A   1      39.390  25.780  28.472  1.00  0.00     0.261 C 
BRANCH   5   6
ATOM      6  O   UNL A   1      38.482  24.561  27.452  1.00  0.00    -0.460 OA
BRANCH   6   7
ATOM      7  C   UNL A   1      38.520  23.477  26.411  1.00  0.00     0.339 C 
ATOM      8  O   UNL A   1      39.526  23.020  25.853  1.00  0.00    -0.246 OA
BRANCH   7   9
ATOM      9  C   UNL A   1      37.306  22.610  25.895  1.00  0.00     0.080 A 
ATOM     10  C   UNL A   1      34.949  22.061  25.393  1.00  0.00     0.092 A 
ATOM     11  C   UNL A   1      35.926  22.848  25.990  1.00  0.00     0.048 A 
ATOM     12  C   UNL A   1      35.290  20.751  25.085  1.00  0.00     0.153 A 
ATOM     13  N   UNL A   1      36.581  20.354  25.140  1.00  0.00    -0.236 NA
ATOM     14  C   UNL A   1      37.543  21.293  25.494  1.00  0.00     0.129 A 
BRANCH  10  15
ATOM     15  N   UNL A   1      33.603  22.589  25.227  1.00  0.00    -0.276 N 
ATOM     16  H   UNL A   1      32.906  22.333  25.873  1.00  0.00     0.180 HD
BRANCH  15  17
ATOM     17  S   UNL A   1      33.195  23.653  23.926  1.00  0.00     0.262 S 
ATOM     18  O   UNL A   1      31.758  23.445  23.712  1.00  0.00    -0.201 OA
ATOM     19  O   UNL A   1      34.100  23.416  22.850  1.00  0.00    -0.201 OA
BRANCH  17  20
ATOM     20  C   UNL A   1      33.393  25.358  24.348  1.00  0.00     0.088 A 
ATOM     21  C   UNL A   1      33.602  28.606  22.524  1.00  0.00     0.044 C 
ATOM     22  C   UNL A   1      33.494  27.666  23.673  1.00  0.00    -0.050 A 
ATOM     23  C   UNL A   1      33.844  28.041  24.971  1.00  0.00     0.003 A 
ATOM     24  C   UNL A   1      33.201  26.335  23.386  1.00  0.00     0.025 A 
ATOM     25  C   UNL A   1      33.893  27.082  25.980  1.00  0.00     0.002 A 
ATOM     26  C   UNL A   1      33.686  25.735  25.666  1.00  0.00     0.022 A 
ENDBRANCH  17  20
ENDBRANCH  15  17
ENDBRANCH  10  15
BRANCH  12  27
ATOM     27  N   UNL A   1      34.231  19.861  24.934  1.00  0.00    -0.355 N 
ATOM     28  C   UNL A   1      33.289  19.726  26.031  1.00  0.00     0.118 C 
ATOM     29  C   UNL A   1      33.671  19.734  23.590  1.00  0.00     0.121 C 
ATOM     30  C   UNL A   1      32.719  18.305  25.969  1.00  0.00     0.022 C 
ATOM     31  C   UNL A   1      33.039  18.334  23.428  1.00  0.00     0.005 C 
ATOM     32  C   UNL A   1      32.099  18.005  24.604  1.00  0.00     0.007 C 
ATOM     33  C   UNL A   1      34.108  17.248  23.234  1.00  0.00     0.009 C 
ENDBRANCH  12  27
ENDBRANCH   7   9
ENDBRANCH   6   7
ENDBRANCH   5   6
ENDBRANCH   4   5
ENDBRANCH   3   4
ENDBRANCH   2   3
ENDBRANCH   1   2
BRANCH   1  34
ATOM     34  O   UNL A   1      35.472  32.183  27.939  1.00  0.00    -0.377 OA
BRANCH  34  35
ATOM     35  C   UNL A   1      34.359  32.830  28.545  1.00  0.00     0.188 C 
BRANCH  35  36
ATOM     36  C   UNL A   1      34.496  34.261  29.020  1.00  0.00     0.188 C 
BRANCH  36  37
ATOM     37  O   UNL A   1      33.723  34.400  30.198  1.00  0.00    -0.376 OA
BRANCH  37  38
ATOM     38  C   UNL A   1      34.220  33.700  31.327  1.00  0.00     0.202 C 
BRANCH  38  39
ATOM     39  C   UNL A   1      35.112  34.584  32.204  1.00  0.00     0.261 C 
BRANCH  39  40
ATOM     40  O   UNL A   1      36.491  34.332  31.856  1.00  0.00    -0.460 OA
BRANCH  40  41
ATOM     41  C   UNL A   1      37.073  33.278  32.496  1.00  0.00     0.338 C 
ATOM     42  O   UNL A   1      37.389  33.245  33.674  1.00  0.00    -0.246 OA
BRANCH  41  43
ATOM     43  C   UNL A   1      37.585  32.326  31.474  1.00  0.00     0.060 A 
ATOM     44  C   UNL A   1      37.818  31.000  31.774  1.00  0.00     0.016 A 
ATOM     45  C   UNL A   1      38.063  32.734  30.261  1.00  0.00     0.016 A 
ATOM     46  C   UNL A   1      38.879  30.303  31.123  1.00  0.00     0.010 A 
ATOM     47  C   UNL A   1      39.067  31.956  29.634  1.00  0.00     0.010 A 
ATOM     48  C   UNL A   1      39.829  30.910  30.284  1.00  0.00    -0.014 A 
BRANCH  48  49
ATOM     49  C   UNL A   1      41.625  30.431  30.220  1.00  0.00     0.031 A 
ATOM     50  C   UNL A   1      42.428  29.007  29.095  1.00  0.00     0.074 A 
ATOM     51  C   UNL A   1      42.245  31.085  31.334  1.00  0.00     0.049 A 
ATOM     52  N   UNL A   1      42.763  27.780  29.601  1.00  0.00    -0.248 NA
ATOM     53  C   UNL A   1      42.394  28.492  27.574  1.00  0.00     0.031 C 
ATOM     54  C   UNL A   1      43.561  31.037  31.980  1.00  0.00     0.029 A 
ATOM     55  N   UNL A   1      41.665  31.913  32.334  1.00  0.00    -0.354 N 
ATOM     56  C   UNL A   1      43.099  26.731  28.821  1.00  0.00     0.074 A 
ATOM     57  C   UNL A   1      42.637  27.157  27.555  1.00  0.00     0.031 C 
ATOM     58  C   UNL A   1      43.724  31.680  33.126  1.00  0.00     0.029 A 
ATOM     59  C   UNL A   1      42.412  31.889  33.532  1.00  0.00     0.049 A 
ATOM     60  H   UNL A   1      40.843  32.440  32.206  1.00  0.00     0.167 HD
ATOM     61  C   UNL A   1      43.778  25.641  29.302  1.00  0.00     0.037 A 
ATOM     62  C   UNL A   1      42.020  31.264  34.668  1.00  0.00     0.037 A 
ATOM     63  C   UNL A   1      44.467  25.851  30.592  1.00  0.00     0.049 A 
ATOM     64  C   UNL A   1      42.630  29.858  34.951  1.00  0.00     0.074 A 
ATOM     65  C   UNL A   1      45.795  26.126  30.870  1.00  0.00     0.029 A 
ATOM     66  N   UNL A   1      43.819  25.972  31.826  1.00  0.00    -0.354 N 
ATOM     67  N   UNL A   1      43.171  29.009  34.086  1.00  0.00    -0.248 NA
ATOM     68  C   UNL A   1      42.693  29.342  36.313  1.00  0.00     0.031 C 
ATOM     69  C   UNL A   1      45.914  26.424  32.244  1.00  0.00     0.029 A 
ATOM     70  C   UNL A   1      44.650  26.548  32.806  1.00  0.00     0.049 A 
ATOM     71  H   UNL A   1      42.890  25.689  31.989  1.00  0.00     0.167 HD
ATOM     72  C   UNL A   1      43.626  27.865  34.739  1.00  0.00     0.074 A 
ATOM     73  C   UNL A   1      43.278  28.146  36.134  1.00  0.00     0.031 C 
ATOM     74  C   UNL A   1      44.263  26.744  34.223  1.00  0.00     0.037 A 
BRANCH  61  75
ATOM     75  C   UNL A   1      44.112  24.527  28.333  1.00  0.00     0.064 A 
ATOM     76  C   UNL A   1      45.348  24.422  27.668  1.00  0.00     0.173 A 
ATOM     77  C   UNL A   1      43.149  23.562  27.976  1.00  0.00     0.173 A 
ATOM     78  F   UNL A   1      46.395  25.186  27.993  1.00  0.00    -0.203 F 
ATOM     79  C   UNL A   1      45.550  23.529  26.611  1.00  0.00     0.198 A 
ATOM     80  C   UNL A   1      43.346  22.678  26.908  1.00  0.00     0.198 A 
ATOM     81  F   UNL A   1      41.985  23.489  28.640  1.00  0.00    -0.203 F 
ATOM     82  F   UNL A   1      46.727  23.513  25.970  1.00  0.00    -0.200 F 
ATOM     83  C   UNL A   1      44.535  22.686  26.204  1.00  0.00     0.200 A 
ATOM     84  F   UNL A   1      42.363  21.842  26.540  1.00  0.00    -0.200 F 
ATOM     85  F   UNL A   1      44.705  21.887  25.142  1.00  0.00    -0.200 F 
ENDBRANCH  61  75
BRANCH  62  86
ATOM     86  C   UNL A   1      40.850  32.024  35.176  1.00  0.00     0.064 A 
ATOM     87  C   UNL A   1      39.628  31.290  35.264  1.00  0.00     0.173 A 
ATOM     88  C   UNL A   1      41.024  33.082  36.061  1.00  0.00     0.173 A 
ATOM     89  F   UNL A   1      39.403  30.259  34.428  1.00  0.00    -0.203 F 
ATOM     90  C   UNL A   1      38.776  31.432  36.353  1.00  0.00     0.198 A 
ATOM     91  C   UNL A   1      40.123  33.268  37.115  1.00  0.00     0.198 A 
ATOM     92  F   UNL A   1      42.148  33.809  36.020  1.00  0.00    -0.203 F 
ATOM     93  F   UNL A   1      37.797  30.540  36.563  1.00  0.00    -0.200 F 
ATOM     94  C   UNL A   1      39.042  32.407  37.295  1.00  0.00     0.200 A 
ATOM     95  F   UNL A   1      40.382  34.192  38.049  1.00  0.00    -0.200 F 
ATOM     96  F   UNL A   1      38.315  32.463  38.420  1.00  0.00    -0.200 F 
ENDBRANCH  62  86
BRANCH  74  97
ATOM     97  C   UNL A   1      44.779  25.627  35.121  1.00  0.00     0.064 A 
ATOM     98  C   UNL A   1      45.895  25.747  35.964  1.00  0.00     0.173 A 
ATOM     99  C   UNL A   1      44.248  24.322  34.981  1.00  0.00     0.173 A 
ATOM    100  F   UNL A   1      46.558  26.907  36.071  1.00  0.00    -0.203 F 
ATOM    101  C   UNL A   1      46.379  24.657  36.696  1.00  0.00     0.198 A 
ATOM    102  C   UNL A   1      44.790  23.223  35.643  1.00  0.00     0.198 A 
ATOM    103  F   UNL A   1      43.196  24.086  34.183  1.00  0.00    -0.203 F 
ATOM    104  F   UNL A   1      47.390  24.834  37.558  1.00  0.00    -0.200 F 
ATOM    105  C   UNL A   1      45.835  23.396  36.526  1.00  0.00     0.200 A 
ATOM    106  F   UNL A   1      44.293  21.999  35.417  1.00  0.00    -0.200 F 
ATOM    107  F   UNL A   1      46.322  22.350  37.206  1.00  0.00    -0.200 F 
ENDBRANCH  74  97
ENDBRANCH  48  49
ENDBRANCH  41  43
ENDBRANCH  40  41
ENDBRANCH  39  40
ENDBRANCH  38  39
ENDBRANCH  37  38
ENDBRANCH  36  37
ENDBRANCH  35  36
ENDBRANCH  34  35
ENDBRANCH   1  34
TORSDOF 24
ENDMDL
MODEL 2
REMARK VINA RESULT:     -10.6      4.863     11.483
REMARK SMILES Cc1cccc(S(=O)(=O)Nc2cc(C(=O)OCCOCCOCCOCCOC(=O)c3ccc(-c4c5nc(c(-c6c(F)c(F)c(F)c(F)c6F)c6ccc([nH]6)c(-c6c(F)c(F)c(F)c(F)c6F)c6nc(c(-c7c(F)c(F)c(F)c(F)c7F)c7ccc4[nH]7)C=C6)C=C5)cc3)cnc2N2CCC[C@H](C)C2)c1
REMARK SMILES IDX 21 1 20 2 19 3 18 4 17 5 16 6 14 7 15 8 13 9 11 10 12 11
REMARK SMILES IDX 96 12 95 13 94 14 10 15 7 17 8 18 9 19 6 20 1 21 2 22 3 23
REMARK SMILES IDX 104 24 4 25 5 26 97 27 98 28 103 29 99 30 101 31 100 32
REMARK SMILES IDX 102 33 22 34 23 35 24 36 25 37 26 38 27 39 28 40 29 41 30 42
REMARK SMILES IDX 31 43 32 44 93 45 33 46 92 47 34 48 35 49 36 50 86 51 37 52
REMARK SMILES IDX 91 53 85 54 87 55 38 56 90 57 84 58 83 59 39 61 71 62 51 63
REMARK SMILES IDX 70 64 52 65 55 66 69 67 88 68 53 69 54 70 68 72 89 73 56 74
REMARK SMILES IDX 40 75 41 76 49 77 42 78 43 79 47 80 50 81 44 82 45 83 48 84
REMARK SMILES IDX 46 85 72 86 73 87 81 88 74 89 75 90 79 91 82 92 76 93 77 94
REMARK SMILES IDX 80 95 78 96 57 97 58 98 66 99 59 100 60 101 64 102 67 103
REMARK SMILES IDX 61 104 62 105 65 106 63 107
REMARK H PARENT 10 16 87 60 55 71
REMARK Flexibility Score: inf
ROOT
ATOM      1  C   UNL A   1      32.459  29.194  24.269  1.00  0.00     0.188 C 
ENDROOT
BRANCH   1   2
ATOM      2  C   UNL A   1      31.334  30.072  25.151  1.00  0.00     0.188 C 
BRANCH   2   3
ATOM      3  O   UNL A   1      31.439  31.103  26.535  1.00  0.00    -0.376 OA
BRANCH   3   4
ATOM      4  C   UNL A   1      31.662  32.803  26.845  1.00  0.00     0.202 C 
BRANCH   4   5
ATOM      5  C   UNL A   1      33.026  33.732  27.786  1.00  0.00     0.261 C 
BRANCH   5   6
ATOM      6  O   UNL A   1      32.825  34.903  29.179  1.00  0.00    -0.460 OA
BRANCH   6   7
ATOM      7  C   UNL A   1      33.070  35.230  30.626  1.00  0.00     0.339 C 
ATOM      8  O   UNL A   1      32.251  35.688  31.432  1.00  0.00    -0.246 OA
BRANCH   7   9
ATOM      9  C   UNL A   1      34.383  34.948  31.456  1.00  0.00     0.080 A 
ATOM     10  C   UNL A   1      36.579  33.938  31.972  1.00  0.00     0.092 A 
ATOM     11  C   UNL A   1      35.408  34.016  31.229  1.00  0.00     0.048 A 
ATOM     12  C   UNL A   1      36.554  34.469  33.255  1.00  0.00     0.153 A 
ATOM     13  N   UNL A   1      35.515  35.238  33.651  1.00  0.00    -0.236 NA
ATOM     14  C   UNL A   1      34.497  35.490  32.739  1.00  0.00     0.129 A 
BRANCH  10  15
ATOM     15  N   UNL A   1      37.723  33.215  31.438  1.00  0.00    -0.276 N 
ATOM     16  H   UNL A   1      37.983  32.360  31.848  1.00  0.00     0.180 HD
BRANCH  15  17
ATOM     17  S   UNL A   1      38.640  33.819  30.101  1.00  0.00     0.262 S 
ATOM     18  O   UNL A   1      38.606  35.278  30.256  1.00  0.00    -0.201 OA
ATOM     19  O   UNL A   1      38.130  33.235  28.904  1.00  0.00    -0.201 OA
BRANCH  17  20
ATOM     20  C   UNL A   1      40.343  33.351  30.171  1.00  0.00     0.088 A 
ATOM     21  C   UNL A   1      43.575  34.631  28.815  1.00  0.00     0.044 C 
ATOM     22  C   UNL A   1      42.644  33.801  29.629  1.00  0.00    -0.050 A 
ATOM     23  C   UNL A   1      43.020  32.561  30.148  1.00  0.00     0.003 A 
ATOM     24  C   UNL A   1      41.317  34.219  29.709  1.00  0.00     0.025 A 
ATOM     25  C   UNL A   1      42.066  31.746  30.752  1.00  0.00     0.002 A 
ATOM     26  C   UNL A   1      40.722  32.131  30.748  1.00  0.00     0.022 A 
ENDBRANCH  17  20
ENDBRANCH  15  17
ENDBRANCH  10  15
BRANCH  12  27
ATOM     27  N   UNL A   1      37.523  33.996  34.135  1.00  0.00    -0.355 N 
ATOM     28  C   UNL A   1      38.737  34.775  34.300  1.00  0.00     0.118 C 
ATOM     29  C   UNL A   1      37.039  33.303  35.328  1.00  0.00     0.121 C 
ATOM     30  C   UNL A   1      39.857  33.799  34.676  1.00  0.00     0.022 C 
ATOM     31  C   UNL A   1      38.114  32.306  35.812  1.00  0.00     0.005 C 
ATOM     32  C   UNL A   1      39.497  32.978  35.914  1.00  0.00     0.007 C 
ATOM     33  C   UNL A   1      38.158  31.047  34.933  1.00  0.00     0.009 C 
ENDBRANCH  12  27
ENDBRANCH   7   9
ENDBRANCH   6   7
ENDBRANCH   5   6
ENDBRANCH   4   5
ENDBRANCH   3   4
ENDBRANCH   2   3
ENDBRANCH   1   2
BRANCH   1  34
ATOM     34  O   UNL A   1      33.225  28.048  24.701  1.00  0.00    -0.377 OA
BRANCH  34  35
ATOM     35  C   UNL A   1      33.228  27.508  26.018  1.00  0.00     0.188 C 
BRANCH  35  36
ATOM     36  C   UNL A   1      33.567  28.404  27.189  1.00  0.00     0.188 C 
BRANCH  36  37
ATOM     37  O   UNL A   1      34.714  29.157  26.840  1.00  0.00    -0.376 OA
BRANCH  37  38
ATOM     38  C   UNL A   1      34.664  30.527  27.202  1.00  0.00     0.202 C 
BRANCH  38  39
ATOM     39  C   UNL A   1      35.331  30.788  28.556  1.00  0.00     0.261 C 
BRANCH  39  40
ATOM     40  O   UNL A   1      36.643  30.182  28.546  1.00  0.00    -0.460 OA
BRANCH  40  41
ATOM     41  C   UNL A   1      37.187  29.942  29.773  1.00  0.00     0.338 C 
ATOM     42  O   UNL A   1      36.974  30.590  30.785  1.00  0.00    -0.246 OA
BRANCH  41  43
ATOM     43  C   UNL A   1      38.335  29.012  29.610  1.00  0.00     0.060 A 
ATOM     44  C   UNL A   1      38.480  27.896  30.409  1.00  0.00     0.016 A 
ATOM     45  C   UNL A   1      39.419  29.309  28.834  1.00  0.00     0.016 A 
ATOM     46  C   UNL A   1      39.786  27.437  30.753  1.00  0.00     0.010 A 
ATOM     47  C   UNL A   1      40.676  28.761  29.190  1.00  0.00     0.010 A 
ATOM     48  C   UNL A   1      40.973  28.131  30.460  1.00  0.00    -0.014 A 
BRANCH  48  49
ATOM     49  C   UNL A   1      42.447  28.204  31.591  1.00  0.00     0.031 A 
ATOM     50  C   UNL A   1      42.500  28.986  33.414  1.00  0.00     0.074 A 
ATOM     51  C   UNL A   1      43.578  27.852  30.784  1.00  0.00     0.049 A 
ATOM     52  N   UNL A   1      43.034  30.222  33.661  1.00  0.00    -0.248 NA
ATOM     53  C   UNL A   1      41.649  28.960  34.775  1.00  0.00     0.031 C 
ATOM     54  C   UNL A   1      45.035  27.856  30.958  1.00  0.00     0.029 A 
ATOM     55  N   UNL A   1      43.637  27.534  29.399  1.00  0.00    -0.354 N 
ATOM     56  C   UNL A   1      42.884  30.864  34.839  1.00  0.00     0.074 A 
ATOM     57  C   UNL A   1      41.822  30.138  35.426  1.00  0.00     0.031 C 
ATOM     58  C   UNL A   1      45.796  27.614  29.902  1.00  0.00     0.029 A 
ATOM     59  C   UNL A   1      44.909  27.811  28.852  1.00  0.00     0.049 A 
ATOM     60  H   UNL A   1      42.884  27.165  28.884  1.00  0.00     0.167 HD
ATOM     61  C   UNL A   1      43.697  31.899  35.225  1.00  0.00     0.037 A 
ATOM     62  C   UNL A   1      45.176  28.843  28.015  1.00  0.00     0.037 A 
ATOM     63  C   UNL A   1      44.972  32.002  34.487  1.00  0.00     0.049 A 
ATOM     64  C   UNL A   1      45.820  30.116  28.642  1.00  0.00     0.074 A 
ATOM     65  C   UNL A   1      46.247  31.583  34.828  1.00  0.00     0.029 A 
ATOM     66  N   UNL A   1      45.088  32.427  33.159  1.00  0.00    -0.354 N 
ATOM     67  N   UNL A   1      45.801  30.506  29.911  1.00  0.00    -0.248 NA
ATOM     68  C   UNL A   1      46.594  31.034  27.816  1.00  0.00     0.031 C 
ATOM     69  C   UNL A   1      47.088  31.744  33.706  1.00  0.00     0.029 A 
ATOM     70  C   UNL A   1      46.324  32.063  32.591  1.00  0.00     0.049 A 
ATOM     71  H   UNL A   1      44.386  32.923  32.678  1.00  0.00     0.167 HD
ATOM     72  C   UNL A   1      46.515  31.690  30.073  1.00  0.00     0.074 A 
ATOM     73  C   UNL A   1      46.973  31.965  28.708  1.00  0.00     0.031 C 
ATOM     74  C   UNL A   1      46.758  32.430  31.223  1.00  0.00     0.037 A 
BRANCH  61  75
ATOM     75  C   UNL A   1      43.442  32.538  36.573  1.00  0.00     0.064 A 
ATOM     76  C   UNL A   1      43.542  31.843  37.793  1.00  0.00     0.173 A 
ATOM     77  C   UNL A   1      42.999  33.872  36.672  1.00  0.00     0.173 A 
ATOM     78  F   UNL A   1      44.066  30.616  37.868  1.00  0.00    -0.203 F 
ATOM     79  C   UNL A   1      43.080  32.384  38.997  1.00  0.00     0.198 A 
ATOM     80  C   UNL A   1      42.522  34.408  37.875  1.00  0.00     0.198 A 
ATOM     81  F   UNL A   1      42.992  34.665  35.589  1.00  0.00    -0.203 F 
ATOM     82  F   UNL A   1      43.142  31.654  40.120  1.00  0.00    -0.200 F 
ATOM     83  C   UNL A   1      42.532  33.650  39.030  1.00  0.00     0.200 A 
ATOM     84  F   UNL A   1      42.018  35.651  37.901  1.00  0.00    -0.200 F 
ATOM     85  F   UNL A   1      42.018  34.135  40.169  1.00  0.00    -0.200 F 
ENDBRANCH  61  75
BRANCH  62  86
ATOM     86  C   UNL A   1      44.472  28.538  26.744  1.00  0.00     0.064 A 
ATOM     87  C   UNL A   1      44.879  27.338  26.085  1.00  0.00     0.173 A 
ATOM     88  C   UNL A   1      43.167  28.970  26.537  1.00  0.00     0.173 A 
ATOM     89  F   UNL A   1      46.133  26.877  26.246  1.00  0.00    -0.203 F 
ATOM     90  C   UNL A   1      43.950  26.486  25.498  1.00  0.00     0.198 A 
ATOM     91  C   UNL A   1      42.252  28.141  25.879  1.00  0.00     0.198 A 
ATOM     92  F   UNL A   1      42.734  30.093  27.124  1.00  0.00    -0.203 F 
ATOM     93  F   UNL A   1      44.306  25.242  25.147  1.00  0.00    -0.200 F 
ATOM     94  C   UNL A   1      42.628  26.880  25.421  1.00  0.00     0.200 A 
ATOM     95  F   UNL A   1      40.962  28.497  25.819  1.00  0.00    -0.200 F 
ATOM     96  F   UNL A   1      41.700  26.014  24.989  1.00  0.00    -0.200 F 
ENDBRANCH  62  86
BRANCH  74  97
ATOM     97  C   UNL A   1      47.657  33.660  31.215  1.00  0.00     0.064 A 
ATOM     98  C   UNL A   1      49.059  33.611  31.279  1.00  0.00     0.173 A 
ATOM     99  C   UNL A   1      47.077  34.944  31.346  1.00  0.00     0.173 A 
ATOM    100  F   UNL A   1      49.709  32.439  31.297  1.00  0.00    -0.203 F 
ATOM    101  C   UNL A   1      49.828  34.777  31.363  1.00  0.00     0.198 A 
ATOM    102  C   UNL A   1      47.844  36.093  31.518  1.00  0.00     0.198 A 
ATOM    103  F   UNL A   1      45.745  35.107  31.321  1.00  0.00    -0.203 F 
ATOM    104  F   UNL A   1      51.165  34.693  31.332  1.00  0.00    -0.200 F 
ATOM    105  C   UNL A   1      49.221  36.014  31.495  1.00  0.00     0.200 A 
ATOM    106  F   UNL A   1      47.239  37.274  31.709  1.00  0.00    -0.200 F 
ATOM    107  F   UNL A   1      49.962  37.125  31.605  1.00  0.00    -0.200 F 
ENDBRANCH  74  97
ENDBRANCH  48  49
ENDBRANCH  41  43
ENDBRANCH  40  41
ENDBRANCH  39  40
ENDBRANCH  38  39
ENDBRANCH  37  38
ENDBRANCH  36  37
ENDBRANCH  35  36
ENDBRANCH  34  35
ENDBRANCH   1  34
TORSDOF 24
ENDMDL
MODEL 3
REMARK VINA RESULT:     -10.5      2.835      4.623
REMARK SMILES Cc1cccc(S(=O)(=O)Nc2cc(C(=O)OCCOCCOCCOCCOC(=O)c3ccc(-c4c5nc(c(-c6c(F)c(F)c(F)c(F)c6F)c6ccc([nH]6)c(-c6c(F)c(F)c(F)c(F)c6F)c6nc(c(-c7c(F)c(F)c(F)c(F)c7F)c7ccc4[nH]7)C=C6)C=C5)cc3)cnc2N2CCC[C@H](C)C2)c1
REMARK SMILES IDX 21 1 20 2 19 3 18 4 17 5 16 6 14 7 15 8 13 9 11 10 12 11
REMARK SMILES IDX 96 12 95 13 94 14 10 15 7 17 8 18 9 19 6 20 1 21 2 22 3 23
REMARK SMILES IDX 104 24 4 25 5 26 97 27 98 28 103 29 99 30 101 31 100 32
REMARK SMILES IDX 102 33 22 34 23 35 24 36 25 37 26 38 27 39 28 40 29 41 30 42
REMARK SMILES IDX 31 43 32 44 93 45 33 46 92 47 34 48 35 49 36 50 86 51 37 52
REMARK SMILES IDX 91 53 85 54 87 55 38 56 90 57 84 58 83 59 39 61 71 62 51 63
REMARK SMILES IDX 70 64 52 65 55 66 69 67 88 68 53 69 54 70 68 72 89 73 56 74
REMARK SMILES IDX 40 75 41 76 49 77 42 78 43 79 47 80 50 81 44 82 45 83 48 84
REMARK SMILES IDX 46 85 72 86 73 87 81 88 74 89 75 90 79 91 82 92 76 93 77 94
REMARK SMILES IDX 80 95 78 96 57 97 58 98 66 99 59 100 60 101 64 102 67 103
REMARK SMILES IDX 61 104 62 105 65 106 63 107
REMARK H PARENT 10 16 87 60 55 71
REMARK Flexibility Score: inf
ROOT
ATOM      1  C   UNL A   1      36.056  30.669  29.650  1.00  0.00     0.188 C 
ENDROOT
BRANCH   1   2
ATOM      2  C   UNL A   1      35.165  30.780  28.235  1.00  0.00     0.188 C 
BRANCH   2   3
ATOM      3  O   UNL A   1      33.472  30.766  27.882  1.00  0.00    -0.376 OA
BRANCH   3   4
ATOM      4  C   UNL A   1      32.462  30.518  26.483  1.00  0.00     0.202 C 
BRANCH   4   5
ATOM      5  C   UNL A   1      31.006  31.529  25.801  1.00  0.00     0.261 C 
BRANCH   5   6
ATOM      6  O   UNL A   1      29.840  31.054  24.472  1.00  0.00    -0.460 OA
BRANCH   6   7
ATOM      7  C   UNL A   1      29.504  30.142  23.325  1.00  0.00     0.339 C 
ATOM      8  O   UNL A   1      28.952  30.457  22.263  1.00  0.00    -0.246 OA
BRANCH   7   9
ATOM      9  C   UNL A   1      29.888  28.617  23.178  1.00  0.00     0.080 A 
ATOM     10  C   UNL A   1      30.161  26.260  23.869  1.00  0.00     0.092 A 
ATOM     11  C   UNL A   1      29.914  27.600  24.144  1.00  0.00     0.048 A 
ATOM     12  C   UNL A   1      30.857  25.970  22.703  1.00  0.00     0.153 A 
ATOM     13  N   UNL A   1      31.056  26.931  21.774  1.00  0.00    -0.236 NA
ATOM     14  C   UNL A   1      30.534  28.196  22.013  1.00  0.00     0.129 A 
BRANCH  10  15
ATOM     15  N   UNL A   1      29.797  25.246  24.846  1.00  0.00    -0.276 N 
ATOM     16  H   UNL A   1      29.121  24.572  24.607  1.00  0.00     0.180 HD
BRANCH  15  17
ATOM     17  S   UNL A   1      30.518  25.194  26.418  1.00  0.00     0.262 S 
ATOM     18  O   UNL A   1      29.756  24.171  27.143  1.00  0.00    -0.201 OA
ATOM     19  O   UNL A   1      30.568  26.522  26.935  1.00  0.00    -0.201 OA
BRANCH  17  20
ATOM     20  C   UNL A   1      32.194  24.634  26.383  1.00  0.00     0.088 A 
ATOM     21  C   UNL A   1      34.079  21.618  27.512  1.00  0.00     0.044 C 
ATOM     22  C   UNL A   1      33.818  22.914  26.828  1.00  0.00    -0.050 A 
ATOM     23  C   UNL A   1      34.851  23.782  26.470  1.00  0.00     0.003 A 
ATOM     24  C   UNL A   1      32.491  23.323  26.714  1.00  0.00     0.025 A 
ATOM     25  C   UNL A   1      34.550  25.056  25.992  1.00  0.00     0.002 A 
ATOM     26  C   UNL A   1      33.222  25.491  25.966  1.00  0.00     0.022 A 
ENDBRANCH  17  20
ENDBRANCH  15  17
ENDBRANCH  10  15
BRANCH  12  27
ATOM     27  N   UNL A   1      31.494  24.733  22.660  1.00  0.00    -0.355 N 
ATOM     28  C   UNL A   1      30.739  23.560  23.063  1.00  0.00     0.118 C 
ATOM     29  C   UNL A   1      32.460  24.533  21.582  1.00  0.00     0.121 C 
ATOM     30  C   UNL A   1      31.741  22.539  23.611  1.00  0.00     0.022 C 
ATOM     31  C   UNL A   1      33.511  23.490  22.022  1.00  0.00     0.005 C 
ATOM     32  C   UNL A   1      32.840  22.226  22.594  1.00  0.00     0.007 C 
ATOM     33  C   UNL A   1      34.527  24.088  23.006  1.00  0.00     0.009 C 
ENDBRANCH  12  27
ENDBRANCH   7   9
ENDBRANCH   6   7
ENDBRANCH   5   6
ENDBRANCH   4   5
ENDBRANCH   3   4
ENDBRANCH   2   3
ENDBRANCH   1   2
BRANCH   1  34
ATOM     34  O   UNL A   1      36.218  31.672  30.678  1.00  0.00    -0.377 OA
BRANCH  34  35
ATOM     35  C   UNL A   1      35.606  31.639  31.963  1.00  0.00     0.188 C 
BRANCH  35  36
ATOM     36  C   UNL A   1      34.759  32.809  32.414  1.00  0.00     0.188 C 
BRANCH  36  37
ATOM     37  O   UNL A   1      35.385  33.996  31.963  1.00  0.00    -0.376 OA
BRANCH  37  38
ATOM     38  C   UNL A   1      35.760  34.902  32.988  1.00  0.00     0.202 C 
BRANCH  38  39
ATOM     39  C   UNL A   1      36.955  34.388  33.799  1.00  0.00     0.261 C 
BRANCH  39  40
ATOM     40  O   UNL A   1      38.166  34.923  33.220  1.00  0.00    -0.460 OA
BRANCH  40  41
ATOM     41  C   UNL A   1      39.250  34.097  33.265  1.00  0.00     0.338 C 
ATOM     42  O   UNL A   1      40.287  34.316  33.871  1.00  0.00    -0.246 OA
BRANCH  41  43
ATOM     43  C   UNL A   1      39.116  33.078  32.191  1.00  0.00     0.060 A 
ATOM     44  C   UNL A   1      39.217  31.728  32.458  1.00  0.00     0.016 A 
ATOM     45  C   UNL A   1      39.111  33.403  30.864  1.00  0.00     0.016 A 
ATOM     46  C   UNL A   1      39.772  30.853  31.479  1.00  0.00     0.010 A 
ATOM     47  C   UNL A   1      39.611  32.457  29.934  1.00  0.00     0.010 A 
ATOM     48  C   UNL A   1      40.378  31.280  30.284  1.00  0.00    -0.014 A 
BRANCH  48  49
ATOM     49  C   UNL A   1      41.870  30.474  29.523  1.00  0.00     0.031 A 
ATOM     50  C   UNL A   1      41.876  28.889  28.328  1.00  0.00     0.074 A 
ATOM     51  C   UNL A   1      43.005  31.037  30.193  1.00  0.00     0.049 A 
ATOM     52  N   UNL A   1      42.205  27.639  28.777  1.00  0.00    -0.248 NA
ATOM     53  C   UNL A   1      41.107  28.340  27.030  1.00  0.00     0.031 C 
ATOM     54  C   UNL A   1      44.446  30.766  30.225  1.00  0.00     0.029 A 
ATOM     55  N   UNL A   1      43.051  31.991  31.247  1.00  0.00    -0.354 N 
ATOM     56  C   UNL A   1      42.004  26.520  28.049  1.00  0.00     0.074 A 
ATOM     57  C   UNL A   1      41.110  26.984  27.057  1.00  0.00     0.031 C 
ATOM     58  C   UNL A   1      45.187  31.406  31.118  1.00  0.00     0.029 A 
ATOM     59  C   UNL A   1      44.231  31.868  32.013  1.00  0.00     0.049 A 
ATOM     60  H   UNL A   1      42.347  32.657  31.420  1.00  0.00     0.167 HD
ATOM     61  C   UNL A   1      42.648  25.340  28.315  1.00  0.00     0.037 A 
ATOM     62  C   UNL A   1      44.280  31.364  33.270  1.00  0.00     0.037 A 
ATOM     63  C   UNL A   1      43.852  25.460  29.163  1.00  0.00     0.049 A 
ATOM     64  C   UNL A   1      44.728  29.880  33.422  1.00  0.00     0.074 A 
ATOM     65  C   UNL A   1      45.194  25.493  28.824  1.00  0.00     0.029 A 
ATOM     66  N   UNL A   1      43.831  25.740  30.534  1.00  0.00    -0.354 N 
ATOM     67  N   UNL A   1      44.704  28.916  32.508  1.00  0.00    -0.248 NA
ATOM     68  C   UNL A   1      45.296  29.406  34.678  1.00  0.00     0.031 C 
ATOM     69  C   UNL A   1      45.942  25.808  29.979  1.00  0.00     0.029 A 
ATOM     70  C   UNL A   1      45.083  26.183  31.004  1.00  0.00     0.049 A 
ATOM     71  H   UNL A   1      43.034  25.640  31.103  1.00  0.00     0.167 HD
ATOM     72  C   UNL A   1      45.215  27.730  33.030  1.00  0.00     0.074 A 
ATOM     73  C   UNL A   1      45.555  28.116  34.402  1.00  0.00     0.031 C 
ATOM     74  C   UNL A   1      45.384  26.494  32.421  1.00  0.00     0.037 A 
BRANCH  61  75
ATOM     75  C   UNL A   1      42.353  24.152  27.424  1.00  0.00     0.064 A 
ATOM     76  C   UNL A   1      41.348  23.206  27.700  1.00  0.00     0.173 A 
ATOM     77  C   UNL A   1      43.144  23.881  26.290  1.00  0.00     0.173 A 
ATOM     78  F   UNL A   1      40.444  23.395  28.666  1.00  0.00    -0.203 F 
ATOM     79  C   UNL A   1      41.248  22.002  26.998  1.00  0.00     0.198 A 
ATOM     80  C   UNL A   1      43.053  22.668  25.595  1.00  0.00     0.198 A 
ATOM     81  F   UNL A   1      44.042  24.780  25.861  1.00  0.00    -0.203 F 
ATOM     82  F   UNL A   1      40.310  21.107  27.343  1.00  0.00    -0.200 F 
ATOM     83  C   UNL A   1      42.126  21.715  25.973  1.00  0.00     0.200 A 
ATOM     84  F   UNL A   1      43.893  22.412  24.582  1.00  0.00    -0.200 F 
ATOM     85  F   UNL A   1      42.078  20.527  25.353  1.00  0.00    -0.200 F 
ENDBRANCH  61  75
BRANCH  62  86
ATOM     86  C   UNL A   1      43.578  32.344  34.137  1.00  0.00     0.064 A 
ATOM     87  C   UNL A   1      42.409  31.858  34.797  1.00  0.00     0.173 A 
ATOM     88  C   UNL A   1      44.283  33.370  34.757  1.00  0.00     0.173 A 
ATOM     89  F   UNL A   1      41.686  30.870  34.239  1.00  0.00    -0.203 F 
ATOM     90  C   UNL A   1      42.138  32.186  36.121  1.00  0.00     0.198 A 
ATOM     91  C   UNL A   1      43.960  33.750  36.064  1.00  0.00     0.198 A 
ATOM     92  F   UNL A   1      45.384  33.869  34.180  1.00  0.00    -0.203 F 
ATOM     93  F   UNL A   1      41.211  31.501  36.807  1.00  0.00    -0.200 F 
ATOM     94  C   UNL A   1      42.935  33.114  36.763  1.00  0.00     0.200 A 
ATOM     95  F   UNL A   1      44.738  34.629  36.708  1.00  0.00    -0.200 F 
ATOM     96  F   UNL A   1      42.776  33.334  38.076  1.00  0.00    -0.200 F 
ENDBRANCH  62  86
BRANCH  74  97
ATOM     97  C   UNL A   1      46.061  25.330  33.134  1.00  0.00     0.064 A 
ATOM     98  C   UNL A   1      45.370  24.297  33.786  1.00  0.00     0.173 A 
ATOM     99  C   UNL A   1      47.461  25.361  33.337  1.00  0.00     0.173 A 
ATOM    100  F   UNL A   1      44.031  24.245  33.771  1.00  0.00    -0.203 F 
ATOM    101  C   UNL A   1      46.045  23.305  34.505  1.00  0.00     0.198 A 
ATOM    102  C   UNL A   1      48.120  24.422  34.127  1.00  0.00     0.198 A 
ATOM    103  F   UNL A   1      48.220  26.317  32.780  1.00  0.00    -0.203 F 
ATOM    104  F   UNL A   1      45.357  22.286  35.038  1.00  0.00    -0.200 F 
ATOM    105  C   UNL A   1      47.416  23.375  34.685  1.00  0.00     0.200 A 
ATOM    106  F   UNL A   1      49.437  24.541  34.344  1.00  0.00    -0.200 F 
ATOM    107  F   UNL A   1      48.055  22.439  35.399  1.00  0.00    -0.200 F 
ENDBRANCH  74  97
ENDBRANCH  48  49
ENDBRANCH  41  43
ENDBRANCH  40  41
ENDBRANCH  39  40
ENDBRANCH  38  39
ENDBRANCH  37  38
ENDBRANCH  36  37
ENDBRANCH  35  36
ENDBRANCH  34  35
ENDBRANCH   1  34
TORSDOF 24
ENDMDL
