MODEL 1
REMARK VINA RESULT:     -10.5      0.000      0.000
REMARK SMILES Cc1cscc1-c1ncc(C(=O)OCCOCCOCCOCCOC(=O)c2ccc(-c3c4nc(c(-c5c(F)c(F)c(F)c(F)c5F)c5ccc([nH]5)c(-c5c(F)c(F)c(F)c(F)c5F)c5nc(c(-c6c(F)c(F)c(F)c(F)c6F)c6ccc3[nH]6)C=C5)C=C4)cc2)c(=O)[nH]1
REMARK SMILES IDX 20 1 19 2 18 3 17 4 16 5 15 6 14 7 13 8 11 9 12 10 10 11
REMARK SMILES IDX 7 12 8 13 93 14 9 15 91 16 92 18 6 19 1 20 2 21 3 22 4 23
REMARK SMILES IDX 5 24 21 25 22 26 23 27 24 28 25 29 26 30 27 31 28 32 29 33
REMARK SMILES IDX 90 34 30 35 89 36 31 37 32 38 33 39 83 40 34 41 88 42 82 43
REMARK SMILES IDX 84 44 35 45 87 46 81 47 80 48 36 50 68 51 48 52 67 53 49 54
REMARK SMILES IDX 52 55 66 56 85 57 50 58 51 59 65 61 86 62 53 63 37 64 38 65
REMARK SMILES IDX 46 66 39 67 40 68 44 69 47 70 41 71 42 72 45 73 43 74 69 75
REMARK SMILES IDX 70 76 78 77 71 78 72 79 76 80 79 81 73 82 74 83 77 84 75 85
REMARK SMILES IDX 54 86 55 87 63 88 56 89 57 90 61 91 64 92 58 93 59 94 62 95
REMARK SMILES IDX 60 96
REMARK H PARENT 93 17 84 49 52 60
REMARK Flexibility Score: inf
ROOT
ATOM      1  C   UNL A   1      31.622  27.985  27.144  1.00  0.00     0.188 C 
ENDROOT
BRANCH   1   2
ATOM      2  O   UNL A   1      31.357  27.338  25.904  1.00  0.00    -0.377 OA
BRANCH   2   3
ATOM      3  C   UNL A   1      30.330  26.361  25.810  1.00  0.00     0.188 C 
BRANCH   3   4
ATOM      4  C   UNL A   1      30.694  24.873  25.607  1.00  0.00     0.188 C 
BRANCH   4   5
ATOM      5  O   UNL A   1      30.628  24.442  24.260  1.00  0.00    -0.376 OA
BRANCH   5   6
ATOM      6  C   UNL A   1      31.231  25.225  23.249  1.00  0.00     0.202 C 
BRANCH   6   7
ATOM      7  C   UNL A   1      32.740  25.089  23.003  1.00  0.00     0.261 C 
BRANCH   7   8
ATOM      8  O   UNL A   1      33.435  24.191  23.876  1.00  0.00    -0.459 OA
BRANCH   8   9
ATOM      9  C   UNL A   1      34.241  23.275  23.300  1.00  0.00     0.345 C 
ATOM     10  O   UNL A   1      35.249  23.520  22.654  1.00  0.00    -0.246 OA
BRANCH   9  11
ATOM     11  C   UNL A   1      33.843  21.925  23.730  1.00  0.00     0.143 A 
ATOM     12  C   UNL A   1      33.377  19.384  24.596  1.00  0.00     0.141 A 
ATOM     13  N   UNL A   1      34.425  19.989  25.052  1.00  0.00    -0.237 NA
ATOM     14  N   UNL A   1      32.443  19.981  23.797  1.00  0.00    -0.306 N 
ATOM     15  C   UNL A   1      34.636  21.267  24.591  1.00  0.00     0.135 A 
ATOM     16  C   UNL A   1      32.592  21.258  23.328  1.00  0.00     0.265 A 
ATOM     17  H   UNL A   1      31.635  19.477  23.550  1.00  0.00     0.171 HD
ATOM     18  O   UNL A   1      31.761  21.764  22.585  1.00  0.00    -0.269 OA
BRANCH  12  19
ATOM     19  C   UNL A   1      33.213  17.962  24.834  1.00  0.00     0.031 A 
ATOM     20  C   UNL A   1      34.331  16.964  22.696  1.00  0.00     0.046 C 
ATOM     21  C   UNL A   1      33.587  16.855  23.986  1.00  0.00    -0.029 A 
ATOM     22  C   UNL A   1      33.163  15.652  24.524  1.00  0.00     0.069 A 
ATOM     23  S   UNL A   1      32.357  15.829  26.016  1.00  0.00    -0.151 S 
ATOM     24  C   UNL A   1      32.551  17.520  25.969  1.00  0.00     0.077 A 
ENDBRANCH  12  19
ENDBRANCH   9  11
ENDBRANCH   8   9
ENDBRANCH   7   8
ENDBRANCH   6   7
ENDBRANCH   5   6
ENDBRANCH   4   5
ENDBRANCH   3   4
ENDBRANCH   2   3
ENDBRANCH   1   2
BRANCH   1  25
ATOM     25  C   UNL A   1      32.548  29.221  27.220  1.00  0.00     0.188 C 
BRANCH  25  26
ATOM     26  O   UNL A   1      32.454  30.096  26.108  1.00  0.00    -0.376 OA
BRANCH  26  27
ATOM     27  C   UNL A   1      31.486  31.128  26.164  1.00  0.00     0.202 C 
BRANCH  27  28
ATOM     28  C   UNL A   1      31.754  32.277  27.147  1.00  0.00     0.261 C 
BRANCH  28  29
ATOM     29  O   UNL A   1      32.980  32.999  26.953  1.00  0.00    -0.460 OA
BRANCH  29  30
ATOM     30  C   UNL A   1      33.534  33.562  28.043  1.00  0.00     0.338 C 
ATOM     31  O   UNL A   1      33.038  34.409  28.772  1.00  0.00    -0.246 OA
BRANCH  30  32
ATOM     32  C   UNL A   1      34.792  32.850  28.341  1.00  0.00     0.060 A 
ATOM     33  C   UNL A   1      34.739  31.486  28.651  1.00  0.00     0.016 A 
ATOM     34  C   UNL A   1      36.013  33.529  28.333  1.00  0.00     0.016 A 
ATOM     35  C   UNL A   1      35.900  30.809  29.015  1.00  0.00     0.010 A 
ATOM     36  C   UNL A   1      37.176  32.854  28.715  1.00  0.00     0.010 A 
ATOM     37  C   UNL A   1      37.115  31.503  29.104  1.00  0.00    -0.014 A 
BRANCH  37  38
ATOM     38  C   UNL A   1      38.253  30.868  29.812  1.00  0.00     0.031 A 
ATOM     39  C   UNL A   1      38.474  31.212  31.259  1.00  0.00     0.074 A 
ATOM     40  C   UNL A   1      39.029  29.953  29.208  1.00  0.00     0.049 A 
ATOM     41  N   UNL A   1      39.373  30.764  32.097  1.00  0.00    -0.248 NA
ATOM     42  C   UNL A   1      37.550  32.198  31.843  1.00  0.00     0.031 C 
ATOM     43  C   UNL A   1      38.887  29.506  27.824  1.00  0.00     0.029 A 
ATOM     44  N   UNL A   1      40.091  29.229  29.690  1.00  0.00    -0.354 N 
ATOM     45  C   UNL A   1      39.123  31.410  33.301  1.00  0.00     0.074 A 
ATOM     46  C   UNL A   1      38.019  32.315  33.076  1.00  0.00     0.031 C 
ATOM     47  C   UNL A   1      39.827  28.579  27.568  1.00  0.00     0.029 A 
ATOM     48  C   UNL A   1      40.653  28.390  28.761  1.00  0.00     0.049 A 
ATOM     49  H   UNL A   1      40.417  29.303  30.617  1.00  0.00     0.167 HD
ATOM     50  C   UNL A   1      39.750  31.254  34.492  1.00  0.00     0.037 A 
ATOM     51  C   UNL A   1      41.721  27.574  28.862  1.00  0.00     0.037 A 
ATOM     52  C   UNL A   1      40.854  30.356  34.710  1.00  0.00     0.049 A 
ATOM     53  C   UNL A   1      42.451  27.474  30.179  1.00  0.00     0.074 A 
ATOM     54  C   UNL A   1      41.555  30.119  35.878  1.00  0.00     0.029 A 
ATOM     55  N   UNL A   1      41.425  29.556  33.730  1.00  0.00    -0.354 N 
ATOM     56  N   UNL A   1      42.193  28.069  31.319  1.00  0.00    -0.248 NA
ATOM     57  C   UNL A   1      43.615  26.579  30.223  1.00  0.00     0.031 C 
ATOM     58  C   UNL A   1      42.590  29.223  35.592  1.00  0.00     0.029 A 
ATOM     59  C   UNL A   1      42.487  28.843  34.264  1.00  0.00     0.049 A 
ATOM     60  H   UNL A   1      41.120  29.502  32.796  1.00  0.00     0.167 HD
ATOM     61  C   UNL A   1      43.134  27.589  32.223  1.00  0.00     0.074 A 
ATOM     62  C   UNL A   1      43.962  26.648  31.499  1.00  0.00     0.031 C 
ATOM     63  C   UNL A   1      43.295  27.897  33.535  1.00  0.00     0.037 A 
BRANCH  50  64
ATOM     64  C   UNL A   1      39.273  32.096  35.641  1.00  0.00     0.064 A 
ATOM     65  C   UNL A   1      38.357  31.611  36.587  1.00  0.00     0.173 A 
ATOM     66  C   UNL A   1      39.754  33.404  35.809  1.00  0.00     0.173 A 
ATOM     67  F   UNL A   1      37.852  30.374  36.466  1.00  0.00    -0.203 F 
ATOM     68  C   UNL A   1      37.917  32.413  37.637  1.00  0.00     0.198 A 
ATOM     69  C   UNL A   1      39.340  34.190  36.880  1.00  0.00     0.198 A 
ATOM     70  F   UNL A   1      40.633  33.918  34.935  1.00  0.00    -0.203 F 
ATOM     71  F   UNL A   1      36.998  31.948  38.495  1.00  0.00    -0.200 F 
ATOM     72  C   UNL A   1      38.414  33.699  37.787  1.00  0.00     0.200 A 
ATOM     73  F   UNL A   1      39.834  35.427  37.031  1.00  0.00    -0.200 F 
ATOM     74  F   UNL A   1      37.995  34.468  38.801  1.00  0.00    -0.200 F 
ENDBRANCH  50  64
BRANCH  51  75
ATOM     75  C   UNL A   1      42.166  26.781  27.685  1.00  0.00     0.064 A 
ATOM     76  C   UNL A   1      41.638  25.508  27.424  1.00  0.00     0.173 A 
ATOM     77  C   UNL A   1      43.147  27.269  26.809  1.00  0.00     0.173 A 
ATOM     78  F   UNL A   1      40.717  24.984  28.248  1.00  0.00    -0.203 F 
ATOM     79  C   UNL A   1      42.089  24.747  26.347  1.00  0.00     0.198 A 
ATOM     80  C   UNL A   1      43.572  26.522  25.713  1.00  0.00     0.198 A 
ATOM     81  F   UNL A   1      43.687  28.479  27.013  1.00  0.00    -0.203 F 
ATOM     82  F   UNL A   1      41.605  23.512  26.154  1.00  0.00    -0.200 F 
ATOM     83  C   UNL A   1      43.051  25.257  25.488  1.00  0.00     0.200 A 
ATOM     84  F   UNL A   1      44.493  27.024  24.879  1.00  0.00    -0.200 F 
ATOM     85  F   UNL A   1      43.481  24.527  24.451  1.00  0.00    -0.200 F 
ENDBRANCH  51  75
BRANCH  63  86
ATOM     86  C   UNL A   1      44.367  27.165  34.293  1.00  0.00     0.064 A 
ATOM     87  C   UNL A   1      44.135  25.922  34.903  1.00  0.00     0.173 A 
ATOM     88  C   UNL A   1      45.662  27.704  34.382  1.00  0.00     0.173 A 
ATOM     89  F   UNL A   1      42.915  25.366  34.858  1.00  0.00    -0.203 F 
ATOM     90  C   UNL A   1      45.146  25.267  35.601  1.00  0.00     0.198 A 
ATOM     91  C   UNL A   1      46.679  27.027  35.047  1.00  0.00     0.198 A 
ATOM     92  F   UNL A   1      45.944  28.883  33.808  1.00  0.00    -0.203 F 
ATOM     93  F   UNL A   1      44.882  24.110  36.227  1.00  0.00    -0.200 F 
ATOM     94  C   UNL A   1      46.418  25.815  35.668  1.00  0.00     0.200 A 
ATOM     95  F   UNL A   1      47.913  27.550  35.093  1.00  0.00    -0.200 F 
ATOM     96  F   UNL A   1      47.390  25.179  36.335  1.00  0.00    -0.200 F 
ENDBRANCH  63  86
ENDBRANCH  37  38
ENDBRANCH  30  32
ENDBRANCH  29  30
ENDBRANCH  28  29
ENDBRANCH  27  28
ENDBRANCH  26  27
ENDBRANCH  25  26
ENDBRANCH   1  25
TORSDOF 21
ENDMDL
MODEL 2
REMARK VINA RESULT:     -10.4      4.458      6.926
REMARK SMILES Cc1cscc1-c1ncc(C(=O)OCCOCCOCCOCCOC(=O)c2ccc(-c3c4nc(c(-c5c(F)c(F)c(F)c(F)c5F)c5ccc([nH]5)c(-c5c(F)c(F)c(F)c(F)c5F)c5nc(c(-c6c(F)c(F)c(F)c(F)c6F)c6ccc3[nH]6)C=C5)C=C4)cc2)c(=O)[nH]1
REMARK SMILES IDX 20 1 19 2 18 3 17 4 16 5 15 6 14 7 13 8 11 9 12 10 10 11
REMARK SMILES IDX 7 12 8 13 93 14 9 15 91 16 92 18 6 19 1 20 2 21 3 22 4 23
REMARK SMILES IDX 5 24 21 25 22 26 23 27 24 28 25 29 26 30 27 31 28 32 29 33
REMARK SMILES IDX 90 34 30 35 89 36 31 37 32 38 33 39 83 40 34 41 88 42 82 43
REMARK SMILES IDX 84 44 35 45 87 46 81 47 80 48 36 50 68 51 48 52 67 53 49 54
REMARK SMILES IDX 52 55 66 56 85 57 50 58 51 59 65 61 86 62 53 63 37 64 38 65
REMARK SMILES IDX 46 66 39 67 40 68 44 69 47 70 41 71 42 72 45 73 43 74 69 75
REMARK SMILES IDX 70 76 78 77 71 78 72 79 76 80 79 81 73 82 74 83 77 84 75 85
REMARK SMILES IDX 54 86 55 87 63 88 56 89 57 90 61 91 64 92 58 93 59 94 62 95
REMARK SMILES IDX 60 96
REMARK H PARENT 93 17 84 49 52 60
REMARK Flexibility Score: inf
ROOT
ATOM      1  C   UNL A   1      34.735  32.001  27.644  1.00  0.00     0.188 C 
ENDROOT
BRANCH   1   2
ATOM      2  O   UNL A   1      33.655  31.092  27.830  1.00  0.00    -0.377 OA
BRANCH   2   3
ATOM      3  C   UNL A   1      33.802  29.723  27.477  1.00  0.00     0.188 C 
BRANCH   3   4
ATOM      4  C   UNL A   1      33.681  29.288  25.999  1.00  0.00     0.188 C 
BRANCH   4   5
ATOM      5  O   UNL A   1      32.519  29.769  25.349  1.00  0.00    -0.376 OA
BRANCH   5   6
ATOM      6  C   UNL A   1      32.064  29.128  24.174  1.00  0.00     0.202 C 
BRANCH   6   7
ATOM      7  C   UNL A   1      30.586  28.725  24.073  1.00  0.00     0.261 C 
BRANCH   7   8
ATOM      8  O   UNL A   1      30.307  27.580  23.259  1.00  0.00    -0.459 OA
BRANCH   8   9
ATOM      9  C   UNL A   1      29.602  26.579  23.827  1.00  0.00     0.345 C 
ATOM     10  O   UNL A   1      28.385  26.535  23.930  1.00  0.00    -0.246 OA
BRANCH   9  11
ATOM     11  C   UNL A   1      30.498  25.451  24.126  1.00  0.00     0.143 A 
ATOM     12  C   UNL A   1      32.127  23.286  24.408  1.00  0.00     0.141 A 
ATOM     13  N   UNL A   1      31.975  23.768  23.219  1.00  0.00    -0.237 NA
ATOM     14  N   UNL A   1      31.609  23.862  25.534  1.00  0.00    -0.306 N 
ATOM     15  C   UNL A   1      31.141  24.856  23.108  1.00  0.00     0.135 A 
ATOM     16  C   UNL A   1      30.792  24.958  25.483  1.00  0.00     0.265 A 
ATOM     17  H   UNL A   1      31.830  23.476  26.412  1.00  0.00     0.171 HD
ATOM     18  O   UNL A   1      30.309  25.439  26.500  1.00  0.00    -0.269 OA
BRANCH  12  19
ATOM     19  C   UNL A   1      32.785  22.003  24.580  1.00  0.00     0.031 A 
ATOM     20  C   UNL A   1      35.029  22.738  25.695  1.00  0.00     0.046 C 
ATOM     21  C   UNL A   1      34.099  21.726  25.110  1.00  0.00    -0.029 A 
ATOM     22  C   UNL A   1      34.402  20.379  25.008  1.00  0.00     0.069 A 
ATOM     23  S   UNL A   1      33.144  19.458  24.319  1.00  0.00    -0.151 S 
ATOM     24  C   UNL A   1      32.172  20.843  24.134  1.00  0.00     0.077 A 
ENDBRANCH  12  19
ENDBRANCH   9  11
ENDBRANCH   8   9
ENDBRANCH   7   8
ENDBRANCH   6   7
ENDBRANCH   5   6
ENDBRANCH   4   5
ENDBRANCH   3   4
ENDBRANCH   2   3
ENDBRANCH   1   2
BRANCH   1  25
ATOM     25  C   UNL A   1      34.684  33.433  28.227  1.00  0.00     0.188 C 
BRANCH  25  26
ATOM     26  O   UNL A   1      33.968  33.547  29.445  1.00  0.00    -0.376 OA
BRANCH  26  27
ATOM     27  C   UNL A   1      34.633  34.139  30.546  1.00  0.00     0.202 C 
BRANCH  27  28
ATOM     28  C   UNL A   1      34.408  33.493  31.921  1.00  0.00     0.261 C 
BRANCH  28  29
ATOM     29  O   UNL A   1      34.898  32.151  32.074  1.00  0.00    -0.460 OA
BRANCH  29  30
ATOM     30  C   UNL A   1      36.013  31.991  32.812  1.00  0.00     0.338 C 
ATOM     31  O   UNL A   1      36.170  32.287  33.989  1.00  0.00    -0.246 OA
BRANCH  30  32
ATOM     32  C   UNL A   1      36.985  31.214  32.019  1.00  0.00     0.060 A 
ATOM     33  C   UNL A   1      38.084  30.642  32.670  1.00  0.00     0.016 A 
ATOM     34  C   UNL A   1      36.822  31.068  30.639  1.00  0.00     0.016 A 
ATOM     35  C   UNL A   1      39.058  29.973  31.934  1.00  0.00     0.010 A 
ATOM     36  C   UNL A   1      37.810  30.412  29.898  1.00  0.00     0.010 A 
ATOM     37  C   UNL A   1      38.955  29.905  30.538  1.00  0.00    -0.014 A 
BRANCH  37  38
ATOM     38  C   UNL A   1      40.146  29.503  29.750  1.00  0.00     0.031 A 
ATOM     39  C   UNL A   1      41.233  30.520  29.532  1.00  0.00     0.074 A 
ATOM     40  C   UNL A   1      40.295  28.245  29.300  1.00  0.00     0.049 A 
ATOM     41  N   UNL A   1      42.378  30.399  28.911  1.00  0.00    -0.248 NA
ATOM     42  C   UNL A   1      40.994  31.860  30.093  1.00  0.00     0.031 C 
ATOM     43  C   UNL A   1      39.333  27.162  29.486  1.00  0.00     0.029 A 
ATOM     44  N   UNL A   1      41.324  27.668  28.598  1.00  0.00    -0.354 N 
ATOM     45  C   UNL A   1      42.993  31.641  29.008  1.00  0.00     0.074 A 
ATOM     46  C   UNL A   1      42.077  32.515  29.706  1.00  0.00     0.031 C 
ATOM     47  C   UNL A   1      39.819  26.047  28.913  1.00  0.00     0.029 A 
ATOM     48  C   UNL A   1      41.111  26.347  28.297  1.00  0.00     0.049 A 
ATOM     49  H   UNL A   1      42.138  28.157  28.336  1.00  0.00     0.167 HD
ATOM     50  C   UNL A   1      44.217  32.016  28.566  1.00  0.00     0.037 A 
ATOM     51  C   UNL A   1      41.871  25.484  27.593  1.00  0.00     0.037 A 
ATOM     52  C   UNL A   1      45.123  31.144  27.865  1.00  0.00     0.049 A 
ATOM     53  C   UNL A   1      43.198  25.947  27.044  1.00  0.00     0.074 A 
ATOM     54  C   UNL A   1      46.388  31.423  27.381  1.00  0.00     0.029 A 
ATOM     55  N   UNL A   1      44.852  29.823  27.539  1.00  0.00    -0.354 N 
ATOM     56  N   UNL A   1      43.783  27.114  27.162  1.00  0.00    -0.248 NA
ATOM     57  C   UNL A   1      43.973  24.965  26.274  1.00  0.00     0.031 C 
ATOM     58  C   UNL A   1      46.858  30.292  26.706  1.00  0.00     0.029 A 
ATOM     59  C   UNL A   1      45.918  29.282  26.836  1.00  0.00     0.049 A 
ATOM     60  H   UNL A   1      44.026  29.341  27.773  1.00  0.00     0.167 HD
ATOM     61  C   UNL A   1      45.010  26.995  26.518  1.00  0.00     0.074 A 
ATOM     62  C   UNL A   1      45.086  25.638  26.020  1.00  0.00     0.031 C 
ATOM     63  C   UNL A   1      45.987  27.924  26.358  1.00  0.00     0.037 A 
BRANCH  50  64
ATOM     64  C   UNL A   1      44.632  33.441  28.803  1.00  0.00     0.064 A 
ATOM     65  C   UNL A   1      45.369  33.821  29.935  1.00  0.00     0.173 A 
ATOM     66  C   UNL A   1      44.304  34.438  27.872  1.00  0.00     0.173 A 
ATOM     67  F   UNL A   1      45.696  32.911  30.865  1.00  0.00    -0.203 F 
ATOM     68  C   UNL A   1      45.731  35.150  30.142  1.00  0.00     0.198 A 
ATOM     69  C   UNL A   1      44.699  35.759  28.064  1.00  0.00     0.198 A 
ATOM     70  F   UNL A   1      43.603  34.130  26.770  1.00  0.00    -0.203 F 
ATOM     71  F   UNL A   1      46.384  35.498  31.259  1.00  0.00    -0.200 F 
ATOM     72  C   UNL A   1      45.403  36.116  29.203  1.00  0.00     0.200 A 
ATOM     73  F   UNL A   1      44.393  36.688  27.147  1.00  0.00    -0.200 F 
ATOM     74  F   UNL A   1      45.758  37.393  29.400  1.00  0.00    -0.200 F 
ENDBRANCH  50  64
BRANCH  51  75
ATOM     75  C   UNL A   1      41.400  24.091  27.367  1.00  0.00     0.064 A 
ATOM     76  C   UNL A   1      40.283  23.823  26.562  1.00  0.00     0.173 A 
ATOM     77  C   UNL A   1      42.041  23.000  27.972  1.00  0.00     0.173 A 
ATOM     78  F   UNL A   1      39.617  24.834  25.983  1.00  0.00    -0.203 F 
ATOM     79  C   UNL A   1      39.815  22.522  26.388  1.00  0.00     0.198 A 
ATOM     80  C   UNL A   1      41.593  21.696  27.770  1.00  0.00     0.198 A 
ATOM     81  F   UNL A   1      43.112  23.200  28.754  1.00  0.00    -0.203 F 
ATOM     82  F   UNL A   1      38.714  22.301  25.657  1.00  0.00    -0.200 F 
ATOM     83  C   UNL A   1      40.474  21.459  26.987  1.00  0.00     0.200 A 
ATOM     84  F   UNL A   1      42.241  20.672  28.340  1.00  0.00    -0.200 F 
ATOM     85  F   UNL A   1      40.026  20.208  26.816  1.00  0.00    -0.200 F 
ENDBRANCH  51  75
BRANCH  63  86
ATOM     86  C   UNL A   1      47.251  27.489  25.670  1.00  0.00     0.064 A 
ATOM     87  C   UNL A   1      48.312  26.889  26.365  1.00  0.00     0.173 A 
ATOM     88  C   UNL A   1      47.387  27.648  24.280  1.00  0.00     0.173 A 
ATOM     89  F   UNL A   1      48.239  26.723  27.694  1.00  0.00    -0.203 F 
ATOM     90  C   UNL A   1      49.473  26.499  25.703  1.00  0.00     0.198 A 
ATOM     91  C   UNL A   1      48.533  27.220  23.617  1.00  0.00     0.198 A 
ATOM     92  F   UNL A   1      46.400  28.204  23.563  1.00  0.00    -0.203 F 
ATOM     93  F   UNL A   1      50.497  25.984  26.399  1.00  0.00    -0.200 F 
ATOM     94  C   UNL A   1      49.581  26.658  24.330  1.00  0.00     0.200 A 
ATOM     95  F   UNL A   1      48.627  27.357  22.286  1.00  0.00    -0.200 F 
ATOM     96  F   UNL A   1      50.697  26.276  23.694  1.00  0.00    -0.200 F 
ENDBRANCH  63  86
ENDBRANCH  37  38
ENDBRANCH  30  32
ENDBRANCH  29  30
ENDBRANCH  28  29
ENDBRANCH  27  28
ENDBRANCH  26  27
ENDBRANCH  25  26
ENDBRANCH   1  25
TORSDOF 21
ENDMDL
MODEL 3
REMARK VINA RESULT:     -10.4      2.621      4.318
REMARK SMILES Cc1cscc1-c1ncc(C(=O)OCCOCCOCCOCCOC(=O)c2ccc(-c3c4nc(c(-c5c(F)c(F)c(F)c(F)c5F)c5ccc([nH]5)c(-c5c(F)c(F)c(F)c(F)c5F)c5nc(c(-c6c(F)c(F)c(F)c(F)c6F)c6ccc3[nH]6)C=C5)C=C4)cc2)c(=O)[nH]1
REMARK SMILES IDX 20 1 19 2 18 3 17 4 16 5 15 6 14 7 13 8 11 9 12 10 10 11
REMARK SMILES IDX 7 12 8 13 93 14 9 15 91 16 92 18 6 19 1 20 2 21 3 22 4 23
REMARK SMILES IDX 5 24 21 25 22 26 23 27 24 28 25 29 26 30 27 31 28 32 29 33
REMARK SMILES IDX 90 34 30 35 89 36 31 37 32 38 33 39 83 40 34 41 88 42 82 43
REMARK SMILES IDX 84 44 35 45 87 46 81 47 80 48 36 50 68 51 48 52 67 53 49 54
REMARK SMILES IDX 52 55 66 56 85 57 50 58 51 59 65 61 86 62 53 63 37 64 38 65
REMARK SMILES IDX 46 66 39 67 40 68 44 69 47 70 41 71 42 72 45 73 43 74 69 75
REMARK SMILES IDX 70 76 78 77 71 78 72 79 76 80 79 81 73 82 74 83 77 84 75 85
REMARK SMILES IDX 54 86 55 87 63 88 56 89 57 90 61 91 64 92 58 93 59 94 62 95
REMARK SMILES IDX 60 96
REMARK H PARENT 93 17 84 49 52 60
REMARK Flexibility Score: inf
ROOT
ATOM      1  C   UNL A   1      31.963  28.150  25.967  1.00  0.00     0.188 C 
ENDROOT
BRANCH   1   2
ATOM      2  O   UNL A   1      32.743  27.130  25.353  1.00  0.00    -0.377 OA
BRANCH   2   3
ATOM      3  C   UNL A   1      33.836  26.547  26.050  1.00  0.00     0.188 C 
BRANCH   3   4
ATOM      4  C   UNL A   1      34.758  25.533  25.335  1.00  0.00     0.188 C 
BRANCH   4   5
ATOM      5  O   UNL A   1      34.140  24.852  24.259  1.00  0.00    -0.376 OA
BRANCH   5   6
ATOM      6  C   UNL A   1      34.037  23.443  24.294  1.00  0.00     0.202 C 
BRANCH   6   7
ATOM      7  C   UNL A   1      32.857  22.802  25.041  1.00  0.00     0.261 C 
BRANCH   7   8
ATOM      8  O   UNL A   1      31.573  23.387  24.794  1.00  0.00    -0.459 OA
BRANCH   8   9
ATOM      9  C   UNL A   1      31.217  23.566  23.504  1.00  0.00     0.345 C 
ATOM     10  O   UNL A   1      31.080  22.679  22.674  1.00  0.00    -0.246 OA
BRANCH   9  11
ATOM     11  C   UNL A   1      30.822  24.967  23.291  1.00  0.00     0.143 A 
ATOM     12  C   UNL A   1      29.847  27.498  23.027  1.00  0.00     0.141 A 
ATOM     13  N   UNL A   1      29.357  26.763  23.970  1.00  0.00    -0.237 NA
ATOM     14  N   UNL A   1      30.892  27.116  22.232  1.00  0.00    -0.306 N 
ATOM     15  C   UNL A   1      29.864  25.490  24.073  1.00  0.00     0.135 A 
ATOM     16  C   UNL A   1      31.449  25.869  22.308  1.00  0.00     0.265 A 
ATOM     17  H   UNL A   1      31.258  27.760  21.584  1.00  0.00     0.171 HD
ATOM     18  O   UNL A   1      32.362  25.534  21.564  1.00  0.00    -0.269 OA
BRANCH  12  19
ATOM     19  C   UNL A   1      29.204  28.755  22.692  1.00  0.00     0.031 A 
ATOM     20  C   UNL A   1      26.763  28.297  23.498  1.00  0.00     0.046 C 
ATOM     21  C   UNL A   1      27.818  29.129  22.848  1.00  0.00    -0.029 A 
ATOM     22  C   UNL A   1      27.579  30.383  22.309  1.00  0.00     0.069 A 
ATOM     23  S   UNL A   1      28.974  31.109  21.653  1.00  0.00    -0.151 S 
ATOM     24  C   UNL A   1      29.926  29.760  22.067  1.00  0.00     0.077 A 
ENDBRANCH  12  19
ENDBRANCH   9  11
ENDBRANCH   8   9
ENDBRANCH   7   8
ENDBRANCH   6   7
ENDBRANCH   5   6
ENDBRANCH   4   5
ENDBRANCH   3   4
ENDBRANCH   2   3
ENDBRANCH   1   2
BRANCH   1  25
ATOM     25  C   UNL A   1      31.781  29.531  25.295  1.00  0.00     0.188 C 
BRANCH  25  26
ATOM     26  O   UNL A   1      32.476  30.591  25.930  1.00  0.00    -0.376 OA
BRANCH  26  27
ATOM     27  C   UNL A   1      31.754  31.394  26.847  1.00  0.00     0.202 C 
BRANCH  27  28
ATOM     28  C   UNL A   1      32.185  32.862  26.971  1.00  0.00     0.261 C 
BRANCH  28  29
ATOM     29  O   UNL A   1      32.552  33.302  28.289  1.00  0.00    -0.460 OA
BRANCH  29  30
ATOM     30  C   UNL A   1      33.613  34.125  28.383  1.00  0.00     0.338 C 
ATOM     31  O   UNL A   1      33.602  35.348  28.399  1.00  0.00    -0.246 OA
BRANCH  30  32
ATOM     32  C   UNL A   1      34.810  33.306  28.656  1.00  0.00     0.060 A 
ATOM     33  C   UNL A   1      34.641  32.010  29.159  1.00  0.00     0.016 A 
ATOM     34  C   UNL A   1      36.090  33.821  28.436  1.00  0.00     0.016 A 
ATOM     35  C   UNL A   1      35.754  31.246  29.500  1.00  0.00     0.010 A 
ATOM     36  C   UNL A   1      37.206  33.060  28.796  1.00  0.00     0.010 A 
ATOM     37  C   UNL A   1      37.040  31.789  29.375  1.00  0.00    -0.014 A 
BRANCH  37  38
ATOM     38  C   UNL A   1      38.172  31.112  30.052  1.00  0.00     0.031 A 
ATOM     39  C   UNL A   1      38.417  31.415  31.506  1.00  0.00     0.074 A 
ATOM     40  C   UNL A   1      38.922  30.196  29.416  1.00  0.00     0.049 A 
ATOM     41  N   UNL A   1      39.317  30.927  32.321  1.00  0.00    -0.248 NA
ATOM     42  C   UNL A   1      37.521  32.405  32.125  1.00  0.00     0.031 C 
ATOM     43  C   UNL A   1      38.754  29.788  28.024  1.00  0.00     0.029 A 
ATOM     44  N   UNL A   1      39.974  29.439  29.868  1.00  0.00    -0.354 N 
ATOM     45  C   UNL A   1      39.095  31.548  33.543  1.00  0.00     0.074 A 
ATOM     46  C   UNL A   1      38.007  32.481  33.355  1.00  0.00     0.031 C 
ATOM     47  C   UNL A   1      39.672  28.848  27.734  1.00  0.00     0.029 A 
ATOM     48  C   UNL A   1      40.508  28.613  28.911  1.00  0.00     0.049 A 
ATOM     49  H   UNL A   1      40.313  29.483  30.792  1.00  0.00     0.167 HD
ATOM     50  C   UNL A   1      39.732  31.349  34.722  1.00  0.00     0.037 A 
ATOM     51  C   UNL A   1      41.559  27.772  28.979  1.00  0.00     0.037 A 
ATOM     52  C   UNL A   1      40.819  30.423  34.904  1.00  0.00     0.049 A 
ATOM     53  C   UNL A   1      42.302  27.623  30.284  1.00  0.00     0.074 A 
ATOM     54  C   UNL A   1      41.528  30.142  36.058  1.00  0.00     0.029 A 
ATOM     55  N   UNL A   1      41.362  29.636  33.898  1.00  0.00    -0.354 N 
ATOM     56  N   UNL A   1      42.070  28.195  31.441  1.00  0.00    -0.248 NA
ATOM     57  C   UNL A   1      43.448  26.703  30.291  1.00  0.00     0.031 C 
ATOM     58  C   UNL A   1      42.541  29.232  35.737  1.00  0.00     0.029 A 
ATOM     59  C   UNL A   1      42.415  28.888  34.401  1.00  0.00     0.049 A 
ATOM     60  H   UNL A   1      41.045  29.612  32.967  1.00  0.00     0.167 HD
ATOM     61  C   UNL A   1      43.012  27.673  32.322  1.00  0.00     0.074 A 
ATOM     62  C   UNL A   1      43.811  26.733  31.564  1.00  0.00     0.031 C 
ATOM     63  C   UNL A   1      43.194  27.945  33.639  1.00  0.00     0.037 A 
BRANCH  50  64
ATOM     64  C   UNL A   1      39.285  32.172  35.898  1.00  0.00     0.064 A 
ATOM     65  C   UNL A   1      39.793  33.457  36.140  1.00  0.00     0.173 A 
ATOM     66  C   UNL A   1      38.320  31.673  36.785  1.00  0.00     0.173 A 
ATOM     67  F   UNL A   1      40.730  33.976  35.332  1.00  0.00    -0.203 F 
ATOM     68  C   UNL A   1      39.376  34.197  37.244  1.00  0.00     0.198 A 
ATOM     69  C   UNL A   1      37.879  32.430  37.867  1.00  0.00     0.198 A 
ATOM     70  F   UNL A   1      37.798  30.451  36.601  1.00  0.00    -0.203 F 
ATOM     71  F   UNL A   1      39.918  35.398  37.486  1.00  0.00    -0.200 F 
ATOM     72  C   UNL A   1      38.414  33.687  38.101  1.00  0.00     0.200 A 
ATOM     73  F   UNL A   1      36.937  31.940  38.686  1.00  0.00    -0.200 F 
ATOM     74  F   UNL A   1      38.009  34.402  39.159  1.00  0.00    -0.200 F 
ENDBRANCH  50  64
BRANCH  51  75
ATOM     75  C   UNL A   1      41.973  27.000  27.777  1.00  0.00     0.064 A 
ATOM     76  C   UNL A   1      41.503  25.698  27.551  1.00  0.00     0.173 A 
ATOM     77  C   UNL A   1      42.869  27.539  26.841  1.00  0.00     0.173 A 
ATOM     78  F   UNL A   1      40.666  25.127  28.431  1.00  0.00    -0.203 F 
ATOM     79  C   UNL A   1      41.928  24.959  26.449  1.00  0.00     0.198 A 
ATOM     80  C   UNL A   1      43.267  26.811  25.721  1.00  0.00     0.198 A 
ATOM     81  F   UNL A   1      43.352  28.778  27.010  1.00  0.00    -0.203 F 
ATOM     82  F   UNL A   1      41.503  23.698  26.287  1.00  0.00    -0.200 F 
ATOM     83  C   UNL A   1      42.804  25.518  25.531  1.00  0.00     0.200 A 
ATOM     84  F   UNL A   1      44.103  27.360  24.830  1.00  0.00    -0.200 F 
ATOM     85  F   UNL A   1      43.209  24.808  24.469  1.00  0.00    -0.200 F 
ENDBRANCH  51  75
BRANCH  63  86
ATOM     86  C   UNL A   1      44.259  27.171  34.366  1.00  0.00     0.064 A 
ATOM     87  C   UNL A   1      43.997  25.940  34.986  1.00  0.00     0.173 A 
ATOM     88  C   UNL A   1      45.577  27.658  34.412  1.00  0.00     0.173 A 
ATOM     89  F   UNL A   1      42.754  25.434  34.982  1.00  0.00    -0.203 F 
ATOM     90  C   UNL A   1      45.002  25.246  35.655  1.00  0.00     0.198 A 
ATOM     91  C   UNL A   1      46.586  26.941  35.047  1.00  0.00     0.198 A 
ATOM     92  F   UNL A   1      45.888  28.823  33.825  1.00  0.00    -0.203 F 
ATOM     93  F   UNL A   1      44.712  24.102  36.292  1.00  0.00    -0.200 F 
ATOM     94  C   UNL A   1      46.296  25.742  35.679  1.00  0.00     0.200 A 
ATOM     95  F   UNL A   1      47.841  27.415  35.052  1.00  0.00    -0.200 F 
ATOM     96  F   UNL A   1      47.263  25.070  36.318  1.00  0.00    -0.200 F 
ENDBRANCH  63  86
ENDBRANCH  37  38
ENDBRANCH  30  32
ENDBRANCH  29  30
ENDBRANCH  28  29
ENDBRANCH  27  28
ENDBRANCH  26  27
ENDBRANCH  25  26
ENDBRANCH   1  25
TORSDOF 21
ENDMDL
