MODEL 1
REMARK VINA RESULT:      -9.8      0.000      0.000
REMARK SMILES CSc1ncccc1C(=O)N1CSC[C@H]1C(=O)OCCOCCOCCOCCOC(=O)c1ccc(-c2c3nc(c(-c4c(F)c(F)c(F)c(F)c4F)c4ccc([nH]4)c(-c4c(F)c(F)c(F)c(F)c4F)c4nc(c(-c5c(F)c(F)c(F)c(F)c5F)c5ccc2[nH]5)C=C4)C=C3)cc1
REMARK SMILES IDX 23 1 22 2 21 3 20 4 19 5 18 6 16 7 17 8 15 9 11 10 12 11
REMARK SMILES IDX 13 12 14 13 9 14 10 15 8 16 3 17 4 18 5 19 7 20 6 21 2 22
REMARK SMILES IDX 1 23 24 24 25 25 26 26 27 27 28 28 29 29 30 30 31 31 32 32
REMARK SMILES IDX 33 33 34 34 95 35 35 36 94 37 36 38 37 39 38 40 88 41 39 42
REMARK SMILES IDX 93 43 87 44 89 45 40 46 92 47 86 48 85 49 41 51 73 52 53 53
REMARK SMILES IDX 72 54 54 55 57 56 71 57 90 58 55 59 56 60 70 62 91 63 58 64
REMARK SMILES IDX 42 65 43 66 51 67 44 68 45 69 49 70 52 71 46 72 47 73 50 74
REMARK SMILES IDX 48 75 74 76 75 77 83 78 76 79 77 80 81 81 84 82 78 83 79 84
REMARK SMILES IDX 82 85 80 86 59 87 60 88 68 89 61 90 62 91 66 92 69 93 63 94
REMARK SMILES IDX 64 95 67 96 65 97
REMARK H PARENT 89 50 57 61
REMARK Flexibility Score: inf
ROOT
ATOM      1  C   UNL A   1      34.731  29.433  27.393  1.00  0.00     0.188 C 
ENDROOT
BRANCH   1   2
ATOM      2  C   UNL A   1      33.455  30.058  26.787  1.00  0.00     0.188 C 
BRANCH   2   3
ATOM      3  O   UNL A   1      33.163  29.956  25.393  1.00  0.00    -0.376 OA
BRANCH   3   4
ATOM      4  C   UNL A   1      32.492  28.819  24.883  1.00  0.00     0.202 C 
BRANCH   4   5
ATOM      5  C   UNL A   1      33.224  27.957  23.840  1.00  0.00     0.261 C 
BRANCH   5   6
ATOM      6  O   UNL A   1      32.406  27.420  22.773  1.00  0.00    -0.462 OA
BRANCH   6   7
ATOM      7  C   UNL A   1      32.804  26.226  22.266  1.00  0.00     0.329 C 
ATOM      8  O   UNL A   1      33.551  26.118  21.295  1.00  0.00    -0.250 OA
BRANCH   7   9
ATOM      9  C   UNL A   1      32.104  24.981  22.868  1.00  0.00     0.206 C 
ATOM     10  N   UNL A   1      32.665  23.998  23.833  1.00  0.00    -0.315 N 
ATOM     11  C   UNL A   1      32.494  24.386  25.213  1.00  0.00     0.191 C 
ATOM     12  S   UNL A   1      30.862  25.145  25.281  1.00  0.00    -0.138 SA
ATOM     13  C   UNL A   1      30.810  25.521  23.498  1.00  0.00     0.108 C 
BRANCH  10  14
ATOM     14  C   UNL A   1      33.162  22.772  23.370  1.00  0.00     0.258 C 
ATOM     15  O   UNL A   1      32.423  21.983  22.786  1.00  0.00    -0.269 OA
BRANCH  14  16
ATOM     16  C   UNL A   1      34.549  22.321  23.728  1.00  0.00     0.072 A 
ATOM     17  C   UNL A   1      34.848  21.304  24.647  1.00  0.00     0.108 A 
ATOM     18  N   UNL A   1      36.126  21.030  25.042  1.00  0.00    -0.249 NA
ATOM     19  C   UNL A   1      37.128  21.795  24.574  1.00  0.00     0.112 A 
ATOM     20  C   UNL A   1      35.627  23.099  23.271  1.00  0.00     0.018 A 
ATOM     21  C   UNL A   1      36.929  22.833  23.690  1.00  0.00     0.021 A 
BRANCH  17  22
ATOM     22  S   UNL A   1      33.642  20.274  25.462  1.00  0.00    -0.109 SA
ATOM     23  C   UNL A   1      33.239  21.313  26.903  1.00  0.00     0.092 C 
ENDBRANCH  17  22
ENDBRANCH  14  16
ENDBRANCH  10  14
ENDBRANCH   7   9
ENDBRANCH   6   7
ENDBRANCH   5   6
ENDBRANCH   4   5
ENDBRANCH   3   4
ENDBRANCH   2   3
ENDBRANCH   1   2
BRANCH   1  24
ATOM     24  O   UNL A   1      35.461  30.266  28.278  1.00  0.00    -0.377 OA
BRANCH  24  25
ATOM     25  C   UNL A   1      35.400  31.654  28.009  1.00  0.00     0.188 C 
BRANCH  25  26
ATOM     26  C   UNL A   1      34.651  32.512  29.040  1.00  0.00     0.188 C 
BRANCH  26  27
ATOM     27  O   UNL A   1      33.676  33.361  28.455  1.00  0.00    -0.376 OA
BRANCH  27  28
ATOM     28  C   UNL A   1      33.901  34.761  28.417  1.00  0.00     0.202 C 
BRANCH  28  29
ATOM     29  C   UNL A   1      33.122  35.647  29.399  1.00  0.00     0.261 C 
BRANCH  29  30
ATOM     30  O   UNL A   1      32.559  35.036  30.562  1.00  0.00    -0.460 OA
BRANCH  30  31
ATOM     31  C   UNL A   1      32.767  35.608  31.764  1.00  0.00     0.338 C 
ATOM     32  O   UNL A   1      32.054  36.389  32.349  1.00  0.00    -0.246 OA
BRANCH  31  33
ATOM     33  C   UNL A   1      33.945  34.916  32.331  1.00  0.00     0.060 A 
ATOM     34  C   UNL A   1      35.180  35.574  32.314  1.00  0.00     0.016 A 
ATOM     35  C   UNL A   1      33.813  33.661  32.936  1.00  0.00     0.016 A 
ATOM     36  C   UNL A   1      36.301  34.959  32.867  1.00  0.00     0.010 A 
ATOM     37  C   UNL A   1      34.941  33.035  33.468  1.00  0.00     0.010 A 
ATOM     38  C   UNL A   1      36.194  33.666  33.399  1.00  0.00    -0.014 A 
BRANCH  38  39
ATOM     39  C   UNL A   1      37.426  32.890  33.656  1.00  0.00     0.031 A 
ATOM     40  C   UNL A   1      38.169  33.161  34.935  1.00  0.00     0.074 A 
ATOM     41  C   UNL A   1      37.854  31.946  32.801  1.00  0.00     0.049 A 
ATOM     42  N   UNL A   1      39.281  32.639  35.381  1.00  0.00    -0.248 NA
ATOM     43  C   UNL A   1      37.573  34.166  35.832  1.00  0.00     0.031 C 
ATOM     44  C   UNL A   1      37.191  31.572  31.555  1.00  0.00     0.029 A 
ATOM     45  N   UNL A   1      38.959  31.135  32.856  1.00  0.00    -0.354 N 
ATOM     46  C   UNL A   1      39.515  33.249  36.605  1.00  0.00     0.074 A 
ATOM     47  C   UNL A   1      38.458  34.212  36.815  1.00  0.00     0.031 C 
ATOM     48  C   UNL A   1      37.913  30.611  30.952  1.00  0.00     0.029 A 
ATOM     49  C   UNL A   1      39.101  30.327  31.756  1.00  0.00     0.049 A 
ATOM     50  H   UNL A   1      39.589  31.132  33.612  1.00  0.00     0.167 HD
ATOM     51  C   UNL A   1      40.518  33.017  37.485  1.00  0.00     0.037 A 
ATOM     52  C   UNL A   1      40.093  29.474  31.433  1.00  0.00     0.037 A 
ATOM     53  C   UNL A   1      41.573  32.065  37.263  1.00  0.00     0.049 A 
ATOM     54  C   UNL A   1      41.244  29.292  32.390  1.00  0.00     0.074 A 
ATOM     55  C   UNL A   1      42.636  31.747  38.088  1.00  0.00     0.029 A 
ATOM     56  N   UNL A   1      41.704  31.286  36.121  1.00  0.00    -0.354 N 
ATOM     57  N   UNL A   1      41.449  29.851  33.559  1.00  0.00    -0.248 NA
ATOM     58  C   UNL A   1      42.299  28.351  31.986  1.00  0.00     0.031 C 
ATOM     59  C   UNL A   1      43.443  30.821  37.419  1.00  0.00     0.029 A 
ATOM     60  C   UNL A   1      42.846  30.509  36.208  1.00  0.00     0.049 A 
ATOM     61  H   UNL A   1      41.077  31.287  35.362  1.00  0.00     0.167 HD
ATOM     62  C   UNL A   1      42.635  29.312  34.043  1.00  0.00     0.074 A 
ATOM     63  C   UNL A   1      43.095  28.367  33.045  1.00  0.00     0.031 C 
ATOM     64  C   UNL A   1      43.285  29.571  35.204  1.00  0.00     0.037 A 
BRANCH  51  65
ATOM     65  C   UNL A   1      40.532  33.829  38.747  1.00  0.00     0.064 A 
ATOM     66  C   UNL A   1      41.291  35.003  38.865  1.00  0.00     0.173 A 
ATOM     67  C   UNL A   1      39.763  33.434  39.853  1.00  0.00     0.173 A 
ATOM     68  F   UNL A   1      42.060  35.415  37.845  1.00  0.00    -0.203 F 
ATOM     69  C   UNL A   1      41.306  35.732  40.051  1.00  0.00     0.198 A 
ATOM     70  C   UNL A   1      39.753  34.184  41.025  1.00  0.00     0.198 A 
ATOM     71  F   UNL A   1      39.020  32.318  39.797  1.00  0.00    -0.203 F 
ATOM     72  F   UNL A   1      42.085  36.818  40.159  1.00  0.00    -0.200 F 
ATOM     73  C   UNL A   1      40.531  35.327  41.127  1.00  0.00     0.200 A 
ATOM     74  F   UNL A   1      38.993  33.797  42.060  1.00  0.00    -0.200 F 
ATOM     75  F   UNL A   1      40.540  36.033  42.266  1.00  0.00    -0.200 F 
ENDBRANCH  51  65
BRANCH  52  76
ATOM     76  C   UNL A   1      40.053  28.742  30.138  1.00  0.00     0.064 A 
ATOM     77  C   UNL A   1      39.458  27.477  30.035  1.00  0.00     0.173 A 
ATOM     78  C   UNL A   1      40.627  29.287  28.980  1.00  0.00     0.173 A 
ATOM     79  F   UNL A   1      38.916  26.901  31.118  1.00  0.00    -0.203 F 
ATOM     80  C   UNL A   1      39.456  26.778  28.829  1.00  0.00     0.198 A 
ATOM     81  C   UNL A   1      40.596  28.601  27.767  1.00  0.00     0.198 A 
ATOM     82  F   UNL A   1      41.212  30.494  29.022  1.00  0.00    -0.203 F 
ATOM     83  F   UNL A   1      38.926  25.548  28.771  1.00  0.00    -0.200 F 
ATOM     84  C   UNL A   1      40.019  27.343  27.694  1.00  0.00     0.200 A 
ATOM     85  F   UNL A   1      41.130  29.158  26.672  1.00  0.00    -0.200 F 
ATOM     86  F   UNL A   1      40.014  26.672  26.536  1.00  0.00    -0.200 F 
ENDBRANCH  52  76
BRANCH  64  87
ATOM     87  C   UNL A   1      44.543  28.797  35.481  1.00  0.00     0.064 A 
ATOM     88  C   UNL A   1      45.809  29.289  35.130  1.00  0.00     0.173 A 
ATOM     89  C   UNL A   1      44.483  27.562  36.147  1.00  0.00     0.173 A 
ATOM     90  F   UNL A   1      45.923  30.458  34.483  1.00  0.00    -0.203 F 
ATOM     91  C   UNL A   1      46.963  28.559  35.408  1.00  0.00     0.198 A 
ATOM     92  C   UNL A   1      45.640  26.854  36.456  1.00  0.00     0.198 A 
ATOM     93  F   UNL A   1      43.298  27.050  36.515  1.00  0.00    -0.203 F 
ATOM     94  F   UNL A   1      48.156  29.024  35.013  1.00  0.00    -0.200 F 
ATOM     95  C   UNL A   1      46.878  27.348  36.076  1.00  0.00     0.200 A 
ATOM     96  F   UNL A   1      45.556  25.693  37.119  1.00  0.00    -0.200 F 
ATOM     97  F   UNL A   1      47.991  26.652  36.350  1.00  0.00    -0.200 F 
ENDBRANCH  64  87
ENDBRANCH  38  39
ENDBRANCH  31  33
ENDBRANCH  30  31
ENDBRANCH  29  30
ENDBRANCH  28  29
ENDBRANCH  27  28
ENDBRANCH  26  27
ENDBRANCH  25  26
ENDBRANCH  24  25
ENDBRANCH   1  24
TORSDOF 23
ENDMDL
MODEL 2
REMARK VINA RESULT:      -9.8      6.535     12.220
REMARK SMILES CSc1ncccc1C(=O)N1CSC[C@H]1C(=O)OCCOCCOCCOCCOC(=O)c1ccc(-c2c3nc(c(-c4c(F)c(F)c(F)c(F)c4F)c4ccc([nH]4)c(-c4c(F)c(F)c(F)c(F)c4F)c4nc(c(-c5c(F)c(F)c(F)c(F)c5F)c5ccc2[nH]5)C=C4)C=C3)cc1
REMARK SMILES IDX 23 1 22 2 21 3 20 4 19 5 18 6 16 7 17 8 15 9 11 10 12 11
REMARK SMILES IDX 13 12 14 13 9 14 10 15 8 16 3 17 4 18 5 19 7 20 6 21 2 22
REMARK SMILES IDX 1 23 24 24 25 25 26 26 27 27 28 28 29 29 30 30 31 31 32 32
REMARK SMILES IDX 33 33 34 34 95 35 35 36 94 37 36 38 37 39 38 40 88 41 39 42
REMARK SMILES IDX 93 43 87 44 89 45 40 46 92 47 86 48 85 49 41 51 73 52 53 53
REMARK SMILES IDX 72 54 54 55 57 56 71 57 90 58 55 59 56 60 70 62 91 63 58 64
REMARK SMILES IDX 42 65 43 66 51 67 44 68 45 69 49 70 52 71 46 72 47 73 50 74
REMARK SMILES IDX 48 75 74 76 75 77 83 78 76 79 77 80 81 81 84 82 78 83 79 84
REMARK SMILES IDX 82 85 80 86 59 87 60 88 68 89 61 90 62 91 66 92 69 93 63 94
REMARK SMILES IDX 64 95 67 96 65 97
REMARK H PARENT 89 50 57 61
REMARK Flexibility Score: inf
ROOT
ATOM      1  C   UNL A   1      40.129  22.739  27.617  1.00  0.00     0.188 C 
ENDROOT
BRANCH   1   2
ATOM      2  C   UNL A   1      39.338  23.384  26.457  1.00  0.00     0.188 C 
BRANCH   2   3
ATOM      3  O   UNL A   1      38.092  22.846  26.013  1.00  0.00    -0.376 OA
BRANCH   3   4
ATOM      4  C   UNL A   1      37.060  23.705  25.565  1.00  0.00     0.202 C 
BRANCH   4   5
ATOM      5  C   UNL A   1      35.629  23.143  25.507  1.00  0.00     0.261 C 
BRANCH   5   6
ATOM      6  O   UNL A   1      34.692  23.692  26.465  1.00  0.00    -0.462 OA
BRANCH   6   7
ATOM      7  C   UNL A   1      33.908  24.703  26.013  1.00  0.00     0.329 C 
ATOM      8  O   UNL A   1      34.355  25.754  25.556  1.00  0.00    -0.250 OA
BRANCH   7   9
ATOM      9  C   UNL A   1      32.391  24.540  26.282  1.00  0.00     0.206 C 
ATOM     10  N   UNL A   1      31.267  24.776  25.337  1.00  0.00    -0.315 N 
ATOM     11  C   UNL A   1      30.940  23.622  24.533  1.00  0.00     0.191 C 
ATOM     12  S   UNL A   1      31.132  22.217  25.643  1.00  0.00    -0.138 SA
ATOM     13  C   UNL A   1      32.234  23.100  26.796  1.00  0.00     0.108 C 
BRANCH  10  14
ATOM     14  C   UNL A   1      30.553  25.981  25.389  1.00  0.00     0.258 C 
ATOM     15  O   UNL A   1      29.328  25.981  25.300  1.00  0.00    -0.269 OA
BRANCH  14  16
ATOM     16  C   UNL A   1      31.271  27.300  25.377  1.00  0.00     0.072 A 
ATOM     17  C   UNL A   1      31.818  27.905  24.235  1.00  0.00     0.108 A 
ATOM     18  N   UNL A   1      32.582  29.033  24.301  1.00  0.00    -0.249 NA
ATOM     19  C   UNL A   1      32.865  29.555  25.509  1.00  0.00     0.112 A 
ATOM     20  C   UNL A   1      31.598  27.876  26.617  1.00  0.00     0.018 A 
ATOM     21  C   UNL A   1      32.397  29.017  26.687  1.00  0.00     0.021 A 
BRANCH  17  22
ATOM     22  S   UNL A   1      31.651  27.284  22.572  1.00  0.00    -0.109 SA
ATOM     23  C   UNL A   1      33.270  26.478  22.356  1.00  0.00     0.092 C 
ENDBRANCH  17  22
ENDBRANCH  14  16
ENDBRANCH  10  14
ENDBRANCH   7   9
ENDBRANCH   6   7
ENDBRANCH   5   6
ENDBRANCH   4   5
ENDBRANCH   3   4
ENDBRANCH   2   3
ENDBRANCH   1   2
BRANCH   1  24
ATOM     24  O   UNL A   1      41.273  21.993  27.237  1.00  0.00    -0.377 OA
BRANCH  24  25
ATOM     25  C   UNL A   1      41.157  20.587  27.349  1.00  0.00     0.188 C 
BRANCH  25  26
ATOM     26  C   UNL A   1      40.577  19.856  26.130  1.00  0.00     0.188 C 
BRANCH  26  27
ATOM     27  O   UNL A   1      41.405  18.801  25.665  1.00  0.00    -0.376 OA
BRANCH  27  28
ATOM     28  C   UNL A   1      42.623  18.521  26.338  1.00  0.00     0.202 C 
BRANCH  28  29
ATOM     29  C   UNL A   1      43.886  18.314  25.491  1.00  0.00     0.261 C 
BRANCH  29  30
ATOM     30  O   UNL A   1      44.074  19.141  24.341  1.00  0.00    -0.460 OA
BRANCH  30  31
ATOM     31  C   UNL A   1      45.261  19.750  24.162  1.00  0.00     0.338 C 
ATOM     32  O   UNL A   1      46.209  19.360  23.521  1.00  0.00    -0.246 OA
BRANCH  31  33
ATOM     33  C   UNL A   1      45.096  21.108  24.729  1.00  0.00     0.060 A 
ATOM     34  C   UNL A   1      44.739  22.152  23.870  1.00  0.00     0.016 A 
ATOM     35  C   UNL A   1      45.225  21.326  26.105  1.00  0.00     0.016 A 
ATOM     36  C   UNL A   1      44.549  23.434  24.379  1.00  0.00     0.010 A 
ATOM     37  C   UNL A   1      45.058  22.616  26.611  1.00  0.00     0.010 A 
ATOM     38  C   UNL A   1      44.758  23.679  25.743  1.00  0.00    -0.014 A 
BRANCH  38  39
ATOM     39  C   UNL A   1      44.901  25.076  26.210  1.00  0.00     0.031 A 
ATOM     40  C   UNL A   1      46.265  25.702  26.136  1.00  0.00     0.074 A 
ATOM     41  C   UNL A   1      43.845  25.780  26.651  1.00  0.00     0.049 A 
ATOM     42  N   UNL A   1      46.658  26.893  26.505  1.00  0.00    -0.248 NA
ATOM     43  C   UNL A   1      47.335  24.862  25.572  1.00  0.00     0.031 C 
ATOM     44  C   UNL A   1      42.472  25.288  26.727  1.00  0.00     0.029 A 
ATOM     45  N   UNL A   1      43.772  27.066  27.125  1.00  0.00    -0.354 N 
ATOM     46  C   UNL A   1      48.014  26.944  26.216  1.00  0.00     0.074 A 
ATOM     47  C   UNL A   1      48.390  25.654  25.684  1.00  0.00     0.031 C 
ATOM     48  C   UNL A   1      41.691  26.258  27.234  1.00  0.00     0.029 A 
ATOM     49  C   UNL A   1      42.516  27.425  27.546  1.00  0.00     0.049 A 
ATOM     50  H   UNL A   1      44.547  27.672  27.160  1.00  0.00     0.167 HD
ATOM     51  C   UNL A   1      48.870  27.982  26.368  1.00  0.00     0.037 A 
ATOM     52  C   UNL A   1      42.095  28.561  28.135  1.00  0.00     0.037 A 
ATOM     53  C   UNL A   1      48.490  29.259  26.909  1.00  0.00     0.049 A 
ATOM     54  C   UNL A   1      43.084  29.675  28.371  1.00  0.00     0.074 A 
ATOM     55  C   UNL A   1      49.275  30.382  27.104  1.00  0.00     0.029 A 
ATOM     56  N   UNL A   1      47.215  29.578  27.356  1.00  0.00    -0.354 N 
ATOM     57  N   UNL A   1      44.360  29.730  28.073  1.00  0.00    -0.248 NA
ATOM     58  C   UNL A   1      42.570  30.890  29.020  1.00  0.00     0.031 C 
ATOM     59  C   UNL A   1      48.488  31.358  27.725  1.00  0.00     0.029 A 
ATOM     60  C   UNL A   1      47.198  30.870  27.853  1.00  0.00     0.049 A 
ATOM     61  H   UNL A   1      46.438  28.974  27.324  1.00  0.00     0.167 HD
ATOM     62  C   UNL A   1      44.795  30.990  28.468  1.00  0.00     0.074 A 
ATOM     63  C   UNL A   1      43.639  31.673  29.013  1.00  0.00     0.031 C 
ATOM     64  C   UNL A   1      46.035  31.534  28.388  1.00  0.00     0.037 A 
BRANCH  51  65
ATOM     65  C   UNL A   1      50.301  27.762  25.972  1.00  0.00     0.064 A 
ATOM     66  C   UNL A   1      50.719  27.829  24.634  1.00  0.00     0.173 A 
ATOM     67  C   UNL A   1      51.273  27.493  26.948  1.00  0.00     0.173 A 
ATOM     68  F   UNL A   1      49.827  28.063  23.659  1.00  0.00    -0.203 F 
ATOM     69  C   UNL A   1      52.048  27.604  24.285  1.00  0.00     0.198 A 
ATOM     70  C   UNL A   1      52.607  27.303  26.599  1.00  0.00     0.198 A 
ATOM     71  F   UNL A   1      50.929  27.416  28.242  1.00  0.00    -0.203 F 
ATOM     72  F   UNL A   1      52.412  27.615  22.995  1.00  0.00    -0.200 F 
ATOM     73  C   UNL A   1      52.992  27.349  25.267  1.00  0.00     0.200 A 
ATOM     74  F   UNL A   1      53.520  27.069  27.552  1.00  0.00    -0.200 F 
ATOM     75  F   UNL A   1      54.272  27.139  24.932  1.00  0.00    -0.200 F 
ENDBRANCH  51  65
BRANCH  52  76
ATOM     76  C   UNL A   1      40.675  28.696  28.560  1.00  0.00     0.064 A 
ATOM     77  C   UNL A   1      39.687  29.138  27.669  1.00  0.00     0.173 A 
ATOM     78  C   UNL A   1      40.282  28.402  29.874  1.00  0.00     0.173 A 
ATOM     79  F   UNL A   1      40.016  29.456  26.409  1.00  0.00    -0.203 F 
ATOM     80  C   UNL A   1      38.366  29.301  28.082  1.00  0.00     0.198 A 
ATOM     81  C   UNL A   1      38.954  28.534  30.277  1.00  0.00     0.198 A 
ATOM     82  F   UNL A   1      41.187  27.977  30.769  1.00  0.00    -0.203 F 
ATOM     83  F   UNL A   1      37.452  29.775  27.223  1.00  0.00    -0.200 F 
ATOM     84  C   UNL A   1      37.999  28.992  29.383  1.00  0.00     0.200 A 
ATOM     85  F   UNL A   1      38.603  28.221  31.531  1.00  0.00    -0.200 F 
ATOM     86  F   UNL A   1      36.728  29.145  29.778  1.00  0.00    -0.200 F 
ENDBRANCH  52  76
BRANCH  64  87
ATOM     87  C   UNL A   1      46.201  32.950  28.864  1.00  0.00     0.064 A 
ATOM     88  C   UNL A   1      46.565  33.250  30.184  1.00  0.00     0.173 A 
ATOM     89  C   UNL A   1      46.034  34.021  27.970  1.00  0.00     0.173 A 
ATOM     90  F   UNL A   1      46.725  32.266  31.081  1.00  0.00    -0.203 F 
ATOM     91  C   UNL A   1      46.725  34.570  30.600  1.00  0.00     0.198 A 
ATOM     92  C   UNL A   1      46.232  35.336  28.380  1.00  0.00     0.198 A 
ATOM     93  F   UNL A   1      45.697  33.790  26.692  1.00  0.00    -0.203 F 
ATOM     94  F   UNL A   1      47.019  34.834  31.881  1.00  0.00    -0.200 F 
ATOM     95  C   UNL A   1      46.567  35.610  29.697  1.00  0.00     0.200 A 
ATOM     96  F   UNL A   1      46.098  36.337  27.500  1.00  0.00    -0.200 F 
ATOM     97  F   UNL A   1      46.731  36.879  30.098  1.00  0.00    -0.200 F 
ENDBRANCH  64  87
ENDBRANCH  38  39
ENDBRANCH  31  33
ENDBRANCH  30  31
ENDBRANCH  29  30
ENDBRANCH  28  29
ENDBRANCH  27  28
ENDBRANCH  26  27
ENDBRANCH  25  26
ENDBRANCH  24  25
ENDBRANCH   1  24
TORSDOF 23
ENDMDL
MODEL 3
REMARK VINA RESULT:      -9.6      4.982      7.816
REMARK SMILES CSc1ncccc1C(=O)N1CSC[C@H]1C(=O)OCCOCCOCCOCCOC(=O)c1ccc(-c2c3nc(c(-c4c(F)c(F)c(F)c(F)c4F)c4ccc([nH]4)c(-c4c(F)c(F)c(F)c(F)c4F)c4nc(c(-c5c(F)c(F)c(F)c(F)c5F)c5ccc2[nH]5)C=C4)C=C3)cc1
REMARK SMILES IDX 23 1 22 2 21 3 20 4 19 5 18 6 16 7 17 8 15 9 11 10 12 11
REMARK SMILES IDX 13 12 14 13 9 14 10 15 8 16 3 17 4 18 5 19 7 20 6 21 2 22
REMARK SMILES IDX 1 23 24 24 25 25 26 26 27 27 28 28 29 29 30 30 31 31 32 32
REMARK SMILES IDX 33 33 34 34 95 35 35 36 94 37 36 38 37 39 38 40 88 41 39 42
REMARK SMILES IDX 93 43 87 44 89 45 40 46 92 47 86 48 85 49 41 51 73 52 53 53
REMARK SMILES IDX 72 54 54 55 57 56 71 57 90 58 55 59 56 60 70 62 91 63 58 64
REMARK SMILES IDX 42 65 43 66 51 67 44 68 45 69 49 70 52 71 46 72 47 73 50 74
REMARK SMILES IDX 48 75 74 76 75 77 83 78 76 79 77 80 81 81 84 82 78 83 79 84
REMARK SMILES IDX 82 85 80 86 59 87 60 88 68 89 61 90 62 91 66 92 69 93 63 94
REMARK SMILES IDX 64 95 67 96 65 97
REMARK H PARENT 89 50 57 61
REMARK Flexibility Score: inf
ROOT
ATOM      1  C   UNL A   1      35.554  32.743  28.074  1.00  0.00     0.188 C 
ENDROOT
BRANCH   1   2
ATOM      2  C   UNL A   1      34.431  31.721  28.358  1.00  0.00     0.188 C 
BRANCH   2   3
ATOM      3  O   UNL A   1      33.961  30.827  27.348  1.00  0.00    -0.376 OA
BRANCH   3   4
ATOM      4  C   UNL A   1      32.576  30.577  27.201  1.00  0.00     0.202 C 
BRANCH   4   5
ATOM      5  C   UNL A   1      32.079  30.053  25.843  1.00  0.00     0.261 C 
BRANCH   5   6
ATOM      6  O   UNL A   1      31.649  28.670  25.814  1.00  0.00    -0.462 OA
BRANCH   6   7
ATOM      7  C   UNL A   1      32.551  27.780  25.328  1.00  0.00     0.329 C 
ATOM      8  O   UNL A   1      33.722  27.733  25.698  1.00  0.00    -0.250 OA
BRANCH   7   9
ATOM      9  C   UNL A   1      32.067  26.935  24.122  1.00  0.00     0.206 C 
ATOM     10  N   UNL A   1      31.899  25.459  24.054  1.00  0.00    -0.315 N 
ATOM     11  C   UNL A   1      30.604  25.006  24.503  1.00  0.00     0.191 C 
ATOM     12  S   UNL A   1      29.446  26.247  23.899  1.00  0.00    -0.138 SA
ATOM     13  C   UNL A   1      30.713  27.546  23.729  1.00  0.00     0.108 C 
BRANCH  10  14
ATOM     14  C   UNL A   1      32.895  24.670  23.461  1.00  0.00     0.258 C 
ATOM     15  O   UNL A   1      32.914  24.507  22.244  1.00  0.00    -0.269 OA
BRANCH  14  16
ATOM     16  C   UNL A   1      33.845  23.871  24.305  1.00  0.00     0.072 A 
ATOM     17  C   UNL A   1      33.641  22.539  24.700  1.00  0.00     0.108 A 
ATOM     18  N   UNL A   1      34.467  21.905  25.583  1.00  0.00    -0.249 NA
ATOM     19  C   UNL A   1      35.481  22.596  26.134  1.00  0.00     0.112 A 
ATOM     20  C   UNL A   1      34.913  24.554  24.912  1.00  0.00     0.018 A 
ATOM     21  C   UNL A   1      35.743  23.913  25.830  1.00  0.00     0.021 A 
BRANCH  17  22
ATOM     22  S   UNL A   1      32.284  21.513  24.169  1.00  0.00    -0.109 SA
ATOM     23  C   UNL A   1      32.872  19.878  24.716  1.00  0.00     0.092 C 
ENDBRANCH  17  22
ENDBRANCH  14  16
ENDBRANCH  10  14
ENDBRANCH   7   9
ENDBRANCH   6   7
ENDBRANCH   5   6
ENDBRANCH   4   5
ENDBRANCH   3   4
ENDBRANCH   2   3
ENDBRANCH   1   2
BRANCH   1  24
ATOM     24  O   UNL A   1      35.121  34.039  27.696  1.00  0.00    -0.377 OA
BRANCH  24  25
ATOM     25  C   UNL A   1      33.893  34.466  28.256  1.00  0.00     0.188 C 
BRANCH  25  26
ATOM     26  C   UNL A   1      33.985  35.251  29.572  1.00  0.00     0.188 C 
BRANCH  26  27
ATOM     27  O   UNL A   1      33.324  34.610  30.652  1.00  0.00    -0.376 OA
BRANCH  27  28
ATOM     28  C   UNL A   1      34.022  33.648  31.427  1.00  0.00     0.202 C 
BRANCH  28  29
ATOM     29  C   UNL A   1      35.095  34.146  32.404  1.00  0.00     0.261 C 
BRANCH  29  30
ATOM     30  O   UNL A   1      36.426  33.645  32.261  1.00  0.00    -0.460 OA
BRANCH  30  31
ATOM     31  C   UNL A   1      36.824  32.620  33.038  1.00  0.00     0.338 C 
ATOM     32  O   UNL A   1      36.368  32.272  34.102  1.00  0.00    -0.246 OA
BRANCH  31  33
ATOM     33  C   UNL A   1      37.796  31.861  32.221  1.00  0.00     0.060 A 
ATOM     34  C   UNL A   1      38.851  31.210  32.870  1.00  0.00     0.016 A 
ATOM     35  C   UNL A   1      37.623  31.736  30.838  1.00  0.00     0.016 A 
ATOM     36  C   UNL A   1      39.765  30.464  32.130  1.00  0.00     0.010 A 
ATOM     37  C   UNL A   1      38.553  31.009  30.095  1.00  0.00     0.010 A 
ATOM     38  C   UNL A   1      39.647  30.404  30.735  1.00  0.00    -0.014 A 
BRANCH  38  39
ATOM     39  C   UNL A   1      40.794  29.919  29.936  1.00  0.00     0.031 A 
ATOM     40  C   UNL A   1      41.908  30.887  29.651  1.00  0.00     0.074 A 
ATOM     41  C   UNL A   1      40.864  28.648  29.507  1.00  0.00     0.049 A 
ATOM     42  N   UNL A   1      43.003  30.720  28.957  1.00  0.00    -0.248 NA
ATOM     43  C   UNL A   1      41.761  32.234  30.228  1.00  0.00     0.031 C 
ATOM     44  C   UNL A   1      39.863  27.614  29.759  1.00  0.00     0.029 A 
ATOM     45  N   UNL A   1      41.825  28.015  28.760  1.00  0.00    -0.354 N 
ATOM     46  C   UNL A   1      43.672  31.935  29.016  1.00  0.00     0.074 A 
ATOM     47  C   UNL A   1      42.843  32.845  29.774  1.00  0.00     0.031 C 
ATOM     48  C   UNL A   1      40.256  26.476  29.162  1.00  0.00     0.029 A 
ATOM     49  C   UNL A   1      41.519  26.711  28.463  1.00  0.00     0.049 A 
ATOM     50  H   UNL A   1      42.655  28.455  28.465  1.00  0.00     0.167 HD
ATOM     51  C   UNL A   1      44.878  32.259  28.495  1.00  0.00     0.037 A 
ATOM     52  C   UNL A   1      42.178  25.823  27.693  1.00  0.00     0.037 A 
ATOM     53  C   UNL A   1      45.691  31.350  27.732  1.00  0.00     0.049 A 
ATOM     54  C   UNL A   1      43.481  26.232  27.053  1.00  0.00     0.074 A 
ATOM     55  C   UNL A   1      46.931  31.572  27.161  1.00  0.00     0.029 A 
ATOM     56  N   UNL A   1      45.334  30.045  27.423  1.00  0.00    -0.354 N 
ATOM     57  N   UNL A   1      44.123  27.373  27.133  1.00  0.00    -0.248 NA
ATOM     58  C   UNL A   1      44.156  25.224  26.222  1.00  0.00     0.031 C 
ATOM     59  C   UNL A   1      47.296  30.421  26.454  1.00  0.00     0.029 A 
ATOM     60  C   UNL A   1      46.317  29.459  26.644  1.00  0.00     0.049 A 
ATOM     61  H   UNL A   1      44.504  29.602  27.714  1.00  0.00     0.167 HD
ATOM     62  C   UNL A   1      45.287  27.213  26.391  1.00  0.00     0.074 A 
ATOM     63  C   UNL A   1      45.270  25.856  25.882  1.00  0.00     0.031 C 
ATOM     64  C   UNL A   1      46.282  28.104  26.150  1.00  0.00     0.037 A 
BRANCH  51  65
ATOM     65  C   UNL A   1      45.370  33.661  28.709  1.00  0.00     0.064 A 
ATOM     66  C   UNL A   1      46.110  34.022  29.845  1.00  0.00     0.173 A 
ATOM     67  C   UNL A   1      45.107  34.658  27.757  1.00  0.00     0.173 A 
ATOM     68  F   UNL A   1      46.372  33.113  30.797  1.00  0.00    -0.203 F 
ATOM     69  C   UNL A   1      46.541  35.332  30.035  1.00  0.00     0.198 A 
ATOM     70  C   UNL A   1      45.569  35.959  27.933  1.00  0.00     0.198 A 
ATOM     71  F   UNL A   1      44.401  34.369  26.653  1.00  0.00    -0.203 F 
ATOM     72  F   UNL A   1      47.197  35.665  31.156  1.00  0.00    -0.200 F 
ATOM     73  C   UNL A   1      46.278  36.297  29.076  1.00  0.00     0.200 A 
ATOM     74  F   UNL A   1      45.324  36.887  26.998  1.00  0.00    -0.200 F 
ATOM     75  F   UNL A   1      46.698  37.556  29.255  1.00  0.00    -0.200 F 
ENDBRANCH  51  65
BRANCH  52  76
ATOM     76  C   UNL A   1      41.609  24.466  27.469  1.00  0.00     0.064 A 
ATOM     77  C   UNL A   1      40.476  24.275  26.666  1.00  0.00     0.173 A 
ATOM     78  C   UNL A   1      42.178  23.334  28.071  1.00  0.00     0.173 A 
ATOM     79  F   UNL A   1      39.880  25.328  26.087  1.00  0.00    -0.203 F 
ATOM     80  C   UNL A   1      39.923  23.008  26.490  1.00  0.00     0.198 A 
ATOM     81  C   UNL A   1      41.643  22.063  27.869  1.00  0.00     0.198 A 
ATOM     82  F   UNL A   1      43.261  23.460  28.852  1.00  0.00    -0.203 F 
ATOM     83  F   UNL A   1      38.810  22.861  25.758  1.00  0.00    -0.200 F 
ATOM     84  C   UNL A   1      40.511  21.902  27.086  1.00  0.00     0.200 A 
ATOM     85  F   UNL A   1      42.224  20.997  28.436  1.00  0.00    -0.200 F 
ATOM     86  F   UNL A   1      39.981  20.684  26.913  1.00  0.00    -0.200 F 
ENDBRANCH  52  76
BRANCH  64  87
ATOM     87  C   UNL A   1      47.452  27.632  25.335  1.00  0.00     0.064 A 
ATOM     88  C   UNL A   1      47.472  27.737  23.936  1.00  0.00     0.173 A 
ATOM     89  C   UNL A   1      48.590  27.104  25.968  1.00  0.00     0.173 A 
ATOM     90  F   UNL A   1      46.408  28.222  23.281  1.00  0.00    -0.203 F 
ATOM     91  C   UNL A   1      48.573  27.303  23.202  1.00  0.00     0.198 A 
ATOM     92  C   UNL A   1      49.703  26.707  25.233  1.00  0.00     0.198 A 
ATOM     93  F   UNL A   1      48.629  26.992  27.304  1.00  0.00    -0.203 F 
ATOM     94  F   UNL A   1      48.546  27.363  21.863  1.00  0.00    -0.200 F 
ATOM     95  C   UNL A   1      49.689  26.797  23.850  1.00  0.00     0.200 A 
ATOM     96  F   UNL A   1      50.787  26.237  25.864  1.00  0.00    -0.200 F 
ATOM     97  F   UNL A   1      50.751  26.389  23.141  1.00  0.00    -0.200 F 
ENDBRANCH  64  87
ENDBRANCH  38  39
ENDBRANCH  31  33
ENDBRANCH  30  31
ENDBRANCH  29  30
ENDBRANCH  28  29
ENDBRANCH  27  28
ENDBRANCH  26  27
ENDBRANCH  25  26
ENDBRANCH  24  25
ENDBRANCH   1  24
TORSDOF 23
ENDMDL
