MODEL 1
REMARK VINA RESULT:     -10.9      0.000      0.000
REMARK SMILES Cc1cc(C)c2c(c1)C=C(C(=O)OCCOCCOCCOCCOC(=O)c1ccc(-c3c4nc(c(-c5c(F)c(F)c(F)c(F)c5F)c5ccc([nH]5)c(-c5c(F)c(F)c(F)c(F)c5F)c5nc(c(-c6c(F)c(F)c(F)c(F)c6F)c6ccc3[nH]6)C=C5)C=C4)cc1)[C@@H](C(F)(F)F)O2
REMARK SMILES IDX 20 1 19 2 18 3 17 4 16 5 15 6 14 7 13 8 11 9 12 10 10 11
REMARK SMILES IDX 1 12 2 13 3 14 8 15 4 16 7 17 5 18 6 19 9 20 96 21 91 22
REMARK SMILES IDX 92 23 93 24 94 25 95 26 21 27 22 28 23 29 24 30 25 31 26 32
REMARK SMILES IDX 27 33 28 34 29 35 90 36 30 37 89 38 31 39 32 40 33 41 83 42
REMARK SMILES IDX 34 43 88 44 82 45 84 46 35 47 87 48 81 49 80 50 36 52 68 53
REMARK SMILES IDX 48 54 67 55 49 56 52 57 66 58 85 59 50 60 51 61 65 63 86 64
REMARK SMILES IDX 53 65 37 66 38 67 46 68 39 69 40 70 44 71 47 72 41 73 42 74
REMARK SMILES IDX 45 75 43 76 69 77 70 78 78 79 71 80 72 81 76 82 79 83 73 84
REMARK SMILES IDX 74 85 77 86 75 87 54 88 55 89 63 90 56 91 57 92 61 93 64 94
REMARK SMILES IDX 58 95 59 96 62 97 60 98
REMARK H PARENT 84 51 52 62
REMARK Flexibility Score: inf
ROOT
ATOM      1  C   UNL A   1      35.076  19.539  24.916  1.00  0.00     0.188 C 
ENDROOT
BRANCH   1   2
ATOM      2  O   UNL A   1      33.730  19.429  24.450  1.00  0.00    -0.377 OA
BRANCH   2   3
ATOM      3  C   UNL A   1      32.698  20.015  25.228  1.00  0.00     0.188 C 
BRANCH   3   4
ATOM      4  C   UNL A   1      32.142  21.328  24.647  1.00  0.00     0.188 C 
BRANCH   4   5
ATOM      5  O   UNL A   1      32.587  21.581  23.318  1.00  0.00    -0.376 OA
BRANCH   5   6
ATOM      6  C   UNL A   1      33.436  22.700  23.110  1.00  0.00     0.202 C 
BRANCH   6   7
ATOM      7  C   UNL A   1      32.852  23.899  22.347  1.00  0.00     0.261 C 
BRANCH   7   8
ATOM      8  O   UNL A   1      32.763  25.120  23.094  1.00  0.00    -0.460 OA
BRANCH   8   9
ATOM      9  C   UNL A   1      33.170  26.253  22.489  1.00  0.00     0.338 C 
ATOM     10  O   UNL A   1      33.467  26.385  21.315  1.00  0.00    -0.246 OA
BRANCH   9  11
ATOM     11  C   UNL A   1      33.039  27.359  23.464  1.00  0.00     0.087 C 
ATOM     12  C   UNL A   1      35.571  29.669  28.593  1.00  0.00     0.044 C 
ATOM     13  C   UNL A   1      34.623  29.598  27.432  1.00  0.00    -0.050 A 
ATOM     14  C   UNL A   1      33.526  30.464  27.369  1.00  0.00     0.010 A 
ATOM     15  C   UNL A   1      34.774  28.618  26.444  1.00  0.00     0.015 A 
ATOM     16  C   UNL A   1      32.601  30.383  26.317  1.00  0.00    -0.008 A 
ATOM     17  C   UNL A   1      33.848  28.510  25.399  1.00  0.00     0.018 A 
ATOM     18  C   UNL A   1      31.418  31.309  26.284  1.00  0.00     0.048 C 
ATOM     19  C   UNL A   1      32.787  29.415  25.317  1.00  0.00     0.130 A 
ATOM     20  C   UNL A   1      33.951  27.421  24.442  1.00  0.00     0.027 C 
ATOM     21  O   UNL A   1      31.874  29.404  24.301  1.00  0.00    -0.475 OA
ATOM     22  C   UNL A   1      31.957  28.389  23.265  1.00  0.00     0.316 C 
BRANCH  22  23
ATOM     23  C   UNL A   1      30.566  27.757  23.123  1.00  0.00     0.430 C 
ATOM     24  F   UNL A   1      30.401  27.200  21.899  1.00  0.00    -0.167 F 
ATOM     25  F   UNL A   1      30.356  26.769  24.024  1.00  0.00    -0.167 F 
ATOM     26  F   UNL A   1      29.580  28.668  23.290  1.00  0.00    -0.167 F 
ENDBRANCH  22  23
ENDBRANCH   9  11
ENDBRANCH   8   9
ENDBRANCH   7   8
ENDBRANCH   6   7
ENDBRANCH   5   6
ENDBRANCH   4   5
ENDBRANCH   3   4
ENDBRANCH   2   3
ENDBRANCH   1   2
BRANCH   1  27
ATOM     27  C   UNL A   1      35.825  20.892  25.011  1.00  0.00     0.188 C 
BRANCH  27  28
ATOM     28  O   UNL A   1      37.226  20.809  24.784  1.00  0.00    -0.376 OA
BRANCH  28  29
ATOM     29  C   UNL A   1      37.826  19.531  24.922  1.00  0.00     0.202 C 
BRANCH  29  30
ATOM     30  C   UNL A   1      39.251  19.564  25.487  1.00  0.00     0.261 C 
BRANCH  30  31
ATOM     31  O   UNL A   1      39.655  20.821  26.051  1.00  0.00    -0.460 OA
BRANCH  31  32
ATOM     32  C   UNL A   1      40.443  20.787  27.148  1.00  0.00     0.338 C 
ATOM     33  O   UNL A   1      40.893  19.804  27.708  1.00  0.00    -0.246 OA
BRANCH  32  34
ATOM     34  C   UNL A   1      40.839  22.177  27.448  1.00  0.00     0.060 A 
ATOM     35  C   UNL A   1      40.268  23.221  26.708  1.00  0.00     0.016 A 
ATOM     36  C   UNL A   1      41.747  22.447  28.474  1.00  0.00     0.016 A 
ATOM     37  C   UNL A   1      40.631  24.540  26.974  1.00  0.00     0.010 A 
ATOM     38  C   UNL A   1      42.130  23.767  28.724  1.00  0.00     0.010 A 
ATOM     39  C   UNL A   1      41.598  24.814  27.952  1.00  0.00    -0.014 A 
BRANCH  39  40
ATOM     40  C   UNL A   1      42.219  26.159  28.000  1.00  0.00     0.031 A 
ATOM     41  C   UNL A   1      41.476  27.246  28.727  1.00  0.00     0.074 A 
ATOM     42  C   UNL A   1      43.422  26.406  27.455  1.00  0.00     0.049 A 
ATOM     43  N   UNL A   1      41.811  28.495  28.922  1.00  0.00    -0.248 NA
ATOM     44  C   UNL A   1      40.179  26.870  29.316  1.00  0.00     0.031 C 
ATOM     45  C   UNL A   1      44.254  25.424  26.764  1.00  0.00     0.029 A 
ATOM     46  N   UNL A   1      44.154  27.567  27.406  1.00  0.00    -0.354 N 
ATOM     47  C   UNL A   1      40.779  29.045  29.669  1.00  0.00     0.074 A 
ATOM     48  C   UNL A   1      39.783  28.014  29.854  1.00  0.00     0.031 C 
ATOM     49  C   UNL A   1      45.389  26.025  26.360  1.00  0.00     0.029 A 
ATOM     50  C   UNL A   1      45.349  27.438  26.742  1.00  0.00     0.049 A 
ATOM     51  H   UNL A   1      43.850  28.411  27.808  1.00  0.00     0.167 HD
ATOM     52  C   UNL A   1      40.678  30.295  30.175  1.00  0.00     0.037 A 
ATOM     53  C   UNL A   1      46.295  28.360  26.471  1.00  0.00     0.037 A 
ATOM     54  C   UNL A   1      41.662  31.324  29.983  1.00  0.00     0.049 A 
ATOM     55  C   UNL A   1      46.106  29.778  26.950  1.00  0.00     0.074 A 
ATOM     56  C   UNL A   1      41.655  32.621  30.466  1.00  0.00     0.029 A 
ATOM     57  N   UNL A   1      42.823  31.176  29.242  1.00  0.00    -0.354 N 
ATOM     58  N   UNL A   1      45.146  30.283  27.687  1.00  0.00    -0.248 NA
ATOM     59  C   UNL A   1      47.130  30.759  26.554  1.00  0.00     0.031 C 
ATOM     60  C   UNL A   1      42.787  33.273  29.972  1.00  0.00     0.029 A 
ATOM     61  C   UNL A   1      43.524  32.368  29.223  1.00  0.00     0.049 A 
ATOM     62  H   UNL A   1      43.108  30.344  28.796  1.00  0.00     0.167 HD
ATOM     63  C   UNL A   1      45.457  31.627  27.858  1.00  0.00     0.074 A 
ATOM     64  C   UNL A   1      46.704  31.859  27.162  1.00  0.00     0.031 C 
ATOM     65  C   UNL A   1      44.768  32.582  28.528  1.00  0.00     0.037 A 
BRANCH  52  66
ATOM     66  C   UNL A   1      39.458  30.622  30.981  1.00  0.00     0.064 A 
ATOM     67  C   UNL A   1      39.380  30.306  32.346  1.00  0.00     0.173 A 
ATOM     68  C   UNL A   1      38.380  31.303  30.397  1.00  0.00     0.173 A 
ATOM     69  F   UNL A   1      40.379  29.640  32.943  1.00  0.00    -0.203 F 
ATOM     70  C   UNL A   1      38.258  30.649  33.095  1.00  0.00     0.198 A 
ATOM     71  C   UNL A   1      37.272  31.668  31.157  1.00  0.00     0.198 A 
ATOM     72  F   UNL A   1      38.408  31.626  29.097  1.00  0.00    -0.203 F 
ATOM     73  F   UNL A   1      38.188  30.306  34.388  1.00  0.00    -0.200 F 
ATOM     74  C   UNL A   1      37.210  31.337  32.503  1.00  0.00     0.200 A 
ATOM     75  F   UNL A   1      36.264  32.343  30.586  1.00  0.00    -0.200 F 
ATOM     76  F   UNL A   1      36.137  31.680  33.229  1.00  0.00    -0.200 F 
ENDBRANCH  52  66
BRANCH  53  77
ATOM     77  C   UNL A   1      47.512  27.975  25.707  1.00  0.00     0.064 A 
ATOM     78  C   UNL A   1      48.731  27.752  26.360  1.00  0.00     0.173 A 
ATOM     79  C   UNL A   1      47.485  27.838  24.312  1.00  0.00     0.173 A 
ATOM     80  F   UNL A   1      48.817  27.901  27.690  1.00  0.00    -0.203 F 
ATOM     81  C   UNL A   1      49.880  27.413  25.646  1.00  0.00     0.198 A 
ATOM     82  C   UNL A   1      48.627  27.473  23.601  1.00  0.00     0.198 A 
ATOM     83  F   UNL A   1      46.346  28.051  23.637  1.00  0.00    -0.203 F 
ATOM     84  F   UNL A   1      51.043  27.244  26.291  1.00  0.00    -0.200 F 
ATOM     85  C   UNL A   1      49.825  27.266  24.268  1.00  0.00     0.200 A 
ATOM     86  F   UNL A   1      48.568  27.327  22.270  1.00  0.00    -0.200 F 
ATOM     87  F   UNL A   1      50.928  26.936  23.582  1.00  0.00    -0.200 F 
ENDBRANCH  53  77
BRANCH  65  88
ATOM     88  C   UNL A   1      45.331  33.973  28.551  1.00  0.00     0.064 A 
ATOM     89  C   UNL A   1      46.307  34.347  29.485  1.00  0.00     0.173 A 
ATOM     90  C   UNL A   1      44.979  34.903  27.560  1.00  0.00     0.173 A 
ATOM     91  F   UNL A   1      46.670  33.497  30.458  1.00  0.00    -0.203 F 
ATOM     92  C   UNL A   1      46.910  35.601  29.427  1.00  0.00     0.198 A 
ATOM     93  C   UNL A   1      45.603  36.145  27.488  1.00  0.00     0.198 A 
ATOM     94  F   UNL A   1      44.058  34.590  26.636  1.00  0.00    -0.203 F 
ATOM     95  F   UNL A   1      47.828  35.944  30.342  1.00  0.00    -0.200 F 
ATOM     96  C   UNL A   1      46.568  36.492  28.421  1.00  0.00     0.200 A 
ATOM     97  F   UNL A   1      45.287  36.997  26.503  1.00  0.00    -0.200 F 
ATOM     98  F   UNL A   1      47.171  37.687  28.349  1.00  0.00    -0.200 F 
ENDBRANCH  65  88
ENDBRANCH  39  40
ENDBRANCH  32  34
ENDBRANCH  31  32
ENDBRANCH  30  31
ENDBRANCH  29  30
ENDBRANCH  28  29
ENDBRANCH  27  28
ENDBRANCH   1  27
TORSDOF 21
ENDMDL
MODEL 2
REMARK VINA RESULT:     -10.8      0.570      7.152
REMARK SMILES Cc1cc(C)c2c(c1)C=C(C(=O)OCCOCCOCCOCCOC(=O)c1ccc(-c3c4nc(c(-c5c(F)c(F)c(F)c(F)c5F)c5ccc([nH]5)c(-c5c(F)c(F)c(F)c(F)c5F)c5nc(c(-c6c(F)c(F)c(F)c(F)c6F)c6ccc3[nH]6)C=C5)C=C4)cc1)[C@@H](C(F)(F)F)O2
REMARK SMILES IDX 20 1 19 2 18 3 17 4 16 5 15 6 14 7 13 8 11 9 12 10 10 11
REMARK SMILES IDX 1 12 2 13 3 14 8 15 4 16 7 17 5 18 6 19 9 20 96 21 91 22
REMARK SMILES IDX 92 23 93 24 94 25 95 26 21 27 22 28 23 29 24 30 25 31 26 32
REMARK SMILES IDX 27 33 28 34 29 35 90 36 30 37 89 38 31 39 32 40 33 41 83 42
REMARK SMILES IDX 34 43 88 44 82 45 84 46 35 47 87 48 81 49 80 50 36 52 68 53
REMARK SMILES IDX 48 54 67 55 49 56 52 57 66 58 85 59 50 60 51 61 65 63 86 64
REMARK SMILES IDX 53 65 37 66 38 67 46 68 39 69 40 70 44 71 47 72 41 73 42 74
REMARK SMILES IDX 45 75 43 76 69 77 70 78 78 79 71 80 72 81 76 82 79 83 73 84
REMARK SMILES IDX 74 85 77 86 75 87 54 88 55 89 63 90 56 91 57 92 61 93 64 94
REMARK SMILES IDX 58 95 59 96 62 97 60 98
REMARK H PARENT 84 51 52 62
REMARK Flexibility Score: inf
ROOT
ATOM      1  C   UNL A   1      34.961  19.719  24.965  1.00  0.00     0.188 C 
ENDROOT
BRANCH   1   2
ATOM      2  O   UNL A   1      33.601  19.466  25.320  1.00  0.00    -0.377 OA
BRANCH   2   3
ATOM      3  C   UNL A   1      32.603  20.354  24.842  1.00  0.00     0.188 C 
BRANCH   3   4
ATOM      4  C   UNL A   1      32.299  20.207  23.340  1.00  0.00     0.188 C 
BRANCH   4   5
ATOM      5  O   UNL A   1      32.353  21.446  22.639  1.00  0.00    -0.376 OA
BRANCH   5   6
ATOM      6  C   UNL A   1      32.613  22.620  23.394  1.00  0.00     0.202 C 
BRANCH   6   7
ATOM      7  C   UNL A   1      32.504  23.969  22.667  1.00  0.00     0.261 C 
BRANCH   7   8
ATOM      8  O   UNL A   1      33.363  25.005  23.159  1.00  0.00    -0.460 OA
BRANCH   8   9
ATOM      9  C   UNL A   1      33.425  26.153  22.455  1.00  0.00     0.338 C 
ATOM     10  O   UNL A   1      33.529  26.260  21.246  1.00  0.00    -0.246 OA
BRANCH   9  11
ATOM     11  C   UNL A   1      33.180  27.272  23.391  1.00  0.00     0.087 C 
ATOM     12  C   UNL A   1      35.336  29.886  28.546  1.00  0.00     0.044 C 
ATOM     13  C   UNL A   1      34.444  29.719  27.351  1.00  0.00    -0.050 A 
ATOM     14  C   UNL A   1      33.294  30.506  27.220  1.00  0.00     0.010 A 
ATOM     15  C   UNL A   1      34.701  28.726  26.400  1.00  0.00     0.015 A 
ATOM     16  C   UNL A   1      32.421  30.333  26.135  1.00  0.00    -0.008 A 
ATOM     17  C   UNL A   1      33.828  28.527  25.322  1.00  0.00     0.018 A 
ATOM     18  C   UNL A   1      31.181  31.174  26.029  1.00  0.00     0.048 C 
ATOM     19  C   UNL A   1      32.713  29.355  25.172  1.00  0.00     0.130 A 
ATOM     20  C   UNL A   1      34.044  27.423  24.402  1.00  0.00     0.027 C 
ATOM     21  O   UNL A   1      31.845  29.254  24.121  1.00  0.00    -0.475 OA
ATOM     22  C   UNL A   1      32.040  28.220  23.120  1.00  0.00     0.316 C 
BRANCH  22  23
ATOM     23  C   UNL A   1      30.701  27.490  22.942  1.00  0.00     0.430 C 
ATOM     24  F   UNL A   1      30.422  26.704  24.009  1.00  0.00    -0.167 F 
ATOM     25  F   UNL A   1      29.661  28.348  22.816  1.00  0.00    -0.167 F 
ATOM     26  F   UNL A   1      30.702  26.699  21.845  1.00  0.00    -0.167 F 
ENDBRANCH  22  23
ENDBRANCH   9  11
ENDBRANCH   8   9
ENDBRANCH   7   8
ENDBRANCH   6   7
ENDBRANCH   5   6
ENDBRANCH   4   5
ENDBRANCH   3   4
ENDBRANCH   2   3
ENDBRANCH   1   2
BRANCH   1  27
ATOM     27  C   UNL A   1      35.634  21.103  25.147  1.00  0.00     0.188 C 
BRANCH  27  28
ATOM     28  O   UNL A   1      37.051  21.091  25.030  1.00  0.00    -0.376 OA
BRANCH  28  29
ATOM     29  C   UNL A   1      37.665  19.838  24.767  1.00  0.00     0.202 C 
BRANCH  29  30
ATOM     30  C   UNL A   1      38.953  19.592  25.562  1.00  0.00     0.261 C 
BRANCH  30  31
ATOM     31  O   UNL A   1      39.719  20.768  25.861  1.00  0.00    -0.460 OA
BRANCH  31  32
ATOM     32  C   UNL A   1      40.586  20.699  26.896  1.00  0.00     0.338 C 
ATOM     33  O   UNL A   1      41.177  19.717  27.305  1.00  0.00    -0.246 OA
BRANCH  32  34
ATOM     34  C   UNL A   1      40.857  22.082  27.335  1.00  0.00     0.060 A 
ATOM     35  C   UNL A   1      40.167  23.137  26.723  1.00  0.00     0.016 A 
ATOM     36  C   UNL A   1      41.767  22.331  28.365  1.00  0.00     0.016 A 
ATOM     37  C   UNL A   1      40.410  24.450  27.122  1.00  0.00     0.010 A 
ATOM     38  C   UNL A   1      42.029  23.649  28.747  1.00  0.00     0.010 A 
ATOM     39  C   UNL A   1      41.376  24.714  28.104  1.00  0.00    -0.014 A 
BRANCH  39  40
ATOM     40  C   UNL A   1      41.866  26.101  28.283  1.00  0.00     0.031 A 
ATOM     41  C   UNL A   1      43.207  26.449  27.699  1.00  0.00     0.074 A 
ATOM     42  C   UNL A   1      41.133  27.038  28.908  1.00  0.00     0.049 A 
ATOM     43  N   UNL A   1      43.847  27.590  27.706  1.00  0.00    -0.248 NA
ATOM     44  C   UNL A   1      43.921  25.362  27.007  1.00  0.00     0.031 C 
ATOM     45  C   UNL A   1      39.804  26.832  29.477  1.00  0.00     0.029 A 
ATOM     46  N   UNL A   1      41.409  28.360  29.160  1.00  0.00    -0.354 N 
ATOM     47  C   UNL A   1      45.025  27.361  27.009  1.00  0.00     0.074 A 
ATOM     48  C   UNL A   1      45.038  25.966  26.631  1.00  0.00     0.031 C 
ATOM     49  C   UNL A   1      39.376  27.990  30.012  1.00  0.00     0.029 A 
ATOM     50  C   UNL A   1      40.412  29.011  29.845  1.00  0.00     0.049 A 
ATOM     51  H   UNL A   1      42.242  28.799  28.877  1.00  0.00     0.167 HD
ATOM     52  C   UNL A   1      46.001  28.241  26.692  1.00  0.00     0.037 A 
ATOM     53  C   UNL A   1      40.353  30.282  30.289  1.00  0.00     0.037 A 
ATOM     54  C   UNL A   1      45.995  29.625  27.076  1.00  0.00     0.049 A 
ATOM     55  C   UNL A   1      41.507  31.216  30.021  1.00  0.00     0.074 A 
ATOM     56  C   UNL A   1      46.934  30.600  26.794  1.00  0.00     0.029 A 
ATOM     57  N   UNL A   1      45.002  30.228  27.833  1.00  0.00    -0.354 N 
ATOM     58  N   UNL A   1      42.601  31.004  29.330  1.00  0.00    -0.248 NA
ATOM     59  C   UNL A   1      41.422  32.566  30.601  1.00  0.00     0.031 C 
ATOM     60  C   UNL A   1      46.537  31.781  27.425  1.00  0.00     0.029 A 
ATOM     61  C   UNL A   1      45.325  31.555  28.059  1.00  0.00     0.049 A 
ATOM     62  H   UNL A   1      44.188  29.780  28.161  1.00  0.00     0.167 HD
ATOM     63  C   UNL A   1      43.322  32.191  29.375  1.00  0.00     0.074 A 
ATOM     64  C   UNL A   1      42.535  33.129  30.148  1.00  0.00     0.031 C 
ATOM     65  C   UNL A   1      44.528  32.477  28.829  1.00  0.00     0.037 A 
BRANCH  52  66
ATOM     66  C   UNL A   1      47.164  27.732  25.896  1.00  0.00     0.064 A 
ATOM     67  C   UNL A   1      47.143  27.735  24.493  1.00  0.00     0.173 A 
ATOM     68  C   UNL A   1      48.328  27.287  26.539  1.00  0.00     0.173 A 
ATOM     69  F   UNL A   1      46.045  28.136  23.835  1.00  0.00    -0.203 F 
ATOM     70  C   UNL A   1      48.243  27.296  23.762  1.00  0.00     0.198 A 
ATOM     71  C   UNL A   1      49.436  26.875  25.803  1.00  0.00     0.198 A 
ATOM     72  F   UNL A   1      48.395  27.265  27.877  1.00  0.00    -0.203 F 
ATOM     73  F   UNL A   1      48.189  27.273  22.423  1.00  0.00    -0.200 F 
ATOM     74  C   UNL A   1      49.391  26.876  24.417  1.00  0.00     0.200 A 
ATOM     75  F   UNL A   1      50.548  26.479  26.437  1.00  0.00    -0.200 F 
ATOM     76  F   UNL A   1      50.455  26.468  23.711  1.00  0.00    -0.200 F 
ENDBRANCH  52  66
BRANCH  53  77
ATOM     77  C   UNL A   1      39.155  30.754  31.035  1.00  0.00     0.064 A 
ATOM     78  C   UNL A   1      39.031  30.529  32.413  1.00  0.00     0.173 A 
ATOM     79  C   UNL A   1      38.107  31.423  30.387  1.00  0.00     0.173 A 
ATOM     80  F   UNL A   1      39.991  29.866  33.073  1.00  0.00    -0.203 F 
ATOM     81  C   UNL A   1      37.900  30.950  33.112  1.00  0.00     0.198 A 
ATOM     82  C   UNL A   1      36.989  31.866  31.091  1.00  0.00     0.198 A 
ATOM     83  F   UNL A   1      38.171  31.654  29.067  1.00  0.00    -0.203 F 
ATOM     84  F   UNL A   1      37.788  30.687  34.422  1.00  0.00    -0.200 F 
ATOM     85  C   UNL A   1      36.884  31.624  32.453  1.00  0.00     0.200 A 
ATOM     86  F   UNL A   1      36.013  32.523  30.450  1.00  0.00    -0.200 F 
ATOM     87  F   UNL A   1      35.799  32.032  33.126  1.00  0.00    -0.200 F 
ENDBRANCH  53  77
BRANCH  65  88
ATOM     88  C   UNL A   1      45.091  33.853  29.037  1.00  0.00     0.064 A 
ATOM     89  C   UNL A   1      44.784  34.903  28.161  1.00  0.00     0.173 A 
ATOM     90  C   UNL A   1      45.844  34.151  30.184  1.00  0.00     0.173 A 
ATOM     91  F   UNL A   1      44.076  34.667  27.046  1.00  0.00    -0.203 F 
ATOM     92  C   UNL A   1      45.212  36.202  28.424  1.00  0.00     0.198 A 
ATOM     93  C   UNL A   1      46.246  35.454  30.458  1.00  0.00     0.198 A 
ATOM     94  F   UNL A   1      46.154  33.183  31.059  1.00  0.00    -0.203 F 
ATOM     95  F   UNL A   1      44.923  37.188  27.564  1.00  0.00    -0.200 F 
ATOM     96  C   UNL A   1      45.930  36.479  29.579  1.00  0.00     0.200 A 
ATOM     97  F   UNL A   1      46.921  35.724  31.584  1.00  0.00    -0.200 F 
ATOM     98  F   UNL A   1      46.314  37.735  29.845  1.00  0.00    -0.200 F 
ENDBRANCH  65  88
ENDBRANCH  39  40
ENDBRANCH  32  34
ENDBRANCH  31  32
ENDBRANCH  30  31
ENDBRANCH  29  30
ENDBRANCH  28  29
ENDBRANCH  27  28
ENDBRANCH   1  27
TORSDOF 21
ENDMDL
MODEL 3
REMARK VINA RESULT:     -10.8      4.353      8.841
REMARK SMILES Cc1cc(C)c2c(c1)C=C(C(=O)OCCOCCOCCOCCOC(=O)c1ccc(-c3c4nc(c(-c5c(F)c(F)c(F)c(F)c5F)c5ccc([nH]5)c(-c5c(F)c(F)c(F)c(F)c5F)c5nc(c(-c6c(F)c(F)c(F)c(F)c6F)c6ccc3[nH]6)C=C5)C=C4)cc1)[C@@H](C(F)(F)F)O2
REMARK SMILES IDX 20 1 19 2 18 3 17 4 16 5 15 6 14 7 13 8 11 9 12 10 10 11
REMARK SMILES IDX 1 12 2 13 3 14 8 15 4 16 7 17 5 18 6 19 9 20 96 21 91 22
REMARK SMILES IDX 92 23 93 24 94 25 95 26 21 27 22 28 23 29 24 30 25 31 26 32
REMARK SMILES IDX 27 33 28 34 29 35 90 36 30 37 89 38 31 39 32 40 33 41 83 42
REMARK SMILES IDX 34 43 88 44 82 45 84 46 35 47 87 48 81 49 80 50 36 52 68 53
REMARK SMILES IDX 48 54 67 55 49 56 52 57 66 58 85 59 50 60 51 61 65 63 86 64
REMARK SMILES IDX 53 65 37 66 38 67 46 68 39 69 40 70 44 71 47 72 41 73 42 74
REMARK SMILES IDX 45 75 43 76 69 77 70 78 78 79 71 80 72 81 76 82 79 83 73 84
REMARK SMILES IDX 74 85 77 86 75 87 54 88 55 89 63 90 56 91 57 92 61 93 64 94
REMARK SMILES IDX 58 95 59 96 62 97 60 98
REMARK H PARENT 84 51 52 62
REMARK Flexibility Score: inf
ROOT
ATOM      1  C   UNL A   1      41.692  20.578  27.536  1.00  0.00     0.188 C 
ENDROOT
BRANCH   1   2
ATOM      2  O   UNL A   1      40.318  20.968  27.567  1.00  0.00    -0.377 OA
BRANCH   2   3
ATOM      3  C   UNL A   1      39.993  22.313  27.258  1.00  0.00     0.188 C 
BRANCH   3   4
ATOM      4  C   UNL A   1      38.975  22.467  26.113  1.00  0.00     0.188 C 
BRANCH   4   5
ATOM      5  O   UNL A   1      38.442  21.222  25.672  1.00  0.00    -0.376 OA
BRANCH   5   6
ATOM      6  C   UNL A   1      37.380  21.257  24.729  1.00  0.00     0.202 C 
BRANCH   6   7
ATOM      7  C   UNL A   1      36.004  20.757  25.195  1.00  0.00     0.261 C 
BRANCH   7   8
ATOM      8  O   UNL A   1      35.353  21.573  26.177  1.00  0.00    -0.460 OA
BRANCH   8   9
ATOM      9  C   UNL A   1      34.027  21.776  26.041  1.00  0.00     0.338 C 
ATOM     10  O   UNL A   1      33.142  21.270  26.707  1.00  0.00    -0.246 OA
BRANCH   9  11
ATOM     11  C   UNL A   1      33.834  22.850  25.042  1.00  0.00     0.087 C 
ATOM     12  C   UNL A   1      33.518  28.985  24.471  1.00  0.00     0.044 C 
ATOM     13  C   UNL A   1      33.526  27.554  24.018  1.00  0.00    -0.050 A 
ATOM     14  C   UNL A   1      33.184  27.234  22.700  1.00  0.00     0.010 A 
ATOM     15  C   UNL A   1      33.794  26.519  24.921  1.00  0.00     0.015 A 
ATOM     16  C   UNL A   1      33.140  25.900  22.268  1.00  0.00    -0.008 A 
ATOM     17  C   UNL A   1      33.734  25.181  24.512  1.00  0.00     0.018 A 
ATOM     18  C   UNL A   1      32.747  25.581  20.854  1.00  0.00     0.048 C 
ATOM     19  C   UNL A   1      33.445  24.876  23.180  1.00  0.00     0.130 A 
ATOM     20  C   UNL A   1      33.905  24.112  25.482  1.00  0.00     0.027 C 
ATOM     21  O   UNL A   1      33.417  23.599  22.696  1.00  0.00    -0.475 OA
ATOM     22  C   UNL A   1      33.652  22.481  23.592  1.00  0.00     0.316 C 
BRANCH  22  23
ATOM     23  C   UNL A   1      32.515  21.472  23.383  1.00  0.00     0.430 C 
ATOM     24  F   UNL A   1      32.884  20.227  23.769  1.00  0.00    -0.167 F 
ATOM     25  F   UNL A   1      31.412  21.784  24.102  1.00  0.00    -0.167 F 
ATOM     26  F   UNL A   1      32.139  21.399  22.085  1.00  0.00    -0.167 F 
ENDBRANCH  22  23
ENDBRANCH   9  11
ENDBRANCH   8   9
ENDBRANCH   7   8
ENDBRANCH   6   7
ENDBRANCH   5   6
ENDBRANCH   4   5
ENDBRANCH   3   4
ENDBRANCH   2   3
ENDBRANCH   1   2
BRANCH   1  27
ATOM     27  C   UNL A   1      42.305  19.750  26.379  1.00  0.00     0.188 C 
BRANCH  27  28
ATOM     28  O   UNL A   1      43.107  20.500  25.476  1.00  0.00    -0.376 OA
BRANCH  28  29
ATOM     29  C   UNL A   1      42.927  21.907  25.471  1.00  0.00     0.202 C 
BRANCH  29  30
ATOM     30  C   UNL A   1      44.167  22.697  25.037  1.00  0.00     0.261 C 
BRANCH  30  31
ATOM     31  O   UNL A   1      43.907  24.029  24.565  1.00  0.00    -0.460 OA
BRANCH  31  32
ATOM     32  C   UNL A   1      44.708  25.017  25.021  1.00  0.00     0.338 C 
ATOM     33  O   UNL A   1      45.834  25.292  24.647  1.00  0.00    -0.246 OA
BRANCH  32  34
ATOM     34  C   UNL A   1      43.901  25.852  25.932  1.00  0.00     0.060 A 
ATOM     35  C   UNL A   1      44.330  27.154  26.221  1.00  0.00     0.016 A 
ATOM     36  C   UNL A   1      42.711  25.359  26.474  1.00  0.00     0.016 A 
ATOM     37  C   UNL A   1      43.583  27.957  27.081  1.00  0.00     0.010 A 
ATOM     38  C   UNL A   1      41.976  26.155  27.355  1.00  0.00     0.010 A 
ATOM     39  C   UNL A   1      42.428  27.443  27.687  1.00  0.00    -0.014 A 
BRANCH  39  40
ATOM     40  C   UNL A   1      41.833  28.164  28.838  1.00  0.00     0.031 A 
ATOM     41  C   UNL A   1      42.595  28.160  30.134  1.00  0.00     0.074 A 
ATOM     42  C   UNL A   1      40.674  28.836  28.733  1.00  0.00     0.049 A 
ATOM     43  N   UNL A   1      42.298  28.726  31.275  1.00  0.00    -0.248 NA
ATOM     44  C   UNL A   1      43.869  27.420  30.142  1.00  0.00     0.031 C 
ATOM     45  C   UNL A   1      39.868  28.947  27.520  1.00  0.00     0.029 A 
ATOM     46  N   UNL A   1      39.979  29.560  29.670  1.00  0.00    -0.354 N 
ATOM     47  C   UNL A   1      43.353  28.425  32.126  1.00  0.00     0.074 A 
ATOM     48  C   UNL A   1      44.275  27.590  31.390  1.00  0.00     0.031 C 
ATOM     49  C   UNL A   1      38.785  29.701  27.787  1.00  0.00     0.029 A 
ATOM     50  C   UNL A   1      38.810  30.102  29.194  1.00  0.00     0.049 A 
ATOM     51  H   UNL A   1      40.290  29.680  30.596  1.00  0.00     0.167 HD
ATOM     52  C   UNL A   1      43.547  28.827  33.402  1.00  0.00     0.037 A 
ATOM     53  C   UNL A   1      37.870  30.830  29.829  1.00  0.00     0.037 A 
ATOM     54  C   UNL A   1      42.626  29.648  34.138  1.00  0.00     0.049 A 
ATOM     55  C   UNL A   1      38.055  31.171  31.287  1.00  0.00     0.074 A 
ATOM     56  C   UNL A   1      42.739  30.117  35.435  1.00  0.00     0.029 A 
ATOM     57  N   UNL A   1      41.418  30.114  33.644  1.00  0.00    -0.354 N 
ATOM     58  N   UNL A   1      39.071  30.915  32.075  1.00  0.00    -0.248 NA
ATOM     59  C   UNL A   1      36.958  31.896  31.948  1.00  0.00     0.031 C 
ATOM     60  C   UNL A   1      41.575  30.823  35.743  1.00  0.00     0.029 A 
ATOM     61  C   UNL A   1      40.758  30.836  34.623  1.00  0.00     0.049 A 
ATOM     62  H   UNL A   1      41.080  29.956  32.732  1.00  0.00     0.167 HD
ATOM     63  C   UNL A   1      38.747  31.461  33.311  1.00  0.00     0.074 A 
ATOM     64  C   UNL A   1      37.446  32.078  33.168  1.00  0.00     0.031 C 
ATOM     65  C   UNL A   1      39.463  31.448  34.462  1.00  0.00     0.037 A 
BRANCH  52  66
ATOM     66  C   UNL A   1      44.801  28.379  34.089  1.00  0.00     0.064 A 
ATOM     67  C   UNL A   1      44.851  27.171  34.801  1.00  0.00     0.173 A 
ATOM     68  C   UNL A   1      45.977  29.136  33.990  1.00  0.00     0.173 A 
ATOM     69  F   UNL A   1      43.746  26.422  34.937  1.00  0.00    -0.203 F 
ATOM     70  C   UNL A   1      46.031  26.744  35.402  1.00  0.00     0.198 A 
ATOM     71  C   UNL A   1      47.162  28.692  34.569  1.00  0.00     0.198 A 
ATOM     72  F   UNL A   1      45.980  30.297  33.319  1.00  0.00    -0.203 F 
ATOM     73  F   UNL A   1      46.047  25.606  36.108  1.00  0.00    -0.200 F 
ATOM     74  C   UNL A   1      47.187  27.500  35.278  1.00  0.00     0.200 A 
ATOM     75  F   UNL A   1      48.282  29.417  34.439  1.00  0.00    -0.200 F 
ATOM     76  F   UNL A   1      48.327  27.080  35.845  1.00  0.00    -0.200 F 
ENDBRANCH  52  66
BRANCH  53  77
ATOM     77  C   UNL A   1      36.664  31.292  29.091  1.00  0.00     0.064 A 
ATOM     78  C   UNL A   1      35.643  30.396  28.747  1.00  0.00     0.173 A 
ATOM     79  C   UNL A   1      36.514  32.632  28.702  1.00  0.00     0.173 A 
ATOM     80  F   UNL A   1      35.753  29.099  29.069  1.00  0.00    -0.203 F 
ATOM     81  C   UNL A   1      34.521  30.820  28.036  1.00  0.00     0.198 A 
ATOM     82  C   UNL A   1      35.380  33.060  28.014  1.00  0.00     0.198 A 
ATOM     83  F   UNL A   1      37.467  33.528  28.997  1.00  0.00    -0.203 F 
ATOM     84  F   UNL A   1      33.578  29.935  27.685  1.00  0.00    -0.200 F 
ATOM     85  C   UNL A   1      34.387  32.153  27.677  1.00  0.00     0.200 A 
ATOM     86  F   UNL A   1      35.252  34.350  27.675  1.00  0.00    -0.200 F 
ATOM     87  F   UNL A   1      33.306  32.561  26.997  1.00  0.00    -0.200 F 
ENDBRANCH  53  77
BRANCH  65  88
ATOM     88  C   UNL A   1      38.870  32.114  35.670  1.00  0.00     0.064 A 
ATOM     89  C   UNL A   1      38.192  31.374  36.649  1.00  0.00     0.173 A 
ATOM     90  C   UNL A   1      39.084  33.481  35.909  1.00  0.00     0.173 A 
ATOM     91  F   UNL A   1      37.954  30.067  36.462  1.00  0.00    -0.203 F 
ATOM     92  C   UNL A   1      37.748  31.978  37.823  1.00  0.00     0.198 A 
ATOM     93  C   UNL A   1      38.665  34.075  37.095  1.00  0.00     0.198 A 
ATOM     94  F   UNL A   1      39.738  34.230  35.009  1.00  0.00    -0.203 F 
ATOM     95  F   UNL A   1      37.086  31.256  38.737  1.00  0.00    -0.200 F 
ATOM     96  C   UNL A   1      37.997  33.324  38.050  1.00  0.00     0.200 A 
ATOM     97  F   UNL A   1      38.923  35.370  37.323  1.00  0.00    -0.200 F 
ATOM     98  F   UNL A   1      37.596  33.897  39.194  1.00  0.00    -0.200 F 
ENDBRANCH  65  88
ENDBRANCH  39  40
ENDBRANCH  32  34
ENDBRANCH  31  32
ENDBRANCH  30  31
ENDBRANCH  29  30
ENDBRANCH  28  29
ENDBRANCH  27  28
ENDBRANCH   1  27
TORSDOF 21
ENDMDL
