MODEL 1
REMARK VINA RESULT:     -10.8      0.000      0.000
REMARK SMILES O=C(OCCOCCOCCOCCOC(=O)[C@H]1C=C[C@H](NC(=O)c2ccc(Cl)cc2Cl)C1)c1ccc(-c2c3nc(c(-c4c(F)c(F)c(F)c(F)c4F)c4ccc([nH]4)c(-c4c(F)c(F)c(F)c(F)c4F)c4nc(c(-c5c(F)c(F)c(F)c(F)c5F)c5ccc2[nH]5)C=C4)C=C3)cc1
REMARK SMILES IDX 9 1 8 2 7 3 6 4 5 5 4 6 3 7 2 8 1 9 34 10 35 11 96 12 36 13
REMARK SMILES IDX 95 14 37 15 38 16 39 17 89 18 40 19 94 20 88 21 90 22 41 23
REMARK SMILES IDX 93 24 87 25 86 26 42 28 74 29 54 30 73 31 55 32 58 33 72 34
REMARK SMILES IDX 91 35 56 36 57 37 71 39 92 40 59 41 43 42 44 43 52 44 45 45
REMARK SMILES IDX 46 46 50 47 53 48 47 49 48 50 51 51 49 52 75 53 76 54 84 55
REMARK SMILES IDX 77 56 78 57 82 58 85 59 79 60 80 61 83 62 81 63 60 64 61 65
REMARK SMILES IDX 69 66 62 67 63 68 67 69 70 70 64 71 65 72 68 73 66 74 10 75
REMARK SMILES IDX 11 76 12 77 13 78 14 79 15 80 16 81 17 82 18 83 19 84 33 85
REMARK SMILES IDX 20 86 21 87 22 88 23 89 24 91 25 92 26 93 31 94 27 95 30 96
REMARK SMILES IDX 32 97 28 98 29 99
REMARK H PARENT 90 27 58 38 22 90
REMARK Flexibility Score: inf
ROOT
ATOM      1  O   UNL A   1      32.739  27.635  25.868  1.00  0.00    -0.377 OA
ENDROOT
BRANCH   1   2
ATOM      2  C   UNL A   1      33.031  28.515  26.954  1.00  0.00     0.188 C 
BRANCH   2   3
ATOM      3  C   UNL A   1      33.195  29.994  26.601  1.00  0.00     0.188 C 
BRANCH   3   4
ATOM      4  O   UNL A   1      32.236  30.783  27.284  1.00  0.00    -0.376 OA
BRANCH   4   5
ATOM      5  C   UNL A   1      31.506  31.796  26.617  1.00  0.00     0.202 C 
BRANCH   5   6
ATOM      6  C   UNL A   1      31.992  33.237  26.752  1.00  0.00     0.261 C 
BRANCH   6   7
ATOM      7  O   UNL A   1      32.392  33.668  28.073  1.00  0.00    -0.460 OA
BRANCH   7   8
ATOM      8  C   UNL A   1      33.515  34.295  28.502  1.00  0.00     0.338 C 
ATOM      9  O   UNL A   1      33.534  35.517  28.608  1.00  0.00    -0.246 OA
BRANCH   8  10
ATOM     10  C   UNL A   1      34.733  33.539  28.865  1.00  0.00     0.060 A 
ATOM     11  C   UNL A   1      34.679  32.228  29.300  1.00  0.00     0.016 A 
ATOM     12  C   UNL A   1      35.993  34.103  28.661  1.00  0.00     0.016 A 
ATOM     13  C   UNL A   1      35.770  31.593  29.834  1.00  0.00     0.010 A 
ATOM     14  C   UNL A   1      37.145  33.386  29.011  1.00  0.00     0.010 A 
ATOM     15  C   UNL A   1      37.025  32.151  29.668  1.00  0.00    -0.014 A 
BRANCH  15  16
ATOM     16  C   UNL A   1      38.145  31.447  30.315  1.00  0.00     0.031 A 
ATOM     17  C   UNL A   1      38.353  31.669  31.780  1.00  0.00     0.074 A 
ATOM     18  C   UNL A   1      38.801  30.479  29.643  1.00  0.00     0.049 A 
ATOM     19  N   UNL A   1      39.290  31.210  32.561  1.00  0.00    -0.248 NA
ATOM     20  C   UNL A   1      37.358  32.514  32.467  1.00  0.00     0.031 C 
ATOM     21  C   UNL A   1      38.539  30.082  28.252  1.00  0.00     0.029 A 
ATOM     22  N   UNL A   1      39.778  29.611  30.048  1.00  0.00    -0.354 N 
ATOM     23  C   UNL A   1      39.022  31.744  33.814  1.00  0.00     0.074 A 
ATOM     24  C   UNL A   1      37.846  32.572  33.694  1.00  0.00     0.031 C 
ATOM     25  C   UNL A   1      39.295  29.020  27.943  1.00  0.00     0.029 A 
ATOM     26  C   UNL A   1      40.180  28.742  29.062  1.00  0.00     0.049 A 
ATOM     27  H   UNL A   1      40.155  29.609  30.957  1.00  0.00     0.167 HD
ATOM     28  C   UNL A   1      39.711  31.550  34.959  1.00  0.00     0.037 A 
ATOM     29  C   UNL A   1      41.199  27.863  29.055  1.00  0.00     0.037 A 
ATOM     30  C   UNL A   1      40.869  30.704  35.037  1.00  0.00     0.049 A 
ATOM     31  C   UNL A   1      42.027  27.765  30.307  1.00  0.00     0.074 A 
ATOM     32  C   UNL A   1      41.725  30.497  36.100  1.00  0.00     0.029 A 
ATOM     33  N   UNL A   1      41.324  29.912  33.988  1.00  0.00    -0.354 N 
ATOM     34  N   UNL A   1      41.854  28.367  31.462  1.00  0.00    -0.248 NA
ATOM     35  C   UNL A   1      43.199  26.887  30.255  1.00  0.00     0.031 C 
ATOM     36  C   UNL A   1      42.724  29.612  35.679  1.00  0.00     0.029 A 
ATOM     37  C   UNL A   1      42.457  29.221  34.375  1.00  0.00     0.049 A 
ATOM     38  H   UNL A   1      40.902  29.853  33.101  1.00  0.00     0.167 HD
ATOM     39  C   UNL A   1      42.885  27.932  32.278  1.00  0.00     0.074 A 
ATOM     40  C   UNL A   1      43.657  26.985  31.494  1.00  0.00     0.031 C 
ATOM     41  C   UNL A   1      43.183  28.284  33.553  1.00  0.00     0.037 A 
BRANCH  28  42
ATOM     42  C   UNL A   1      39.265  32.323  36.165  1.00  0.00     0.064 A 
ATOM     43  C   UNL A   1      38.275  31.842  37.035  1.00  0.00     0.173 A 
ATOM     44  C   UNL A   1      39.806  33.591  36.424  1.00  0.00     0.173 A 
ATOM     45  F   UNL A   1      37.694  30.654  36.808  1.00  0.00    -0.203 F 
ATOM     46  C   UNL A   1      37.826  32.613  38.105  1.00  0.00     0.198 A 
ATOM     47  C   UNL A   1      39.376  34.346  37.511  1.00  0.00     0.198 A 
ATOM     48  F   UNL A   1      40.742  34.105  35.612  1.00  0.00    -0.203 F 
ATOM     49  F   UNL A   1      36.834  32.162  38.886  1.00  0.00    -0.200 F 
ATOM     50  C   UNL A   1      38.382  33.862  38.345  1.00  0.00     0.200 A 
ATOM     51  F   UNL A   1      39.914  35.552  37.740  1.00  0.00    -0.200 F 
ATOM     52  F   UNL A   1      37.945  34.605  39.372  1.00  0.00    -0.200 F 
ENDBRANCH  28  42
BRANCH  29  53
ATOM     53  C   UNL A   1      41.550  27.108  27.819  1.00  0.00     0.064 A 
ATOM     54  C   UNL A   1      41.023  25.837  27.557  1.00  0.00     0.173 A 
ATOM     55  C   UNL A   1      42.468  27.629  26.890  1.00  0.00     0.173 A 
ATOM     56  F   UNL A   1      40.155  25.281  28.416  1.00  0.00    -0.203 F 
ATOM     57  C   UNL A   1      41.426  25.103  26.441  1.00  0.00     0.198 A 
ATOM     58  C   UNL A   1      42.838  26.912  25.753  1.00  0.00     0.198 A 
ATOM     59  F   UNL A   1      43.009  28.841  27.083  1.00  0.00    -0.203 F 
ATOM     60  F   UNL A   1      40.959  23.861  26.255  1.00  0.00    -0.200 F 
ATOM     61  C   UNL A   1      42.329  25.643  25.538  1.00  0.00     0.200 A 
ATOM     62  F   UNL A   1      43.697  27.449  24.877  1.00  0.00    -0.200 F 
ATOM     63  F   UNL A   1      42.721  24.934  24.470  1.00  0.00    -0.200 F 
ENDBRANCH  29  53
BRANCH  41  64
ATOM     64  C   UNL A   1      44.369  27.608  34.172  1.00  0.00     0.064 A 
ATOM     65  C   UNL A   1      44.253  26.379  34.835  1.00  0.00     0.173 A 
ATOM     66  C   UNL A   1      45.641  28.192  34.077  1.00  0.00     0.173 A 
ATOM     67  F   UNL A   1      43.052  25.791  34.965  1.00  0.00    -0.203 F 
ATOM     68  C   UNL A   1      45.363  25.776  35.416  1.00  0.00     0.198 A 
ATOM     69  C   UNL A   1      46.755  27.567  34.624  1.00  0.00     0.198 A 
ATOM     70  F   UNL A   1      45.802  29.364  33.444  1.00  0.00    -0.203 F 
ATOM     71  F   UNL A   1      45.219  24.634  36.104  1.00  0.00    -0.200 F 
ATOM     72  C   UNL A   1      46.613  26.367  35.303  1.00  0.00     0.200 A 
ATOM     73  F   UNL A   1      47.964  28.129  34.497  1.00  0.00    -0.200 F 
ATOM     74  F   UNL A   1      47.683  25.782  35.859  1.00  0.00    -0.200 F 
ENDBRANCH  41  64
ENDBRANCH  15  16
ENDBRANCH   8  10
ENDBRANCH   7   8
ENDBRANCH   6   7
ENDBRANCH   5   6
ENDBRANCH   4   5
ENDBRANCH   3   4
ENDBRANCH   2   3
ENDBRANCH   1   2
BRANCH   1  75
ATOM     75  C   UNL A   1      32.822  26.239  26.141  1.00  0.00     0.188 C 
BRANCH  75  76
ATOM     76  C   UNL A   1      31.534  25.369  26.092  1.00  0.00     0.188 C 
BRANCH  76  77
ATOM     77  O   UNL A   1      31.361  24.503  27.199  1.00  0.00    -0.376 OA
BRANCH  77  78
ATOM     78  C   UNL A   1      31.522  23.100  27.054  1.00  0.00     0.202 C 
BRANCH  78  79
ATOM     79  C   UNL A   1      32.864  22.372  27.270  1.00  0.00     0.261 C 
BRANCH  79  80
ATOM     80  O   UNL A   1      33.266  21.460  26.250  1.00  0.00    -0.463 OA
BRANCH  80  81
ATOM     81  C   UNL A   1      34.489  21.644  25.694  1.00  0.00     0.312 C 
ATOM     82  O   UNL A   1      35.557  21.425  26.264  1.00  0.00    -0.252 OA
BRANCH  81  83
ATOM     83  C   UNL A   1      34.346  22.060  24.235  1.00  0.00     0.124 C 
ATOM     84  C   UNL A   1      33.014  21.620  23.728  1.00  0.00    -0.014 C 
ATOM     85  C   UNL A   1      34.305  23.596  24.075  1.00  0.00     0.048 C 
ATOM     86  C   UNL A   1      32.304  22.638  23.230  1.00  0.00    -0.006 C 
ATOM     87  C   UNL A   1      33.043  23.923  23.285  1.00  0.00     0.106 C 
BRANCH  87  88
ATOM     88  N   UNL A   1      33.303  24.516  21.976  1.00  0.00    -0.346 N 
ATOM     89  C   UNL A   1      32.838  25.624  21.306  1.00  0.00     0.253 C 
ATOM     90  H   UNL A   1      33.963  24.007  21.453  1.00  0.00     0.164 HD
ATOM     91  O   UNL A   1      33.064  25.737  20.104  1.00  0.00    -0.269 OA
BRANCH  89  92
ATOM     92  C   UNL A   1      32.133  26.711  22.004  1.00  0.00     0.058 A 
ATOM     93  C   UNL A   1      30.807  26.488  22.400  1.00  0.00     0.017 A 
ATOM     94  C   UNL A   1      32.763  27.912  22.347  1.00  0.00     0.055 A 
ATOM     95  C   UNL A   1      30.065  27.517  22.979  1.00  0.00     0.021 A 
ATOM     96  C   UNL A   1      32.031  28.927  22.973  1.00  0.00     0.041 A 
ATOM     97  Cl  UNL A   1      34.426  28.224  22.001  1.00  0.00    -0.083 Cl
ATOM     98  C   UNL A   1      30.677  28.737  23.249  1.00  0.00     0.042 A 
ATOM     99  Cl  UNL A   1      29.748  30.022  23.916  1.00  0.00    -0.084 Cl
ENDBRANCH  89  92
ENDBRANCH  87  88
ENDBRANCH  81  83
ENDBRANCH  80  81
ENDBRANCH  79  80
ENDBRANCH  78  79
ENDBRANCH  77  78
ENDBRANCH  76  77
ENDBRANCH  75  76
ENDBRANCH   1  75
TORSDOF 22
ENDMDL
MODEL 2
REMARK VINA RESULT:     -10.3      1.272      7.224
REMARK SMILES O=C(OCCOCCOCCOCCOC(=O)[C@H]1C=C[C@H](NC(=O)c2ccc(Cl)cc2Cl)C1)c1ccc(-c2c3nc(c(-c4c(F)c(F)c(F)c(F)c4F)c4ccc([nH]4)c(-c4c(F)c(F)c(F)c(F)c4F)c4nc(c(-c5c(F)c(F)c(F)c(F)c5F)c5ccc2[nH]5)C=C4)C=C3)cc1
REMARK SMILES IDX 9 1 8 2 7 3 6 4 5 5 4 6 3 7 2 8 1 9 34 10 35 11 96 12 36 13
REMARK SMILES IDX 95 14 37 15 38 16 39 17 89 18 40 19 94 20 88 21 90 22 41 23
REMARK SMILES IDX 93 24 87 25 86 26 42 28 74 29 54 30 73 31 55 32 58 33 72 34
REMARK SMILES IDX 91 35 56 36 57 37 71 39 92 40 59 41 43 42 44 43 52 44 45 45
REMARK SMILES IDX 46 46 50 47 53 48 47 49 48 50 51 51 49 52 75 53 76 54 84 55
REMARK SMILES IDX 77 56 78 57 82 58 85 59 79 60 80 61 83 62 81 63 60 64 61 65
REMARK SMILES IDX 69 66 62 67 63 68 67 69 70 70 64 71 65 72 68 73 66 74 10 75
REMARK SMILES IDX 11 76 12 77 13 78 14 79 15 80 16 81 17 82 18 83 19 84 33 85
REMARK SMILES IDX 20 86 21 87 22 88 23 89 24 91 25 92 26 93 31 94 27 95 30 96
REMARK SMILES IDX 32 97 28 98 29 99
REMARK H PARENT 90 27 58 38 22 90
REMARK Flexibility Score: inf
ROOT
ATOM      1  O   UNL A   1      33.163  27.644  25.873  1.00  0.00    -0.377 OA
ENDROOT
BRANCH   1   2
ATOM      2  C   UNL A   1      33.429  28.470  27.007  1.00  0.00     0.188 C 
BRANCH   2   3
ATOM      3  C   UNL A   1      33.719  29.944  26.718  1.00  0.00     0.188 C 
BRANCH   3   4
ATOM      4  O   UNL A   1      32.871  30.782  27.485  1.00  0.00    -0.376 OA
BRANCH   4   5
ATOM      5  C   UNL A   1      31.905  31.614  26.870  1.00  0.00     0.202 C 
BRANCH   5   6
ATOM      6  C   UNL A   1      32.157  33.119  26.858  1.00  0.00     0.261 C 
BRANCH   6   7
ATOM      7  O   UNL A   1      32.331  33.760  28.142  1.00  0.00    -0.460 OA
BRANCH   7   8
ATOM      8  C   UNL A   1      33.298  34.596  28.596  1.00  0.00     0.338 C 
ATOM      9  O   UNL A   1      33.296  35.776  28.262  1.00  0.00    -0.246 OA
BRANCH   8  10
ATOM     10  C   UNL A   1      34.364  34.125  29.506  1.00  0.00     0.060 A 
ATOM     11  C   UNL A   1      35.691  34.462  29.318  1.00  0.00     0.016 A 
ATOM     12  C   UNL A   1      34.034  33.415  30.662  1.00  0.00     0.016 A 
ATOM     13  C   UNL A   1      36.702  33.866  30.025  1.00  0.00     0.010 A 
ATOM     14  C   UNL A   1      35.047  32.965  31.519  1.00  0.00     0.010 A 
ATOM     15  C   UNL A   1      36.393  33.132  31.157  1.00  0.00    -0.014 A 
BRANCH  15  16
ATOM     16  C   UNL A   1      37.520  32.472  31.836  1.00  0.00     0.031 A 
ATOM     17  C   UNL A   1      38.277  31.430  31.075  1.00  0.00     0.074 A 
ATOM     18  C   UNL A   1      37.968  32.959  33.011  1.00  0.00     0.049 A 
ATOM     19  N   UNL A   1      39.265  30.675  31.465  1.00  0.00    -0.248 NA
ATOM     20  C   UNL A   1      37.875  31.217  29.672  1.00  0.00     0.031 C 
ATOM     21  C   UNL A   1      37.383  34.094  33.740  1.00  0.00     0.029 A 
ATOM     22  N   UNL A   1      39.050  32.611  33.772  1.00  0.00    -0.354 N 
ATOM     23  C   UNL A   1      39.572  29.873  30.375  1.00  0.00     0.074 A 
ATOM     24  C   UNL A   1      38.662  30.217  29.309  1.00  0.00     0.031 C 
ATOM     25  C   UNL A   1      38.142  34.376  34.807  1.00  0.00     0.029 A 
ATOM     26  C   UNL A   1      39.189  33.372  34.908  1.00  0.00     0.049 A 
ATOM     27  H   UNL A   1      39.670  31.885  33.529  1.00  0.00     0.167 HD
ATOM     28  C   UNL A   1      40.537  28.933  30.286  1.00  0.00     0.037 A 
ATOM     29  C   UNL A   1      40.034  33.224  35.944  1.00  0.00     0.037 A 
ATOM     30  C   UNL A   1      41.432  28.632  31.369  1.00  0.00     0.049 A 
ATOM     31  C   UNL A   1      41.013  32.084  35.870  1.00  0.00     0.074 A 
ATOM     32  C   UNL A   1      42.385  27.637  31.459  1.00  0.00     0.029 A 
ATOM     33  N   UNL A   1      41.480  29.351  32.559  1.00  0.00    -0.354 N 
ATOM     34  N   UNL A   1      41.223  31.236  34.889  1.00  0.00    -0.248 NA
ATOM     35  C   UNL A   1      41.857  31.863  37.048  1.00  0.00     0.031 C 
ATOM     36  C   UNL A   1      42.980  27.727  32.723  1.00  0.00     0.029 A 
ATOM     37  C   UNL A   1      42.441  28.814  33.396  1.00  0.00     0.049 A 
ATOM     38  H   UNL A   1      40.914  30.127  32.773  1.00  0.00     0.167 HD
ATOM     39  C   UNL A   1      42.230  30.391  35.323  1.00  0.00     0.074 A 
ATOM     40  C   UNL A   1      42.613  30.853  36.644  1.00  0.00     0.031 C 
ATOM     41  C   UNL A   1      42.786  29.320  34.701  1.00  0.00     0.037 A 
BRANCH  28  42
ATOM     42  C   UNL A   1      40.600  28.135  29.018  1.00  0.00     0.064 A 
ATOM     43  C   UNL A   1      41.375  28.539  27.920  1.00  0.00     0.173 A 
ATOM     44  C   UNL A   1      39.830  26.970  28.884  1.00  0.00     0.173 A 
ATOM     45  F   UNL A   1      42.096  29.669  27.981  1.00  0.00    -0.203 F 
ATOM     46  C   UNL A   1      41.357  27.819  26.727  1.00  0.00     0.198 A 
ATOM     47  C   UNL A   1      39.838  26.236  27.701  1.00  0.00     0.198 A 
ATOM     48  F   UNL A   1      39.057  26.550  29.897  1.00  0.00    -0.203 F 
ATOM     49  F   UNL A   1      42.054  28.259  25.670  1.00  0.00    -0.200 F 
ATOM     50  C   UNL A   1      40.593  26.665  26.622  1.00  0.00     0.200 A 
ATOM     51  F   UNL A   1      39.099  25.123  27.601  1.00  0.00    -0.200 F 
ATOM     52  F   UNL A   1      40.573  25.977  25.472  1.00  0.00    -0.200 F 
ENDBRANCH  28  42
BRANCH  29  53
ATOM     53  C   UNL A   1      39.923  34.088  37.153  1.00  0.00     0.064 A 
ATOM     54  C   UNL A   1      39.072  33.760  38.217  1.00  0.00     0.173 A 
ATOM     55  C   UNL A   1      40.637  35.296  37.247  1.00  0.00     0.173 A 
ATOM     56  F   UNL A   1      38.353  32.629  38.176  1.00  0.00    -0.203 F 
ATOM     57  C   UNL A   1      38.911  34.620  39.304  1.00  0.00     0.198 A 
ATOM     58  C   UNL A   1      40.507  36.133  38.352  1.00  0.00     0.198 A 
ATOM     59  F   UNL A   1      41.468  35.666  36.261  1.00  0.00    -0.203 F 
ATOM     60  F   UNL A   1      38.037  34.314  40.272  1.00  0.00    -0.200 F 
ATOM     61  C   UNL A   1      39.631  35.803  39.373  1.00  0.00     0.200 A 
ATOM     62  F   UNL A   1      41.220  37.264  38.420  1.00  0.00    -0.200 F 
ATOM     63  F   UNL A   1      39.470  36.631  40.414  1.00  0.00    -0.200 F 
ENDBRANCH  29  53
BRANCH  41  64
ATOM     64  C   UNL A   1      43.885  28.618  35.439  1.00  0.00     0.064 A 
ATOM     65  C   UNL A   1      43.618  27.592  36.356  1.00  0.00     0.173 A 
ATOM     66  C   UNL A   1      45.223  28.964  35.204  1.00  0.00     0.173 A 
ATOM     67  F   UNL A   1      42.351  27.238  36.625  1.00  0.00    -0.203 F 
ATOM     68  C   UNL A   1      44.651  26.963  37.041  1.00  0.00     0.198 A 
ATOM     69  C   UNL A   1      46.256  28.306  35.861  1.00  0.00     0.198 A 
ATOM     70  F   UNL A   1      45.528  29.934  34.328  1.00  0.00    -0.203 F 
ATOM     71  F   UNL A   1      44.371  26.032  37.963  1.00  0.00    -0.200 F 
ATOM     72  C   UNL A   1      45.969  27.316  36.788  1.00  0.00     0.200 A 
ATOM     73  F   UNL A   1      47.528  28.634  35.600  1.00  0.00    -0.200 F 
ATOM     74  F   UNL A   1      46.964  26.706  37.445  1.00  0.00    -0.200 F 
ENDBRANCH  41  64
ENDBRANCH  15  16
ENDBRANCH   8  10
ENDBRANCH   7   8
ENDBRANCH   6   7
ENDBRANCH   5   6
ENDBRANCH   4   5
ENDBRANCH   3   4
ENDBRANCH   2   3
ENDBRANCH   1   2
BRANCH   1  75
ATOM     75  C   UNL A   1      32.950  26.259  26.131  1.00  0.00     0.188 C 
BRANCH  75  76
ATOM     76  C   UNL A   1      31.499  25.705  26.201  1.00  0.00     0.188 C 
BRANCH  76  77
ATOM     77  O   UNL A   1      31.291  24.711  27.187  1.00  0.00    -0.376 OA
BRANCH  77  78
ATOM     78  C   UNL A   1      31.474  23.336  26.882  1.00  0.00     0.202 C 
BRANCH  78  79
ATOM     79  C   UNL A   1      32.754  22.551  27.237  1.00  0.00     0.261 C 
BRANCH  79  80
ATOM     80  O   UNL A   1      33.170  21.556  26.303  1.00  0.00    -0.463 OA
BRANCH  80  81
ATOM     81  C   UNL A   1      34.403  21.690  25.755  1.00  0.00     0.312 C 
ATOM     82  O   UNL A   1      35.458  21.449  26.339  1.00  0.00    -0.252 OA
BRANCH  81  83
ATOM     83  C   UNL A   1      34.286  22.084  24.287  1.00  0.00     0.124 C 
ATOM     84  C   UNL A   1      32.992  21.575  23.746  1.00  0.00    -0.014 C 
ATOM     85  C   UNL A   1      34.177  23.614  24.108  1.00  0.00     0.048 C 
ATOM     86  C   UNL A   1      32.251  22.553  23.214  1.00  0.00    -0.006 C 
ATOM     87  C   UNL A   1      32.926  23.872  23.275  1.00  0.00     0.106 C 
BRANCH  87  88
ATOM     88  N   UNL A   1      33.198  24.463  21.968  1.00  0.00    -0.346 N 
ATOM     89  C   UNL A   1      32.770  25.591  21.308  1.00  0.00     0.253 C 
ATOM     90  H   UNL A   1      33.835  23.932  21.437  1.00  0.00     0.164 HD
ATOM     91  O   UNL A   1      32.991  25.702  20.105  1.00  0.00    -0.269 OA
BRANCH  89  92
ATOM     92  C   UNL A   1      32.111  26.700  22.017  1.00  0.00     0.058 A 
ATOM     93  C   UNL A   1      30.775  26.532  22.404  1.00  0.00     0.017 A 
ATOM     94  C   UNL A   1      32.793  27.867  22.378  1.00  0.00     0.055 A 
ATOM     95  C   UNL A   1      30.077  27.585  22.994  1.00  0.00     0.021 A 
ATOM     96  C   UNL A   1      32.104  28.905  23.015  1.00  0.00     0.041 A 
ATOM     97  Cl  UNL A   1      34.470  28.108  22.043  1.00  0.00    -0.083 Cl
ATOM     98  C   UNL A   1      30.742  28.773  23.282  1.00  0.00     0.042 A 
ATOM     99  Cl  UNL A   1      29.868  30.089  23.963  1.00  0.00    -0.084 Cl
ENDBRANCH  89  92
ENDBRANCH  87  88
ENDBRANCH  81  83
ENDBRANCH  80  81
ENDBRANCH  79  80
ENDBRANCH  78  79
ENDBRANCH  77  78
ENDBRANCH  76  77
ENDBRANCH  75  76
ENDBRANCH   1  75
TORSDOF 22
ENDMDL
MODEL 3
REMARK VINA RESULT:     -10.2      1.717      3.971
REMARK SMILES O=C(OCCOCCOCCOCCOC(=O)[C@H]1C=C[C@H](NC(=O)c2ccc(Cl)cc2Cl)C1)c1ccc(-c2c3nc(c(-c4c(F)c(F)c(F)c(F)c4F)c4ccc([nH]4)c(-c4c(F)c(F)c(F)c(F)c4F)c4nc(c(-c5c(F)c(F)c(F)c(F)c5F)c5ccc2[nH]5)C=C4)C=C3)cc1
REMARK SMILES IDX 9 1 8 2 7 3 6 4 5 5 4 6 3 7 2 8 1 9 34 10 35 11 96 12 36 13
REMARK SMILES IDX 95 14 37 15 38 16 39 17 89 18 40 19 94 20 88 21 90 22 41 23
REMARK SMILES IDX 93 24 87 25 86 26 42 28 74 29 54 30 73 31 55 32 58 33 72 34
REMARK SMILES IDX 91 35 56 36 57 37 71 39 92 40 59 41 43 42 44 43 52 44 45 45
REMARK SMILES IDX 46 46 50 47 53 48 47 49 48 50 51 51 49 52 75 53 76 54 84 55
REMARK SMILES IDX 77 56 78 57 82 58 85 59 79 60 80 61 83 62 81 63 60 64 61 65
REMARK SMILES IDX 69 66 62 67 63 68 67 69 70 70 64 71 65 72 68 73 66 74 10 75
REMARK SMILES IDX 11 76 12 77 13 78 14 79 15 80 16 81 17 82 18 83 19 84 33 85
REMARK SMILES IDX 20 86 21 87 22 88 23 89 24 91 25 92 26 93 31 94 27 95 30 96
REMARK SMILES IDX 32 97 28 98 29 99
REMARK H PARENT 90 27 58 38 22 90
REMARK Flexibility Score: inf
ROOT
ATOM      1  O   UNL A   1      33.801  27.941  25.180  1.00  0.00    -0.377 OA
ENDROOT
BRANCH   1   2
ATOM      2  C   UNL A   1      33.119  28.530  26.288  1.00  0.00     0.188 C 
BRANCH   2   3
ATOM      3  C   UNL A   1      33.333  30.031  26.495  1.00  0.00     0.188 C 
BRANCH   3   4
ATOM      4  O   UNL A   1      32.243  30.601  27.199  1.00  0.00    -0.376 OA
BRANCH   4   5
ATOM      5  C   UNL A   1      31.447  31.620  26.623  1.00  0.00     0.202 C 
BRANCH   5   6
ATOM      6  C   UNL A   1      31.959  33.057  26.697  1.00  0.00     0.261 C 
BRANCH   6   7
ATOM      7  O   UNL A   1      32.340  33.546  28.003  1.00  0.00    -0.460 OA
BRANCH   7   8
ATOM      8  C   UNL A   1      33.451  34.202  28.418  1.00  0.00     0.338 C 
ATOM      9  O   UNL A   1      33.454  35.427  28.481  1.00  0.00    -0.246 OA
BRANCH   8  10
ATOM     10  C   UNL A   1      34.676  33.475  28.817  1.00  0.00     0.060 A 
ATOM     11  C   UNL A   1      34.649  32.145  29.190  1.00  0.00     0.016 A 
ATOM     12  C   UNL A   1      35.923  34.094  28.710  1.00  0.00     0.016 A 
ATOM     13  C   UNL A   1      35.733  31.526  29.758  1.00  0.00     0.010 A 
ATOM     14  C   UNL A   1      37.080  33.404  29.094  1.00  0.00     0.010 A 
ATOM     15  C   UNL A   1      36.972  32.137  29.688  1.00  0.00    -0.014 A 
BRANCH  15  16
ATOM     16  C   UNL A   1      38.081  31.445  30.367  1.00  0.00     0.031 A 
ATOM     17  C   UNL A   1      38.237  31.659  31.840  1.00  0.00     0.074 A 
ATOM     18  C   UNL A   1      38.775  30.493  29.710  1.00  0.00     0.049 A 
ATOM     19  N   UNL A   1      39.156  31.209  32.648  1.00  0.00    -0.248 NA
ATOM     20  C   UNL A   1      37.208  32.484  32.499  1.00  0.00     0.031 C 
ATOM     21  C   UNL A   1      38.564  30.102  28.308  1.00  0.00     0.029 A 
ATOM     22  N   UNL A   1      39.751  29.636  30.140  1.00  0.00    -0.354 N 
ATOM     23  C   UNL A   1      38.839  31.729  33.894  1.00  0.00     0.074 A 
ATOM     24  C   UNL A   1      37.655  32.540  33.742  1.00  0.00     0.031 C 
ATOM     25  C   UNL A   1      39.346  29.054  28.017  1.00  0.00     0.029 A 
ATOM     26  C   UNL A   1      40.199  28.781  29.162  1.00  0.00     0.049 A 
ATOM     27  H   UNL A   1      40.098  29.634  31.061  1.00  0.00     0.167 HD
ATOM     28  C   UNL A   1      39.492  31.537  35.061  1.00  0.00     0.037 A 
ATOM     29  C   UNL A   1      41.231  27.919  29.182  1.00  0.00     0.037 A 
ATOM     30  C   UNL A   1      40.660  30.708  35.170  1.00  0.00     0.049 A 
ATOM     31  C   UNL A   1      42.019  27.824  30.460  1.00  0.00     0.074 A 
ATOM     32  C   UNL A   1      41.484  30.506  36.259  1.00  0.00     0.029 A 
ATOM     33  N   UNL A   1      41.162  29.932  34.131  1.00  0.00    -0.354 N 
ATOM     34  N   UNL A   1      41.799  28.414  31.613  1.00  0.00    -0.248 NA
ATOM     35  C   UNL A   1      43.206  26.964  30.441  1.00  0.00     0.031 C 
ATOM     36  C   UNL A   1      42.511  29.640  35.866  1.00  0.00     0.029 A 
ATOM     37  C   UNL A   1      42.293  29.255  34.550  1.00  0.00     0.049 A 
ATOM     38  H   UNL A   1      40.770  29.873  33.230  1.00  0.00     0.167 HD
ATOM     39  C   UNL A   1      42.809  27.989  32.459  1.00  0.00     0.074 A 
ATOM     40  C   UNL A   1      43.621  27.060  31.694  1.00  0.00     0.031 C 
ATOM     41  C   UNL A   1      43.060  28.336  33.746  1.00  0.00     0.037 A 
BRANCH  28  42
ATOM     42  C   UNL A   1      38.995  32.294  36.256  1.00  0.00     0.064 A 
ATOM     43  C   UNL A   1      39.421  33.600  36.541  1.00  0.00     0.173 A 
ATOM     44  C   UNL A   1      38.114  31.679  37.158  1.00  0.00     0.173 A 
ATOM     45  F   UNL A   1      40.297  34.217  35.734  1.00  0.00    -0.203 F 
ATOM     46  C   UNL A   1      39.002  34.253  37.699  1.00  0.00     0.198 A 
ATOM     47  C   UNL A   1      37.673  32.346  38.298  1.00  0.00     0.198 A 
ATOM     48  F   UNL A   1      37.691  30.425  36.942  1.00  0.00    -0.203 F 
ATOM     49  F   UNL A   1      39.471  35.475  37.985  1.00  0.00    -0.200 F 
ATOM     50  C   UNL A   1      38.123  33.627  38.572  1.00  0.00     0.200 A 
ATOM     51  F   UNL A   1      36.826  31.739  39.140  1.00  0.00    -0.200 F 
ATOM     52  F   UNL A   1      37.725  34.255  39.688  1.00  0.00    -0.200 F 
ENDBRANCH  28  42
BRANCH  29  53
ATOM     53  C   UNL A   1      41.634  27.178  27.953  1.00  0.00     0.064 A 
ATOM     54  C   UNL A   1      42.484  27.747  26.995  1.00  0.00     0.173 A 
ATOM     55  C   UNL A   1      41.134  25.891  27.687  1.00  0.00     0.173 A 
ATOM     56  F   UNL A   1      42.979  28.979  27.187  1.00  0.00    -0.203 F 
ATOM     57  C   UNL A   1      42.785  27.079  25.808  1.00  0.00     0.198 A 
ATOM     58  C   UNL A   1      41.468  25.208  26.520  1.00  0.00     0.198 A 
ATOM     59  F   UNL A   1      40.316  25.291  28.565  1.00  0.00    -0.203 F 
ATOM     60  F   UNL A   1      43.541  27.678  24.879  1.00  0.00    -0.200 F 
ATOM     61  C   UNL A   1      42.281  25.809  25.574  1.00  0.00     0.200 A 
ATOM     62  F   UNL A   1      40.993  23.974  26.311  1.00  0.00    -0.200 F 
ATOM     63  F   UNL A   1      42.564  25.171  24.430  1.00  0.00    -0.200 F 
ENDBRANCH  29  53
BRANCH  41  64
ATOM     64  C   UNL A   1      44.235  27.674  34.399  1.00  0.00     0.064 A 
ATOM     65  C   UNL A   1      45.508  28.261  34.395  1.00  0.00     0.173 A 
ATOM     66  C   UNL A   1      44.075  26.445  35.056  1.00  0.00     0.173 A 
ATOM     67  F   UNL A   1      45.711  29.429  33.764  1.00  0.00    -0.203 F 
ATOM     68  C   UNL A   1      46.588  27.622  34.993  1.00  0.00     0.198 A 
ATOM     69  C   UNL A   1      45.149  25.828  35.687  1.00  0.00     0.198 A 
ATOM     70  F   UNL A   1      42.873  25.848  35.093  1.00  0.00    -0.203 F 
ATOM     71  F   UNL A   1      47.810  28.169  34.920  1.00  0.00    -0.200 F 
ATOM     72  C   UNL A   1      46.406  26.411  35.644  1.00  0.00     0.200 A 
ATOM     73  F   UNL A   1      44.967  24.669  36.332  1.00  0.00    -0.200 F 
ATOM     74  F   UNL A   1      47.447  25.799  36.224  1.00  0.00    -0.200 F 
ENDBRANCH  41  64
ENDBRANCH  15  16
ENDBRANCH   8  10
ENDBRANCH   7   8
ENDBRANCH   6   7
ENDBRANCH   5   6
ENDBRANCH   4   5
ENDBRANCH   3   4
ENDBRANCH   2   3
ENDBRANCH   1   2
BRANCH   1  75
ATOM     75  C   UNL A   1      34.172  26.572  25.315  1.00  0.00     0.188 C 
BRANCH  75  76
ATOM     76  C   UNL A   1      33.973  25.602  24.117  1.00  0.00     0.188 C 
BRANCH  76  77
ATOM     77  O   UNL A   1      34.090  26.203  22.840  1.00  0.00    -0.376 OA
BRANCH  77  78
ATOM     78  C   UNL A   1      32.940  26.447  22.045  1.00  0.00     0.202 C 
BRANCH  78  79
ATOM     79  C   UNL A   1      32.038  27.687  22.212  1.00  0.00     0.261 C 
BRANCH  79  80
ATOM     80  O   UNL A   1      30.633  27.473  22.101  1.00  0.00    -0.463 OA
BRANCH  80  81
ATOM     81  C   UNL A   1      29.848  27.930  23.108  1.00  0.00     0.312 C 
ATOM     82  O   UNL A   1      29.483  29.097  23.236  1.00  0.00    -0.252 OA
BRANCH  81  83
ATOM     83  C   UNL A   1      29.406  26.773  23.996  1.00  0.00     0.124 C 
ATOM     84  C   UNL A   1      29.533  25.496  23.236  1.00  0.00    -0.014 C 
ATOM     85  C   UNL A   1      30.355  26.575  25.198  1.00  0.00     0.048 C 
ATOM     86  C   UNL A   1      30.304  24.607  23.871  1.00  0.00    -0.006 C 
ATOM     87  C   UNL A   1      30.798  25.116  25.174  1.00  0.00     0.106 C 
BRANCH  87  88
ATOM     88  N   UNL A   1      30.345  24.342  26.326  1.00  0.00    -0.346 N 
ATOM     89  C   UNL A   1      30.547  23.055  26.768  1.00  0.00     0.253 C 
ATOM     90  H   UNL A   1      29.761  24.860  26.926  1.00  0.00     0.164 HD
ATOM     91  O   UNL A   1      29.830  22.607  27.659  1.00  0.00    -0.269 OA
BRANCH  89  92
ATOM     92  C   UNL A   1      31.641  22.220  26.245  1.00  0.00     0.058 A 
ATOM     93  C   UNL A   1      31.426  21.527  25.047  1.00  0.00     0.017 A 
ATOM     94  C   UNL A   1      32.896  22.162  26.862  1.00  0.00     0.055 A 
ATOM     95  C   UNL A   1      32.395  20.650  24.559  1.00  0.00     0.021 A 
ATOM     96  C   UNL A   1      33.886  21.319  26.344  1.00  0.00     0.041 A 
ATOM     97  Cl  UNL A   1      33.283  23.074  28.276  1.00  0.00    -0.083 Cl
ATOM     98  C   UNL A   1      33.615  20.539  25.220  1.00  0.00     0.042 A 
ATOM     99  Cl  UNL A   1      34.789  19.420  24.648  1.00  0.00    -0.084 Cl
ENDBRANCH  89  92
ENDBRANCH  87  88
ENDBRANCH  81  83
ENDBRANCH  80  81
ENDBRANCH  79  80
ENDBRANCH  78  79
ENDBRANCH  77  78
ENDBRANCH  76  77
ENDBRANCH  75  76
ENDBRANCH   1  75
TORSDOF 22
ENDMDL
