MODEL 1
REMARK VINA RESULT:      -9.6      0.000      0.000
REMARK SMILES CO[C@H]1C[C@@H](C(=O)OCCOCCOCCOCCOC(=O)c2ccc(-c3c4nc(c(-c5c(F)c(F)c(F)c(F)c5F)c5ccc([nH]5)c(-c5c(F)c(F)c(F)c(F)c5F)c5nc(c(-c6c(F)c(F)c(F)c(F)c6F)c6ccc3[nH]6)C=C5)C=C4)cc2)N(C(=O)CSc2cccs2)C1
REMARK SMILES IDX 13 1 12 2 11 3 10 4 9 5 8 6 6 7 7 8 5 9 3 10 4 11 96 12
REMARK SMILES IDX 86 13 2 14 1 15 87 16 88 17 89 18 90 19 91 20 92 21 95 22
REMARK SMILES IDX 93 23 94 24 14 25 15 26 16 27 17 28 18 29 19 30 20 31 21 32
REMARK SMILES IDX 22 33 23 34 24 35 85 36 25 37 84 38 26 39 27 40 28 41 78 42
REMARK SMILES IDX 29 43 83 44 77 45 79 46 30 47 82 48 76 49 75 50 31 52 63 53
REMARK SMILES IDX 43 54 62 55 44 56 47 57 61 58 80 59 45 60 46 61 60 63 81 64
REMARK SMILES IDX 48 65 32 66 33 67 41 68 34 69 35 70 39 71 42 72 36 73 37 74
REMARK SMILES IDX 40 75 38 76 64 77 65 78 73 79 66 80 67 81 71 82 74 83 68 84
REMARK SMILES IDX 69 85 72 86 70 87 49 88 50 89 58 90 51 91 52 92 56 93 59 94
REMARK SMILES IDX 53 95 54 96 57 97 55 98
REMARK H PARENT 79 51 47 62
REMARK Flexibility Score: inf
ROOT
ATOM      1  C   UNL A   1      33.135  20.205  25.318  1.00  0.00     0.188 C 
ENDROOT
BRANCH   1   2
ATOM      2  C   UNL A   1      33.710  21.061  26.480  1.00  0.00     0.188 C 
BRANCH   2   3
ATOM      3  O   UNL A   1      33.406  22.444  26.427  1.00  0.00    -0.376 OA
BRANCH   3   4
ATOM      4  C   UNL A   1      32.438  22.924  27.340  1.00  0.00     0.202 C 
BRANCH   4   5
ATOM      5  C   UNL A   1      31.180  23.506  26.695  1.00  0.00     0.261 C 
BRANCH   5   6
ATOM      6  O   UNL A   1      31.077  24.942  26.731  1.00  0.00    -0.462 OA
BRANCH   6   7
ATOM      7  C   UNL A   1      30.510  25.568  25.665  1.00  0.00     0.329 C 
ATOM      8  O   UNL A   1      29.302  25.715  25.534  1.00  0.00    -0.250 OA
BRANCH   7   9
ATOM      9  C   UNL A   1      31.552  25.981  24.595  1.00  0.00     0.197 C 
ATOM     10  C   UNL A   1      32.847  25.119  22.767  1.00  0.00     0.140 C 
ATOM     11  C   UNL A   1      31.858  24.677  23.823  1.00  0.00     0.071 C 
ATOM     12  C   UNL A   1      33.718  26.093  23.552  1.00  0.00     0.152 C 
ATOM     13  N   UNL A   1      32.918  26.582  24.689  1.00  0.00    -0.325 N 
BRANCH  10  14
ATOM     14  O   UNL A   1      33.614  24.029  22.278  1.00  0.00    -0.380 OA
ATOM     15  C   UNL A   1      33.017  22.771  22.559  1.00  0.00     0.195 C 
ENDBRANCH  10  14
BRANCH  13  16
ATOM     16  C   UNL A   1      33.392  27.766  25.240  1.00  0.00     0.233 C 
ATOM     17  O   UNL A   1      33.920  27.754  26.363  1.00  0.00    -0.274 OA
BRANCH  16  18
ATOM     18  C   UNL A   1      33.082  29.128  24.662  1.00  0.00     0.175 C 
BRANCH  18  19
ATOM     19  S   UNL A   1      31.698  29.998  25.387  1.00  0.00    -0.105 SA
BRANCH  19  20
ATOM     20  C   UNL A   1      30.591  30.027  24.047  1.00  0.00     0.060 A 
ATOM     21  C   UNL A   1      29.410  30.730  23.993  1.00  0.00     0.027 A 
ATOM     22  S   UNL A   1      30.870  29.108  22.640  1.00  0.00    -0.137 S 
ATOM     23  C   UNL A   1      28.716  30.501  22.770  1.00  0.00     0.013 A 
ATOM     24  C   UNL A   1      29.403  29.639  21.944  1.00  0.00     0.066 A 
ENDBRANCH  19  20
ENDBRANCH  18  19
ENDBRANCH  16  18
ENDBRANCH  13  16
ENDBRANCH   7   9
ENDBRANCH   6   7
ENDBRANCH   5   6
ENDBRANCH   4   5
ENDBRANCH   3   4
ENDBRANCH   2   3
ENDBRANCH   1   2
BRANCH   1  25
ATOM     25  O   UNL A   1      33.957  19.656  24.296  1.00  0.00    -0.377 OA
BRANCH  25  26
ATOM     26  C   UNL A   1      34.788  18.554  24.614  1.00  0.00     0.188 C 
BRANCH  26  27
ATOM     27  C   UNL A   1      36.298  18.844  24.762  1.00  0.00     0.188 C 
BRANCH  27  28
ATOM     28  O   UNL A   1      36.593  20.209  24.987  1.00  0.00    -0.376 OA
BRANCH  28  29
ATOM     29  C   UNL A   1      37.924  20.679  24.990  1.00  0.00     0.202 C 
BRANCH  29  30
ATOM     30  C   UNL A   1      39.072  19.886  25.633  1.00  0.00     0.261 C 
BRANCH  30  31
ATOM     31  O   UNL A   1      40.291  20.580  25.897  1.00  0.00    -0.460 OA
BRANCH  31  32
ATOM     32  C   UNL A   1      40.725  20.616  27.179  1.00  0.00     0.338 C 
ATOM     33  O   UNL A   1      41.024  19.683  27.885  1.00  0.00    -0.246 OA
BRANCH  32  34
ATOM     34  C   UNL A   1      40.966  22.042  27.492  1.00  0.00     0.060 A 
ATOM     35  C   UNL A   1      40.195  23.025  26.856  1.00  0.00     0.016 A 
ATOM     36  C   UNL A   1      41.903  22.392  28.467  1.00  0.00     0.016 A 
ATOM     37  C   UNL A   1      40.361  24.367  27.194  1.00  0.00     0.010 A 
ATOM     38  C   UNL A   1      42.100  23.738  28.772  1.00  0.00     0.010 A 
ATOM     39  C   UNL A   1      41.349  24.730  28.118  1.00  0.00    -0.014 A 
BRANCH  39  40
ATOM     40  C   UNL A   1      41.768  26.144  28.220  1.00  0.00     0.031 A 
ATOM     41  C   UNL A   1      43.115  26.508  27.662  1.00  0.00     0.074 A 
ATOM     42  C   UNL A   1      40.984  27.075  28.786  1.00  0.00     0.049 A 
ATOM     43  N   UNL A   1      43.748  27.651  27.691  1.00  0.00    -0.248 NA
ATOM     44  C   UNL A   1      43.849  25.427  26.982  1.00  0.00     0.031 C 
ATOM     45  C   UNL A   1      39.645  26.843  29.319  1.00  0.00     0.029 A 
ATOM     46  N   UNL A   1      41.217  28.407  29.018  1.00  0.00    -0.354 N 
ATOM     47  C   UNL A   1      44.955  27.424  27.045  1.00  0.00     0.074 A 
ATOM     48  C   UNL A   1      44.983  26.030  26.662  1.00  0.00     0.031 C 
ATOM     49  C   UNL A   1      39.179  27.995  29.836  1.00  0.00     0.029 A 
ATOM     50  C   UNL A   1      40.203  29.031  29.701  1.00  0.00     0.049 A 
ATOM     51  H   UNL A   1      42.034  28.870  28.724  1.00  0.00     0.167 HD
ATOM     52  C   UNL A   1      45.949  28.304  26.789  1.00  0.00     0.037 A 
ATOM     53  C   UNL A   1      40.131  30.287  30.183  1.00  0.00     0.037 A 
ATOM     54  C   UNL A   1      45.918  29.686  27.183  1.00  0.00     0.049 A 
ATOM     55  C   UNL A   1      41.290  31.228  29.958  1.00  0.00     0.074 A 
ATOM     56  C   UNL A   1      46.866  30.667  26.963  1.00  0.00     0.029 A 
ATOM     57  N   UNL A   1      44.884  30.277  27.897  1.00  0.00    -0.354 N 
ATOM     58  N   UNL A   1      42.417  31.020  29.321  1.00  0.00    -0.248 NA
ATOM     59  C   UNL A   1      41.164  32.581  30.519  1.00  0.00     0.031 C 
ATOM     60  C   UNL A   1      46.437  31.835  27.598  1.00  0.00     0.029 A 
ATOM     61  C   UNL A   1      45.187  31.604  28.150  1.00  0.00     0.049 A 
ATOM     62  H   UNL A   1      44.059  29.821  28.180  1.00  0.00     0.167 HD
ATOM     63  C   UNL A   1      43.114  32.222  29.369  1.00  0.00     0.074 A 
ATOM     64  C   UNL A   1      42.279  33.157  30.093  1.00  0.00     0.031 C 
ATOM     65  C   UNL A   1      44.334  32.525  28.858  1.00  0.00     0.037 A 
BRANCH  52  66
ATOM     66  C   UNL A   1      47.166  27.785  26.081  1.00  0.00     0.064 A 
ATOM     67  C   UNL A   1      48.271  27.275  26.781  1.00  0.00     0.173 A 
ATOM     68  C   UNL A   1      47.219  27.777  24.679  1.00  0.00     0.173 A 
ATOM     69  F   UNL A   1      48.280  27.277  28.123  1.00  0.00    -0.203 F 
ATOM     70  C   UNL A   1      49.394  26.806  26.104  1.00  0.00     0.198 A 
ATOM     71  C   UNL A   1      48.328  27.274  24.005  1.00  0.00     0.198 A 
ATOM     72  F   UNL A   1      46.191  28.253  23.961  1.00  0.00    -0.203 F 
ATOM     73  F   UNL A   1      50.459  26.375  26.795  1.00  0.00    -0.200 F 
ATOM     74  C   UNL A   1      49.418  26.797  24.717  1.00  0.00     0.200 A 
ATOM     75  F   UNL A   1      48.343  27.255  22.665  1.00  0.00    -0.200 F 
ATOM     76  F   UNL A   1      50.495  26.336  24.067  1.00  0.00    -0.200 F 
ENDBRANCH  52  66
BRANCH  53  77
ATOM     77  C   UNL A   1      38.928  30.729  30.937  1.00  0.00     0.064 A 
ATOM     78  C   UNL A   1      37.825  31.288  30.277  1.00  0.00     0.173 A 
ATOM     79  C   UNL A   1      38.866  30.628  32.336  1.00  0.00     0.173 A 
ATOM     80  F   UNL A   1      37.845  31.431  28.944  1.00  0.00    -0.203 F 
ATOM     81  C   UNL A   1      36.717  31.748  30.987  1.00  0.00     0.198 A 
ATOM     82  C   UNL A   1      37.744  31.058  33.041  1.00  0.00     0.198 A 
ATOM     83  F   UNL A   1      39.896  30.105  33.018  1.00  0.00    -0.203 F 
ATOM     84  F   UNL A   1      35.699  32.326  30.334  1.00  0.00    -0.200 F 
ATOM     85  C   UNL A   1      36.674  31.626  32.367  1.00  0.00     0.200 A 
ATOM     86  F   UNL A   1      37.703  30.926  34.374  1.00  0.00    -0.200 F 
ATOM     87  F   UNL A   1      35.608  32.066  33.048  1.00  0.00    -0.200 F 
ENDBRANCH  53  77
BRANCH  65  88
ATOM     88  C   UNL A   1      44.820  33.940  29.006  1.00  0.00     0.064 A 
ATOM     89  C   UNL A   1      44.503  34.937  28.073  1.00  0.00     0.173 A 
ATOM     90  C   UNL A   1      45.563  34.314  30.137  1.00  0.00     0.173 A 
ATOM     91  F   UNL A   1      43.805  34.630  26.969  1.00  0.00    -0.203 F 
ATOM     92  C   UNL A   1      44.933  36.249  28.253  1.00  0.00     0.198 A 
ATOM     93  C   UNL A   1      45.960  35.633  30.333  1.00  0.00     0.198 A 
ATOM     94  F   UNL A   1      45.886  33.402  31.067  1.00  0.00    -0.203 F 
ATOM     95  F   UNL A   1      44.659  37.175  27.324  1.00  0.00    -0.200 F 
ATOM     96  C   UNL A   1      45.652  36.599  29.387  1.00  0.00     0.200 A 
ATOM     97  F   UNL A   1      46.637  35.971  31.439  1.00  0.00    -0.200 F 
ATOM     98  F   UNL A   1      46.051  37.865  29.565  1.00  0.00    -0.200 F 
ENDBRANCH  65  88
ENDBRANCH  39  40
ENDBRANCH  32  34
ENDBRANCH  31  32
ENDBRANCH  30  31
ENDBRANCH  29  30
ENDBRANCH  28  29
ENDBRANCH  27  28
ENDBRANCH  26  27
ENDBRANCH  25  26
ENDBRANCH   1  25
TORSDOF 25
ENDMDL
MODEL 2
REMARK VINA RESULT:      -9.1      1.320      2.026
REMARK SMILES CO[C@H]1C[C@@H](C(=O)OCCOCCOCCOCCOC(=O)c2ccc(-c3c4nc(c(-c5c(F)c(F)c(F)c(F)c5F)c5ccc([nH]5)c(-c5c(F)c(F)c(F)c(F)c5F)c5nc(c(-c6c(F)c(F)c(F)c(F)c6F)c6ccc3[nH]6)C=C5)C=C4)cc2)N(C(=O)CSc2cccs2)C1
REMARK SMILES IDX 13 1 12 2 11 3 10 4 9 5 8 6 6 7 7 8 5 9 3 10 4 11 96 12
REMARK SMILES IDX 86 13 2 14 1 15 87 16 88 17 89 18 90 19 91 20 92 21 95 22
REMARK SMILES IDX 93 23 94 24 14 25 15 26 16 27 17 28 18 29 19 30 20 31 21 32
REMARK SMILES IDX 22 33 23 34 24 35 85 36 25 37 84 38 26 39 27 40 28 41 78 42
REMARK SMILES IDX 29 43 83 44 77 45 79 46 30 47 82 48 76 49 75 50 31 52 63 53
REMARK SMILES IDX 43 54 62 55 44 56 47 57 61 58 80 59 45 60 46 61 60 63 81 64
REMARK SMILES IDX 48 65 32 66 33 67 41 68 34 69 35 70 39 71 42 72 36 73 37 74
REMARK SMILES IDX 40 75 38 76 64 77 65 78 73 79 66 80 67 81 71 82 74 83 68 84
REMARK SMILES IDX 69 85 72 86 70 87 49 88 50 89 58 90 51 91 52 92 56 93 59 94
REMARK SMILES IDX 53 95 54 96 57 97 55 98
REMARK H PARENT 79 51 47 62
REMARK Flexibility Score: inf
ROOT
ATOM      1  C   UNL A   1      32.183  21.303  25.709  1.00  0.00     0.188 C 
ENDROOT
BRANCH   1   2
ATOM      2  C   UNL A   1      32.676  22.584  26.437  1.00  0.00     0.188 C 
BRANCH   2   3
ATOM      3  O   UNL A   1      32.197  23.808  25.909  1.00  0.00    -0.376 OA
BRANCH   3   4
ATOM      4  C   UNL A   1      30.831  24.106  26.117  1.00  0.00     0.202 C 
BRANCH   4   5
ATOM      5  C   UNL A   1      30.121  24.733  24.916  1.00  0.00     0.261 C 
BRANCH   5   6
ATOM      6  O   UNL A   1      29.458  25.986  25.177  1.00  0.00    -0.462 OA
BRANCH   6   7
ATOM      7  C   UNL A   1      29.544  26.962  24.234  1.00  0.00     0.329 C 
ATOM      8  O   UNL A   1      28.616  27.272  23.499  1.00  0.00    -0.250 OA
BRANCH   7   9
ATOM      9  C   UNL A   1      30.968  27.562  24.129  1.00  0.00     0.197 C 
ATOM     10  C   UNL A   1      32.826  27.802  22.627  1.00  0.00     0.140 C 
ATOM     11  C   UNL A   1      31.452  27.174  22.712  1.00  0.00     0.071 C 
ATOM     12  C   UNL A   1      33.372  27.534  24.025  1.00  0.00     0.152 C 
ATOM     13  N   UNL A   1      32.218  27.354  24.922  1.00  0.00    -0.325 N 
BRANCH  10  14
ATOM     14  O   UNL A   1      33.628  27.177  21.637  1.00  0.00    -0.380 OA
ATOM     15  C   UNL A   1      33.112  25.917  21.231  1.00  0.00     0.195 C 
ENDBRANCH  10  14
BRANCH  13  16
ATOM     16  C   UNL A   1      32.521  27.528  26.267  1.00  0.00     0.233 C 
ATOM     17  O   UNL A   1      33.068  26.609  26.898  1.00  0.00    -0.274 OA
BRANCH  16  18
ATOM     18  C   UNL A   1      32.001  28.684  27.088  1.00  0.00     0.175 C 
BRANCH  18  19
ATOM     19  S   UNL A   1      32.184  30.310  26.367  1.00  0.00    -0.105 SA
BRANCH  19  20
ATOM     20  C   UNL A   1      33.616  30.869  27.179  1.00  0.00     0.060 A 
ATOM     21  C   UNL A   1      33.795  32.116  27.732  1.00  0.00     0.027 A 
ATOM     22  S   UNL A   1      35.000  29.885  27.325  1.00  0.00    -0.137 S 
ATOM     23  C   UNL A   1      35.100  32.267  28.281  1.00  0.00     0.013 A 
ATOM     24  C   UNL A   1      35.857  31.125  28.128  1.00  0.00     0.066 A 
ENDBRANCH  19  20
ENDBRANCH  18  19
ENDBRANCH  16  18
ENDBRANCH  13  16
ENDBRANCH   7   9
ENDBRANCH   6   7
ENDBRANCH   5   6
ENDBRANCH   4   5
ENDBRANCH   3   4
ENDBRANCH   2   3
ENDBRANCH   1   2
BRANCH   1  25
ATOM     25  O   UNL A   1      32.926  20.683  24.668  1.00  0.00    -0.377 OA
BRANCH  25  26
ATOM     26  C   UNL A   1      33.815  19.633  25.003  1.00  0.00     0.188 C 
BRANCH  26  27
ATOM     27  C   UNL A   1      35.323  19.972  25.001  1.00  0.00     0.188 C 
BRANCH  27  28
ATOM     28  O   UNL A   1      35.653  21.086  25.808  1.00  0.00    -0.376 OA
BRANCH  28  29
ATOM     29  C   UNL A   1      36.946  21.651  25.779  1.00  0.00     0.202 C 
BRANCH  29  30
ATOM     30  C   UNL A   1      38.175  20.865  25.298  1.00  0.00     0.261 C 
BRANCH  30  31
ATOM     31  O   UNL A   1      39.458  21.460  25.486  1.00  0.00    -0.460 OA
BRANCH  31  32
ATOM     32  C   UNL A   1      40.026  21.346  26.710  1.00  0.00     0.338 C 
ATOM     33  O   UNL A   1      40.325  20.335  27.297  1.00  0.00    -0.246 OA
BRANCH  32  34
ATOM     34  C   UNL A   1      40.409  22.718  27.114  1.00  0.00     0.060 A 
ATOM     35  C   UNL A   1      39.740  23.813  26.547  1.00  0.00     0.016 A 
ATOM     36  C   UNL A   1      41.374  22.909  28.105  1.00  0.00     0.016 A 
ATOM     37  C   UNL A   1      40.040  25.107  26.971  1.00  0.00     0.010 A 
ATOM     38  C   UNL A   1      41.705  24.205  28.496  1.00  0.00     0.010 A 
ATOM     39  C   UNL A   1      41.057  25.308  27.912  1.00  0.00    -0.014 A 
BRANCH  39  40
ATOM     40  C   UNL A   1      41.616  26.663  28.103  1.00  0.00     0.031 A 
ATOM     41  C   UNL A   1      42.999  26.922  27.577  1.00  0.00     0.074 A 
ATOM     42  C   UNL A   1      40.923  27.632  28.721  1.00  0.00     0.049 A 
ATOM     43  N   UNL A   1      43.744  27.991  27.681  1.00  0.00    -0.248 NA
ATOM     44  C   UNL A   1      43.629  25.816  26.836  1.00  0.00     0.031 C 
ATOM     45  C   UNL A   1      39.561  27.506  29.232  1.00  0.00     0.029 A 
ATOM     46  N   UNL A   1      41.286  28.917  29.037  1.00  0.00    -0.354 N 
ATOM     47  C   UNL A   1      44.930  27.682  27.028  1.00  0.00     0.074 A 
ATOM     48  C   UNL A   1      44.821  26.319  26.560  1.00  0.00     0.031 C 
ATOM     49  C   UNL A   1      39.208  28.665  29.816  1.00  0.00     0.029 A 
ATOM     50  C   UNL A   1      40.332  29.598  29.751  1.00  0.00     0.049 A 
ATOM     51  H   UNL A   1      42.149  29.313  28.776  1.00  0.00     0.167 HD
ATOM     52  C   UNL A   1      46.011  28.471  26.833  1.00  0.00     0.037 A 
ATOM     53  C   UNL A   1      40.382  30.823  30.310  1.00  0.00     0.037 A 
ATOM     54  C   UNL A   1      46.114  29.822  27.312  1.00  0.00     0.049 A 
ATOM     55  C   UNL A   1      41.632  31.654  30.150  1.00  0.00     0.074 A 
ATOM     56  C   UNL A   1      47.159  30.714  27.159  1.00  0.00     0.029 A 
ATOM     57  N   UNL A   1      45.137  30.471  28.055  1.00  0.00    -0.354 N 
ATOM     58  N   UNL A   1      42.740  31.372  29.508  1.00  0.00    -0.248 NA
ATOM     59  C   UNL A   1      41.637  32.976  30.793  1.00  0.00     0.031 C 
ATOM     60  C   UNL A   1      46.843  31.879  27.862  1.00  0.00     0.029 A 
ATOM     61  C   UNL A   1      45.569  31.742  28.391  1.00  0.00     0.049 A 
ATOM     62  H   UNL A   1      44.266  30.084  28.305  1.00  0.00     0.167 HD
ATOM     63  C   UNL A   1      43.555  32.491  29.634  1.00  0.00     0.074 A 
ATOM     64  C   UNL A   1      42.809  33.461  30.410  1.00  0.00     0.031 C 
ATOM     65  C   UNL A   1      44.805  32.700  29.150  1.00  0.00     0.037 A 
BRANCH  52  66
ATOM     66  C   UNL A   1      47.177  27.875  26.101  1.00  0.00     0.064 A 
ATOM     67  C   UNL A   1      48.252  27.279  26.779  1.00  0.00     0.173 A 
ATOM     68  C   UNL A   1      47.210  27.882  24.699  1.00  0.00     0.173 A 
ATOM     69  F   UNL A   1      48.280  27.263  28.121  1.00  0.00    -0.203 F 
ATOM     70  C   UNL A   1      49.329  26.739  26.081  1.00  0.00     0.198 A 
ATOM     71  C   UNL A   1      48.271  27.309  24.003  1.00  0.00     0.198 A 
ATOM     72  F   UNL A   1      46.209  28.439  24.001  1.00  0.00    -0.203 F 
ATOM     73  F   UNL A   1      50.370  26.225  26.750  1.00  0.00    -0.200 F 
ATOM     74  C   UNL A   1      49.334  26.746  24.694  1.00  0.00     0.200 A 
ATOM     75  F   UNL A   1      48.266  27.306  22.663  1.00  0.00    -0.200 F 
ATOM     76  F   UNL A   1      50.365  26.218  24.022  1.00  0.00    -0.200 F 
ENDBRANCH  52  66
BRANCH  53  77
ATOM     77  C   UNL A   1      39.221  31.339  31.083  1.00  0.00     0.064 A 
ATOM     78  C   UNL A   1      38.358  32.300  30.538  1.00  0.00     0.173 A 
ATOM     79  C   UNL A   1      38.964  30.902  32.392  1.00  0.00     0.173 A 
ATOM     80  F   UNL A   1      38.575  32.770  29.301  1.00  0.00    -0.203 F 
ATOM     81  C   UNL A   1      37.298  32.820  31.280  1.00  0.00     0.198 A 
ATOM     82  C   UNL A   1      37.885  31.398  33.119  1.00  0.00     0.198 A 
ATOM     83  F   UNL A   1      39.761  29.985  32.962  1.00  0.00    -0.203 F 
ATOM     84  F   UNL A   1      36.521  33.777  30.753  1.00  0.00    -0.200 F 
ATOM     85  C   UNL A   1      37.058  32.364  32.567  1.00  0.00     0.200 A 
ATOM     86  F   UNL A   1      37.650  30.944  34.358  1.00  0.00    -0.200 F 
ATOM     87  F   UNL A   1      36.037  32.862  33.277  1.00  0.00    -0.200 F 
ENDBRANCH  53  77
BRANCH  65  88
ATOM     88  C   UNL A   1      45.429  34.047  29.388  1.00  0.00     0.064 A 
ATOM     89  C   UNL A   1      45.251  35.117  28.500  1.00  0.00     0.173 A 
ATOM     90  C   UNL A   1      46.166  34.284  30.560  1.00  0.00     0.173 A 
ATOM     91  F   UNL A   1      44.565  34.941  27.360  1.00  0.00    -0.203 F 
ATOM     92  C   UNL A   1      45.808  36.366  28.763  1.00  0.00     0.198 A 
ATOM     93  C   UNL A   1      46.690  35.542  30.838  1.00  0.00     0.198 A 
ATOM     94  F   UNL A   1      46.358  33.298  31.449  1.00  0.00    -0.203 F 
ATOM     95  F   UNL A   1      45.665  37.360  27.876  1.00  0.00    -0.200 F 
ATOM     96  C   UNL A   1      46.518  36.581  29.935  1.00  0.00     0.200 A 
ATOM     97  F   UNL A   1      47.358  35.751  31.980  1.00  0.00    -0.200 F 
ATOM     98  F   UNL A   1      47.040  37.787  30.193  1.00  0.00    -0.200 F 
ENDBRANCH  65  88
ENDBRANCH  39  40
ENDBRANCH  32  34
ENDBRANCH  31  32
ENDBRANCH  30  31
ENDBRANCH  29  30
ENDBRANCH  28  29
ENDBRANCH  27  28
ENDBRANCH  26  27
ENDBRANCH  25  26
ENDBRANCH   1  25
TORSDOF 25
ENDMDL
MODEL 3
REMARK VINA RESULT:      -8.4      5.208     12.317
REMARK SMILES CO[C@H]1C[C@@H](C(=O)OCCOCCOCCOCCOC(=O)c2ccc(-c3c4nc(c(-c5c(F)c(F)c(F)c(F)c5F)c5ccc([nH]5)c(-c5c(F)c(F)c(F)c(F)c5F)c5nc(c(-c6c(F)c(F)c(F)c(F)c6F)c6ccc3[nH]6)C=C5)C=C4)cc2)N(C(=O)CSc2cccs2)C1
REMARK SMILES IDX 13 1 12 2 11 3 10 4 9 5 8 6 6 7 7 8 5 9 3 10 4 11 96 12
REMARK SMILES IDX 86 13 2 14 1 15 87 16 88 17 89 18 90 19 91 20 92 21 95 22
REMARK SMILES IDX 93 23 94 24 14 25 15 26 16 27 17 28 18 29 19 30 20 31 21 32
REMARK SMILES IDX 22 33 23 34 24 35 85 36 25 37 84 38 26 39 27 40 28 41 78 42
REMARK SMILES IDX 29 43 83 44 77 45 79 46 30 47 82 48 76 49 75 50 31 52 63 53
REMARK SMILES IDX 43 54 62 55 44 56 47 57 61 58 80 59 45 60 46 61 60 63 81 64
REMARK SMILES IDX 48 65 32 66 33 67 41 68 34 69 35 70 39 71 42 72 36 73 37 74
REMARK SMILES IDX 40 75 38 76 64 77 65 78 73 79 66 80 67 81 71 82 74 83 68 84
REMARK SMILES IDX 69 85 72 86 70 87 49 88 50 89 58 90 51 91 52 92 56 93 59 94
REMARK SMILES IDX 53 95 54 96 57 97 55 98
REMARK H PARENT 79 51 47 62
REMARK Flexibility Score: inf
ROOT
ATOM      1  C   UNL A   1      39.761  32.704  36.395  1.00  0.00     0.188 C 
ENDROOT
BRANCH   1   2
ATOM      2  C   UNL A   1      38.865  31.490  36.025  1.00  0.00     0.188 C 
BRANCH   2   3
ATOM      3  O   UNL A   1      38.582  31.339  34.645  1.00  0.00    -0.376 OA
BRANCH   3   4
ATOM      4  C   UNL A   1      38.264  32.511  33.923  1.00  0.00     0.202 C 
BRANCH   4   5
ATOM      5  C   UNL A   1      37.767  32.271  32.496  1.00  0.00     0.261 C 
BRANCH   5   6
ATOM      6  O   UNL A   1      36.938  33.314  31.949  1.00  0.00    -0.462 OA
BRANCH   6   7
ATOM      7  C   UNL A   1      35.652  33.005  31.631  1.00  0.00     0.329 C 
ATOM      8  O   UNL A   1      35.126  31.935  31.914  1.00  0.00    -0.250 OA
BRANCH   7   9
ATOM      9  C   UNL A   1      34.966  34.110  30.790  1.00  0.00     0.197 C 
ATOM     10  C   UNL A   1      33.501  36.004  30.969  1.00  0.00     0.140 C 
ATOM     11  C   UNL A   1      34.128  34.915  31.811  1.00  0.00     0.071 C 
ATOM     12  C   UNL A   1      33.143  35.240  29.699  1.00  0.00     0.152 C 
ATOM     13  N   UNL A   1      34.027  34.064  29.628  1.00  0.00    -0.325 N 
BRANCH  10  14
ATOM     14  O   UNL A   1      32.341  36.541  31.585  1.00  0.00    -0.380 OA
ATOM     15  C   UNL A   1      31.656  35.588  32.386  1.00  0.00     0.195 C 
ENDBRANCH  10  14
BRANCH  13  16
ATOM     16  C   UNL A   1      34.128  33.515  28.355  1.00  0.00     0.233 C 
ATOM     17  O   UNL A   1      34.271  34.261  27.373  1.00  0.00    -0.274 OA
BRANCH  16  18
ATOM     18  C   UNL A   1      33.826  32.065  28.055  1.00  0.00     0.175 C 
BRANCH  18  19
ATOM     19  S   UNL A   1      32.499  31.758  26.896  1.00  0.00    -0.105 SA
BRANCH  19  20
ATOM     20  C   UNL A   1      32.530  30.021  26.817  1.00  0.00     0.060 A 
ATOM     21  C   UNL A   1      31.739  29.167  27.551  1.00  0.00     0.027 A 
ATOM     22  S   UNL A   1      33.625  29.193  25.809  1.00  0.00    -0.137 S 
ATOM     23  C   UNL A   1      32.047  27.803  27.282  1.00  0.00     0.013 A 
ATOM     24  C   UNL A   1      33.054  27.677  26.351  1.00  0.00     0.066 A 
ENDBRANCH  19  20
ENDBRANCH  18  19
ENDBRANCH  16  18
ENDBRANCH  13  16
ENDBRANCH   7   9
ENDBRANCH   6   7
ENDBRANCH   5   6
ENDBRANCH   4   5
ENDBRANCH   3   4
ENDBRANCH   2   3
ENDBRANCH   1   2
BRANCH   1  25
ATOM     25  O   UNL A   1      39.369  33.679  37.352  1.00  0.00    -0.377 OA
BRANCH  25  26
ATOM     26  C   UNL A   1      40.077  34.905  37.398  1.00  0.00     0.188 C 
BRANCH  26  27
ATOM     27  C   UNL A   1      40.336  35.609  36.048  1.00  0.00     0.188 C 
BRANCH  27  28
ATOM     28  O   UNL A   1      41.558  36.320  36.005  1.00  0.00    -0.376 OA
BRANCH  28  29
ATOM     29  C   UNL A   1      42.315  36.401  34.816  1.00  0.00     0.202 C 
BRANCH  29  30
ATOM     30  C   UNL A   1      43.375  35.353  34.446  1.00  0.00     0.261 C 
BRANCH  30  31
ATOM     31  O   UNL A   1      44.662  35.824  34.047  1.00  0.00    -0.460 OA
BRANCH  31  32
ATOM     32  C   UNL A   1      44.843  36.113  32.737  1.00  0.00     0.338 C 
ATOM     33  O   UNL A   1      45.047  37.194  32.239  1.00  0.00    -0.246 OA
BRANCH  32  34
ATOM     34  C   UNL A   1      44.952  34.812  32.040  1.00  0.00     0.060 A 
ATOM     35  C   UNL A   1      44.631  34.735  30.677  1.00  0.00     0.016 A 
ATOM     36  C   UNL A   1      45.440  33.694  32.721  1.00  0.00     0.016 A 
ATOM     37  C   UNL A   1      44.797  33.533  29.989  1.00  0.00     0.010 A 
ATOM     38  C   UNL A   1      45.563  32.482  32.044  1.00  0.00     0.010 A 
ATOM     39  C   UNL A   1      45.218  32.392  30.684  1.00  0.00    -0.014 A 
BRANCH  39  40
ATOM     40  C   UNL A   1      45.062  31.060  30.061  1.00  0.00     0.031 A 
ATOM     41  C   UNL A   1      43.664  30.575  29.808  1.00  0.00     0.074 A 
ATOM     42  C   UNL A   1      46.122  30.307  29.730  1.00  0.00     0.049 A 
ATOM     43  N   UNL A   1      43.252  29.423  29.347  1.00  0.00    -0.248 NA
ATOM     44  C   UNL A   1      42.580  31.522  30.124  1.00  0.00     0.031 C 
ATOM     45  C   UNL A   1      47.521  30.695  29.891  1.00  0.00     0.029 A 
ATOM     46  N   UNL A   1      46.179  29.042  29.202  1.00  0.00    -0.354 N 
ATOM     47  C   UNL A   1      41.866  29.504  29.329  1.00  0.00     0.074 A 
ATOM     48  C   UNL A   1      41.503  30.802  29.853  1.00  0.00     0.031 C 
ATOM     49  C   UNL A   1      48.302  29.678  29.485  1.00  0.00     0.029 A 
ATOM     50  C   UNL A   1      47.457  28.558  29.072  1.00  0.00     0.049 A 
ATOM     51  H   UNL A   1      45.380  28.531  28.940  1.00  0.00     0.167 HD
ATOM     52  C   UNL A   1      40.976  28.578  28.906  1.00  0.00     0.037 A 
ATOM     53  C   UNL A   1      47.884  27.338  28.691  1.00  0.00     0.037 A 
ATOM     54  C   UNL A   1      41.345  27.285  28.397  1.00  0.00     0.049 A 
ATOM     55  C   UNL A   1      46.868  26.291  28.304  1.00  0.00     0.074 A 
ATOM     56  C   UNL A   1      40.524  26.276  27.929  1.00  0.00     0.029 A 
ATOM     57  N   UNL A   1      42.649  26.819  28.304  1.00  0.00    -0.354 N 
ATOM     58  N   UNL A   1      45.560  26.379  28.259  1.00  0.00    -0.248 NA
ATOM     59  C   UNL A   1      47.389  24.973  27.911  1.00  0.00     0.031 C 
ATOM     60  C   UNL A   1      41.325  25.176  27.615  1.00  0.00     0.029 A 
ATOM     61  C   UNL A   1      42.652  25.525  27.814  1.00  0.00     0.049 A 
ATOM     62  H   UNL A   1      43.452  27.333  28.551  1.00  0.00     0.167 HD
ATOM     63  C   UNL A   1      45.106  25.149  27.797  1.00  0.00     0.074 A 
ATOM     64  C   UNL A   1      46.280  24.333  27.570  1.00  0.00     0.031 C 
ATOM     65  C   UNL A   1      43.833  24.733  27.578  1.00  0.00     0.037 A 
BRANCH  52  66
ATOM     66  C   UNL A   1      39.519  28.920  29.013  1.00  0.00     0.064 A 
ATOM     67  C   UNL A   1      38.774  29.349  27.904  1.00  0.00     0.173 A 
ATOM     68  C   UNL A   1      38.853  28.797  30.241  1.00  0.00     0.173 A 
ATOM     69  F   UNL A   1      39.367  29.502  26.709  1.00  0.00    -0.203 F 
ATOM     70  C   UNL A   1      37.424  29.670  28.027  1.00  0.00     0.198 A 
ATOM     71  C   UNL A   1      37.496  29.084  30.354  1.00  0.00     0.198 A 
ATOM     72  F   UNL A   1      39.517  28.393  31.335  1.00  0.00    -0.203 F 
ATOM     73  F   UNL A   1      36.747  30.130  26.966  1.00  0.00    -0.200 F 
ATOM     74  C   UNL A   1      36.784  29.528  29.249  1.00  0.00     0.200 A 
ATOM     75  F   UNL A   1      36.876  28.935  31.533  1.00  0.00    -0.200 F 
ATOM     76  F   UNL A   1      35.484  29.828  29.365  1.00  0.00    -0.200 F 
ENDBRANCH  52  66
BRANCH  53  77
ATOM     77  C   UNL A   1      49.339  27.030  28.668  1.00  0.00     0.064 A 
ATOM     78  C   UNL A   1      50.090  27.174  27.494  1.00  0.00     0.173 A 
ATOM     79  C   UNL A   1      50.003  26.559  29.811  1.00  0.00     0.173 A 
ATOM     80  F   UNL A   1      49.497  27.595  26.367  1.00  0.00    -0.203 F 
ATOM     81  C   UNL A   1      51.443  26.839  27.458  1.00  0.00     0.198 A 
ATOM     82  C   UNL A   1      51.362  26.256  29.782  1.00  0.00     0.198 A 
ATOM     83  F   UNL A   1      49.330  26.399  30.961  1.00  0.00    -0.203 F 
ATOM     84  F   UNL A   1      52.125  26.937  26.308  1.00  0.00    -0.200 F 
ATOM     85  C   UNL A   1      52.080  26.388  28.604  1.00  0.00     0.200 A 
ATOM     86  F   UNL A   1      51.975  25.833  30.896  1.00  0.00    -0.200 F 
ATOM     87  F   UNL A   1      53.381  26.069  28.569  1.00  0.00    -0.200 F 
ENDBRANCH  53  77
BRANCH  65  88
ATOM     88  C   UNL A   1      43.638  23.356  27.008  1.00  0.00     0.064 A 
ATOM     89  C   UNL A   1      42.980  22.343  27.720  1.00  0.00     0.173 A 
ATOM     90  C   UNL A   1      44.063  23.068  25.701  1.00  0.00     0.173 A 
ATOM     91  F   UNL A   1      42.565  22.562  28.977  1.00  0.00    -0.203 F 
ATOM     92  C   UNL A   1      42.777  21.086  27.155  1.00  0.00     0.198 A 
ATOM     93  C   UNL A   1      43.827  21.824  25.125  1.00  0.00     0.198 A 
ATOM     94  F   UNL A   1      44.689  24.004  24.971  1.00  0.00    -0.203 F 
ATOM     95  F   UNL A   1      42.190  20.119  27.871  1.00  0.00    -0.200 F 
ATOM     96  C   UNL A   1      43.191  20.831  25.855  1.00  0.00     0.200 A 
ATOM     97  F   UNL A   1      44.209  21.587  23.864  1.00  0.00    -0.200 F 
ATOM     98  F   UNL A   1      42.981  19.626  25.308  1.00  0.00    -0.200 F 
ENDBRANCH  65  88
ENDBRANCH  39  40
ENDBRANCH  32  34
ENDBRANCH  31  32
ENDBRANCH  30  31
ENDBRANCH  29  30
ENDBRANCH  28  29
ENDBRANCH  27  28
ENDBRANCH  26  27
ENDBRANCH  25  26
ENDBRANCH   1  25
TORSDOF 25
ENDMDL
