MODEL 1
REMARK VINA RESULT:      -9.9      0.000      0.000
REMARK SMILES CC[C@@H]1C=CC[C@@H]2C(=O)N(CCCC(=O)OCCOCCOCCOCCOC(=O)c3ccc(-c4c5nc(c(-c6c(F)c(F)c(F)c(F)c6F)c6ccc([nH]6)c(-c6c(F)c(F)c(F)c(F)c6F)c6nc(c(-c7c(F)c(F)c(F)c(F)c7F)c7ccc4[nH]7)C=C6)C=C5)cc3)C(=O)[C@@H]21
REMARK SMILES IDX 21 1 20 2 19 3 18 4 17 5 16 6 14 7 15 8 13 9 12 10 11 11
REMARK SMILES IDX 10 12 3 13 4 14 96 15 5 16 7 17 94 18 6 19 8 20 95 21 9 22
REMARK SMILES IDX 2 23 1 24 22 25 23 26 24 27 25 28 26 29 27 30 28 31 29 32
REMARK SMILES IDX 30 33 31 34 32 35 93 36 33 37 92 38 34 39 35 40 36 41 86 42
REMARK SMILES IDX 37 43 91 44 85 45 87 46 38 47 90 48 84 49 83 50 39 52 71 53
REMARK SMILES IDX 51 54 70 55 52 56 55 57 69 58 88 59 53 60 54 61 68 63 89 64
REMARK SMILES IDX 56 65 40 66 41 67 49 68 42 69 43 70 47 71 50 72 44 73 45 74
REMARK SMILES IDX 48 75 46 76 72 77 73 78 81 79 74 80 75 81 79 82 82 83 76 84
REMARK SMILES IDX 77 85 80 86 78 87 57 88 58 89 66 90 59 91 60 92 64 93 67 94
REMARK SMILES IDX 61 95 62 96 65 97 63 98
REMARK H PARENT 87 51 55 62
REMARK Flexibility Score: inf
ROOT
ATOM      1  C   UNL A   1      42.574  21.099  26.676  1.00  0.00     0.188 C 
ENDROOT
BRANCH   1   2
ATOM      2  C   UNL A   1      41.120  21.389  27.084  1.00  0.00     0.188 C 
BRANCH   2   3
ATOM      3  O   UNL A   1      40.232  21.513  25.996  1.00  0.00    -0.376 OA
BRANCH   3   4
ATOM      4  C   UNL A   1      39.013  22.221  26.136  1.00  0.00     0.202 C 
BRANCH   4   5
ATOM      5  C   UNL A   1      37.682  21.752  25.525  1.00  0.00     0.261 C 
BRANCH   5   6
ATOM      6  O   UNL A   1      36.557  22.607  25.723  1.00  0.00    -0.463 OA
BRANCH   6   7
ATOM      7  C   UNL A   1      35.434  22.325  25.033  1.00  0.00     0.305 C 
ATOM      8  O   UNL A   1      35.056  21.193  24.752  1.00  0.00    -0.252 OA
BRANCH   7   9
ATOM      9  C   UNL A   1      34.596  23.551  24.727  1.00  0.00     0.124 C 
BRANCH   9  10
ATOM     10  C   UNL A   1      33.297  23.485  23.904  1.00  0.00     0.034 C 
BRANCH  10  11
ATOM     11  C   UNL A   1      31.995  23.032  24.582  1.00  0.00     0.129 C 
BRANCH  11  12
ATOM     12  N   UNL A   1      31.226  24.192  24.958  1.00  0.00    -0.282 N 
ATOM     13  C   UNL A   1      31.282  27.268  23.886  1.00  0.00     0.024 C 
ATOM     14  C   UNL A   1      32.668  27.264  24.488  1.00  0.00    -0.027 C 
ATOM     15  C   UNL A   1      30.313  26.298  24.628  1.00  0.00     0.099 C 
ATOM     16  C   UNL A   1      32.831  27.212  25.816  1.00  0.00    -0.030 C 
ATOM     17  C   UNL A   1      30.603  26.102  26.134  1.00  0.00     0.096 C 
ATOM     18  C   UNL A   1      30.462  24.899  24.089  1.00  0.00     0.233 C 
ATOM     19  C   UNL A   1      31.657  27.039  26.733  1.00  0.00     0.041 C 
ATOM     20  C   UNL A   1      31.147  24.697  26.215  1.00  0.00     0.233 C 
ATOM     21  O   UNL A   1      29.985  24.493  23.040  1.00  0.00    -0.274 OA
ATOM     22  O   UNL A   1      31.463  24.131  27.250  1.00  0.00    -0.274 OA
BRANCH  13  23
ATOM     23  C   UNL A   1      31.268  27.081  22.347  1.00  0.00     0.005 C 
ATOM     24  C   UNL A   1      32.460  26.325  21.776  1.00  0.00     0.004 C 
ENDBRANCH  13  23
ENDBRANCH  11  12
ENDBRANCH  10  11
ENDBRANCH   9  10
ENDBRANCH   7   9
ENDBRANCH   6   7
ENDBRANCH   5   6
ENDBRANCH   4   5
ENDBRANCH   3   4
ENDBRANCH   2   3
ENDBRANCH   1   2
BRANCH   1  25
ATOM     25  O   UNL A   1      42.855  20.671  25.349  1.00  0.00    -0.377 OA
BRANCH  25  26
ATOM     26  C   UNL A   1      44.209  20.609  24.900  1.00  0.00     0.188 C 
BRANCH  26  27
ATOM     27  C   UNL A   1      45.372  21.103  25.792  1.00  0.00     0.188 C 
BRANCH  27  28
ATOM     28  O   UNL A   1      46.400  21.797  25.110  1.00  0.00    -0.376 OA
BRANCH  28  29
ATOM     29  C   UNL A   1      46.024  22.800  24.179  1.00  0.00     0.202 C 
BRANCH  29  30
ATOM     30  C   UNL A   1      45.893  24.241  24.695  1.00  0.00     0.261 C 
BRANCH  30  31
ATOM     31  O   UNL A   1      44.967  24.445  25.773  1.00  0.00    -0.460 OA
BRANCH  31  32
ATOM     32  C   UNL A   1      43.653  24.514  25.462  1.00  0.00     0.338 C 
ATOM     33  O   UNL A   1      43.054  23.873  24.625  1.00  0.00    -0.246 OA
BRANCH  32  34
ATOM     34  C   UNL A   1      43.012  25.397  26.456  1.00  0.00     0.060 A 
ATOM     35  C   UNL A   1      43.506  26.696  26.634  1.00  0.00     0.016 A 
ATOM     36  C   UNL A   1      41.936  24.933  27.214  1.00  0.00     0.016 A 
ATOM     37  C   UNL A   1      42.947  27.525  27.605  1.00  0.00     0.010 A 
ATOM     38  C   UNL A   1      41.390  25.757  28.200  1.00  0.00     0.010 A 
ATOM     39  C   UNL A   1      41.919  27.041  28.425  1.00  0.00    -0.014 A 
BRANCH  39  40
ATOM     40  C   UNL A   1      41.543  27.789  29.646  1.00  0.00     0.031 A 
ATOM     41  C   UNL A   1      40.333  28.680  29.589  1.00  0.00     0.074 A 
ATOM     42  C   UNL A   1      42.242  27.671  30.787  1.00  0.00     0.049 A 
ATOM     43  N   UNL A   1      39.827  29.464  30.507  1.00  0.00    -0.248 NA
ATOM     44  C   UNL A   1      39.594  28.686  28.317  1.00  0.00     0.031 C 
ATOM     45  C   UNL A   1      43.399  26.802  30.980  1.00  0.00     0.029 A 
ATOM     46  N   UNL A   1      42.076  28.293  31.998  1.00  0.00    -0.354 N 
ATOM     47  C   UNL A   1      38.722  30.065  29.919  1.00  0.00     0.074 A 
ATOM     48  C   UNL A   1      38.652  29.583  28.556  1.00  0.00     0.031 C 
ATOM     49  C   UNL A   1      43.844  26.949  32.240  1.00  0.00     0.029 A 
ATOM     50  C   UNL A   1      43.027  27.949  32.926  1.00  0.00     0.049 A 
ATOM     51  H   UNL A   1      41.346  28.927  32.184  1.00  0.00     0.167 HD
ATOM     52  C   UNL A   1      37.840  30.935  30.467  1.00  0.00     0.037 A 
ATOM     53  C   UNL A   1      43.220  28.406  34.178  1.00  0.00     0.037 A 
ATOM     54  C   UNL A   1      37.923  31.419  31.820  1.00  0.00     0.049 A 
ATOM     55  C   UNL A   1      42.284  29.448  34.738  1.00  0.00     0.074 A 
ATOM     56  C   UNL A   1      37.073  32.286  32.482  1.00  0.00     0.029 A 
ATOM     57  N   UNL A   1      38.934  31.089  32.714  1.00  0.00    -0.354 N 
ATOM     58  N   UNL A   1      41.224  29.992  34.191  1.00  0.00    -0.248 NA
ATOM     59  C   UNL A   1      42.574  29.936  36.093  1.00  0.00     0.031 C 
ATOM     60  C   UNL A   1      37.607  32.537  33.750  1.00  0.00     0.029 A 
ATOM     61  C   UNL A   1      38.749  31.769  33.909  1.00  0.00     0.049 A 
ATOM     62  H   UNL A   1      39.673  30.467  32.528  1.00  0.00     0.167 HD
ATOM     63  C   UNL A   1      40.702  30.860  35.143  1.00  0.00     0.074 A 
ATOM     64  C   UNL A   1      41.558  30.761  36.307  1.00  0.00     0.031 C 
ATOM     65  C   UNL A   1      39.610  31.661  35.062  1.00  0.00     0.037 A 
BRANCH  52  66
ATOM     66  C   UNL A   1      36.744  31.452  29.578  1.00  0.00     0.064 A 
ATOM     67  C   UNL A   1      36.702  32.787  29.147  1.00  0.00     0.173 A 
ATOM     68  C   UNL A   1      35.709  30.599  29.163  1.00  0.00     0.173 A 
ATOM     69  F   UNL A   1      37.656  33.650  29.525  1.00  0.00    -0.203 F 
ATOM     70  C   UNL A   1      35.640  33.260  28.379  1.00  0.00     0.198 A 
ATOM     71  C   UNL A   1      34.671  31.066  28.362  1.00  0.00     0.198 A 
ATOM     72  F   UNL A   1      35.702  29.311  29.538  1.00  0.00    -0.203 F 
ATOM     73  F   UNL A   1      35.582  34.557  28.046  1.00  0.00    -0.200 F 
ATOM     74  C   UNL A   1      34.628  32.399  27.983  1.00  0.00     0.200 A 
ATOM     75  F   UNL A   1      33.702  30.227  27.968  1.00  0.00    -0.200 F 
ATOM     76  F   UNL A   1      33.604  32.856  27.249  1.00  0.00    -0.200 F 
ENDBRANCH  52  66
BRANCH  53  77
ATOM     77  C   UNL A   1      44.344  27.875  34.992  1.00  0.00     0.064 A 
ATOM     78  C   UNL A   1      44.165  26.762  35.825  1.00  0.00     0.173 A 
ATOM     79  C   UNL A   1      45.619  28.459  34.949  1.00  0.00     0.173 A 
ATOM     80  F   UNL A   1      42.958  26.186  35.922  1.00  0.00    -0.203 F 
ATOM     81  C   UNL A   1      45.215  26.260  36.591  1.00  0.00     0.198 A 
ATOM     82  C   UNL A   1      46.676  27.938  35.693  1.00  0.00     0.198 A 
ATOM     83  F   UNL A   1      45.843  29.529  34.173  1.00  0.00    -0.203 F 
ATOM     84  F   UNL A   1      45.006  25.218  37.407  1.00  0.00    -0.200 F 
ATOM     85  C   UNL A   1      46.472  26.841  36.516  1.00  0.00     0.200 A 
ATOM     86  F   UNL A   1      47.891  28.496  35.609  1.00  0.00    -0.200 F 
ATOM     87  F   UNL A   1      47.484  26.350  37.244  1.00  0.00    -0.200 F 
ENDBRANCH  53  77
BRANCH  65  88
ATOM     88  C   UNL A   1      39.247  32.467  36.280  1.00  0.00     0.064 A 
ATOM     89  C   UNL A   1      39.778  33.744  36.511  1.00  0.00     0.173 A 
ATOM     90  C   UNL A   1      38.321  31.967  37.210  1.00  0.00     0.173 A 
ATOM     91  F   UNL A   1      40.678  34.265  35.663  1.00  0.00    -0.203 F 
ATOM     92  C   UNL A   1      39.417  34.479  37.638  1.00  0.00     0.198 A 
ATOM     93  C   UNL A   1      37.934  32.719  38.316  1.00  0.00     0.198 A 
ATOM     94  F   UNL A   1      37.774  30.754  37.035  1.00  0.00    -0.203 F 
ATOM     95  F   UNL A   1      39.978  35.674  37.866  1.00  0.00    -0.200 F 
ATOM     96  C   UNL A   1      38.490  33.969  38.535  1.00  0.00     0.200 A 
ATOM     97  F   UNL A   1      37.023  32.231  39.170  1.00  0.00    -0.200 F 
ATOM     98  F   UNL A   1      38.136  34.681  39.614  1.00  0.00    -0.200 F 
ENDBRANCH  65  88
ENDBRANCH  39  40
ENDBRANCH  32  34
ENDBRANCH  31  32
ENDBRANCH  30  31
ENDBRANCH  29  30
ENDBRANCH  28  29
ENDBRANCH  27  28
ENDBRANCH  26  27
ENDBRANCH  25  26
ENDBRANCH   1  25
TORSDOF 24
ENDMDL
MODEL 2
REMARK VINA RESULT:      -9.8      1.050      7.247
REMARK SMILES CC[C@@H]1C=CC[C@@H]2C(=O)N(CCCC(=O)OCCOCCOCCOCCOC(=O)c3ccc(-c4c5nc(c(-c6c(F)c(F)c(F)c(F)c6F)c6ccc([nH]6)c(-c6c(F)c(F)c(F)c(F)c6F)c6nc(c(-c7c(F)c(F)c(F)c(F)c7F)c7ccc4[nH]7)C=C6)C=C5)cc3)C(=O)[C@@H]21
REMARK SMILES IDX 21 1 20 2 19 3 18 4 17 5 16 6 14 7 15 8 13 9 12 10 11 11
REMARK SMILES IDX 10 12 3 13 4 14 96 15 5 16 7 17 94 18 6 19 8 20 95 21 9 22
REMARK SMILES IDX 2 23 1 24 22 25 23 26 24 27 25 28 26 29 27 30 28 31 29 32
REMARK SMILES IDX 30 33 31 34 32 35 93 36 33 37 92 38 34 39 35 40 36 41 86 42
REMARK SMILES IDX 37 43 91 44 85 45 87 46 38 47 90 48 84 49 83 50 39 52 71 53
REMARK SMILES IDX 51 54 70 55 52 56 55 57 69 58 88 59 53 60 54 61 68 63 89 64
REMARK SMILES IDX 56 65 40 66 41 67 49 68 42 69 43 70 47 71 50 72 44 73 45 74
REMARK SMILES IDX 48 75 46 76 72 77 73 78 81 79 74 80 75 81 79 82 82 83 76 84
REMARK SMILES IDX 77 85 80 86 78 87 57 88 58 89 66 90 59 91 60 92 64 93 67 94
REMARK SMILES IDX 61 95 62 96 65 97 63 98
REMARK H PARENT 87 51 55 62
REMARK Flexibility Score: inf
ROOT
ATOM      1  C   UNL A   1      40.393  21.157  25.980  1.00  0.00     0.188 C 
ENDROOT
BRANCH   1   2
ATOM      2  C   UNL A   1      38.902  21.439  25.730  1.00  0.00     0.188 C 
BRANCH   2   3
ATOM      3  O   UNL A   1      38.157  20.301  25.357  1.00  0.00    -0.376 OA
BRANCH   3   4
ATOM      4  C   UNL A   1      36.945  20.437  24.638  1.00  0.00     0.202 C 
BRANCH   4   5
ATOM      5  C   UNL A   1      35.840  21.438  25.013  1.00  0.00     0.261 C 
BRANCH   5   6
ATOM      6  O   UNL A   1      35.274  21.299  26.316  1.00  0.00    -0.463 OA
BRANCH   6   7
ATOM      7  C   UNL A   1      33.930  21.336  26.416  1.00  0.00     0.305 C 
ATOM      8  O   UNL A   1      33.202  20.350  26.378  1.00  0.00    -0.252 OA
BRANCH   7   9
ATOM      9  C   UNL A   1      33.389  22.723  26.702  1.00  0.00     0.124 C 
BRANCH   9  10
ATOM     10  C   UNL A   1      31.893  22.999  26.935  1.00  0.00     0.034 C 
BRANCH  10  11
ATOM     11  C   UNL A   1      30.913  22.904  25.756  1.00  0.00     0.129 C 
BRANCH  11  12
ATOM     12  N   UNL A   1      30.732  24.214  25.181  1.00  0.00    -0.282 N 
ATOM     13  C   UNL A   1      32.861  26.355  23.957  1.00  0.00     0.024 C 
ATOM     14  C   UNL A   1      33.358  26.405  25.383  1.00  0.00    -0.027 C 
ATOM     15  C   UNL A   1      31.339  26.031  23.874  1.00  0.00     0.099 C 
ATOM     16  C   UNL A   1      32.611  26.963  26.344  1.00  0.00    -0.030 C 
ATOM     17  C   UNL A   1      30.493  26.528  25.070  1.00  0.00     0.096 C 
ATOM     18  C   UNL A   1      31.119  24.541  23.924  1.00  0.00     0.233 C 
ATOM     19  C   UNL A   1      31.219  27.444  26.059  1.00  0.00     0.041 C 
ATOM     20  C   UNL A   1      30.134  25.260  25.807  1.00  0.00     0.233 C 
ATOM     21  O   UNL A   1      31.282  23.773  22.988  1.00  0.00    -0.274 OA
ATOM     22  O   UNL A   1      29.428  25.209  26.801  1.00  0.00    -0.274 OA
BRANCH  13  23
ATOM     23  C   UNL A   1      33.722  25.467  23.024  1.00  0.00     0.005 C 
ATOM     24  C   UNL A   1      34.660  24.500  23.735  1.00  0.00     0.004 C 
ENDBRANCH  13  23
ENDBRANCH  11  12
ENDBRANCH  10  11
ENDBRANCH   9  10
ENDBRANCH   7   9
ENDBRANCH   6   7
ENDBRANCH   5   6
ENDBRANCH   4   5
ENDBRANCH   3   4
ENDBRANCH   2   3
ENDBRANCH   1   2
BRANCH   1  25
ATOM     25  O   UNL A   1      40.904  19.849  25.754  1.00  0.00    -0.377 OA
BRANCH  25  26
ATOM     26  C   UNL A   1      42.291  19.586  25.970  1.00  0.00     0.188 C 
BRANCH  26  27
ATOM     27  C   UNL A   1      43.148  20.503  26.874  1.00  0.00     0.188 C 
BRANCH  27  28
ATOM     28  O   UNL A   1      43.613  21.689  26.259  1.00  0.00    -0.376 OA
BRANCH  28  29
ATOM     29  C   UNL A   1      44.269  21.579  25.005  1.00  0.00     0.202 C 
BRANCH  29  30
ATOM     30  C   UNL A   1      44.461  22.863  24.184  1.00  0.00     0.261 C 
BRANCH  30  31
ATOM     31  O   UNL A   1      43.787  24.033  24.673  1.00  0.00    -0.460 OA
BRANCH  31  32
ATOM     32  C   UNL A   1      44.554  25.065  25.090  1.00  0.00     0.338 C 
ATOM     33  O   UNL A   1      45.647  25.391  24.681  1.00  0.00    -0.246 OA
BRANCH  32  34
ATOM     34  C   UNL A   1      43.744  25.860  26.034  1.00  0.00     0.060 A 
ATOM     35  C   UNL A   1      43.893  27.253  26.056  1.00  0.00     0.016 A 
ATOM     36  C   UNL A   1      42.853  25.225  26.901  1.00  0.00     0.016 A 
ATOM     37  C   UNL A   1      43.176  28.015  26.977  1.00  0.00     0.010 A 
ATOM     38  C   UNL A   1      42.150  25.987  27.836  1.00  0.00     0.010 A 
ATOM     39  C   UNL A   1      42.338  27.379  27.903  1.00  0.00    -0.014 A 
BRANCH  39  40
ATOM     40  C   UNL A   1      41.827  28.136  29.069  1.00  0.00     0.031 A 
ATOM     41  C   UNL A   1      42.596  28.062  30.358  1.00  0.00     0.074 A 
ATOM     42  C   UNL A   1      40.719  28.890  28.985  1.00  0.00     0.049 A 
ATOM     43  N   UNL A   1      42.332  28.598  31.522  1.00  0.00    -0.248 NA
ATOM     44  C   UNL A   1      43.834  27.267  30.328  1.00  0.00     0.031 C 
ATOM     45  C   UNL A   1      39.918  29.082  27.779  1.00  0.00     0.029 A 
ATOM     46  N   UNL A   1      40.075  29.630  29.943  1.00  0.00    -0.354 N 
ATOM     47  C   UNL A   1      43.361  28.196  32.363  1.00  0.00     0.074 A 
ATOM     48  C   UNL A   1      44.234  27.342  31.586  1.00  0.00     0.031 C 
ATOM     49  C   UNL A   1      38.884  29.889  28.071  1.00  0.00     0.029 A 
ATOM     50  C   UNL A   1      38.929  30.236  29.491  1.00  0.00     0.049 A 
ATOM     51  H   UNL A   1      40.402  29.718  30.868  1.00  0.00     0.167 HD
ATOM     52  C   UNL A   1      43.565  28.515  33.663  1.00  0.00     0.037 A 
ATOM     53  C   UNL A   1      38.018  30.971  30.156  1.00  0.00     0.037 A 
ATOM     54  C   UNL A   1      42.685  29.355  34.433  1.00  0.00     0.049 A 
ATOM     55  C   UNL A   1      38.211  31.235  31.628  1.00  0.00     0.074 A 
ATOM     56  C   UNL A   1      42.807  29.757  35.751  1.00  0.00     0.029 A 
ATOM     57  N   UNL A   1      41.504  29.907  33.954  1.00  0.00    -0.354 N 
ATOM     58  N   UNL A   1      39.199  30.878  32.413  1.00  0.00    -0.248 NA
ATOM     59  C   UNL A   1      37.160  32.007  32.304  1.00  0.00     0.031 C 
ATOM     60  C   UNL A   1      41.666  30.492  36.090  1.00  0.00     0.029 A 
ATOM     61  C   UNL A   1      40.868  30.613  34.964  1.00  0.00     0.049 A 
ATOM     62  H   UNL A   1      41.167  29.810  33.034  1.00  0.00     0.167 HD
ATOM     63  C   UNL A   1      38.908  31.408  33.664  1.00  0.00     0.074 A 
ATOM     64  C   UNL A   1      37.653  32.120  33.530  1.00  0.00     0.031 C 
ATOM     65  C   UNL A   1      39.617  31.318  34.817  1.00  0.00     0.037 A 
BRANCH  52  66
ATOM     66  C   UNL A   1      44.761  27.905  34.340  1.00  0.00     0.064 A 
ATOM     67  C   UNL A   1      44.695  26.664  34.993  1.00  0.00     0.173 A 
ATOM     68  C   UNL A   1      45.990  28.583  34.347  1.00  0.00     0.173 A 
ATOM     69  F   UNL A   1      43.543  25.979  35.029  1.00  0.00    -0.203 F 
ATOM     70  C   UNL A   1      45.799  26.151  35.671  1.00  0.00     0.198 A 
ATOM     71  C   UNL A   1      47.101  28.048  34.992  1.00  0.00     0.198 A 
ATOM     72  F   UNL A   1      46.113  29.769  33.733  1.00  0.00    -0.203 F 
ATOM     73  F   UNL A   1      45.690  25.002  36.352  1.00  0.00    -0.200 F 
ATOM     74  C   UNL A   1      47.002  26.840  35.666  1.00  0.00     0.200 A 
ATOM     75  F   UNL A   1      48.268  28.709  34.972  1.00  0.00    -0.200 F 
ATOM     76  F   UNL A   1      48.062  26.348  36.323  1.00  0.00    -0.200 F 
ENDBRANCH  52  66
BRANCH  53  77
ATOM     77  C   UNL A   1      36.840  31.517  29.432  1.00  0.00     0.064 A 
ATOM     78  C   UNL A   1      36.754  32.882  29.125  1.00  0.00     0.173 A 
ATOM     79  C   UNL A   1      35.783  30.689  29.025  1.00  0.00     0.173 A 
ATOM     80  F   UNL A   1      37.726  33.718  29.518  1.00  0.00    -0.203 F 
ATOM     81  C   UNL A   1      35.653  33.400  28.447  1.00  0.00     0.198 A 
ATOM     82  C   UNL A   1      34.695  31.203  28.321  1.00  0.00     0.198 A 
ATOM     83  F   UNL A   1      35.812  29.377  29.298  1.00  0.00    -0.203 F 
ATOM     84  F   UNL A   1      35.579  34.714  28.200  1.00  0.00    -0.200 F 
ATOM     85  C   UNL A   1      34.630  32.559  28.036  1.00  0.00     0.200 A 
ATOM     86  F   UNL A   1      33.715  30.385  27.916  1.00  0.00    -0.200 F 
ATOM     87  F   UNL A   1      33.576  33.056  27.374  1.00  0.00    -0.200 F 
ENDBRANCH  53  77
BRANCH  65  88
ATOM     88  C   UNL A   1      39.080  32.041  36.022  1.00  0.00     0.064 A 
ATOM     89  C   UNL A   1      39.390  33.385  36.282  1.00  0.00     0.173 A 
ATOM     90  C   UNL A   1      38.207  31.390  36.909  1.00  0.00     0.173 A 
ATOM     91  F   UNL A   1      40.229  34.052  35.476  1.00  0.00    -0.203 F 
ATOM     92  C   UNL A   1      38.869  34.039  37.396  1.00  0.00     0.198 A 
ATOM     93  C   UNL A   1      37.659  32.058  38.001  1.00  0.00     0.198 A 
ATOM     94  F   UNL A   1      37.868  30.107  36.705  1.00  0.00    -0.203 F 
ATOM     95  F   UNL A   1      39.222  35.306  37.653  1.00  0.00    -0.200 F 
ATOM     96  C   UNL A   1      37.999  33.378  38.249  1.00  0.00     0.200 A 
ATOM     97  F   UNL A   1      36.803  31.421  38.812  1.00  0.00    -0.200 F 
ATOM     98  F   UNL A   1      37.491  34.012  39.315  1.00  0.00    -0.200 F 
ENDBRANCH  65  88
ENDBRANCH  39  40
ENDBRANCH  32  34
ENDBRANCH  31  32
ENDBRANCH  30  31
ENDBRANCH  29  30
ENDBRANCH  28  29
ENDBRANCH  27  28
ENDBRANCH  26  27
ENDBRANCH  25  26
ENDBRANCH   1  25
TORSDOF 24
ENDMDL
MODEL 3
REMARK VINA RESULT:      -9.8      0.652      2.043
REMARK SMILES CC[C@@H]1C=CC[C@@H]2C(=O)N(CCCC(=O)OCCOCCOCCOCCOC(=O)c3ccc(-c4c5nc(c(-c6c(F)c(F)c(F)c(F)c6F)c6ccc([nH]6)c(-c6c(F)c(F)c(F)c(F)c6F)c6nc(c(-c7c(F)c(F)c(F)c(F)c7F)c7ccc4[nH]7)C=C6)C=C5)cc3)C(=O)[C@@H]21
REMARK SMILES IDX 21 1 20 2 19 3 18 4 17 5 16 6 14 7 15 8 13 9 12 10 11 11
REMARK SMILES IDX 10 12 3 13 4 14 96 15 5 16 7 17 94 18 6 19 8 20 95 21 9 22
REMARK SMILES IDX 2 23 1 24 22 25 23 26 24 27 25 28 26 29 27 30 28 31 29 32
REMARK SMILES IDX 30 33 31 34 32 35 93 36 33 37 92 38 34 39 35 40 36 41 86 42
REMARK SMILES IDX 37 43 91 44 85 45 87 46 38 47 90 48 84 49 83 50 39 52 71 53
REMARK SMILES IDX 51 54 70 55 52 56 55 57 69 58 88 59 53 60 54 61 68 63 89 64
REMARK SMILES IDX 56 65 40 66 41 67 49 68 42 69 43 70 47 71 50 72 44 73 45 74
REMARK SMILES IDX 48 75 46 76 72 77 73 78 81 79 74 80 75 81 79 82 82 83 76 84
REMARK SMILES IDX 77 85 80 86 78 87 57 88 58 89 66 90 59 91 60 92 64 93 67 94
REMARK SMILES IDX 61 95 62 96 65 97 63 98
REMARK H PARENT 87 51 55 62
REMARK Flexibility Score: inf
ROOT
ATOM      1  C   UNL A   1      42.592  21.006  26.685  1.00  0.00     0.188 C 
ENDROOT
BRANCH   1   2
ATOM      2  C   UNL A   1      41.169  21.397  27.119  1.00  0.00     0.188 C 
BRANCH   2   3
ATOM      3  O   UNL A   1      40.328  21.777  26.054  1.00  0.00    -0.376 OA
BRANCH   3   4
ATOM      4  C   UNL A   1      39.123  22.479  26.301  1.00  0.00     0.202 C 
BRANCH   4   5
ATOM      5  C   UNL A   1      37.761  22.061  25.723  1.00  0.00     0.261 C 
BRANCH   5   6
ATOM      6  O   UNL A   1      36.731  23.048  25.750  1.00  0.00    -0.463 OA
BRANCH   6   7
ATOM      7  C   UNL A   1      35.560  22.738  25.158  1.00  0.00     0.305 C 
ATOM      8  O   UNL A   1      35.181  21.597  24.918  1.00  0.00    -0.252 OA
BRANCH   7   9
ATOM      9  C   UNL A   1      34.676  23.946  24.911  1.00  0.00     0.124 C 
BRANCH   9  10
ATOM     10  C   UNL A   1      34.351  24.462  23.498  1.00  0.00     0.034 C 
BRANCH  10  11
ATOM     11  C   UNL A   1      33.082  23.970  22.787  1.00  0.00     0.129 C 
BRANCH  11  12
ATOM     12  N   UNL A   1      31.955  24.754  23.229  1.00  0.00    -0.282 N 
ATOM     13  C   UNL A   1      31.723  27.851  24.211  1.00  0.00     0.024 C 
ATOM     14  C   UNL A   1      32.582  27.365  25.355  1.00  0.00    -0.027 C 
ATOM     15  C   UNL A   1      30.807  26.726  23.642  1.00  0.00     0.099 C 
ATOM     16  C   UNL A   1      32.082  26.528  26.273  1.00  0.00    -0.030 C 
ATOM     17  C   UNL A   1      30.362  25.656  24.667  1.00  0.00     0.096 C 
ATOM     18  C   UNL A   1      31.560  25.903  22.628  1.00  0.00     0.233 C 
ATOM     19  C   UNL A   1      30.702  25.959  26.129  1.00  0.00     0.041 C 
ATOM     20  C   UNL A   1      31.143  24.428  24.266  1.00  0.00     0.233 C 
ATOM     21  O   UNL A   1      31.782  26.237  21.474  1.00  0.00    -0.274 OA
ATOM     22  O   UNL A   1      31.047  23.336  24.803  1.00  0.00    -0.274 OA
BRANCH  13  23
ATOM     23  C   UNL A   1      32.512  28.606  23.112  1.00  0.00     0.005 C 
ATOM     24  C   UNL A   1      34.026  28.459  23.185  1.00  0.00     0.004 C 
ENDBRANCH  13  23
ENDBRANCH  11  12
ENDBRANCH  10  11
ENDBRANCH   9  10
ENDBRANCH   7   9
ENDBRANCH   6   7
ENDBRANCH   5   6
ENDBRANCH   4   5
ENDBRANCH   3   4
ENDBRANCH   2   3
ENDBRANCH   1   2
BRANCH   1  25
ATOM     25  O   UNL A   1      42.833  20.640  25.332  1.00  0.00    -0.377 OA
BRANCH  25  26
ATOM     26  C   UNL A   1      44.177  20.520  24.863  1.00  0.00     0.188 C 
BRANCH  26  27
ATOM     27  C   UNL A   1      45.376  20.892  25.765  1.00  0.00     0.188 C 
BRANCH  27  28
ATOM     28  O   UNL A   1      46.412  21.612  25.124  1.00  0.00    -0.376 OA
BRANCH  28  29
ATOM     29  C   UNL A   1      46.047  22.666  24.246  1.00  0.00     0.202 C 
BRANCH  29  30
ATOM     30  C   UNL A   1      45.960  24.085  24.830  1.00  0.00     0.261 C 
BRANCH  30  31
ATOM     31  O   UNL A   1      44.964  24.291  25.843  1.00  0.00    -0.460 OA
BRANCH  31  32
ATOM     32  C   UNL A   1      43.686  24.458  25.435  1.00  0.00     0.338 C 
ATOM     33  O   UNL A   1      43.116  23.892  24.528  1.00  0.00    -0.246 OA
BRANCH  32  34
ATOM     34  C   UNL A   1      43.024  25.342  26.415  1.00  0.00     0.060 A 
ATOM     35  C   UNL A   1      43.483  26.657  26.567  1.00  0.00     0.016 A 
ATOM     36  C   UNL A   1      41.964  24.864  27.187  1.00  0.00     0.016 A 
ATOM     37  C   UNL A   1      42.906  27.489  27.526  1.00  0.00     0.010 A 
ATOM     38  C   UNL A   1      41.399  25.691  28.159  1.00  0.00     0.010 A 
ATOM     39  C   UNL A   1      41.894  26.992  28.359  1.00  0.00    -0.014 A 
BRANCH  39  40
ATOM     40  C   UNL A   1      41.501  27.753  29.567  1.00  0.00     0.031 A 
ATOM     41  C   UNL A   1      40.260  28.598  29.502  1.00  0.00     0.074 A 
ATOM     42  C   UNL A   1      42.214  27.684  30.703  1.00  0.00     0.049 A 
ATOM     43  N   UNL A   1      39.735  29.383  30.408  1.00  0.00    -0.248 NA
ATOM     44  C   UNL A   1      39.511  28.552  28.237  1.00  0.00     0.031 C 
ATOM     45  C   UNL A   1      43.404  26.861  30.904  1.00  0.00     0.029 A 
ATOM     46  N   UNL A   1      42.037  28.326  31.902  1.00  0.00    -0.354 N 
ATOM     47  C   UNL A   1      38.603  29.932  29.818  1.00  0.00     0.074 A 
ATOM     48  C   UNL A   1      38.539  29.419  28.466  1.00  0.00     0.031 C 
ATOM     49  C   UNL A   1      43.854  27.051  32.156  1.00  0.00     0.029 A 
ATOM     50  C   UNL A   1      43.007  28.036  32.828  1.00  0.00     0.049 A 
ATOM     51  H   UNL A   1      41.286  28.937  32.081  1.00  0.00     0.167 HD
ATOM     52  C   UNL A   1      37.696  30.782  30.356  1.00  0.00     0.037 A 
ATOM     53  C   UNL A   1      43.194  28.526  34.069  1.00  0.00     0.037 A 
ATOM     54  C   UNL A   1      37.774  31.297  31.697  1.00  0.00     0.049 A 
ATOM     55  C   UNL A   1      42.227  29.545  34.616  1.00  0.00     0.074 A 
ATOM     56  C   UNL A   1      36.899  32.148  32.349  1.00  0.00     0.029 A 
ATOM     57  N   UNL A   1      38.803  31.023  32.588  1.00  0.00    -0.354 N 
ATOM     58  N   UNL A   1      41.144  30.040  34.066  1.00  0.00    -0.248 NA
ATOM     59  C   UNL A   1      42.511  30.072  35.957  1.00  0.00     0.031 C 
ATOM     60  C   UNL A   1      37.434  32.445  33.607  1.00  0.00     0.029 A 
ATOM     61  C   UNL A   1      38.604  31.721  33.771  1.00  0.00     0.049 A 
ATOM     62  H   UNL A   1      39.562  30.423  32.408  1.00  0.00     0.167 HD
ATOM     63  C   UNL A   1      40.599  30.909  35.005  1.00  0.00     0.074 A 
ATOM     64  C   UNL A   1      41.468  30.865  36.163  1.00  0.00     0.031 C 
ATOM     65  C   UNL A   1      39.478  31.669  34.918  1.00  0.00     0.037 A 
BRANCH  52  66
ATOM     66  C   UNL A   1      36.574  31.241  29.466  1.00  0.00     0.064 A 
ATOM     67  C   UNL A   1      35.548  30.376  29.055  1.00  0.00     0.173 A 
ATOM     68  C   UNL A   1      36.538  32.565  29.003  1.00  0.00     0.173 A 
ATOM     69  F   UNL A   1      35.540  29.096  29.455  1.00  0.00    -0.203 F 
ATOM     70  C   UNL A   1      34.557  30.807  28.175  1.00  0.00     0.198 A 
ATOM     71  C   UNL A   1      35.524  33.002  28.156  1.00  0.00     0.198 A 
ATOM     72  F   UNL A   1      37.489  33.437  29.369  1.00  0.00    -0.203 F 
ATOM     73  F   UNL A   1      33.632  29.942  27.736  1.00  0.00    -0.200 F 
ATOM     74  C   UNL A   1      34.542  32.120  27.730  1.00  0.00     0.200 A 
ATOM     75  F   UNL A   1      35.503  34.277  27.739  1.00  0.00    -0.200 F 
ATOM     76  F   UNL A   1      33.592  32.531  26.879  1.00  0.00    -0.200 F 
ENDBRANCH  52  66
BRANCH  53  77
ATOM     77  C   UNL A   1      44.344  28.053  34.883  1.00  0.00     0.064 A 
ATOM     78  C   UNL A   1      45.574  28.724  34.848  1.00  0.00     0.173 A 
ATOM     79  C   UNL A   1      44.237  26.930  35.717  1.00  0.00     0.173 A 
ATOM     80  F   UNL A   1      45.733  29.786  34.046  1.00  0.00    -0.203 F 
ATOM     81  C   UNL A   1      46.656  28.285  35.609  1.00  0.00     0.198 A 
ATOM     82  C   UNL A   1      45.311  26.509  36.500  1.00  0.00     0.198 A 
ATOM     83  F   UNL A   1      43.085  26.248  35.783  1.00  0.00    -0.203 F 
ATOM     84  F   UNL A   1      47.831  28.923  35.528  1.00  0.00    -0.200 F 
ATOM     85  C   UNL A   1      46.520  27.185  36.442  1.00  0.00     0.200 A 
ATOM     86  F   UNL A   1      45.172  25.452  37.311  1.00  0.00    -0.200 F 
ATOM     87  F   UNL A   1      47.558  26.770  37.182  1.00  0.00    -0.200 F 
ENDBRANCH  53  77
BRANCH  65  88
ATOM     88  C   UNL A   1      39.097  32.486  36.121  1.00  0.00     0.064 A 
ATOM     89  C   UNL A   1      38.284  31.972  37.142  1.00  0.00     0.173 A 
ATOM     90  C   UNL A   1      39.588  33.793  36.275  1.00  0.00     0.173 A 
ATOM     91  F   UNL A   1      37.776  30.734  37.042  1.00  0.00    -0.203 F 
ATOM     92  C   UNL A   1      37.956  32.742  38.256  1.00  0.00     0.198 A 
ATOM     93  C   UNL A   1      39.288  34.547  37.406  1.00  0.00     0.198 A 
ATOM     94  F   UNL A   1      40.377  34.334  35.334  1.00  0.00    -0.203 F 
ATOM     95  F   UNL A   1      37.135  32.248  39.192  1.00  0.00    -0.200 F 
ATOM     96  C   UNL A   1      38.465  34.025  38.390  1.00  0.00     0.200 A 
ATOM     97  F   UNL A   1      39.798  35.779  37.542  1.00  0.00    -0.200 F 
ATOM     98  F   UNL A   1      38.156  34.761  39.467  1.00  0.00    -0.200 F 
ENDBRANCH  65  88
ENDBRANCH  39  40
ENDBRANCH  32  34
ENDBRANCH  31  32
ENDBRANCH  30  31
ENDBRANCH  29  30
ENDBRANCH  28  29
ENDBRANCH  27  28
ENDBRANCH  26  27
ENDBRANCH  25  26
ENDBRANCH   1  25
TORSDOF 24
ENDMDL
