MODEL 1
REMARK VINA RESULT:     -10.3      0.000      0.000
REMARK SMILES O=C(OCCOCCOCCOCCOC(=O)c1ccc(-c2c3nc(c(-c4c(F)c(F)c(F)c(F)c4F)c4ccc([nH]4)c(-c4c(F)c(F)c(F)c(F)c4F)c4nc(c(-c5c(F)c(F)c(F)c(F)c5F)c5ccc2[nH]5)C=C4)C=C3)cc1)C1=Cc2cc(Cl)cc(-c3ccc(CO)cc3)c2O[C@@H]1C(F)(F)F
REMARK SMILES IDX 8 1 7 2 6 3 5 4 4 5 3 6 2 7 1 8 81 9 82 10 99 11 83 12 98 13
REMARK SMILES IDX 84 14 97 15 85 16 88 17 86 18 87 19 100 20 101 21 102 22
REMARK SMILES IDX 103 23 89 24 90 25 96 26 91 27 95 28 92 29 93 30 94 31 9 33
REMARK SMILES IDX 10 34 11 35 12 36 13 37 14 38 15 39 16 40 17 41 18 42 19 43
REMARK SMILES IDX 80 44 20 45 79 46 21 47 22 48 23 49 73 50 24 51 78 52 72 53
REMARK SMILES IDX 74 54 25 55 77 56 71 57 70 58 26 60 58 61 38 62 57 63 39 64
REMARK SMILES IDX 42 65 56 66 75 67 40 68 41 69 55 71 76 72 43 73 27 74 28 75
REMARK SMILES IDX 36 76 29 77 30 78 34 79 37 80 31 81 32 82 35 83 33 84 59 85
REMARK SMILES IDX 60 86 68 87 61 88 62 89 66 90 69 91 63 92 64 93 67 94 65 95
REMARK SMILES IDX 44 96 45 97 53 98 46 99 47 100 51 101 54 102 48 103 49 104
REMARK SMILES IDX 52 105 50 106
REMARK H PARENT 94 32 74 59 42 70
REMARK Flexibility Score: inf
ROOT
ATOM      1  C   UNL A   1      33.893  28.064  24.780  1.00  0.00     0.188 C 
ENDROOT
BRANCH   1   2
ATOM      2  C   UNL A   1      33.630  26.595  25.083  1.00  0.00     0.188 C 
BRANCH   2   3
ATOM      3  O   UNL A   1      33.009  26.415  26.337  1.00  0.00    -0.376 OA
BRANCH   3   4
ATOM      4  C   UNL A   1      31.964  25.470  26.449  1.00  0.00     0.202 C 
BRANCH   4   5
ATOM      5  C   UNL A   1      32.356  24.030  26.819  1.00  0.00     0.261 C 
BRANCH   5   6
ATOM      6  O   UNL A   1      33.737  23.853  27.221  1.00  0.00    -0.460 OA
BRANCH   6   7
ATOM      7  C   UNL A   1      34.179  22.577  27.450  1.00  0.00     0.338 C 
ATOM      8  O   UNL A   1      34.078  22.025  28.533  1.00  0.00    -0.246 OA
BRANCH   7   9
ATOM      9  C   UNL A   1      34.794  21.962  26.244  1.00  0.00     0.087 C 
ATOM     10  C   UNL A   1      34.429  20.766  25.755  1.00  0.00     0.027 C 
ATOM     11  C   UNL A   1      35.501  22.866  25.302  1.00  0.00     0.316 C 
ATOM     12  C   UNL A   1      33.844  20.878  24.394  1.00  0.00     0.019 A 
ATOM     13  O   UNL A   1      34.662  23.129  24.144  1.00  0.00    -0.475 OA
ATOM     14  C   UNL A   1      33.205  19.807  23.775  1.00  0.00     0.032 A 
ATOM     15  C   UNL A   1      33.726  22.163  23.816  1.00  0.00     0.135 A 
ATOM     16  C   UNL A   1      32.441  20.034  22.627  1.00  0.00     0.042 A 
ATOM     17  C   UNL A   1      32.694  22.437  22.877  1.00  0.00     0.026 A 
ATOM     18  Cl  UNL A   1      31.798  18.705  21.747  1.00  0.00    -0.084 Cl
ATOM     19  C   UNL A   1      32.129  21.334  22.227  1.00  0.00     0.033 A 
BRANCH  11  20
ATOM     20  C   UNL A   1      36.972  22.449  25.108  1.00  0.00     0.430 C 
ATOM     21  F   UNL A   1      37.819  23.475  25.349  1.00  0.00    -0.167 F 
ATOM     22  F   UNL A   1      37.300  21.478  26.012  1.00  0.00    -0.167 F 
ATOM     23  F   UNL A   1      37.247  21.953  23.886  1.00  0.00    -0.167 F 
ENDBRANCH  11  20
BRANCH  17  24
ATOM     24  C   UNL A   1      32.018  23.756  22.705  1.00  0.00    -0.015 A 
ATOM     25  C   UNL A   1      30.814  24.050  23.393  1.00  0.00     0.009 A 
ATOM     26  C   UNL A   1      32.502  24.750  21.863  1.00  0.00     0.009 A 
ATOM     27  C   UNL A   1      30.169  25.302  23.295  1.00  0.00     0.007 A 
ATOM     28  C   UNL A   1      31.881  26.016  21.803  1.00  0.00     0.007 A 
ATOM     29  C   UNL A   1      30.720  26.322  22.520  1.00  0.00    -0.023 A 
BRANCH  29  30
ATOM     30  C   UNL A   1      30.094  27.696  22.444  1.00  0.00     0.191 C 
BRANCH  30  31
ATOM     31  O   UNL A   1      30.985  28.633  21.867  1.00  0.00    -0.392 OA
ATOM     32  H   UNL A   1      31.655  28.165  21.346  1.00  0.00     0.211 HD
ENDBRANCH  30  31
ENDBRANCH  29  30
ENDBRANCH  17  24
ENDBRANCH   7   9
ENDBRANCH   6   7
ENDBRANCH   5   6
ENDBRANCH   4   5
ENDBRANCH   3   4
ENDBRANCH   2   3
ENDBRANCH   1   2
BRANCH   1  33
ATOM     33  O   UNL A   1      32.747  28.727  24.245  1.00  0.00    -0.377 OA
BRANCH  33  34
ATOM     34  C   UNL A   1      32.075  29.613  25.138  1.00  0.00     0.188 C 
BRANCH  34  35
ATOM     35  C   UNL A   1      32.836  29.962  26.436  1.00  0.00     0.188 C 
BRANCH  35  36
ATOM     36  O   UNL A   1      32.539  31.097  27.233  1.00  0.00    -0.376 OA
BRANCH  36  37
ATOM     37  C   UNL A   1      31.902  32.201  26.630  1.00  0.00     0.202 C 
BRANCH  37  38
ATOM     38  C   UNL A   1      31.984  33.513  27.428  1.00  0.00     0.261 C 
BRANCH  38  39
ATOM     39  O   UNL A   1      33.277  34.155  27.434  1.00  0.00    -0.460 OA
BRANCH  39  40
ATOM     40  C   UNL A   1      33.785  34.511  28.647  1.00  0.00     0.338 C 
ATOM     41  O   UNL A   1      33.360  35.362  29.385  1.00  0.00    -0.246 OA
BRANCH  40  42
ATOM     42  C   UNL A   1      34.914  33.582  28.993  1.00  0.00     0.060 A 
ATOM     43  C   UNL A   1      34.619  32.386  29.668  1.00  0.00     0.016 A 
ATOM     44  C   UNL A   1      36.244  33.852  28.654  1.00  0.00     0.016 A 
ATOM     45  C   UNL A   1      35.641  31.493  30.045  1.00  0.00     0.010 A 
ATOM     46  C   UNL A   1      37.263  32.953  29.021  1.00  0.00     0.010 A 
ATOM     47  C   UNL A   1      36.982  31.778  29.755  1.00  0.00    -0.014 A 
BRANCH  47  48
ATOM     48  C   UNL A   1      38.107  30.996  30.369  1.00  0.00     0.031 A 
ATOM     49  C   UNL A   1      38.555  31.381  31.758  1.00  0.00     0.074 A 
ATOM     50  C   UNL A   1      38.771  29.998  29.746  1.00  0.00     0.049 A 
ATOM     51  N   UNL A   1      39.533  30.898  32.485  1.00  0.00    -0.248 NA
ATOM     52  C   UNL A   1      37.800  32.461  32.414  1.00  0.00     0.031 C 
ATOM     53  C   UNL A   1      38.473  29.462  28.425  1.00  0.00     0.029 A 
ATOM     54  N   UNL A   1      39.898  29.298  30.128  1.00  0.00    -0.354 N 
ATOM     55  C   UNL A   1      39.467  31.572  33.695  1.00  0.00     0.074 A 
ATOM     56  C   UNL A   1      38.452  32.594  33.556  1.00  0.00     0.031 C 
ATOM     57  C   UNL A   1      39.457  28.625  28.047  1.00  0.00     0.029 A 
ATOM     58  C   UNL A   1      40.426  28.506  29.132  1.00  0.00     0.049 A 
ATOM     59  H   UNL A   1      40.288  29.359  31.030  1.00  0.00     0.167 HD
ATOM     60  C   UNL A   1      40.125  31.320  34.851  1.00  0.00     0.037 A 
ATOM     61  C   UNL A   1      41.553  27.763  29.094  1.00  0.00     0.037 A 
ATOM     62  C   UNL A   1      41.144  30.321  35.015  1.00  0.00     0.049 A 
ATOM     63  C   UNL A   1      42.374  27.592  30.350  1.00  0.00     0.074 A 
ATOM     64  C   UNL A   1      41.829  29.965  36.163  1.00  0.00     0.029 A 
ATOM     65  N   UNL A   1      41.641  29.527  33.993  1.00  0.00    -0.354 N 
ATOM     66  N   UNL A   1      42.208  28.135  31.531  1.00  0.00    -0.248 NA
ATOM     67  C   UNL A   1      43.498  26.644  30.286  1.00  0.00     0.031 C 
ATOM     68  C   UNL A   1      42.776  28.993  35.827  1.00  0.00     0.029 A 
ATOM     69  C   UNL A   1      42.642  28.702  34.480  1.00  0.00     0.049 A 
ATOM     70  H   UNL A   1      41.329  29.547  33.059  1.00  0.00     0.167 HD
ATOM     71  C   UNL A   1      43.152  27.541  32.361  1.00  0.00     0.074 A 
ATOM     72  C   UNL A   1      43.892  26.600  31.550  1.00  0.00     0.031 C 
ATOM     73  C   UNL A   1      43.369  27.747  33.684  1.00  0.00     0.037 A 
BRANCH  60  74
ATOM     74  C   UNL A   1      39.707  32.118  36.052  1.00  0.00     0.064 A 
ATOM     75  C   UNL A   1      40.395  33.289  36.414  1.00  0.00     0.173 A 
ATOM     76  C   UNL A   1      38.613  31.728  36.836  1.00  0.00     0.173 A 
ATOM     77  F   UNL A   1      41.458  33.695  35.702  1.00  0.00    -0.203 F 
ATOM     78  C   UNL A   1      40.028  34.017  37.540  1.00  0.00     0.198 A 
ATOM     79  C   UNL A   1      38.227  32.480  37.943  1.00  0.00     0.198 A 
ATOM     80  F   UNL A   1      37.921  30.621  36.530  1.00  0.00    -0.203 F 
ATOM     81  F   UNL A   1      40.740  35.092  37.902  1.00  0.00    -0.200 F 
ATOM     82  C   UNL A   1      38.941  33.616  38.299  1.00  0.00     0.200 A 
ATOM     83  F   UNL A   1      37.168  32.100  38.670  1.00  0.00    -0.200 F 
ATOM     84  F   UNL A   1      38.585  34.318  39.384  1.00  0.00    -0.200 F 
ENDBRANCH  60  74
BRANCH  61  85
ATOM     85  C   UNL A   1      41.974  27.069  27.844  1.00  0.00     0.064 A 
ATOM     86  C   UNL A   1      41.530  25.772  27.547  1.00  0.00     0.173 A 
ATOM     87  C   UNL A   1      42.915  27.646  26.977  1.00  0.00     0.173 A 
ATOM     88  F   UNL A   1      40.660  25.161  28.366  1.00  0.00    -0.203 F 
ATOM     89  C   UNL A   1      42.042  25.062  26.462  1.00  0.00     0.198 A 
ATOM     90  C   UNL A   1      43.404  26.945  25.874  1.00  0.00     0.198 A 
ATOM     91  F   UNL A   1      43.390  28.875  27.223  1.00  0.00    -0.203 F 
ATOM     92  F   UNL A   1      41.660  23.795  26.254  1.00  0.00    -0.200 F 
ATOM     93  C   UNL A   1      42.979  25.649  25.626  1.00  0.00     0.200 A 
ATOM     94  F   UNL A   1      44.312  27.514  25.068  1.00  0.00    -0.200 F 
ATOM     95  F   UNL A   1      43.488  24.958  24.596  1.00  0.00    -0.200 F 
ENDBRANCH  61  85
BRANCH  73  96
ATOM     96  C   UNL A   1      44.402  26.891  34.365  1.00  0.00     0.064 A 
ATOM     97  C   UNL A   1      45.737  27.299  34.502  1.00  0.00     0.173 A 
ATOM     98  C   UNL A   1      44.043  25.646  34.906  1.00  0.00     0.173 A 
ATOM     99  F   UNL A   1      46.140  28.474  33.995  1.00  0.00    -0.203 F 
ATOM    100  C   UNL A   1      46.681  26.476  35.115  1.00  0.00     0.198 A 
ATOM    101  C   UNL A   1      44.979  24.843  35.554  1.00  0.00     0.198 A 
ATOM    102  F   UNL A   1      42.778  25.207  34.814  1.00  0.00    -0.203 F 
ATOM    103  F   UNL A   1      47.964  26.859  35.174  1.00  0.00    -0.200 F 
ATOM    104  C   UNL A   1      46.299  25.254  35.646  1.00  0.00     0.200 A 
ATOM    105  F   UNL A   1      44.603  23.671  36.082  1.00  0.00    -0.200 F 
ATOM    106  F   UNL A   1      47.207  24.466  36.239  1.00  0.00    -0.200 F 
ENDBRANCH  73  96
ENDBRANCH  47  48
ENDBRANCH  40  42
ENDBRANCH  39  40
ENDBRANCH  38  39
ENDBRANCH  37  38
ENDBRANCH  36  37
ENDBRANCH  35  36
ENDBRANCH  34  35
ENDBRANCH  33  34
ENDBRANCH   1  33
TORSDOF 24
ENDMDL
MODEL 2
REMARK VINA RESULT:     -10.1      5.115     10.916
REMARK SMILES O=C(OCCOCCOCCOCCOC(=O)c1ccc(-c2c3nc(c(-c4c(F)c(F)c(F)c(F)c4F)c4ccc([nH]4)c(-c4c(F)c(F)c(F)c(F)c4F)c4nc(c(-c5c(F)c(F)c(F)c(F)c5F)c5ccc2[nH]5)C=C4)C=C3)cc1)C1=Cc2cc(Cl)cc(-c3ccc(CO)cc3)c2O[C@@H]1C(F)(F)F
REMARK SMILES IDX 8 1 7 2 6 3 5 4 4 5 3 6 2 7 1 8 81 9 82 10 99 11 83 12 98 13
REMARK SMILES IDX 84 14 97 15 85 16 88 17 86 18 87 19 100 20 101 21 102 22
REMARK SMILES IDX 103 23 89 24 90 25 96 26 91 27 95 28 92 29 93 30 94 31 9 33
REMARK SMILES IDX 10 34 11 35 12 36 13 37 14 38 15 39 16 40 17 41 18 42 19 43
REMARK SMILES IDX 80 44 20 45 79 46 21 47 22 48 23 49 73 50 24 51 78 52 72 53
REMARK SMILES IDX 74 54 25 55 77 56 71 57 70 58 26 60 58 61 38 62 57 63 39 64
REMARK SMILES IDX 42 65 56 66 75 67 40 68 41 69 55 71 76 72 43 73 27 74 28 75
REMARK SMILES IDX 36 76 29 77 30 78 34 79 37 80 31 81 32 82 35 83 33 84 59 85
REMARK SMILES IDX 60 86 68 87 61 88 62 89 66 90 69 91 63 92 64 93 67 94 65 95
REMARK SMILES IDX 44 96 45 97 53 98 46 99 47 100 51 101 54 102 48 103 49 104
REMARK SMILES IDX 52 105 50 106
REMARK H PARENT 94 32 74 59 42 70
REMARK Flexibility Score: inf
ROOT
ATOM      1  C   UNL A   1      37.019  21.187  24.724  1.00  0.00     0.188 C 
ENDROOT
BRANCH   1   2
ATOM      2  C   UNL A   1      37.148  22.335  25.716  1.00  0.00     0.188 C 
BRANCH   2   3
ATOM      3  O   UNL A   1      35.891  22.781  26.177  1.00  0.00    -0.376 OA
BRANCH   3   4
ATOM      4  C   UNL A   1      34.770  21.933  26.025  1.00  0.00     0.202 C 
BRANCH   4   5
ATOM      5  C   UNL A   1      33.674  22.020  27.098  1.00  0.00     0.261 C 
BRANCH   5   6
ATOM      6  O   UNL A   1      32.380  22.465  26.622  1.00  0.00    -0.460 OA
BRANCH   6   7
ATOM      7  C   UNL A   1      32.182  23.812  26.470  1.00  0.00     0.338 C 
ATOM      8  O   UNL A   1      32.144  24.586  27.411  1.00  0.00    -0.246 OA
BRANCH   7   9
ATOM      9  C   UNL A   1      32.012  24.206  25.046  1.00  0.00     0.087 C 
ATOM     10  C   UNL A   1      30.814  24.406  24.472  1.00  0.00     0.027 C 
ATOM     11  C   UNL A   1      33.175  24.828  24.366  1.00  0.00     0.316 C 
ATOM     12  C   UNL A   1      30.637  25.813  24.031  1.00  0.00     0.019 A 
ATOM     13  O   UNL A   1      32.989  26.268  24.281  1.00  0.00    -0.475 OA
ATOM     14  C   UNL A   1      29.407  26.304  23.603  1.00  0.00     0.032 A 
ATOM     15  C   UNL A   1      31.684  26.732  24.276  1.00  0.00     0.135 A 
ATOM     16  C   UNL A   1      29.229  27.683  23.462  1.00  0.00     0.042 A 
ATOM     17  C   UNL A   1      31.401  28.113  24.461  1.00  0.00     0.026 A 
ATOM     18  Cl  UNL A   1      27.783  28.294  22.762  1.00  0.00    -0.084 Cl
ATOM     19  C   UNL A   1      30.182  28.576  23.952  1.00  0.00     0.033 A 
BRANCH  11  20
ATOM     20  C   UNL A   1      33.596  24.032  23.115  1.00  0.00     0.430 C 
ATOM     21  F   UNL A   1      33.357  24.724  21.978  1.00  0.00    -0.167 F 
ATOM     22  F   UNL A   1      34.945  23.815  23.139  1.00  0.00    -0.167 F 
ATOM     23  F   UNL A   1      33.008  22.825  23.007  1.00  0.00    -0.167 F 
ENDBRANCH  11  20
BRANCH  17  24
ATOM     24  C   UNL A   1      32.174  29.038  25.340  1.00  0.00    -0.015 A 
ATOM     25  C   UNL A   1      31.619  30.274  25.758  1.00  0.00     0.009 A 
ATOM     26  C   UNL A   1      33.463  28.764  25.779  1.00  0.00     0.009 A 
ATOM     27  C   UNL A   1      32.298  31.156  26.627  1.00  0.00     0.007 A 
ATOM     28  C   UNL A   1      34.119  29.625  26.684  1.00  0.00     0.007 A 
ATOM     29  C   UNL A   1      33.552  30.822  27.135  1.00  0.00    -0.023 A 
BRANCH  29  30
ATOM     30  C   UNL A   1      34.279  31.708  28.120  1.00  0.00     0.191 C 
BRANCH  30  31
ATOM     31  O   UNL A   1      34.807  30.955  29.196  1.00  0.00    -0.392 OA
ATOM     32  H   UNL A   1      35.699  31.271  29.406  1.00  0.00     0.211 HD
ENDBRANCH  30  31
ENDBRANCH  29  30
ENDBRANCH  17  24
ENDBRANCH   7   9
ENDBRANCH   6   7
ENDBRANCH   5   6
ENDBRANCH   4   5
ENDBRANCH   3   4
ENDBRANCH   2   3
ENDBRANCH   1   2
BRANCH   1  33
ATOM     33  O   UNL A   1      38.166  20.337  24.717  1.00  0.00    -0.377 OA
BRANCH  33  34
ATOM     34  C   UNL A   1      39.184  20.666  25.659  1.00  0.00     0.188 C 
BRANCH  34  35
ATOM     35  C   UNL A   1      40.260  19.581  25.890  1.00  0.00     0.188 C 
BRANCH  35  36
ATOM     36  O   UNL A   1      41.579  19.872  26.321  1.00  0.00    -0.376 OA
BRANCH  36  37
ATOM     37  C   UNL A   1      42.467  18.801  26.554  1.00  0.00     0.202 C 
BRANCH  37  38
ATOM     38  C   UNL A   1      43.132  18.224  25.293  1.00  0.00     0.261 C 
BRANCH  38  39
ATOM     39  O   UNL A   1      44.569  18.352  25.236  1.00  0.00    -0.460 OA
BRANCH  39  40
ATOM     40  C   UNL A   1      45.077  19.205  24.304  1.00  0.00     0.338 C 
ATOM     41  O   UNL A   1      45.534  18.910  23.229  1.00  0.00    -0.246 OA
BRANCH  40  42
ATOM     42  C   UNL A   1      44.874  20.617  24.774  1.00  0.00     0.060 A 
ATOM     43  C   UNL A   1      44.681  21.624  23.815  1.00  0.00     0.016 A 
ATOM     44  C   UNL A   1      44.853  20.965  26.129  1.00  0.00     0.016 A 
ATOM     45  C   UNL A   1      44.518  22.970  24.199  1.00  0.00     0.010 A 
ATOM     46  C   UNL A   1      44.677  22.309  26.511  1.00  0.00     0.010 A 
ATOM     47  C   UNL A   1      44.545  23.337  25.551  1.00  0.00    -0.014 A 
BRANCH  47  48
ATOM     48  C   UNL A   1      44.643  24.772  25.979  1.00  0.00     0.031 A 
ATOM     49  C   UNL A   1      46.017  25.397  26.034  1.00  0.00     0.074 A 
ATOM     50  C   UNL A   1      43.590  25.531  26.356  1.00  0.00     0.049 A 
ATOM     51  N   UNL A   1      46.374  26.599  26.419  1.00  0.00    -0.248 NA
ATOM     52  C   UNL A   1      47.140  24.549  25.601  1.00  0.00     0.031 C 
ATOM     53  C   UNL A   1      42.192  25.124  26.343  1.00  0.00     0.029 A 
ATOM     54  N   UNL A   1      43.549  26.799  26.898  1.00  0.00    -0.354 N 
ATOM     55  C   UNL A   1      47.744  26.663  26.216  1.00  0.00     0.074 A 
ATOM     56  C   UNL A   1      48.176  25.342  25.814  1.00  0.00     0.031 C 
ATOM     57  C   UNL A   1      41.448  26.053  26.971  1.00  0.00     0.029 A 
ATOM     58  C   UNL A   1      42.307  27.163  27.371  1.00  0.00     0.049 A 
ATOM     59  H   UNL A   1      44.336  27.390  26.942  1.00  0.00     0.167 HD
ATOM     60  C   UNL A   1      48.567  27.736  26.274  1.00  0.00     0.037 A 
ATOM     61  C   UNL A   1      41.902  28.263  28.041  1.00  0.00     0.037 A 
ATOM     62  C   UNL A   1      48.169  29.055  26.680  1.00  0.00     0.049 A 
ATOM     63  C   UNL A   1      42.861  29.413  28.235  1.00  0.00     0.074 A 
ATOM     64  C   UNL A   1      48.927  30.212  26.722  1.00  0.00     0.029 A 
ATOM     65  N   UNL A   1      46.904  29.391  27.135  1.00  0.00    -0.354 N 
ATOM     66  N   UNL A   1      44.126  29.503  27.905  1.00  0.00    -0.248 NA
ATOM     67  C   UNL A   1      42.314  30.643  28.829  1.00  0.00     0.031 C 
ATOM     68  C   UNL A   1      48.135  31.237  27.251  1.00  0.00     0.029 A 
ATOM     69  C   UNL A   1      46.868  30.732  27.484  1.00  0.00     0.049 A 
ATOM     70  H   UNL A   1      46.143  28.770  27.201  1.00  0.00     0.167 HD
ATOM     71  C   UNL A   1      44.500  30.814  28.181  1.00  0.00     0.074 A 
ATOM     72  C   UNL A   1      43.332  31.481  28.710  1.00  0.00     0.031 C 
ATOM     73  C   UNL A   1      45.703  31.410  27.992  1.00  0.00     0.037 A 
BRANCH  60  74
ATOM     74  C   UNL A   1      49.984  27.523  25.826  1.00  0.00     0.064 A 
ATOM     75  C   UNL A   1      50.323  27.571  24.463  1.00  0.00     0.173 A 
ATOM     76  C   UNL A   1      51.008  27.284  26.751  1.00  0.00     0.173 A 
ATOM     77  F   UNL A   1      49.374  27.782  23.538  1.00  0.00    -0.203 F 
ATOM     78  C   UNL A   1      51.629  27.347  24.041  1.00  0.00     0.198 A 
ATOM     79  C   UNL A   1      52.321  27.096  26.327  1.00  0.00     0.198 A 
ATOM     80  F   UNL A   1      50.737  27.233  28.063  1.00  0.00    -0.203 F 
ATOM     81  F   UNL A   1      51.915  27.333  22.732  1.00  0.00    -0.200 F 
ATOM     82  C   UNL A   1      52.628  27.117  24.973  1.00  0.00     0.200 A 
ATOM     83  F   UNL A   1      53.290  26.886  27.228  1.00  0.00    -0.200 F 
ATOM     84  F   UNL A   1      53.887  26.905  24.567  1.00  0.00    -0.200 F 
ENDBRANCH  60  74
BRANCH  61  85
ATOM     85  C   UNL A   1      40.506  28.381  28.551  1.00  0.00     0.064 A 
ATOM     86  C   UNL A   1      39.490  28.944  27.765  1.00  0.00     0.173 A 
ATOM     87  C   UNL A   1      40.185  28.033  29.872  1.00  0.00     0.173 A 
ATOM     88  F   UNL A   1      39.755  29.330  26.508  1.00  0.00    -0.203 F 
ATOM     89  C   UNL A   1      38.224  29.199  28.291  1.00  0.00     0.198 A 
ATOM     90  C   UNL A   1      38.909  28.260  30.388  1.00  0.00     0.198 A 
ATOM     91  F   UNL A   1      41.122  27.508  30.674  1.00  0.00    -0.203 F 
ATOM     92  F   UNL A   1      37.300  29.815  27.541  1.00  0.00    -0.200 F 
ATOM     93  C   UNL A   1      37.933  28.855  29.602  1.00  0.00     0.200 A 
ATOM     94  F   UNL A   1      38.631  27.929  31.657  1.00  0.00    -0.200 F 
ATOM     95  F   UNL A   1      36.723  29.121  30.115  1.00  0.00    -0.200 F 
ENDBRANCH  61  85
BRANCH  73  96
ATOM     96  C   UNL A   1      45.809  32.881  28.289  1.00  0.00     0.064 A 
ATOM     97  C   UNL A   1      45.522  33.860  27.325  1.00  0.00     0.173 A 
ATOM     98  C   UNL A   1      46.189  33.319  29.568  1.00  0.00     0.173 A 
ATOM     99  F   UNL A   1      45.165  33.501  26.083  1.00  0.00    -0.203 F 
ATOM    100  C   UNL A   1      45.652  35.217  27.619  1.00  0.00     0.198 A 
ATOM    101  C   UNL A   1      46.279  34.675  29.870  1.00  0.00     0.198 A 
ATOM    102  F   UNL A   1      46.467  32.429  30.533  1.00  0.00    -0.203 F 
ATOM    103  F   UNL A   1      45.436  36.130  26.662  1.00  0.00    -0.200 F 
ATOM    104  C   UNL A   1      46.023  35.622  28.891  1.00  0.00     0.200 A 
ATOM    105  F   UNL A   1      46.620  35.064  31.106  1.00  0.00    -0.200 F 
ATOM    106  F   UNL A   1      46.142  36.927  29.172  1.00  0.00    -0.200 F 
ENDBRANCH  73  96
ENDBRANCH  47  48
ENDBRANCH  40  42
ENDBRANCH  39  40
ENDBRANCH  38  39
ENDBRANCH  37  38
ENDBRANCH  36  37
ENDBRANCH  35  36
ENDBRANCH  34  35
ENDBRANCH  33  34
ENDBRANCH   1  33
TORSDOF 24
ENDMDL
MODEL 3
REMARK VINA RESULT:     -10.0      5.564      9.097
REMARK SMILES O=C(OCCOCCOCCOCCOC(=O)c1ccc(-c2c3nc(c(-c4c(F)c(F)c(F)c(F)c4F)c4ccc([nH]4)c(-c4c(F)c(F)c(F)c(F)c4F)c4nc(c(-c5c(F)c(F)c(F)c(F)c5F)c5ccc2[nH]5)C=C4)C=C3)cc1)C1=Cc2cc(Cl)cc(-c3ccc(CO)cc3)c2O[C@@H]1C(F)(F)F
REMARK SMILES IDX 8 1 7 2 6 3 5 4 4 5 3 6 2 7 1 8 81 9 82 10 99 11 83 12 98 13
REMARK SMILES IDX 84 14 97 15 85 16 88 17 86 18 87 19 100 20 101 21 102 22
REMARK SMILES IDX 103 23 89 24 90 25 96 26 91 27 95 28 92 29 93 30 94 31 9 33
REMARK SMILES IDX 10 34 11 35 12 36 13 37 14 38 15 39 16 40 17 41 18 42 19 43
REMARK SMILES IDX 80 44 20 45 79 46 21 47 22 48 23 49 73 50 24 51 78 52 72 53
REMARK SMILES IDX 74 54 25 55 77 56 71 57 70 58 26 60 58 61 38 62 57 63 39 64
REMARK SMILES IDX 42 65 56 66 75 67 40 68 41 69 55 71 76 72 43 73 27 74 28 75
REMARK SMILES IDX 36 76 29 77 30 78 34 79 37 80 31 81 32 82 35 83 33 84 59 85
REMARK SMILES IDX 60 86 68 87 61 88 62 89 66 90 69 91 63 92 64 93 67 94 65 95
REMARK SMILES IDX 44 96 45 97 53 98 46 99 47 100 51 101 54 102 48 103 49 104
REMARK SMILES IDX 52 105 50 106
REMARK H PARENT 94 32 74 59 42 70
REMARK Flexibility Score: inf
ROOT
ATOM      1  C   UNL A   1      32.899  35.975  29.621  1.00  0.00     0.188 C 
ENDROOT
BRANCH   1   2
ATOM      2  C   UNL A   1      33.804  35.275  28.617  1.00  0.00     0.188 C 
BRANCH   2   3
ATOM      3  O   UNL A   1      33.702  33.871  28.700  1.00  0.00    -0.376 OA
BRANCH   3   4
ATOM      4  C   UNL A   1      34.679  33.078  28.055  1.00  0.00     0.202 C 
BRANCH   4   5
ATOM      5  C   UNL A   1      34.282  31.641  27.682  1.00  0.00     0.261 C 
BRANCH   5   6
ATOM      6  O   UNL A   1      34.632  30.632  28.661  1.00  0.00    -0.460 OA
BRANCH   6   7
ATOM      7  C   UNL A   1      35.908  30.134  28.642  1.00  0.00     0.338 C 
ATOM      8  O   UNL A   1      36.310  29.374  27.777  1.00  0.00    -0.246 OA
BRANCH   7   9
ATOM      9  C   UNL A   1      36.725  30.617  29.787  1.00  0.00     0.087 C 
ATOM     10  C   UNL A   1      36.855  29.941  30.940  1.00  0.00     0.027 C 
ATOM     11  C   UNL A   1      37.774  31.627  29.500  1.00  0.00     0.316 C 
ATOM     12  C   UNL A   1      38.257  29.513  31.179  1.00  0.00     0.019 A 
ATOM     13  O   UNL A   1      39.081  30.990  29.464  1.00  0.00    -0.475 OA
ATOM     14  C   UNL A   1      38.595  28.624  32.196  1.00  0.00     0.032 A 
ATOM     15  C   UNL A   1      39.232  29.829  30.205  1.00  0.00     0.135 A 
ATOM     16  C   UNL A   1      39.867  28.046  32.207  1.00  0.00     0.042 A 
ATOM     17  C   UNL A   1      40.371  28.996  30.029  1.00  0.00     0.026 A 
ATOM     18  Cl  UNL A   1      40.364  27.093  33.550  1.00  0.00    -0.084 Cl
ATOM     19  C   UNL A   1      40.715  28.170  31.106  1.00  0.00     0.033 A 
BRANCH  11  20
ATOM     20  C   UNL A   1      37.568  32.913  30.324  1.00  0.00     0.430 C 
ATOM     21  F   UNL A   1      38.448  32.997  31.348  1.00  0.00    -0.167 F 
ATOM     22  F   UNL A   1      37.806  34.006  29.541  1.00  0.00    -0.167 F 
ATOM     23  F   UNL A   1      36.325  33.053  30.823  1.00  0.00    -0.167 F 
ENDBRANCH  11  20
BRANCH  17  24
ATOM     24  C   UNL A   1      41.075  28.765  28.735  1.00  0.00    -0.015 A 
ATOM     25  C   UNL A   1      42.434  28.359  28.711  1.00  0.00     0.009 A 
ATOM     26  C   UNL A   1      40.467  28.948  27.499  1.00  0.00     0.009 A 
ATOM     27  C   UNL A   1      43.123  28.083  27.510  1.00  0.00     0.007 A 
ATOM     28  C   UNL A   1      41.144  28.627  26.303  1.00  0.00     0.007 A 
ATOM     29  C   UNL A   1      42.469  28.179  26.282  1.00  0.00    -0.023 A 
BRANCH  29  30
ATOM     30  C   UNL A   1      43.154  27.828  24.981  1.00  0.00     0.191 C 
BRANCH  30  31
ATOM     31  O   UNL A   1      43.020  26.449  24.687  1.00  0.00    -0.392 OA
ATOM     32  H   UNL A   1      43.065  25.937  25.509  1.00  0.00     0.211 HD
ENDBRANCH  30  31
ENDBRANCH  29  30
ENDBRANCH  17  24
ENDBRANCH   7   9
ENDBRANCH   6   7
ENDBRANCH   5   6
ENDBRANCH   4   5
ENDBRANCH   3   4
ENDBRANCH   2   3
ENDBRANCH   1   2
BRANCH   1  33
ATOM     33  O   UNL A   1      32.826  35.285  30.869  1.00  0.00    -0.377 OA
BRANCH  33  34
ATOM     34  C   UNL A   1      32.476  36.084  31.997  1.00  0.00     0.188 C 
BRANCH  34  35
ATOM     35  C   UNL A   1      33.649  36.807  32.696  1.00  0.00     0.188 C 
BRANCH  35  36
ATOM     36  O   UNL A   1      34.549  36.157  33.579  1.00  0.00    -0.376 OA
BRANCH  36  37
ATOM     37  C   UNL A   1      35.546  35.321  33.035  1.00  0.00     0.202 C 
BRANCH  37  38
ATOM     38  C   UNL A   1      36.121  34.279  34.011  1.00  0.00     0.261 C 
BRANCH  38  39
ATOM     39  O   UNL A   1      37.323  34.675  34.705  1.00  0.00    -0.460 OA
BRANCH  39  40
ATOM     40  C   UNL A   1      37.805  33.817  35.646  1.00  0.00     0.338 C 
ATOM     41  O   UNL A   1      37.367  33.641  36.753  1.00  0.00    -0.246 OA
BRANCH  40  42
ATOM     42  C   UNL A   1      38.923  33.014  35.044  1.00  0.00     0.060 A 
ATOM     43  C   UNL A   1      40.213  33.568  35.023  1.00  0.00     0.016 A 
ATOM     44  C   UNL A   1      38.734  31.731  34.521  1.00  0.00     0.016 A 
ATOM     45  C   UNL A   1      41.293  32.874  34.443  1.00  0.00     0.010 A 
ATOM     46  C   UNL A   1      39.817  31.032  33.953  1.00  0.00     0.010 A 
ATOM     47  C   UNL A   1      41.105  31.608  33.871  1.00  0.00    -0.014 A 
BRANCH  47  48
ATOM     48  C   UNL A   1      42.156  30.962  33.016  1.00  0.00     0.031 A 
ATOM     49  C   UNL A   1      42.952  29.829  33.616  1.00  0.00     0.074 A 
ATOM     50  C   UNL A   1      42.465  31.354  31.760  1.00  0.00     0.049 A 
ATOM     51  N   UNL A   1      43.945  29.142  33.106  1.00  0.00    -0.248 NA
ATOM     52  C   UNL A   1      42.579  29.416  34.980  1.00  0.00     0.031 C 
ATOM     53  C   UNL A   1      41.797  32.400  30.999  1.00  0.00     0.029 A 
ATOM     54  N   UNL A   1      43.486  30.951  30.923  1.00  0.00    -0.354 N 
ATOM     55  C   UNL A   1      44.268  28.188  34.058  1.00  0.00     0.074 A 
ATOM     56  C   UNL A   1      43.469  28.471  35.231  1.00  0.00     0.031 C 
ATOM     57  C   UNL A   1      42.495  32.655  29.877  1.00  0.00     0.029 A 
ATOM     58  C   UNL A   1      43.627  31.737  29.799  1.00  0.00     0.049 A 
ATOM     59  H   UNL A   1      44.060  30.174  31.112  1.00  0.00     0.167 HD
ATOM     60  C   UNL A   1      45.091  27.118  33.952  1.00  0.00     0.037 A 
ATOM     61  C   UNL A   1      44.552  31.718  28.816  1.00  0.00     0.037 A 
ATOM     62  C   UNL A   1      45.903  26.818  32.806  1.00  0.00     0.049 A 
ATOM     63  C   UNL A   1      45.567  30.601  28.769  1.00  0.00     0.074 A 
ATOM     64  C   UNL A   1      46.729  25.728  32.594  1.00  0.00     0.029 A 
ATOM     65  N   UNL A   1      46.009  27.623  31.683  1.00  0.00    -0.354 N 
ATOM     66  N   UNL A   1      45.762  29.621  29.617  1.00  0.00    -0.248 NA
ATOM     67  C   UNL A   1      46.442  30.547  27.588  1.00  0.00     0.031 C 
ATOM     68  C   UNL A   1      47.375  25.898  31.365  1.00  0.00     0.029 A 
ATOM     69  C   UNL A   1      46.907  27.065  30.786  1.00  0.00     0.049 A 
ATOM     70  H   UNL A   1      45.519  28.465  31.543  1.00  0.00     0.167 HD
ATOM     71  C   UNL A   1      46.723  28.800  29.037  1.00  0.00     0.074 A 
ATOM     72  C   UNL A   1      47.076  29.397  27.769  1.00  0.00     0.031 C 
ATOM     73  C   UNL A   1      47.248  27.643  29.511  1.00  0.00     0.037 A 
BRANCH  60  74
ATOM     74  C   UNL A   1      45.099  26.158  35.106  1.00  0.00     0.064 A 
ATOM     75  C   UNL A   1      45.973  26.343  36.191  1.00  0.00     0.173 A 
ATOM     76  C   UNL A   1      44.229  25.060  35.141  1.00  0.00     0.173 A 
ATOM     77  F   UNL A   1      46.835  27.372  36.196  1.00  0.00    -0.203 F 
ATOM     78  C   UNL A   1      46.003  25.441  37.249  1.00  0.00     0.198 A 
ATOM     79  C   UNL A   1      44.238  24.179  36.220  1.00  0.00     0.198 A 
ATOM     80  F   UNL A   1      43.373  24.841  34.132  1.00  0.00    -0.203 F 
ATOM     81  F   UNL A   1      46.889  25.604  38.240  1.00  0.00    -0.200 F 
ATOM     82  C   UNL A   1      45.131  24.365  37.266  1.00  0.00     0.200 A 
ATOM     83  F   UNL A   1      43.387  23.145  36.243  1.00  0.00    -0.200 F 
ATOM     84  F   UNL A   1      45.157  23.497  38.287  1.00  0.00    -0.200 F 
ENDBRANCH  60  74
BRANCH  61  85
ATOM     85  C   UNL A   1      44.556  32.756  27.746  1.00  0.00     0.064 A 
ATOM     86  C   UNL A   1      44.007  32.499  26.481  1.00  0.00     0.173 A 
ATOM     87  C   UNL A   1      45.208  33.985  27.932  1.00  0.00     0.173 A 
ATOM     88  F   UNL A   1      43.408  31.324  26.240  1.00  0.00    -0.203 F 
ATOM     89  C   UNL A   1      44.148  33.408  25.433  1.00  0.00     0.198 A 
ATOM     90  C   UNL A   1      45.322  34.906  26.891  1.00  0.00     0.198 A 
ATOM     91  F   UNL A   1      45.768  34.276  29.115  1.00  0.00    -0.203 F 
ATOM     92  F   UNL A   1      43.685  33.098  24.214  1.00  0.00    -0.200 F 
ATOM     93  C   UNL A   1      44.804  34.611  25.638  1.00  0.00     0.200 A 
ATOM     94  F   UNL A   1      45.959  36.068  27.091  1.00  0.00    -0.200 F 
ATOM     95  F   UNL A   1      44.959  35.475  24.624  1.00  0.00    -0.200 F 
ENDBRANCH  61  85
BRANCH  73  96
ATOM     96  C   UNL A   1      48.211  26.898  28.627  1.00  0.00     0.064 A 
ATOM     97  C   UNL A   1      47.776  26.031  27.613  1.00  0.00     0.173 A 
ATOM     98  C   UNL A   1      49.596  27.069  28.788  1.00  0.00     0.173 A 
ATOM     99  F   UNL A   1      46.466  25.819  27.421  1.00  0.00    -0.203 F 
ATOM    100  C   UNL A   1      48.690  25.333  26.824  1.00  0.00     0.198 A 
ATOM    101  C   UNL A   1      50.505  26.402  27.972  1.00  0.00     0.198 A 
ATOM    102  F   UNL A   1      50.070  27.893  29.735  1.00  0.00    -0.203 F 
ATOM    103  F   UNL A   1      48.250  24.460  25.907  1.00  0.00    -0.200 F 
ATOM    104  C   UNL A   1      50.051  25.524  27.000  1.00  0.00     0.200 A 
ATOM    105  F   UNL A   1      51.820  26.603  28.131  1.00  0.00    -0.200 F 
ATOM    106  F   UNL A   1      50.927  24.857  26.237  1.00  0.00    -0.200 F 
ENDBRANCH  73  96
ENDBRANCH  47  48
ENDBRANCH  40  42
ENDBRANCH  39  40
ENDBRANCH  38  39
ENDBRANCH  37  38
ENDBRANCH  36  37
ENDBRANCH  35  36
ENDBRANCH  34  35
ENDBRANCH  33  34
ENDBRANCH   1  33
TORSDOF 24
ENDMDL
