MODEL 1
REMARK VINA RESULT:      -6.9      0.000      0.000
REMARK SMILES CCc1ccsc1C(=O)N(CC(=O)OCCOCCOCCOCCOC(=O)c1ccc(-c2c3nc(c(-c4c(F)c(F)c(F)c(F)c4F)c4ccc([nH]4)c(-c4c(F)c(F)c(F)c(F)c4F)c4nc(c(-c5c(F)c(F)c(F)c(F)c5F)c5ccc2[nH]5)C=C4)C=C3)cc1)c1ccccc1N
REMARK SMILES IDX 19 1 18 2 17 3 16 4 15 5 14 6 12 7 13 8 11 9 10 10 8 11 9 12
REMARK SMILES IDX 7 13 3 14 4 15 5 16 6 17 2 18 1 19 92 20 93 21 97 22 94 23
REMARK SMILES IDX 96 24 95 25 98 26 20 29 21 30 22 31 23 32 24 33 25 34 26 35
REMARK SMILES IDX 27 36 28 37 29 38 30 39 91 40 31 41 90 42 32 43 33 44 34 45
REMARK SMILES IDX 84 46 35 47 89 48 83 49 85 50 36 51 88 52 82 53 81 54 37 56
REMARK SMILES IDX 69 57 49 58 68 59 50 60 53 61 67 62 86 63 51 64 52 65 66 67
REMARK SMILES IDX 87 68 54 69 38 70 39 71 47 72 40 73 41 74 45 75 48 76 42 77
REMARK SMILES IDX 43 78 46 79 44 80 70 81 71 82 79 83 72 84 73 85 77 86 80 87
REMARK SMILES IDX 74 88 75 89 78 90 76 91 55 92 56 93 64 94 57 95 58 96 62 97
REMARK SMILES IDX 65 98 59 99 60 100 63 101 61 102
REMARK H PARENT 98 27 98 28 85 55 53 66
REMARK Flexibility Score: inf
ROOT
ATOM      1  C   UNL A   1      50.636  29.920  26.405  1.00  0.00     0.188 C 
ENDROOT
BRANCH   1   2
ATOM      2  C   UNL A   1      50.683  28.509  25.762  1.00  0.00     0.188 C 
BRANCH   2   3
ATOM      3  O   UNL A   1      49.589  28.238  24.904  1.00  0.00    -0.376 OA
BRANCH   3   4
ATOM      4  C   UNL A   1      49.157  26.895  24.772  1.00  0.00     0.202 C 
BRANCH   4   5
ATOM      5  C   UNL A   1      47.802  26.499  25.382  1.00  0.00     0.261 C 
BRANCH   5   6
ATOM      6  O   UNL A   1      46.619  27.017  24.721  1.00  0.00    -0.462 OA
BRANCH   6   7
ATOM      7  C   UNL A   1      45.627  27.541  25.482  1.00  0.00     0.326 C 
ATOM      8  O   UNL A   1      45.239  28.699  25.365  1.00  0.00    -0.250 OA
BRANCH   7   9
ATOM      9  C   UNL A   1      45.044  26.563  26.534  1.00  0.00     0.248 C 
BRANCH   9  10
ATOM     10  N   UNL A   1      43.635  26.196  26.526  1.00  0.00    -0.294 N 
BRANCH  10  11
ATOM     11  C   UNL A   1      43.220  24.971  25.945  1.00  0.00     0.269 C 
ATOM     12  O   UNL A   1      43.543  24.776  24.763  1.00  0.00    -0.268 OA
BRANCH  11  13
ATOM     13  C   UNL A   1      42.366  23.941  26.626  1.00  0.00     0.096 A 
ATOM     14  C   UNL A   1      41.070  23.732  27.143  1.00  0.00    -0.025 A 
ATOM     15  C   UNL A   1      40.976  22.440  27.809  1.00  0.00     0.016 A 
ATOM     16  C   UNL A   1      42.126  21.707  27.802  1.00  0.00     0.066 A 
ATOM     17  S   UNL A   1      43.333  22.481  26.922  1.00  0.00    -0.138 S 
BRANCH  14  18
ATOM     18  C   UNL A   1      39.824  24.587  27.265  1.00  0.00     0.034 C 
ATOM     19  C   UNL A   1      38.579  24.076  26.545  1.00  0.00     0.009 C 
ENDBRANCH  14  18
ENDBRANCH  11  13
ENDBRANCH  10  11
BRANCH  10  20
ATOM     20  C   UNL A   1      42.658  27.101  27.193  1.00  0.00     0.068 A 
ATOM     21  C   UNL A   1      42.283  26.860  28.539  1.00  0.00     0.028 A 
ATOM     22  C   UNL A   1      42.029  28.223  26.572  1.00  0.00     0.056 A 
ATOM     23  C   UNL A   1      41.427  27.708  29.262  1.00  0.00     0.002 A 
ATOM     24  C   UNL A   1      41.138  29.043  27.309  1.00  0.00     0.028 A 
ATOM     25  C   UNL A   1      40.865  28.813  28.651  1.00  0.00     0.002 A 
BRANCH  22  26
ATOM     26  N   UNL A   1      42.082  28.489  25.194  1.00  0.00    -0.397 N 
ATOM     27  H   UNL A   1      42.050  29.418  24.870  1.00  0.00     0.156 HD
ATOM     28  H   UNL A   1      42.151  27.746  24.551  1.00  0.00     0.156 HD
ENDBRANCH  22  26
ENDBRANCH  10  20
ENDBRANCH   9  10
ENDBRANCH   7   9
ENDBRANCH   6   7
ENDBRANCH   5   6
ENDBRANCH   4   5
ENDBRANCH   3   4
ENDBRANCH   2   3
ENDBRANCH   1   2
BRANCH   1  29
ATOM     29  O   UNL A   1      51.067  31.091  25.723  1.00  0.00    -0.377 OA
BRANCH  29  30
ATOM     30  C   UNL A   1      50.863  32.332  26.356  1.00  0.00     0.188 C 
BRANCH  30  31
ATOM     31  C   UNL A   1      49.417  32.534  26.841  1.00  0.00     0.188 C 
BRANCH  31  32
ATOM     32  O   UNL A   1      48.580  33.173  25.895  1.00  0.00    -0.376 OA
BRANCH  32  33
ATOM     33  C   UNL A   1      48.269  34.553  25.992  1.00  0.00     0.202 C 
BRANCH  33  34
ATOM     34  C   UNL A   1      47.049  35.199  25.307  1.00  0.00     0.261 C 
BRANCH  34  35
ATOM     35  O   UNL A   1      46.031  34.337  24.812  1.00  0.00    -0.460 OA
BRANCH  35  36
ATOM     36  C   UNL A   1      44.789  34.484  25.315  1.00  0.00     0.338 C 
ATOM     37  O   UNL A   1      43.886  35.155  24.883  1.00  0.00    -0.246 OA
BRANCH  36  38
ATOM     38  C   UNL A   1      44.673  33.466  26.381  1.00  0.00     0.060 A 
ATOM     39  C   UNL A   1      45.106  33.814  27.667  1.00  0.00     0.016 A 
ATOM     40  C   UNL A   1      44.081  32.223  26.132  1.00  0.00     0.016 A 
ATOM     41  C   UNL A   1      44.951  32.915  28.711  1.00  0.00     0.010 A 
ATOM     42  C   UNL A   1      43.981  31.296  27.168  1.00  0.00     0.010 A 
ATOM     43  C   UNL A   1      44.450  31.635  28.447  1.00  0.00    -0.014 A 
BRANCH  43  44
ATOM     44  C   UNL A   1      44.732  30.588  29.443  1.00  0.00     0.031 A 
ATOM     45  C   UNL A   1      43.718  30.399  30.531  1.00  0.00     0.074 A 
ATOM     46  C   UNL A   1      45.797  29.781  29.326  1.00  0.00     0.049 A 
ATOM     47  N   UNL A   1      43.673  29.511  31.488  1.00  0.00    -0.248 NA
ATOM     48  C   UNL A   1      42.587  31.345  30.532  1.00  0.00     0.031 C 
ATOM     49  C   UNL A   1      46.807  29.865  28.275  1.00  0.00     0.029 A 
ATOM     50  N   UNL A   1      46.194  28.728  30.104  1.00  0.00    -0.354 N 
ATOM     51  C   UNL A   1      42.514  29.791  32.197  1.00  0.00     0.074 A 
ATOM     52  C   UNL A   1      41.899  30.946  31.588  1.00  0.00     0.031 C 
ATOM     53  C   UNL A   1      47.728  28.908  28.487  1.00  0.00     0.029 A 
ATOM     54  C   UNL A   1      47.376  28.166  29.697  1.00  0.00     0.049 A 
ATOM     55  H   UNL A   1      45.682  28.405  30.880  1.00  0.00     0.167 HD
ATOM     56  C   UNL A   1      42.006  29.132  33.264  1.00  0.00     0.037 A 
ATOM     57  C   UNL A   1      48.096  27.178  30.263  1.00  0.00     0.037 A 
ATOM     58  C   UNL A   1      42.650  28.000  33.870  1.00  0.00     0.049 A 
ATOM     59  C   UNL A   1      47.548  26.500  31.491  1.00  0.00     0.074 A 
ATOM     60  C   UNL A   1      42.233  27.242  34.947  1.00  0.00     0.029 A 
ATOM     61  N   UNL A   1      43.870  27.478  33.457  1.00  0.00    -0.354 N 
ATOM     62  N   UNL A   1      46.434  26.736  32.143  1.00  0.00    -0.248 NA
ATOM     63  C   UNL A   1      48.351  25.407  32.056  1.00  0.00     0.031 C 
ATOM     64  C   UNL A   1      43.234  26.307  35.231  1.00  0.00     0.029 A 
ATOM     65  C   UNL A   1      44.241  26.431  34.283  1.00  0.00     0.049 A 
ATOM     66  H   UNL A   1      44.393  27.805  32.691  1.00  0.00     0.167 HD
ATOM     67  C   UNL A   1      46.388  25.814  33.180  1.00  0.00     0.074 A 
ATOM     68  C   UNL A   1      47.583  25.002  33.058  1.00  0.00     0.031 C 
ATOM     69  C   UNL A   1      45.446  25.648  34.142  1.00  0.00     0.037 A 
BRANCH  56  70
ATOM     70  C   UNL A   1      40.742  29.678  33.863  1.00  0.00     0.064 A 
ATOM     71  C   UNL A   1      39.483  29.465  33.277  1.00  0.00     0.173 A 
ATOM     72  C   UNL A   1      40.798  30.464  35.023  1.00  0.00     0.173 A 
ATOM     73  F   UNL A   1      39.376  28.741  32.153  1.00  0.00    -0.203 F 
ATOM     74  C   UNL A   1      38.338  30.059  33.803  1.00  0.00     0.198 A 
ATOM     75  C   UNL A   1      39.645  31.025  35.567  1.00  0.00     0.198 A 
ATOM     76  F   UNL A   1      41.973  30.703  35.623  1.00  0.00    -0.203 F 
ATOM     77  F   UNL A   1      37.160  29.906  33.180  1.00  0.00    -0.200 F 
ATOM     78  C   UNL A   1      38.420  30.835  34.949  1.00  0.00     0.200 A 
ATOM     79  F   UNL A   1      39.725  31.766  36.681  1.00  0.00    -0.200 F 
ATOM     80  F   UNL A   1      37.318  31.410  35.449  1.00  0.00    -0.200 F 
ENDBRANCH  56  70
BRANCH  57  81
ATOM     81  C   UNL A   1      49.405  26.802  29.675  1.00  0.00     0.064 A 
ATOM     82  C   UNL A   1      49.503  25.862  28.642  1.00  0.00     0.173 A 
ATOM     83  C   UNL A   1      50.591  27.410  30.118  1.00  0.00     0.173 A 
ATOM     84  F   UNL A   1      48.403  25.238  28.197  1.00  0.00    -0.203 F 
ATOM     85  C   UNL A   1      50.737  25.541  28.076  1.00  0.00     0.198 A 
ATOM     86  C   UNL A   1      51.819  27.109  29.534  1.00  0.00     0.198 A 
ATOM     87  F   UNL A   1      50.552  28.317  31.106  1.00  0.00    -0.203 F 
ATOM     88  F   UNL A   1      50.808  24.617  27.109  1.00  0.00    -0.200 F 
ATOM     89  C   UNL A   1      51.892  26.172  28.515  1.00  0.00     0.200 A 
ATOM     90  F   UNL A   1      52.929  27.734  29.951  1.00  0.00    -0.200 F 
ATOM     91  F   UNL A   1      53.074  25.876  27.959  1.00  0.00    -0.200 F 
ENDBRANCH  57  81
BRANCH  69  92
ATOM     92  C   UNL A   1      45.657  24.531  35.124  1.00  0.00     0.064 A 
ATOM     93  C   UNL A   1      46.243  24.749  36.379  1.00  0.00     0.173 A 
ATOM     94  C   UNL A   1      45.223  23.231  34.819  1.00  0.00     0.173 A 
ATOM     95  F   UNL A   1      46.685  25.971  36.715  1.00  0.00    -0.203 F 
ATOM     96  C   UNL A   1      46.417  23.702  37.279  1.00  0.00     0.198 A 
ATOM     97  C   UNL A   1      45.364  22.194  35.737  1.00  0.00     0.198 A 
ATOM     98  F   UNL A   1      44.645  22.969  33.637  1.00  0.00    -0.203 F 
ATOM     99  F   UNL A   1      47.031  23.922  38.450  1.00  0.00    -0.200 F 
ATOM    100  C   UNL A   1      45.970  22.428  36.961  1.00  0.00     0.200 A 
ATOM    101  F   UNL A   1      44.912  20.969  35.435  1.00  0.00    -0.200 F 
ATOM    102  F   UNL A   1      46.130  21.423  37.833  1.00  0.00    -0.200 F 
ENDBRANCH  69  92
ENDBRANCH  43  44
ENDBRANCH  36  38
ENDBRANCH  35  36
ENDBRANCH  34  35
ENDBRANCH  33  34
ENDBRANCH  32  33
ENDBRANCH  31  32
ENDBRANCH  30  31
ENDBRANCH  29  30
ENDBRANCH   1  29
TORSDOF 26
ENDMDL
MODEL 2
REMARK VINA RESULT:      -6.5      5.585     10.469
REMARK SMILES CCc1ccsc1C(=O)N(CC(=O)OCCOCCOCCOCCOC(=O)c1ccc(-c2c3nc(c(-c4c(F)c(F)c(F)c(F)c4F)c4ccc([nH]4)c(-c4c(F)c(F)c(F)c(F)c4F)c4nc(c(-c5c(F)c(F)c(F)c(F)c5F)c5ccc2[nH]5)C=C4)C=C3)cc1)c1ccccc1N
REMARK SMILES IDX 19 1 18 2 17 3 16 4 15 5 14 6 12 7 13 8 11 9 10 10 8 11 9 12
REMARK SMILES IDX 7 13 3 14 4 15 5 16 6 17 2 18 1 19 92 20 93 21 97 22 94 23
REMARK SMILES IDX 96 24 95 25 98 26 20 29 21 30 22 31 23 32 24 33 25 34 26 35
REMARK SMILES IDX 27 36 28 37 29 38 30 39 91 40 31 41 90 42 32 43 33 44 34 45
REMARK SMILES IDX 84 46 35 47 89 48 83 49 85 50 36 51 88 52 82 53 81 54 37 56
REMARK SMILES IDX 69 57 49 58 68 59 50 60 53 61 67 62 86 63 51 64 52 65 66 67
REMARK SMILES IDX 87 68 54 69 38 70 39 71 47 72 40 73 41 74 45 75 48 76 42 77
REMARK SMILES IDX 43 78 46 79 44 80 70 81 71 82 79 83 72 84 73 85 77 86 80 87
REMARK SMILES IDX 74 88 75 89 78 90 76 91 55 92 56 93 64 94 57 95 58 96 62 97
REMARK SMILES IDX 65 98 59 99 60 100 63 101 61 102
REMARK H PARENT 98 27 98 28 85 55 53 66
REMARK Flexibility Score: inf
ROOT
ATOM      1  C   UNL A   1      37.826  32.846  36.170  1.00  0.00     0.188 C 
ENDROOT
BRANCH   1   2
ATOM      2  C   UNL A   1      37.783  34.300  35.634  1.00  0.00     0.188 C 
BRANCH   2   3
ATOM      3  O   UNL A   1      37.417  34.393  34.269  1.00  0.00    -0.376 OA
BRANCH   3   4
ATOM      4  C   UNL A   1      38.377  34.886  33.349  1.00  0.00     0.202 C 
BRANCH   4   5
ATOM      5  C   UNL A   1      39.708  34.129  33.206  1.00  0.00     0.261 C 
BRANCH   5   6
ATOM      6  O   UNL A   1      39.871  33.327  32.009  1.00  0.00    -0.462 OA
BRANCH   6   7
ATOM      7  C   UNL A   1      39.961  31.981  32.136  1.00  0.00     0.326 C 
ATOM      8  O   UNL A   1      40.925  31.336  31.736  1.00  0.00    -0.250 OA
BRANCH   7   9
ATOM      9  C   UNL A   1      38.728  31.318  32.803  1.00  0.00     0.248 C 
BRANCH   9  10
ATOM     10  N   UNL A   1      37.518  31.037  32.043  1.00  0.00    -0.294 N 
BRANCH  10  11
ATOM     11  C   UNL A   1      37.284  29.737  31.529  1.00  0.00     0.269 C 
ATOM     12  O   UNL A   1      36.994  28.855  32.352  1.00  0.00    -0.268 OA
BRANCH  11  13
ATOM     13  C   UNL A   1      37.433  29.342  30.088  1.00  0.00     0.096 A 
ATOM     14  C   UNL A   1      38.243  28.581  29.218  1.00  0.00    -0.025 A 
ATOM     15  C   UNL A   1      37.832  28.760  27.832  1.00  0.00     0.016 A 
ATOM     16  C   UNL A   1      36.776  29.604  27.652  1.00  0.00     0.066 A 
ATOM     17  S   UNL A   1      36.169  30.140  29.127  1.00  0.00    -0.138 S 
BRANCH  14  18
ATOM     18  C   UNL A   1      39.492  27.740  29.393  1.00  0.00     0.034 C 
ATOM     19  C   UNL A   1      40.592  28.334  30.269  1.00  0.00     0.009 C 
ENDBRANCH  14  18
ENDBRANCH  11  13
ENDBRANCH  10  11
BRANCH  10  20
ATOM     20  C   UNL A   1      36.511  32.122  31.877  1.00  0.00     0.068 A 
ATOM     21  C   UNL A   1      35.345  32.129  32.684  1.00  0.00     0.028 A 
ATOM     22  C   UNL A   1      36.611  33.190  30.933  1.00  0.00     0.056 A 
ATOM     23  C   UNL A   1      34.386  33.156  32.641  1.00  0.00     0.002 A 
ATOM     24  C   UNL A   1      35.611  34.194  30.881  1.00  0.00     0.028 A 
ATOM     25  C   UNL A   1      34.527  34.201  31.749  1.00  0.00     0.002 A 
BRANCH  22  26
ATOM     26  N   UNL A   1      37.555  33.234  29.894  1.00  0.00    -0.397 N 
ATOM     27  H   UNL A   1      38.141  34.019  29.795  1.00  0.00     0.156 HD
ATOM     28  H   UNL A   1      37.632  32.480  29.267  1.00  0.00     0.156 HD
ENDBRANCH  22  26
ENDBRANCH  10  20
ENDBRANCH   9  10
ENDBRANCH   7   9
ENDBRANCH   6   7
ENDBRANCH   5   6
ENDBRANCH   4   5
ENDBRANCH   3   4
ENDBRANCH   2   3
ENDBRANCH   1   2
BRANCH   1  29
ATOM     29  O   UNL A   1      37.238  32.465  37.408  1.00  0.00    -0.377 OA
BRANCH  29  30
ATOM     30  C   UNL A   1      37.966  32.717  38.586  1.00  0.00     0.188 C 
BRANCH  30  31
ATOM     31  C   UNL A   1      39.440  33.067  38.324  1.00  0.00     0.188 C 
BRANCH  31  32
ATOM     32  O   UNL A   1      40.328  32.589  39.318  1.00  0.00    -0.376 OA
BRANCH  32  33
ATOM     33  C   UNL A   1      40.792  33.427  40.364  1.00  0.00     0.202 C 
BRANCH  33  34
ATOM     34  C   UNL A   1      40.856  34.962  40.258  1.00  0.00     0.261 C 
BRANCH  34  35
ATOM     35  O   UNL A   1      42.082  35.549  39.834  1.00  0.00    -0.460 OA
BRANCH  35  36
ATOM     36  C   UNL A   1      42.019  36.515  38.897  1.00  0.00     0.338 C 
ATOM     37  O   UNL A   1      41.895  37.702  39.059  1.00  0.00    -0.246 OA
BRANCH  36  38
ATOM     38  C   UNL A   1      42.375  35.852  37.623  1.00  0.00     0.060 A 
ATOM     39  C   UNL A   1      41.351  35.629  36.694  1.00  0.00     0.016 A 
ATOM     40  C   UNL A   1      43.702  35.525  37.325  1.00  0.00     0.016 A 
ATOM     41  C   UNL A   1      41.652  35.074  35.460  1.00  0.00     0.010 A 
ATOM     42  C   UNL A   1      43.996  34.911  36.109  1.00  0.00     0.010 A 
ATOM     43  C   UNL A   1      42.961  34.656  35.195  1.00  0.00    -0.014 A 
BRANCH  43  44
ATOM     44  C   UNL A   1      43.144  33.678  34.110  1.00  0.00     0.031 A 
ATOM     45  C   UNL A   1      43.333  34.228  32.728  1.00  0.00     0.074 A 
ATOM     46  C   UNL A   1      43.232  32.364  34.362  1.00  0.00     0.049 A 
ATOM     47  N   UNL A   1      43.587  33.607  31.608  1.00  0.00    -0.248 NA
ATOM     48  C   UNL A   1      43.228  35.693  32.595  1.00  0.00     0.031 C 
ATOM     49  C   UNL A   1      43.106  31.747  35.680  1.00  0.00     0.029 A 
ATOM     50  N   UNL A   1      43.456  31.316  33.510  1.00  0.00    -0.354 N 
ATOM     51  C   UNL A   1      43.674  34.602  30.645  1.00  0.00     0.074 A 
ATOM     52  C   UNL A   1      43.415  35.863  31.298  1.00  0.00     0.031 C 
ATOM     53  C   UNL A   1      43.236  30.415  35.545  1.00  0.00     0.029 A 
ATOM     54  C   UNL A   1      43.431  30.095  34.132  1.00  0.00     0.049 A 
ATOM     55  H   UNL A   1      43.618  31.428  32.546  1.00  0.00     0.167 HD
ATOM     56  C   UNL A   1      43.952  34.471  29.328  1.00  0.00     0.037 A 
ATOM     57  C   UNL A   1      43.531  28.861  33.601  1.00  0.00     0.037 A 
ATOM     58  C   UNL A   1      44.181  33.201  28.694  1.00  0.00     0.049 A 
ATOM     59  C   UNL A   1      43.774  28.730  32.121  1.00  0.00     0.074 A 
ATOM     60  C   UNL A   1      44.480  32.937  27.372  1.00  0.00     0.029 A 
ATOM     61  N   UNL A   1      44.109  31.976  29.345  1.00  0.00    -0.354 N 
ATOM     62  N   UNL A   1      43.896  29.670  31.213  1.00  0.00    -0.248 NA
ATOM     63  C   UNL A   1      43.909  27.367  31.591  1.00  0.00     0.031 C 
ATOM     64  C   UNL A   1      44.519  31.548  27.207  1.00  0.00     0.029 A 
ATOM     65  C   UNL A   1      44.321  30.948  28.444  1.00  0.00     0.049 A 
ATOM     66  H   UNL A   1      43.934  31.857  30.306  1.00  0.00     0.167 HD
ATOM     67  C   UNL A   1      44.139  29.019  30.011  1.00  0.00     0.074 A 
ATOM     68  C   UNL A   1      44.166  27.601  30.312  1.00  0.00     0.031 C 
ATOM     69  C   UNL A   1      44.329  29.542  28.772  1.00  0.00     0.037 A 
BRANCH  56  70
ATOM     70  C   UNL A   1      43.948  35.724  28.502  1.00  0.00     0.064 A 
ATOM     71  C   UNL A   1      45.113  36.475  28.273  1.00  0.00     0.173 A 
ATOM     72  C   UNL A   1      42.745  36.206  27.965  1.00  0.00     0.173 A 
ATOM     73  F   UNL A   1      46.286  36.073  28.785  1.00  0.00    -0.203 F 
ATOM     74  C   UNL A   1      45.064  37.682  27.580  1.00  0.00     0.198 A 
ATOM     75  C   UNL A   1      42.707  37.395  27.240  1.00  0.00     0.198 A 
ATOM     76  F   UNL A   1      41.601  35.533  28.155  1.00  0.00    -0.203 F 
ATOM     77  F   UNL A   1      46.176  38.419  27.444  1.00  0.00    -0.200 F 
ATOM     78  C   UNL A   1      43.862  38.138  27.061  1.00  0.00     0.200 A 
ATOM     79  F   UNL A   1      41.546  37.829  26.730  1.00  0.00    -0.200 F 
ATOM     80  F   UNL A   1      43.816  39.304  26.400  1.00  0.00    -0.200 F 
ENDBRANCH  56  70
BRANCH  57  81
ATOM     81  C   UNL A   1      43.384  27.675  34.482  1.00  0.00     0.064 A 
ATOM     82  C   UNL A   1      42.164  27.000  34.606  1.00  0.00     0.173 A 
ATOM     83  C   UNL A   1      44.484  27.172  35.196  1.00  0.00     0.173 A 
ATOM     84  F   UNL A   1      41.079  27.452  33.961  1.00  0.00    -0.203 F 
ATOM     85  C   UNL A   1      42.047  25.868  35.413  1.00  0.00     0.198 A 
ATOM     86  C   UNL A   1      44.373  26.026  35.979  1.00  0.00     0.198 A 
ATOM     87  F   UNL A   1      45.675  27.783  35.112  1.00  0.00    -0.203 F 
ATOM     88  F   UNL A   1      40.862  25.256  35.537  1.00  0.00    -0.200 F 
ATOM     89  C   UNL A   1      43.153  25.376  36.090  1.00  0.00     0.200 A 
ATOM     90  F   UNL A   1      45.449  25.546  36.619  1.00  0.00    -0.200 F 
ATOM     91  F   UNL A   1      43.044  24.279  36.850  1.00  0.00    -0.200 F 
ENDBRANCH  57  81
BRANCH  69  92
ATOM     92  C   UNL A   1      44.607  28.577  27.655  1.00  0.00     0.064 A 
ATOM     93  C   UNL A   1      43.589  28.108  26.812  1.00  0.00     0.173 A 
ATOM     94  C   UNL A   1      45.920  28.152  27.399  1.00  0.00     0.173 A 
ATOM     95  F   UNL A   1      42.315  28.476  27.021  1.00  0.00    -0.203 F 
ATOM     96  C   UNL A   1      43.870  27.225  25.774  1.00  0.00     0.198 A 
ATOM     97  C   UNL A   1      46.203  27.298  26.337  1.00  0.00     0.198 A 
ATOM     98  F   UNL A   1      46.933  28.579  28.169  1.00  0.00    -0.203 F 
ATOM     99  F   UNL A   1      42.875  26.746  25.015  1.00  0.00    -0.200 F 
ATOM    100  C   UNL A   1      45.178  26.828  25.532  1.00  0.00     0.200 A 
ATOM    101  F   UNL A   1      47.469  26.933  26.093  1.00  0.00    -0.200 F 
ATOM    102  F   UNL A   1      45.448  25.984  24.526  1.00  0.00    -0.200 F 
ENDBRANCH  69  92
ENDBRANCH  43  44
ENDBRANCH  36  38
ENDBRANCH  35  36
ENDBRANCH  34  35
ENDBRANCH  33  34
ENDBRANCH  32  33
ENDBRANCH  31  32
ENDBRANCH  30  31
ENDBRANCH  29  30
ENDBRANCH   1  29
TORSDOF 26
ENDMDL
MODEL 3
REMARK VINA RESULT:      -6.2      6.315     10.917
REMARK SMILES CCc1ccsc1C(=O)N(CC(=O)OCCOCCOCCOCCOC(=O)c1ccc(-c2c3nc(c(-c4c(F)c(F)c(F)c(F)c4F)c4ccc([nH]4)c(-c4c(F)c(F)c(F)c(F)c4F)c4nc(c(-c5c(F)c(F)c(F)c(F)c5F)c5ccc2[nH]5)C=C4)C=C3)cc1)c1ccccc1N
REMARK SMILES IDX 19 1 18 2 17 3 16 4 15 5 14 6 12 7 13 8 11 9 10 10 8 11 9 12
REMARK SMILES IDX 7 13 3 14 4 15 5 16 6 17 2 18 1 19 92 20 93 21 97 22 94 23
REMARK SMILES IDX 96 24 95 25 98 26 20 29 21 30 22 31 23 32 24 33 25 34 26 35
REMARK SMILES IDX 27 36 28 37 29 38 30 39 91 40 31 41 90 42 32 43 33 44 34 45
REMARK SMILES IDX 84 46 35 47 89 48 83 49 85 50 36 51 88 52 82 53 81 54 37 56
REMARK SMILES IDX 69 57 49 58 68 59 50 60 53 61 67 62 86 63 51 64 52 65 66 67
REMARK SMILES IDX 87 68 54 69 38 70 39 71 47 72 40 73 41 74 45 75 48 76 42 77
REMARK SMILES IDX 43 78 46 79 44 80 70 81 71 82 79 83 72 84 73 85 77 86 80 87
REMARK SMILES IDX 74 88 75 89 78 90 76 91 55 92 56 93 64 94 57 95 58 96 62 97
REMARK SMILES IDX 65 98 59 99 60 100 63 101 61 102
REMARK H PARENT 98 27 98 28 85 55 53 66
REMARK Flexibility Score: inf
ROOT
ATOM      1  C   UNL A   1      36.327  31.032  29.982  1.00  0.00     0.188 C 
ENDROOT
BRANCH   1   2
ATOM      2  C   UNL A   1      36.598  31.551  28.546  1.00  0.00     0.188 C 
BRANCH   2   3
ATOM      3  O   UNL A   1      36.257  30.624  27.531  1.00  0.00    -0.376 OA
BRANCH   3   4
ATOM      4  C   UNL A   1      35.026  29.930  27.642  1.00  0.00     0.202 C 
BRANCH   4   5
ATOM      5  C   UNL A   1      33.722  30.746  27.616  1.00  0.00     0.261 C 
BRANCH   5   6
ATOM      6  O   UNL A   1      32.858  30.546  26.468  1.00  0.00    -0.462 OA
BRANCH   6   7
ATOM      7  C   UNL A   1      32.463  29.287  26.163  1.00  0.00     0.326 C 
ATOM      8  O   UNL A   1      32.306  28.413  27.011  1.00  0.00    -0.250 OA
BRANCH   7   9
ATOM      9  C   UNL A   1      32.257  29.031  24.648  1.00  0.00     0.248 C 
BRANCH   9  10
ATOM     10  N   UNL A   1      31.018  28.460  24.139  1.00  0.00    -0.294 N 
BRANCH  10  11
ATOM     11  C   UNL A   1      30.780  27.066  24.240  1.00  0.00     0.269 C 
ATOM     12  O   UNL A   1      29.847  26.711  24.977  1.00  0.00    -0.268 OA
BRANCH  11  13
ATOM     13  C   UNL A   1      31.612  26.001  23.586  1.00  0.00     0.096 A 
ATOM     14  C   UNL A   1      32.359  24.837  23.870  1.00  0.00    -0.025 A 
ATOM     15  C   UNL A   1      33.039  24.350  22.678  1.00  0.00     0.016 A 
ATOM     16  C   UNL A   1      32.828  25.093  21.554  1.00  0.00     0.066 A 
ATOM     17  S   UNL A   1      31.737  26.340  21.847  1.00  0.00    -0.138 S 
BRANCH  14  18
ATOM     18  C   UNL A   1      32.700  24.076  25.136  1.00  0.00     0.034 C 
ATOM     19  C   UNL A   1      33.804  24.669  26.006  1.00  0.00     0.009 C 
ENDBRANCH  14  18
ENDBRANCH  11  13
ENDBRANCH  10  11
BRANCH  10  20
ATOM     20  C   UNL A   1      29.989  29.376  23.574  1.00  0.00     0.068 A 
ATOM     21  C   UNL A   1      29.202  28.956  22.472  1.00  0.00     0.028 A 
ATOM     22  C   UNL A   1      29.722  30.697  24.050  1.00  0.00     0.056 A 
ATOM     23  C   UNL A   1      28.162  29.730  21.929  1.00  0.00     0.002 A 
ATOM     24  C   UNL A   1      28.694  31.476  23.462  1.00  0.00     0.028 A 
ATOM     25  C   UNL A   1      27.895  30.988  22.436  1.00  0.00     0.002 A 
BRANCH  22  26
ATOM     26  N   UNL A   1      30.539  31.382  24.965  1.00  0.00    -0.397 N 
ATOM     27  H   UNL A   1      31.421  31.715  24.683  1.00  0.00     0.156 HD
ATOM     28  H   UNL A   1      30.229  31.529  25.888  1.00  0.00     0.156 HD
ENDBRANCH  22  26
ENDBRANCH  10  20
ENDBRANCH   9  10
ENDBRANCH   7   9
ENDBRANCH   6   7
ENDBRANCH   5   6
ENDBRANCH   4   5
ENDBRANCH   3   4
ENDBRANCH   2   3
ENDBRANCH   1   2
BRANCH   1  29
ATOM     29  O   UNL A   1      35.146  31.355  30.706  1.00  0.00    -0.377 OA
BRANCH  29  30
ATOM     30  C   UNL A   1      35.290  32.068  31.911  1.00  0.00     0.188 C 
BRANCH  30  31
ATOM     31  C   UNL A   1      35.420  33.586  31.705  1.00  0.00     0.188 C 
BRANCH  31  32
ATOM     32  O   UNL A   1      36.741  34.073  31.854  1.00  0.00    -0.376 OA
BRANCH  32  33
ATOM     33  C   UNL A   1      37.125  34.846  32.980  1.00  0.00     0.202 C 
BRANCH  33  34
ATOM     34  C   UNL A   1      37.148  34.298  34.419  1.00  0.00     0.261 C 
BRANCH  34  35
ATOM     35  O   UNL A   1      37.349  32.900  34.595  1.00  0.00    -0.460 OA
BRANCH  35  36
ATOM     36  C   UNL A   1      38.506  32.502  35.159  1.00  0.00     0.338 C 
ATOM     37  O   UNL A   1      38.833  32.574  36.317  1.00  0.00    -0.246 OA
BRANCH  36  38
ATOM     38  C   UNL A   1      39.213  31.735  34.111  1.00  0.00     0.060 A 
ATOM     39  C   UNL A   1      40.342  30.997  34.489  1.00  0.00     0.016 A 
ATOM     40  C   UNL A   1      38.728  31.687  32.800  1.00  0.00     0.016 A 
ATOM     41  C   UNL A   1      40.993  30.208  33.553  1.00  0.00     0.010 A 
ATOM     42  C   UNL A   1      39.417  30.943  31.844  1.00  0.00     0.010 A 
ATOM     43  C   UNL A   1      40.570  30.234  32.220  1.00  0.00    -0.014 A 
BRANCH  43  44
ATOM     44  C   UNL A   1      41.533  29.779  31.203  1.00  0.00     0.031 A 
ATOM     45  C   UNL A   1      42.766  30.614  31.019  1.00  0.00     0.074 A 
ATOM     46  C   UNL A   1      41.360  28.625  30.545  1.00  0.00     0.049 A 
ATOM     47  N   UNL A   1      43.805  30.411  30.256  1.00  0.00    -0.248 NA
ATOM     48  C   UNL A   1      42.836  31.850  31.819  1.00  0.00     0.031 C 
ATOM     49  C   UNL A   1      40.216  27.730  30.695  1.00  0.00     0.029 A 
ATOM     50  N   UNL A   1      42.159  28.010  29.618  1.00  0.00    -0.354 N 
ATOM     51  C   UNL A   1      44.649  31.489  30.487  1.00  0.00     0.074 A 
ATOM     52  C   UNL A   1      43.992  32.360  31.433  1.00  0.00     0.031 C 
ATOM     53  C   UNL A   1      40.377  26.681  29.869  1.00  0.00     0.029 A 
ATOM     54  C   UNL A   1      41.624  26.850  29.122  1.00  0.00     0.049 A 
ATOM     55  H   UNL A   1      43.033  28.365  29.336  1.00  0.00     0.167 HD
ATOM     56  C   UNL A   1      45.871  31.725  29.957  1.00  0.00     0.037 A 
ATOM     57  C   UNL A   1      42.088  26.037  28.154  1.00  0.00     0.037 A 
ATOM     58  C   UNL A   1      46.493  30.856  28.996  1.00  0.00     0.049 A 
ATOM     59  C   UNL A   1      43.420  26.352  27.525  1.00  0.00     0.074 A 
ATOM     60  C   UNL A   1      47.729  30.981  28.392  1.00  0.00     0.029 A 
ATOM     61  N   UNL A   1      45.906  29.707  28.483  1.00  0.00    -0.354 N 
ATOM     62  N   UNL A   1      44.238  27.349  27.769  1.00  0.00    -0.248 NA
ATOM     63  C   UNL A   1      43.902  25.421  26.497  1.00  0.00     0.031 C 
ATOM     64  C   UNL A   1      47.860  29.946  27.460  1.00  0.00     0.029 A 
ATOM     65  C   UNL A   1      46.739  29.131  27.539  1.00  0.00     0.049 A 
ATOM     66  H   UNL A   1      45.027  29.354  28.751  1.00  0.00     0.167 HD
ATOM     67  C   UNL A   1      45.337  27.159  26.942  1.00  0.00     0.074 A 
ATOM     68  C   UNL A   1      45.087  25.937  26.202  1.00  0.00     0.031 C 
ATOM     69  C   UNL A   1      46.455  27.919  26.808  1.00  0.00     0.037 A 
BRANCH  56  70
ATOM     70  C   UNL A   1      46.553  33.000  30.359  1.00  0.00     0.064 A 
ATOM     71  C   UNL A   1      47.353  33.090  31.510  1.00  0.00     0.173 A 
ATOM     72  C   UNL A   1      46.368  34.165  29.601  1.00  0.00     0.173 A 
ATOM     73  F   UNL A   1      47.544  32.011  32.286  1.00  0.00    -0.203 F 
ATOM     74  C   UNL A   1      47.900  34.307  31.911  1.00  0.00     0.198 A 
ATOM     75  C   UNL A   1      46.948  35.372  29.984  1.00  0.00     0.198 A 
ATOM     76  F   UNL A   1      45.610  34.139  28.494  1.00  0.00    -0.203 F 
ATOM     77  F   UNL A   1      48.595  34.383  33.055  1.00  0.00    -0.200 F 
ATOM     78  C   UNL A   1      47.700  35.445  31.145  1.00  0.00     0.200 A 
ATOM     79  F   UNL A   1      46.762  36.469  29.236  1.00  0.00    -0.200 F 
ATOM     80  F   UNL A   1      48.222  36.616  31.535  1.00  0.00    -0.200 F 
ENDBRANCH  56  70
BRANCH  57  81
ATOM     81  C   UNL A   1      41.272  24.874  27.726  1.00  0.00     0.064 A 
ATOM     82  C   UNL A   1      40.163  25.024  26.885  1.00  0.00     0.173 A 
ATOM     83  C   UNL A   1      41.613  23.572  28.130  1.00  0.00     0.173 A 
ATOM     84  F   UNL A   1      39.784  26.247  26.489  1.00  0.00    -0.203 F 
ATOM     85  C   UNL A   1      39.424  23.918  26.465  1.00  0.00     0.198 A 
ATOM     86  C   UNL A   1      40.891  22.466  27.688  1.00  0.00     0.198 A 
ATOM     87  F   UNL A   1      42.667  23.374  28.937  1.00  0.00    -0.203 F 
ATOM     88  F   UNL A   1      38.349  24.091  25.684  1.00  0.00    -0.200 F 
ATOM     89  C   UNL A   1      39.794  22.640  26.859  1.00  0.00     0.200 A 
ATOM     90  F   UNL A   1      41.263  21.233  28.058  1.00  0.00    -0.200 F 
ATOM     91  F   UNL A   1      39.094  21.578  26.441  1.00  0.00    -0.200 F 
ENDBRANCH  57  81
BRANCH  69  92
ATOM     92  C   UNL A   1      47.501  27.437  25.844  1.00  0.00     0.064 A 
ATOM     93  C   UNL A   1      48.569  26.627  26.254  1.00  0.00     0.173 A 
ATOM     94  C   UNL A   1      47.405  27.756  24.480  1.00  0.00     0.173 A 
ATOM     95  F   UNL A   1      48.713  26.302  27.549  1.00  0.00    -0.203 F 
ATOM     96  C   UNL A   1      49.520  26.180  25.342  1.00  0.00     0.198 A 
ATOM     97  C   UNL A   1      48.336  27.276  23.564  1.00  0.00     0.198 A 
ATOM     98  F   UNL A   1      46.396  28.519  24.032  1.00  0.00    -0.203 F 
ATOM     99  F   UNL A   1      50.563  25.453  25.765  1.00  0.00    -0.200 F 
ATOM    100  C   UNL A   1      49.398  26.498  23.997  1.00  0.00     0.200 A 
ATOM    101  F   UNL A   1      48.204  27.568  22.263  1.00  0.00    -0.200 F 
ATOM    102  F   UNL A   1      50.310  26.059  23.118  1.00  0.00    -0.200 F 
ENDBRANCH  69  92
ENDBRANCH  43  44
ENDBRANCH  36  38
ENDBRANCH  35  36
ENDBRANCH  34  35
ENDBRANCH  33  34
ENDBRANCH  32  33
ENDBRANCH  31  32
ENDBRANCH  30  31
ENDBRANCH  29  30
ENDBRANCH   1  29
TORSDOF 26
ENDMDL
