MODEL 1
REMARK VINA RESULT:     -10.0      0.000      0.000
REMARK SMILES Cc1cscc1C(=O)N[C@H](C(=O)OCCOCCOCCOCCOC(=O)c1ccc(-c2c3nc(c(-c4c(F)c(F)c(F)c(F)c4F)c4ccc([nH]4)c(-c4c(F)c(F)c(F)c(F)c4F)c4nc(c(-c5c(F)c(F)c(F)c(F)c5F)c5ccc2[nH]5)C=C4)C=C3)cc1)c1ccccc1
REMARK SMILES IDX 19 1 18 2 17 3 16 4 15 5 14 6 13 7 11 8 12 9 10 10 9 11 7 12
REMARK SMILES IDX 8 13 6 15 1 16 2 17 3 18 4 19 5 20 91 21 92 22 96 23 93 24
REMARK SMILES IDX 95 25 94 26 20 27 21 28 22 29 23 30 24 31 25 32 26 33 27 34
REMARK SMILES IDX 28 35 29 36 90 37 30 38 89 39 31 40 32 41 33 42 83 43 34 44
REMARK SMILES IDX 88 45 82 46 84 47 35 48 87 49 81 50 80 51 36 53 68 54 48 55
REMARK SMILES IDX 67 56 49 57 52 58 66 59 85 60 50 61 51 62 65 64 86 65 53 66
REMARK SMILES IDX 37 67 38 68 46 69 39 70 40 71 44 72 47 73 41 74 42 75 45 76
REMARK SMILES IDX 43 77 69 78 70 79 78 80 71 81 72 82 76 83 79 84 73 85 74 86
REMARK SMILES IDX 77 87 75 88 54 89 55 90 63 91 56 92 57 93 61 94 64 95 58 96
REMARK SMILES IDX 59 97 62 98 60 99
REMARK H PARENT 9 14 84 52 52 63
REMARK Flexibility Score: inf
ROOT
ATOM      1  O   UNL A   1      35.428  21.811  25.793  1.00  0.00    -0.377 OA
ENDROOT
BRANCH   1   2
ATOM      2  C   UNL A   1      34.224  21.600  26.517  1.00  0.00     0.188 C 
BRANCH   2   3
ATOM      3  C   UNL A   1      32.939  21.301  25.740  1.00  0.00     0.188 C 
BRANCH   3   4
ATOM      4  O   UNL A   1      32.014  22.381  25.672  1.00  0.00    -0.376 OA
BRANCH   4   5
ATOM      5  C   UNL A   1      31.350  22.681  26.897  1.00  0.00     0.202 C 
BRANCH   5   6
ATOM      6  C   UNL A   1      29.992  23.373  26.720  1.00  0.00     0.261 C 
BRANCH   6   7
ATOM      7  O   UNL A   1      30.005  24.811  26.877  1.00  0.00    -0.461 OA
BRANCH   7   8
ATOM      8  C   UNL A   1      30.702  25.503  25.937  1.00  0.00     0.333 C 
ATOM      9  O   UNL A   1      30.377  25.491  24.755  1.00  0.00    -0.249 OA
BRANCH   8  10
ATOM     10  C   UNL A   1      32.009  26.132  26.483  1.00  0.00     0.223 C 
BRANCH  10  11
ATOM     11  N   UNL A   1      33.198  25.393  26.066  1.00  0.00    -0.335 N 
ATOM     12  C   UNL A   1      33.978  25.357  24.945  1.00  0.00     0.253 C 
ATOM     13  O   UNL A   1      35.062  24.785  25.105  1.00  0.00    -0.269 OA
ATOM     14  H   UNL A   1      33.513  24.769  26.760  1.00  0.00     0.165 HD
BRANCH  12  15
ATOM     15  C   UNL A   1      33.584  25.805  23.598  1.00  0.00     0.053 A 
ATOM     16  C   UNL A   1      34.037  28.424  23.313  1.00  0.00     0.046 C 
ATOM     17  C   UNL A   1      33.599  27.074  22.870  1.00  0.00    -0.028 A 
ATOM     18  C   UNL A   1      33.171  26.908  21.561  1.00  0.00     0.069 A 
ATOM     19  S   UNL A   1      32.782  25.307  21.164  1.00  0.00    -0.151 S 
ATOM     20  C   UNL A   1      33.176  24.793  22.733  1.00  0.00     0.079 A 
ENDBRANCH  12  15
ENDBRANCH  10  11
BRANCH  10  21
ATOM     21  C   UNL A   1      32.283  27.644  26.483  1.00  0.00    -0.014 A 
ATOM     22  C   UNL A   1      31.416  28.551  25.849  1.00  0.00     0.006 A 
ATOM     23  C   UNL A   1      33.351  28.206  27.215  1.00  0.00     0.006 A 
ATOM     24  C   UNL A   1      31.649  29.937  25.898  1.00  0.00     0.000 A 
ATOM     25  C   UNL A   1      33.607  29.579  27.237  1.00  0.00     0.000 A 
ATOM     26  C   UNL A   1      32.753  30.448  26.576  1.00  0.00     0.000 A 
ENDBRANCH  10  21
ENDBRANCH   8  10
ENDBRANCH   7   8
ENDBRANCH   6   7
ENDBRANCH   5   6
ENDBRANCH   4   5
ENDBRANCH   3   4
ENDBRANCH   2   3
ENDBRANCH   1   2
BRANCH   1  27
ATOM     27  C   UNL A   1      35.995  20.707  25.102  1.00  0.00     0.188 C 
BRANCH  27  28
ATOM     28  C   UNL A   1      37.481  20.786  24.719  1.00  0.00     0.188 C 
BRANCH  28  29
ATOM     29  O   UNL A   1      38.207  21.784  25.426  1.00  0.00    -0.376 OA
BRANCH  29  30
ATOM     30  C   UNL A   1      39.375  21.364  26.118  1.00  0.00     0.202 C 
BRANCH  30  31
ATOM     31  C   UNL A   1      39.669  19.857  26.084  1.00  0.00     0.261 C 
BRANCH  31  32
ATOM     32  O   UNL A   1      40.863  19.463  25.389  1.00  0.00    -0.460 OA
BRANCH  32  33
ATOM     33  C   UNL A   1      42.005  19.311  26.093  1.00  0.00     0.338 C 
ATOM     34  O   UNL A   1      42.585  18.275  26.361  1.00  0.00    -0.246 OA
BRANCH  33  35
ATOM     35  C   UNL A   1      42.559  20.663  26.305  1.00  0.00     0.060 A 
ATOM     36  C   UNL A   1      42.731  21.128  27.616  1.00  0.00     0.016 A 
ATOM     37  C   UNL A   1      42.965  21.440  25.216  1.00  0.00     0.016 A 
ATOM     38  C   UNL A   1      43.294  22.385  27.841  1.00  0.00     0.010 A 
ATOM     39  C   UNL A   1      43.497  22.709  25.440  1.00  0.00     0.010 A 
ATOM     40  C   UNL A   1      43.633  23.199  26.752  1.00  0.00    -0.014 A 
BRANCH  40  41
ATOM     41  C   UNL A   1      43.858  24.647  26.964  1.00  0.00     0.031 A 
ATOM     42  C   UNL A   1      45.252  25.165  26.741  1.00  0.00     0.074 A 
ATOM     43  C   UNL A   1      42.875  25.477  27.347  1.00  0.00     0.049 A 
ATOM     44  N   UNL A   1      45.733  26.369  26.911  1.00  0.00    -0.248 NA
ATOM     45  C   UNL A   1      46.240  24.184  26.261  1.00  0.00     0.031 C 
ATOM     46  C   UNL A   1      41.479  25.101  27.560  1.00  0.00     0.029 A 
ATOM     47  N   UNL A   1      42.913  26.818  27.640  1.00  0.00    -0.354 N 
ATOM     48  C   UNL A   1      47.074  26.287  26.560  1.00  0.00     0.074 A 
ATOM     49  C   UNL A   1      47.340  24.915  26.194  1.00  0.00     0.031 C 
ATOM     50  C   UNL A   1      40.795  26.187  27.968  1.00  0.00     0.029 A 
ATOM     51  C   UNL A   1      41.711  27.323  28.071  1.00  0.00     0.049 A 
ATOM     52  H   UNL A   1      43.724  27.367  27.547  1.00  0.00     0.167 HD
ATOM     53  C   UNL A   1      48.002  27.270  26.541  1.00  0.00     0.037 A 
ATOM     54  C   UNL A   1      41.402  28.555  28.520  1.00  0.00     0.037 A 
ATOM     55  C   UNL A   1      47.743  28.629  26.923  1.00  0.00     0.049 A 
ATOM     56  C   UNL A   1      42.475  29.618  28.565  1.00  0.00     0.074 A 
ATOM     57  C   UNL A   1      48.612  29.704  26.931  1.00  0.00     0.029 A 
ATOM     58  N   UNL A   1      46.519  29.096  27.380  1.00  0.00    -0.354 N 
ATOM     59  N   UNL A   1      43.733  29.543  28.199  1.00  0.00    -0.248 NA
ATOM     60  C   UNL A   1      42.083  30.935  29.088  1.00  0.00     0.031 C 
ATOM     61  C   UNL A   1      47.928  30.812  27.441  1.00  0.00     0.029 A 
ATOM     62  C   UNL A   1      46.618  30.439  27.698  1.00  0.00     0.049 A 
ATOM     63  H   UNL A   1      45.703  28.553  27.464  1.00  0.00     0.167 HD
ATOM     64  C   UNL A   1      44.271  30.807  28.416  1.00  0.00     0.074 A 
ATOM     65  C   UNL A   1      43.202  31.632  28.936  1.00  0.00     0.031 C 
ATOM     66  C   UNL A   1      45.536  31.245  28.203  1.00  0.00     0.037 A 
BRANCH  53  67
ATOM     67  C   UNL A   1      49.391  26.892  26.124  1.00  0.00     0.064 A 
ATOM     68  C   UNL A   1      49.823  27.029  24.797  1.00  0.00     0.173 A 
ATOM     69  C   UNL A   1      50.302  26.391  27.066  1.00  0.00     0.173 A 
ATOM     70  F   UNL A   1      48.980  27.480  23.854  1.00  0.00    -0.203 F 
ATOM     71  C   UNL A   1      51.111  26.656  24.423  1.00  0.00     0.198 A 
ATOM     72  C   UNL A   1      51.597  26.046  26.693  1.00  0.00     0.198 A 
ATOM     73  F   UNL A   1      49.934  26.236  28.347  1.00  0.00    -0.203 F 
ATOM     74  F   UNL A   1      51.488  26.747  23.139  1.00  0.00    -0.200 F 
ATOM     75  C   UNL A   1      51.998  26.171  25.372  1.00  0.00     0.200 A 
ATOM     76  F   UNL A   1      52.455  25.583  27.613  1.00  0.00    -0.200 F 
ATOM     77  F   UNL A   1      53.239  25.816  25.011  1.00  0.00    -0.200 F 
ENDBRANCH  53  67
BRANCH  54  78
ATOM     78  C   UNL A   1      40.022  28.861  28.984  1.00  0.00     0.064 A 
ATOM     79  C   UNL A   1      39.651  28.677  30.323  1.00  0.00     0.173 A 
ATOM     80  C   UNL A   1      39.035  29.304  28.091  1.00  0.00     0.173 A 
ATOM     81  F   UNL A   1      40.549  28.226  31.211  1.00  0.00    -0.203 F 
ATOM     82  C   UNL A   1      38.342  28.904  30.747  1.00  0.00     0.198 A 
ATOM     83  C   UNL A   1      37.734  29.558  28.521  1.00  0.00     0.198 A 
ATOM     84  F   UNL A   1      39.336  29.490  26.797  1.00  0.00    -0.203 F 
ATOM     85  F   UNL A   1      38.002  28.670  32.022  1.00  0.00    -0.200 F 
ATOM     86  C   UNL A   1      37.386  29.349  29.846  1.00  0.00     0.200 A 
ATOM     87  F   UNL A   1      36.817  29.995  27.647  1.00  0.00    -0.200 F 
ATOM     88  F   UNL A   1      36.128  29.565  30.251  1.00  0.00    -0.200 F 
ENDBRANCH  54  78
BRANCH  66  89
ATOM     89  C   UNL A   1      45.829  32.690  28.490  1.00  0.00     0.064 A 
ATOM     90  C   UNL A   1      46.315  33.110  29.737  1.00  0.00     0.173 A 
ATOM     91  C   UNL A   1      45.678  33.656  27.483  1.00  0.00     0.173 A 
ATOM     92  F   UNL A   1      46.465  32.226  30.735  1.00  0.00    -0.203 F 
ATOM     93  C   UNL A   1      46.620  34.448  29.971  1.00  0.00     0.198 A 
ATOM     94  C   UNL A   1      46.012  34.988  27.712  1.00  0.00     0.198 A 
ATOM     95  F   UNL A   1      45.226  33.304  26.270  1.00  0.00    -0.203 F 
ATOM     96  F   UNL A   1      47.045  34.834  31.182  1.00  0.00    -0.200 F 
ATOM     97  C   UNL A   1      46.476  35.383  28.957  1.00  0.00     0.200 A 
ATOM     98  F   UNL A   1      45.888  35.886  26.726  1.00  0.00    -0.200 F 
ATOM     99  F   UNL A   1      46.781  36.669  29.181  1.00  0.00    -0.200 F 
ENDBRANCH  66  89
ENDBRANCH  40  41
ENDBRANCH  33  35
ENDBRANCH  32  33
ENDBRANCH  31  32
ENDBRANCH  30  31
ENDBRANCH  29  30
ENDBRANCH  28  29
ENDBRANCH  27  28
ENDBRANCH   1  27
TORSDOF 23
ENDMDL
MODEL 2
REMARK VINA RESULT:      -9.9      5.060      9.112
REMARK SMILES Cc1cscc1C(=O)N[C@H](C(=O)OCCOCCOCCOCCOC(=O)c1ccc(-c2c3nc(c(-c4c(F)c(F)c(F)c(F)c4F)c4ccc([nH]4)c(-c4c(F)c(F)c(F)c(F)c4F)c4nc(c(-c5c(F)c(F)c(F)c(F)c5F)c5ccc2[nH]5)C=C4)C=C3)cc1)c1ccccc1
REMARK SMILES IDX 19 1 18 2 17 3 16 4 15 5 14 6 13 7 11 8 12 9 10 10 9 11 7 12
REMARK SMILES IDX 8 13 6 15 1 16 2 17 3 18 4 19 5 20 91 21 92 22 96 23 93 24
REMARK SMILES IDX 95 25 94 26 20 27 21 28 22 29 23 30 24 31 25 32 26 33 27 34
REMARK SMILES IDX 28 35 29 36 90 37 30 38 89 39 31 40 32 41 33 42 83 43 34 44
REMARK SMILES IDX 88 45 82 46 84 47 35 48 87 49 81 50 80 51 36 53 68 54 48 55
REMARK SMILES IDX 67 56 49 57 52 58 66 59 85 60 50 61 51 62 65 64 86 65 53 66
REMARK SMILES IDX 37 67 38 68 46 69 39 70 40 71 44 72 47 73 41 74 42 75 45 76
REMARK SMILES IDX 43 77 69 78 70 79 78 80 71 81 72 82 76 83 79 84 73 85 74 86
REMARK SMILES IDX 77 87 75 88 54 89 55 90 63 91 56 92 57 93 61 94 64 95 58 96
REMARK SMILES IDX 59 97 62 98 60 99
REMARK H PARENT 9 14 84 52 52 63
REMARK Flexibility Score: inf
ROOT
ATOM      1  O   UNL A   1      27.788  32.490  22.205  1.00  0.00    -0.377 OA
ENDROOT
BRANCH   1   2
ATOM      2  C   UNL A   1      28.243  31.795  21.054  1.00  0.00     0.188 C 
BRANCH   2   3
ATOM      3  C   UNL A   1      28.015  30.284  20.966  1.00  0.00     0.188 C 
BRANCH   3   4
ATOM      4  O   UNL A   1      28.831  29.502  21.832  1.00  0.00    -0.376 OA
BRANCH   4   5
ATOM      5  C   UNL A   1      30.233  29.718  21.694  1.00  0.00     0.202 C 
BRANCH   5   6
ATOM      6  C   UNL A   1      31.097  28.821  22.590  1.00  0.00     0.261 C 
BRANCH   6   7
ATOM      7  O   UNL A   1      31.201  27.442  22.169  1.00  0.00    -0.461 OA
BRANCH   7   8
ATOM      8  C   UNL A   1      32.450  26.906  22.197  1.00  0.00     0.333 C 
ATOM      9  O   UNL A   1      33.156  26.865  21.196  1.00  0.00    -0.249 OA
BRANCH   8  10
ATOM     10  C   UNL A   1      32.790  26.214  23.541  1.00  0.00     0.223 C 
BRANCH  10  11
ATOM     11  N   UNL A   1      33.994  25.390  23.455  1.00  0.00    -0.335 N 
ATOM     12  C   UNL A   1      34.297  24.082  23.705  1.00  0.00     0.253 C 
ATOM     13  O   UNL A   1      35.383  23.721  23.238  1.00  0.00    -0.269 OA
ATOM     14  H   UNL A   1      34.775  25.902  23.141  1.00  0.00     0.165 HD
BRANCH  12  15
ATOM     15  C   UNL A   1      33.531  23.161  24.562  1.00  0.00     0.053 A 
ATOM     16  C   UNL A   1      32.311  21.301  23.080  1.00  0.00     0.046 C 
ATOM     17  C   UNL A   1      32.694  21.981  24.346  1.00  0.00    -0.028 A 
ATOM     18  C   UNL A   1      32.267  21.439  25.549  1.00  0.00     0.069 A 
ATOM     19  S   UNL A   1      32.844  22.262  26.914  1.00  0.00    -0.151 S 
ATOM     20  C   UNL A   1      33.681  23.364  25.932  1.00  0.00     0.079 A 
ENDBRANCH  12  15
ENDBRANCH  10  11
BRANCH  10  21
ATOM     21  C   UNL A   1      32.717  26.926  24.901  1.00  0.00    -0.014 A 
ATOM     22  C   UNL A   1      33.762  27.747  25.360  1.00  0.00     0.006 A 
ATOM     23  C   UNL A   1      31.556  26.885  25.701  1.00  0.00     0.006 A 
ATOM     24  C   UNL A   1      33.665  28.435  26.582  1.00  0.00     0.000 A 
ATOM     25  C   UNL A   1      31.468  27.538  26.934  1.00  0.00     0.000 A 
ATOM     26  C   UNL A   1      32.527  28.316  27.376  1.00  0.00     0.000 A 
ENDBRANCH  10  21
ENDBRANCH   8  10
ENDBRANCH   7   8
ENDBRANCH   6   7
ENDBRANCH   5   6
ENDBRANCH   4   5
ENDBRANCH   3   4
ENDBRANCH   2   3
ENDBRANCH   1   2
BRANCH   1  27
ATOM     27  C   UNL A   1      28.754  32.918  23.155  1.00  0.00     0.188 C 
BRANCH  27  28
ATOM     28  C   UNL A   1      29.327  31.868  24.119  1.00  0.00     0.188 C 
BRANCH  28  29
ATOM     29  O   UNL A   1      30.239  32.399  25.074  1.00  0.00    -0.376 OA
BRANCH  29  30
ATOM     30  C   UNL A   1      30.982  31.464  25.846  1.00  0.00     0.202 C 
BRANCH  30  31
ATOM     31  C   UNL A   1      31.618  32.013  27.132  1.00  0.00     0.261 C 
BRANCH  31  32
ATOM     32  O   UNL A   1      33.042  31.858  27.246  1.00  0.00    -0.460 OA
BRANCH  32  33
ATOM     33  C   UNL A   1      33.774  32.897  27.701  1.00  0.00     0.338 C 
ATOM     34  O   UNL A   1      33.436  34.061  27.805  1.00  0.00    -0.246 OA
BRANCH  33  35
ATOM     35  C   UNL A   1      35.017  32.330  28.264  1.00  0.00     0.060 A 
ATOM     36  C   UNL A   1      35.026  30.988  28.672  1.00  0.00     0.016 A 
ATOM     37  C   UNL A   1      36.181  33.100  28.326  1.00  0.00     0.016 A 
ATOM     38  C   UNL A   1      36.201  30.419  29.164  1.00  0.00     0.010 A 
ATOM     39  C   UNL A   1      37.346  32.540  28.850  1.00  0.00     0.010 A 
ATOM     40  C   UNL A   1      37.351  31.208  29.300  1.00  0.00    -0.014 A 
BRANCH  40  41
ATOM     41  C   UNL A   1      38.460  30.740  30.162  1.00  0.00     0.031 A 
ATOM     42  C   UNL A   1      39.404  29.726  29.577  1.00  0.00     0.074 A 
ATOM     43  C   UNL A   1      38.629  31.183  31.419  1.00  0.00     0.049 A 
ATOM     44  N   UNL A   1      40.416  29.110  30.129  1.00  0.00    -0.248 NA
ATOM     45  C   UNL A   1      39.167  29.354  28.171  1.00  0.00     0.031 C 
ATOM     46  C   UNL A   1      37.804  32.189  32.084  1.00  0.00     0.029 A 
ATOM     47  N   UNL A   1      39.555  30.824  32.367  1.00  0.00    -0.354 N 
ATOM     48  C   UNL A   1      40.933  28.283  29.141  1.00  0.00     0.074 A 
ATOM     49  C   UNL A   1      40.111  28.452  27.965  1.00  0.00     0.031 C 
ATOM     50  C   UNL A   1      38.251  32.354  33.343  1.00  0.00     0.029 A 
ATOM     51  C   UNL A   1      39.374  31.446  33.578  1.00  0.00     0.049 A 
ATOM     52  H   UNL A   1      40.282  30.183  32.194  1.00  0.00     0.167 HD
ATOM     53  C   UNL A   1      42.002  27.457  29.206  1.00  0.00     0.037 A 
ATOM     54  C   UNL A   1      40.029  31.276  34.743  1.00  0.00     0.037 A 
ATOM     55  C   UNL A   1      42.807  27.274  30.380  1.00  0.00     0.049 A 
ATOM     56  C   UNL A   1      41.170  30.288  34.814  1.00  0.00     0.074 A 
ATOM     57  C   UNL A   1      43.917  26.468  30.549  1.00  0.00     0.029 A 
ATOM     58  N   UNL A   1      42.577  27.902  31.595  1.00  0.00    -0.354 N 
ATOM     59  N   UNL A   1      41.676  29.535  33.867  1.00  0.00    -0.248 NA
ATOM     60  C   UNL A   1      41.829  30.128  36.119  1.00  0.00     0.031 C 
ATOM     61  C   UNL A   1      44.329  26.568  31.881  1.00  0.00     0.029 A 
ATOM     62  C   UNL A   1      43.509  27.479  32.527  1.00  0.00     0.049 A 
ATOM     63  H   UNL A   1      41.857  28.551  31.769  1.00  0.00     0.167 HD
ATOM     64  C   UNL A   1      42.728  28.838  34.451  1.00  0.00     0.074 A 
ATOM     65  C   UNL A   1      42.795  29.266  35.832  1.00  0.00     0.031 C 
ATOM     66  C   UNL A   1      43.565  27.928  33.894  1.00  0.00     0.037 A 
BRANCH  53  67
ATOM     67  C   UNL A   1      42.332  26.666  27.977  1.00  0.00     0.064 A 
ATOM     68  C   UNL A   1      43.258  27.128  27.031  1.00  0.00     0.173 A 
ATOM     69  C   UNL A   1      41.715  25.427  27.745  1.00  0.00     0.173 A 
ATOM     70  F   UNL A   1      43.855  28.320  27.196  1.00  0.00    -0.203 F 
ATOM     71  C   UNL A   1      43.539  26.390  25.886  1.00  0.00     0.198 A 
ATOM     72  C   UNL A   1      42.020  24.679  26.612  1.00  0.00     0.198 A 
ATOM     73  F   UNL A   1      40.817  24.945  28.617  1.00  0.00    -0.203 F 
ATOM     74  F   UNL A   1      44.391  26.873  24.970  1.00  0.00    -0.200 F 
ATOM     75  C   UNL A   1      42.926  25.163  25.681  1.00  0.00     0.200 A 
ATOM     76  F   UNL A   1      41.430  23.491  26.420  1.00  0.00    -0.200 F 
ATOM     77  F   UNL A   1      43.200  24.451  24.579  1.00  0.00    -0.200 F 
ENDBRANCH  53  67
BRANCH  54  78
ATOM     78  C   UNL A   1      39.620  32.039  35.952  1.00  0.00     0.064 A 
ATOM     79  C   UNL A   1      38.543  31.617  36.745  1.00  0.00     0.173 A 
ATOM     80  C   UNL A   1      40.269  33.228  36.317  1.00  0.00     0.173 A 
ATOM     81  F   UNL A   1      37.869  30.504  36.422  1.00  0.00    -0.203 F 
ATOM     82  C   UNL A   1      38.119  32.365  37.843  1.00  0.00     0.198 A 
ATOM     83  C   UNL A   1      39.862  33.959  37.431  1.00  0.00     0.198 A 
ATOM     84  F   UNL A   1      41.300  33.679  35.588  1.00  0.00    -0.203 F 
ATOM     85  F   UNL A   1      37.055  31.966  38.553  1.00  0.00    -0.200 F 
ATOM     86  C   UNL A   1      38.782  33.533  38.188  1.00  0.00     0.200 A 
ATOM     87  F   UNL A   1      40.512  35.083  37.764  1.00  0.00    -0.200 F 
ATOM     88  F   UNL A   1      38.374  34.253  39.241  1.00  0.00    -0.200 F 
ENDBRANCH  54  78
BRANCH  66  89
ATOM     89  C   UNL A   1      44.652  27.362  34.762  1.00  0.00     0.064 A 
ATOM     90  C   UNL A   1      45.881  28.018  34.926  1.00  0.00     0.173 A 
ATOM     91  C   UNL A   1      44.436  26.178  35.485  1.00  0.00     0.173 A 
ATOM     92  F   UNL A   1      46.140  29.146  34.247  1.00  0.00    -0.203 F 
ATOM     93  C   UNL A   1      46.861  27.498  35.767  1.00  0.00     0.198 A 
ATOM     94  C   UNL A   1      45.407  25.678  36.347  1.00  0.00     0.198 A 
ATOM     95  F   UNL A   1      43.273  25.519  35.371  1.00  0.00    -0.203 F 
ATOM     96  F   UNL A   1      48.044  28.119  35.878  1.00  0.00    -0.200 F 
ATOM     97  C   UNL A   1      46.621  26.334  36.482  1.00  0.00     0.200 A 
ATOM     98  F   UNL A   1      45.166  24.564  37.050  1.00  0.00    -0.200 F 
ATOM     99  F   UNL A   1      47.561  25.842  37.300  1.00  0.00    -0.200 F 
ENDBRANCH  66  89
ENDBRANCH  40  41
ENDBRANCH  33  35
ENDBRANCH  32  33
ENDBRANCH  31  32
ENDBRANCH  30  31
ENDBRANCH  29  30
ENDBRANCH  28  29
ENDBRANCH  27  28
ENDBRANCH   1  27
TORSDOF 23
ENDMDL
MODEL 3
REMARK VINA RESULT:      -9.9      1.644      7.505
REMARK SMILES Cc1cscc1C(=O)N[C@H](C(=O)OCCOCCOCCOCCOC(=O)c1ccc(-c2c3nc(c(-c4c(F)c(F)c(F)c(F)c4F)c4ccc([nH]4)c(-c4c(F)c(F)c(F)c(F)c4F)c4nc(c(-c5c(F)c(F)c(F)c(F)c5F)c5ccc2[nH]5)C=C4)C=C3)cc1)c1ccccc1
REMARK SMILES IDX 19 1 18 2 17 3 16 4 15 5 14 6 13 7 11 8 12 9 10 10 9 11 7 12
REMARK SMILES IDX 8 13 6 15 1 16 2 17 3 18 4 19 5 20 91 21 92 22 96 23 93 24
REMARK SMILES IDX 95 25 94 26 20 27 21 28 22 29 23 30 24 31 25 32 26 33 27 34
REMARK SMILES IDX 28 35 29 36 90 37 30 38 89 39 31 40 32 41 33 42 83 43 34 44
REMARK SMILES IDX 88 45 82 46 84 47 35 48 87 49 81 50 80 51 36 53 68 54 48 55
REMARK SMILES IDX 67 56 49 57 52 58 66 59 85 60 50 61 51 62 65 64 86 65 53 66
REMARK SMILES IDX 37 67 38 68 46 69 39 70 40 71 44 72 47 73 41 74 42 75 45 76
REMARK SMILES IDX 43 77 69 78 70 79 78 80 71 81 72 82 76 83 79 84 73 85 74 86
REMARK SMILES IDX 77 87 75 88 54 89 55 90 63 91 56 92 57 93 61 94 64 95 58 96
REMARK SMILES IDX 59 97 62 98 60 99
REMARK H PARENT 9 14 84 52 52 63
REMARK Flexibility Score: inf
ROOT
ATOM      1  O   UNL A   1      34.797  22.636  24.807  1.00  0.00    -0.377 OA
ENDROOT
BRANCH   1   2
ATOM      2  C   UNL A   1      33.442  22.248  24.634  1.00  0.00     0.188 C 
BRANCH   2   3
ATOM      3  C   UNL A   1      32.935  21.948  23.221  1.00  0.00     0.188 C 
BRANCH   3   4
ATOM      4  O   UNL A   1      33.102  23.009  22.286  1.00  0.00    -0.376 OA
BRANCH   4   5
ATOM      5  C   UNL A   1      32.362  24.191  22.579  1.00  0.00     0.202 C 
BRANCH   5   6
ATOM      6  C   UNL A   1      32.804  25.421  21.776  1.00  0.00     0.261 C 
BRANCH   6   7
ATOM      7  O   UNL A   1      31.757  26.374  21.478  1.00  0.00    -0.461 OA
BRANCH   7   8
ATOM      8  C   UNL A   1      31.598  27.381  22.377  1.00  0.00     0.333 C 
ATOM      9  O   UNL A   1      32.540  28.082  22.733  1.00  0.00    -0.249 OA
BRANCH   8  10
ATOM     10  C   UNL A   1      30.186  27.417  23.014  1.00  0.00     0.223 C 
BRANCH  10  11
ATOM     11  N   UNL A   1      30.105  26.618  24.235  1.00  0.00    -0.335 N 
ATOM     12  C   UNL A   1      30.650  26.695  25.485  1.00  0.00     0.253 C 
ATOM     13  O   UNL A   1      30.105  25.961  26.316  1.00  0.00    -0.269 OA
ATOM     14  H   UNL A   1      29.516  25.836  24.131  1.00  0.00     0.165 HD
BRANCH  12  15
ATOM     15  C   UNL A   1      31.863  27.444  25.860  1.00  0.00     0.053 A 
ATOM     16  C   UNL A   1      34.044  25.948  25.472  1.00  0.00     0.046 C 
ATOM     17  C   UNL A   1      33.300  27.176  25.863  1.00  0.00    -0.028 A 
ATOM     18  C   UNL A   1      34.020  28.295  26.257  1.00  0.00     0.069 A 
ATOM     19  S   UNL A   1      33.055  29.647  26.593  1.00  0.00    -0.151 S 
ATOM     20  C   UNL A   1      31.649  28.772  26.221  1.00  0.00     0.079 A 
ENDBRANCH  12  15
ENDBRANCH  10  11
BRANCH  10  21
ATOM     21  C   UNL A   1      29.354  28.701  23.151  1.00  0.00    -0.014 A 
ATOM     22  C   UNL A   1      27.951  28.685  23.058  1.00  0.00     0.006 A 
ATOM     23  C   UNL A   1      29.944  29.938  23.491  1.00  0.00     0.006 A 
ATOM     24  C   UNL A   1      27.195  29.857  23.235  1.00  0.00     0.000 A 
ATOM     25  C   UNL A   1      29.200  31.112  23.632  1.00  0.00     0.000 A 
ATOM     26  C   UNL A   1      27.821  31.072  23.504  1.00  0.00     0.000 A 
ENDBRANCH  10  21
ENDBRANCH   8  10
ENDBRANCH   7   8
ENDBRANCH   6   7
ENDBRANCH   5   6
ENDBRANCH   4   5
ENDBRANCH   3   4
ENDBRANCH   2   3
ENDBRANCH   1   2
BRANCH   1  27
ATOM     27  C   UNL A   1      35.809  21.686  24.501  1.00  0.00     0.188 C 
BRANCH  27  28
ATOM     28  C   UNL A   1      37.267  22.169  24.487  1.00  0.00     0.188 C 
BRANCH  28  29
ATOM     29  O   UNL A   1      37.764  22.542  25.767  1.00  0.00    -0.376 OA
BRANCH  29  30
ATOM     30  C   UNL A   1      39.070  22.095  26.108  1.00  0.00     0.202 C 
BRANCH  30  31
ATOM     31  C   UNL A   1      39.272  20.573  26.129  1.00  0.00     0.261 C 
BRANCH  31  32
ATOM     32  O   UNL A   1      40.418  20.079  25.415  1.00  0.00    -0.460 OA
BRANCH  32  33
ATOM     33  C   UNL A   1      41.509  19.705  26.117  1.00  0.00     0.338 C 
ATOM     34  O   UNL A   1      41.905  18.575  26.337  1.00  0.00    -0.246 OA
BRANCH  33  35
ATOM     35  C   UNL A   1      42.278  20.934  26.398  1.00  0.00     0.060 A 
ATOM     36  C   UNL A   1      42.447  21.339  27.729  1.00  0.00     0.016 A 
ATOM     37  C   UNL A   1      42.882  21.644  25.357  1.00  0.00     0.016 A 
ATOM     38  C   UNL A   1      43.207  22.472  28.021  1.00  0.00     0.010 A 
ATOM     39  C   UNL A   1      43.614  22.795  25.646  1.00  0.00     0.010 A 
ATOM     40  C   UNL A   1      43.752  23.231  26.976  1.00  0.00    -0.014 A 
BRANCH  40  41
ATOM     41  C   UNL A   1      44.215  24.612  27.241  1.00  0.00     0.031 A 
ATOM     42  C   UNL A   1      43.181  25.608  27.687  1.00  0.00     0.074 A 
ATOM     43  C   UNL A   1      45.497  24.982  27.088  1.00  0.00     0.049 A 
ATOM     44  N   UNL A   1      43.302  26.888  27.929  1.00  0.00    -0.248 NA
ATOM     45  C   UNL A   1      41.818  25.086  27.884  1.00  0.00     0.031 C 
ATOM     46  C   UNL A   1      46.595  24.101  26.696  1.00  0.00     0.029 A 
ATOM     47  N   UNL A   1      46.086  26.213  27.234  1.00  0.00    -0.354 N 
ATOM     48  C   UNL A   1      42.037  27.318  28.304  1.00  0.00     0.074 A 
ATOM     49  C   UNL A   1      41.155  26.176  28.234  1.00  0.00     0.031 C 
ATOM     50  C   UNL A   1      47.726  24.826  26.615  1.00  0.00     0.029 A 
ATOM     51  C   UNL A   1      47.423  26.225  26.921  1.00  0.00     0.049 A 
ATOM     52  H   UNL A   1      45.597  27.012  27.536  1.00  0.00     0.167 HD
ATOM     53  C   UNL A   1      41.644  28.557  28.679  1.00  0.00     0.037 A 
ATOM     54  C   UNL A   1      48.290  27.256  26.868  1.00  0.00     0.037 A 
ATOM     55  C   UNL A   1      42.515  29.696  28.731  1.00  0.00     0.049 A 
ATOM     56  C   UNL A   1      47.809  28.645  27.214  1.00  0.00     0.074 A 
ATOM     57  C   UNL A   1      42.219  30.993  29.105  1.00  0.00     0.029 A 
ATOM     58  N   UNL A   1      43.858  29.674  28.382  1.00  0.00    -0.354 N 
ATOM     59  N   UNL A   1      46.619  29.040  27.602  1.00  0.00    -0.248 NA
ATOM     60  C   UNL A   1      48.794  29.733  27.112  1.00  0.00     0.031 C 
ATOM     61  C   UNL A   1      43.370  31.769  28.935  1.00  0.00     0.029 A 
ATOM     62  C   UNL A   1      44.397  30.943  28.507  1.00  0.00     0.049 A 
ATOM     63  H   UNL A   1      44.352  28.875  28.089  1.00  0.00     0.167 HD
ATOM     64  C   UNL A   1      46.721  30.409  27.821  1.00  0.00     0.074 A 
ATOM     65  C   UNL A   1      48.091  30.777  27.532  1.00  0.00     0.031 C 
ATOM     66  C   UNL A   1      45.768  31.284  28.226  1.00  0.00     0.037 A 
BRANCH  53  67
ATOM     67  C   UNL A   1      40.199  28.740  29.027  1.00  0.00     0.064 A 
ATOM     68  C   UNL A   1      39.724  28.536  30.331  1.00  0.00     0.173 A 
ATOM     69  C   UNL A   1      39.277  29.129  28.044  1.00  0.00     0.173 A 
ATOM     70  F   UNL A   1      40.563  28.138  31.301  1.00  0.00    -0.203 F 
ATOM     71  C   UNL A   1      38.375  28.692  30.634  1.00  0.00     0.198 A 
ATOM     72  C   UNL A   1      37.933  29.312  28.356  1.00  0.00     0.198 A 
ATOM     73  F   UNL A   1      39.681  29.330  26.780  1.00  0.00    -0.203 F 
ATOM     74  F   UNL A   1      37.933  28.444  31.875  1.00  0.00    -0.200 F 
ATOM     75  C   UNL A   1      37.482  29.087  29.648  1.00  0.00     0.200 A 
ATOM     76  F   UNL A   1      37.074  29.698  27.403  1.00  0.00    -0.200 F 
ATOM     77  F   UNL A   1      36.183  29.241  29.941  1.00  0.00    -0.200 F 
ENDBRANCH  53  67
BRANCH  54  78
ATOM     78  C   UNL A   1      49.700  27.030  26.453  1.00  0.00     0.064 A 
ATOM     79  C   UNL A   1      50.085  27.134  25.109  1.00  0.00     0.173 A 
ATOM     80  C   UNL A   1      50.683  26.666  27.385  1.00  0.00     0.173 A 
ATOM     81  F   UNL A   1      49.177  27.449  24.174  1.00  0.00    -0.203 F 
ATOM     82  C   UNL A   1      51.394  26.863  24.710  1.00  0.00     0.198 A 
ATOM     83  C   UNL A   1      51.997  26.422  26.989  1.00  0.00     0.198 A 
ATOM     84  F   UNL A   1      50.366  26.546  28.682  1.00  0.00    -0.203 F 
ATOM     85  F   UNL A   1      51.722  26.919  23.412  1.00  0.00    -0.200 F 
ATOM     86  C   UNL A   1      52.350  26.511  25.652  1.00  0.00     0.200 A 
ATOM     87  F   UNL A   1      52.918  26.091  27.905  1.00  0.00    -0.200 F 
ATOM     88  F   UNL A   1      53.606  26.248  25.270  1.00  0.00    -0.200 F 
ENDBRANCH  54  78
BRANCH  66  89
ATOM     89  C   UNL A   1      46.176  32.715  28.423  1.00  0.00     0.064 A 
ATOM     90  C   UNL A   1      46.698  33.172  29.642  1.00  0.00     0.173 A 
ATOM     91  C   UNL A   1      46.100  33.626  27.358  1.00  0.00     0.173 A 
ATOM     92  F   UNL A   1      46.779  32.343  30.694  1.00  0.00    -0.203 F 
ATOM     93  C   UNL A   1      47.110  34.493  29.793  1.00  0.00     0.198 A 
ATOM     94  C   UNL A   1      46.540  34.938  27.503  1.00  0.00     0.198 A 
ATOM     95  F   UNL A   1      45.618  33.235  26.168  1.00  0.00    -0.203 F 
ATOM     96  F   UNL A   1      47.567  34.919  30.979  1.00  0.00    -0.200 F 
ATOM     97  C   UNL A   1      47.038  35.372  28.722  1.00  0.00     0.200 A 
ATOM     98  F   UNL A   1      46.486  35.780  26.463  1.00  0.00    -0.200 F 
ATOM     99  F   UNL A   1      47.445  36.641  28.866  1.00  0.00    -0.200 F 
ENDBRANCH  66  89
ENDBRANCH  40  41
ENDBRANCH  33  35
ENDBRANCH  32  33
ENDBRANCH  31  32
ENDBRANCH  30  31
ENDBRANCH  29  30
ENDBRANCH  28  29
ENDBRANCH  27  28
ENDBRANCH   1  27
TORSDOF 23
ENDMDL
