MODEL 1
REMARK VINA RESULT:     -10.4      0.000      0.000
REMARK SMILES Cc1ccc(C)c(N2C(=O)S[C@H](CC(=O)Nc3ccc(C(=O)OCCOCCOCCOCCOC(=O)c4ccc(-c5c6nc(c(-c7c(F)c(F)c(F)c(F)c7F)c7ccc([nH]7)c(-c7c(F)c(F)c(F)c(F)c7F)c7nc(c(-c8c(F)c(F)c(F)c(F)c8F)c8ccc5[nH]8)C=C7)C=C6)cc4)c(O)c3)C2=O)c1
REMARK SMILES IDX 28 1 27 2 26 3 25 4 24 5 23 6 21 7 22 8 20 9 17 10 18 11
REMARK SMILES IDX 103 12 19 13 101 14 16 15 14 16 15 17 13 19 12 20 8 21 9 22
REMARK SMILES IDX 104 23 10 24 11 25 105 26 7 27 1 28 2 29 3 30 106 31 4 32
REMARK SMILES IDX 5 33 6 34 102 35 29 37 30 38 31 39 32 40 33 41 34 42 35 43
REMARK SMILES IDX 36 44 37 45 38 46 39 47 100 48 40 49 99 50 41 51 42 52 43 53
REMARK SMILES IDX 93 54 44 55 98 56 92 57 94 58 45 59 97 60 91 61 90 62 46 64
REMARK SMILES IDX 78 65 58 66 77 67 59 68 62 69 76 70 95 71 60 72 61 73 75 75
REMARK SMILES IDX 96 76 63 77 47 78 48 79 56 80 49 81 50 82 54 83 57 84 51 85
REMARK SMILES IDX 52 86 55 87 53 88 79 89 80 90 88 91 81 92 82 93 86 94 89 95
REMARK SMILES IDX 83 96 84 97 87 98 85 99 64 100 65 101 73 102 66 103 67 104
REMARK SMILES IDX 71 105 74 106 68 107 69 108 72 109 70 110
REMARK H PARENT 16 18 102 36 94 63 62 74
REMARK Flexibility Score: inf
ROOT
ATOM      1  C   UNL A   1      34.027  33.794  28.172  1.00  0.00     0.188 C 
ENDROOT
BRANCH   1   2
ATOM      2  C   UNL A   1      34.012  32.303  27.729  1.00  0.00     0.188 C 
BRANCH   2   3
ATOM      3  O   UNL A   1      32.726  31.731  27.668  1.00  0.00    -0.376 OA
BRANCH   3   4
ATOM      4  C   UNL A   1      32.350  30.858  26.626  1.00  0.00     0.202 C 
BRANCH   4   5
ATOM      5  C   UNL A   1      33.380  29.906  26.007  1.00  0.00     0.261 C 
BRANCH   5   6
ATOM      6  O   UNL A   1      33.195  29.640  24.600  1.00  0.00    -0.460 OA
BRANCH   6   7
ATOM      7  C   UNL A   1      33.390  28.335  24.289  1.00  0.00     0.341 C 
ATOM      8  O   UNL A   1      34.210  27.946  23.476  1.00  0.00    -0.246 OA
BRANCH   7   9
ATOM      9  C   UNL A   1      32.690  27.387  25.191  1.00  0.00     0.101 A 
ATOM     10  C   UNL A   1      31.601  25.103  26.500  1.00  0.00     0.044 A 
ATOM     11  C   UNL A   1      32.925  25.400  26.598  1.00  0.00     0.027 A 
ATOM     12  C   UNL A   1      30.775  26.089  25.903  1.00  0.00     0.073 A 
ATOM     13  C   UNL A   1      33.453  26.438  25.863  1.00  0.00     0.022 A 
ATOM     14  C   UNL A   1      31.321  27.264  25.313  1.00  0.00     0.132 A 
BRANCH  10  15
ATOM     15  N   UNL A   1      31.159  23.792  26.813  1.00  0.00    -0.326 N 
ATOM     16  C   UNL A   1      30.589  22.801  26.021  1.00  0.00     0.226 C 
ATOM     17  O   UNL A   1      29.721  22.095  26.554  1.00  0.00    -0.275 OA
ATOM     18  H   UNL A   1      31.276  23.539  27.757  1.00  0.00     0.169 HD
BRANCH  16  19
ATOM     19  C   UNL A   1      31.020  22.450  24.554  1.00  0.00     0.125 C 
BRANCH  19  20
ATOM     20  C   UNL A   1      32.320  21.619  24.406  1.00  0.00     0.156 C 
ATOM     21  N   UNL A   1      34.654  22.182  24.950  1.00  0.00    -0.240 N 
ATOM     22  C   UNL A   1      34.575  22.716  23.701  1.00  0.00     0.293 C 
ATOM     23  C   UNL A   1      33.465  21.690  25.473  1.00  0.00     0.248 C 
ATOM     24  O   UNL A   1      35.346  23.493  23.218  1.00  0.00    -0.261 OA
ATOM     25  S   UNL A   1      33.122  22.170  22.930  1.00  0.00    -0.050 SA
ATOM     26  O   UNL A   1      33.304  21.311  26.629  1.00  0.00    -0.273 OA
BRANCH  21  27
ATOM     27  C   UNL A   1      35.955  22.205  25.542  1.00  0.00     0.056 A 
ATOM     28  C   UNL A   1      38.544  24.856  26.607  1.00  0.00     0.044 C 
ATOM     29  C   UNL A   1      37.904  23.560  26.205  1.00  0.00    -0.049 A 
ATOM     30  C   UNL A   1      38.737  22.451  26.055  1.00  0.00     0.004 A 
ATOM     31  C   UNL A   1      36.521  23.437  25.939  1.00  0.00     0.030 A 
ATOM     32  C   UNL A   1      38.211  21.246  25.616  1.00  0.00     0.006 A 
ATOM     33  C   UNL A   1      36.841  21.121  25.319  1.00  0.00    -0.027 A 
ATOM     34  C   UNL A   1      36.422  19.817  24.703  1.00  0.00     0.046 C 
ENDBRANCH  21  27
ENDBRANCH  19  20
ENDBRANCH  16  19
ENDBRANCH  10  15
BRANCH  14  35
ATOM     35  O   UNL A   1      30.479  28.239  24.864  1.00  0.00    -0.507 OA
ATOM     36  H   UNL A   1      29.552  28.103  24.880  1.00  0.00     0.293 HD
ENDBRANCH  14  35
ENDBRANCH   7   9
ENDBRANCH   6   7
ENDBRANCH   5   6
ENDBRANCH   4   5
ENDBRANCH   3   4
ENDBRANCH   2   3
ENDBRANCH   1   2
BRANCH   1  37
ATOM     37  O   UNL A   1      32.800  34.472  28.380  1.00  0.00    -0.377 OA
BRANCH  37  38
ATOM     38  C   UNL A   1      32.896  35.773  28.941  1.00  0.00     0.188 C 
BRANCH  38  39
ATOM     39  C   UNL A   1      32.726  35.894  30.467  1.00  0.00     0.188 C 
BRANCH  39  40
ATOM     40  O   UNL A   1      32.897  37.212  30.973  1.00  0.00    -0.376 OA
BRANCH  40  41
ATOM     41  C   UNL A   1      33.686  37.353  32.144  1.00  0.00     0.202 C 
BRANCH  41  42
ATOM     42  C   UNL A   1      33.257  36.333  33.187  1.00  0.00     0.261 C 
BRANCH  42  43
ATOM     43  O   UNL A   1      34.341  35.472  33.630  1.00  0.00    -0.460 OA
BRANCH  43  44
ATOM     44  C   UNL A   1      34.382  34.190  33.149  1.00  0.00     0.338 C 
ATOM     45  O   UNL A   1      33.469  33.391  33.265  1.00  0.00    -0.246 OA
BRANCH  44  46
ATOM     46  C   UNL A   1      35.704  33.914  32.475  1.00  0.00     0.060 A 
ATOM     47  C   UNL A   1      35.930  34.156  31.126  1.00  0.00     0.016 A 
ATOM     48  C   UNL A   1      36.706  33.247  33.174  1.00  0.00     0.016 A 
ATOM     49  C   UNL A   1      37.075  33.594  30.492  1.00  0.00     0.010 A 
ATOM     50  C   UNL A   1      37.772  32.597  32.531  1.00  0.00     0.010 A 
ATOM     51  C   UNL A   1      37.954  32.691  31.149  1.00  0.00    -0.014 A 
BRANCH  51  52
ATOM     52  C   UNL A   1      39.325  32.334  30.617  1.00  0.00     0.031 A 
ATOM     53  C   UNL A   1      39.188  30.940  30.237  1.00  0.00     0.074 A 
ATOM     54  C   UNL A   1      40.592  32.871  30.546  1.00  0.00     0.049 A 
ATOM     55  N   UNL A   1      39.593  30.007  31.035  1.00  0.00    -0.248 NA
ATOM     56  C   UNL A   1      38.246  30.489  29.206  1.00  0.00     0.031 C 
ATOM     57  C   UNL A   1      41.074  33.930  31.385  1.00  0.00     0.029 A 
ATOM     58  N   UNL A   1      41.774  32.620  29.780  1.00  0.00    -0.354 N 
ATOM     59  C   UNL A   1      39.420  28.876  30.287  1.00  0.00     0.074 A 
ATOM     60  C   UNL A   1      38.339  29.166  29.374  1.00  0.00     0.031 C 
ATOM     61  C   UNL A   1      42.245  34.446  30.963  1.00  0.00     0.029 A 
ATOM     62  C   UNL A   1      42.666  33.768  29.734  1.00  0.00     0.049 A 
ATOM     63  H   UNL A   1      41.963  31.764  29.333  1.00  0.00     0.167 HD
ATOM     64  C   UNL A   1      40.574  28.192  30.083  1.00  0.00     0.037 A 
ATOM     65  C   UNL A   1      43.977  33.964  29.343  1.00  0.00     0.037 A 
ATOM     66  C   UNL A   1      41.514  28.380  31.177  1.00  0.00     0.049 A 
ATOM     67  C   UNL A   1      44.756  32.783  29.707  1.00  0.00     0.074 A 
ATOM     68  C   UNL A   1      41.503  28.123  32.536  1.00  0.00     0.029 A 
ATOM     69  N   UNL A   1      42.462  29.351  30.985  1.00  0.00    -0.354 N 
ATOM     70  N   UNL A   1      45.076  32.508  30.939  1.00  0.00    -0.248 NA
ATOM     71  C   UNL A   1      44.708  31.663  28.780  1.00  0.00     0.031 C 
ATOM     72  C   UNL A   1      42.485  28.960  33.140  1.00  0.00     0.029 A 
ATOM     73  C   UNL A   1      43.139  29.664  32.140  1.00  0.00     0.049 A 
ATOM     74  H   UNL A   1      42.638  29.779  30.116  1.00  0.00     0.167 HD
ATOM     75  C   UNL A   1      44.724  31.180  31.037  1.00  0.00     0.074 A 
ATOM     76  C   UNL A   1      44.652  30.674  29.671  1.00  0.00     0.031 C 
ATOM     77  C   UNL A   1      44.134  30.708  32.166  1.00  0.00     0.037 A 
BRANCH  64  78
ATOM     78  C   UNL A   1      41.006  27.876  28.681  1.00  0.00     0.064 A 
ATOM     79  C   UNL A   1      41.175  26.540  28.316  1.00  0.00     0.173 A 
ATOM     80  C   UNL A   1      41.470  28.834  27.745  1.00  0.00     0.173 A 
ATOM     81  F   UNL A   1      40.869  25.563  29.181  1.00  0.00    -0.203 F 
ATOM     82  C   UNL A   1      41.725  26.191  27.081  1.00  0.00     0.198 A 
ATOM     83  C   UNL A   1      41.937  28.490  26.485  1.00  0.00     0.198 A 
ATOM     84  F   UNL A   1      41.610  30.128  28.048  1.00  0.00    -0.203 F 
ATOM     85  F   UNL A   1      41.952  24.902  26.802  1.00  0.00    -0.200 F 
ATOM     86  C   UNL A   1      42.079  27.163  26.158  1.00  0.00     0.200 A 
ATOM     87  F   UNL A   1      42.315  29.453  25.632  1.00  0.00    -0.200 F 
ATOM     88  F   UNL A   1      42.614  26.824  24.979  1.00  0.00    -0.200 F 
ENDBRANCH  64  78
BRANCH  65  89
ATOM     89  C   UNL A   1      44.580  35.102  28.558  1.00  0.00     0.064 A 
ATOM     90  C   UNL A   1      45.950  35.362  28.354  1.00  0.00     0.173 A 
ATOM     91  C   UNL A   1      43.720  35.930  27.823  1.00  0.00     0.173 A 
ATOM     92  F   UNL A   1      46.879  34.552  28.882  1.00  0.00    -0.203 F 
ATOM     93  C   UNL A   1      46.400  36.444  27.560  1.00  0.00     0.198 A 
ATOM     94  C   UNL A   1      44.151  37.047  27.095  1.00  0.00     0.198 A 
ATOM     95  F   UNL A   1      42.417  35.630  27.787  1.00  0.00    -0.203 F 
ATOM     96  F   UNL A   1      47.713  36.631  27.347  1.00  0.00    -0.200 F 
ATOM     97  C   UNL A   1      45.497  37.310  26.965  1.00  0.00     0.200 A 
ATOM     98  F   UNL A   1      43.247  37.855  26.522  1.00  0.00    -0.200 F 
ATOM     99  F   UNL A   1      45.915  38.353  26.232  1.00  0.00    -0.200 F 
ENDBRANCH  65  89
BRANCH  77 100
ATOM    100  C   UNL A   1      44.535  31.329  33.466  1.00  0.00     0.064 A 
ATOM    101  C   UNL A   1      45.781  31.178  34.086  1.00  0.00     0.173 A 
ATOM    102  C   UNL A   1      43.610  32.175  34.085  1.00  0.00     0.173 A 
ATOM    103  F   UNL A   1      46.684  30.342  33.574  1.00  0.00    -0.203 F 
ATOM    104  C   UNL A   1      46.108  31.884  35.247  1.00  0.00     0.198 A 
ATOM    105  C   UNL A   1      43.926  32.868  35.251  1.00  0.00     0.198 A 
ATOM    106  F   UNL A   1      42.395  32.346  33.541  1.00  0.00    -0.203 F 
ATOM    107  F   UNL A   1      47.324  31.758  35.803  1.00  0.00    -0.200 F 
ATOM    108  C   UNL A   1      45.177  32.729  35.828  1.00  0.00     0.200 A 
ATOM    109  F   UNL A   1      43.021  33.688  35.801  1.00  0.00    -0.200 F 
ATOM    110  F   UNL A   1      45.483  33.412  36.941  1.00  0.00    -0.200 F 
ENDBRANCH  77 100
ENDBRANCH  51  52
ENDBRANCH  44  46
ENDBRANCH  43  44
ENDBRANCH  42  43
ENDBRANCH  41  42
ENDBRANCH  40  41
ENDBRANCH  39  40
ENDBRANCH  38  39
ENDBRANCH  37  38
ENDBRANCH   1  37
TORSDOF 25
ENDMDL
MODEL 2
REMARK VINA RESULT:      -9.5      5.065     11.676
REMARK SMILES Cc1ccc(C)c(N2C(=O)S[C@H](CC(=O)Nc3ccc(C(=O)OCCOCCOCCOCCOC(=O)c4ccc(-c5c6nc(c(-c7c(F)c(F)c(F)c(F)c7F)c7ccc([nH]7)c(-c7c(F)c(F)c(F)c(F)c7F)c7nc(c(-c8c(F)c(F)c(F)c(F)c8F)c8ccc5[nH]8)C=C7)C=C6)cc4)c(O)c3)C2=O)c1
REMARK SMILES IDX 28 1 27 2 26 3 25 4 24 5 23 6 21 7 22 8 20 9 17 10 18 11
REMARK SMILES IDX 103 12 19 13 101 14 16 15 14 16 15 17 13 19 12 20 8 21 9 22
REMARK SMILES IDX 104 23 10 24 11 25 105 26 7 27 1 28 2 29 3 30 106 31 4 32
REMARK SMILES IDX 5 33 6 34 102 35 29 37 30 38 31 39 32 40 33 41 34 42 35 43
REMARK SMILES IDX 36 44 37 45 38 46 39 47 100 48 40 49 99 50 41 51 42 52 43 53
REMARK SMILES IDX 93 54 44 55 98 56 92 57 94 58 45 59 97 60 91 61 90 62 46 64
REMARK SMILES IDX 78 65 58 66 77 67 59 68 62 69 76 70 95 71 60 72 61 73 75 75
REMARK SMILES IDX 96 76 63 77 47 78 48 79 56 80 49 81 50 82 54 83 57 84 51 85
REMARK SMILES IDX 52 86 55 87 53 88 79 89 80 90 88 91 81 92 82 93 86 94 89 95
REMARK SMILES IDX 83 96 84 97 87 98 85 99 64 100 65 101 73 102 66 103 67 104
REMARK SMILES IDX 71 105 74 106 68 107 69 108 72 109 70 110
REMARK H PARENT 16 18 102 36 94 63 62 74
REMARK Flexibility Score: inf
ROOT
ATOM      1  C   UNL A   1      37.943  33.781  36.898  1.00  0.00     0.188 C 
ENDROOT
BRANCH   1   2
ATOM      2  C   UNL A   1      39.177  33.223  37.662  1.00  0.00     0.188 C 
BRANCH   2   3
ATOM      3  O   UNL A   1      40.307  32.996  36.851  1.00  0.00    -0.376 OA
BRANCH   3   4
ATOM      4  C   UNL A   1      40.615  33.831  35.757  1.00  0.00     0.202 C 
BRANCH   4   5
ATOM      5  C   UNL A   1      41.306  33.255  34.516  1.00  0.00     0.261 C 
BRANCH   5   6
ATOM      6  O   UNL A   1      41.176  34.053  33.320  1.00  0.00    -0.460 OA
BRANCH   6   7
ATOM      7  C   UNL A   1      40.411  33.453  32.376  1.00  0.00     0.341 C 
ATOM      8  O   UNL A   1      39.437  32.764  32.627  1.00  0.00    -0.246 OA
BRANCH   7   9
ATOM      9  C   UNL A   1      40.708  33.890  30.989  1.00  0.00     0.101 A 
ATOM     10  C   UNL A   1      41.751  35.104  28.631  1.00  0.00     0.044 A 
ATOM     11  C   UNL A   1      42.440  34.125  29.277  1.00  0.00     0.027 A 
ATOM     12  C   UNL A   1      40.419  35.329  29.064  1.00  0.00     0.073 A 
ATOM     13  C   UNL A   1      41.976  33.635  30.479  1.00  0.00     0.022 A 
ATOM     14  C   UNL A   1      39.880  34.664  30.202  1.00  0.00     0.132 A 
BRANCH  10  15
ATOM     15  N   UNL A   1      42.435  35.949  27.722  1.00  0.00    -0.326 N 
ATOM     16  C   UNL A   1      43.662  36.598  27.815  1.00  0.00     0.226 C 
ATOM     17  O   UNL A   1      43.738  37.720  27.293  1.00  0.00    -0.275 OA
ATOM     18  H   UNL A   1      41.958  36.105  26.875  1.00  0.00     0.169 HD
BRANCH  16  19
ATOM     19  C   UNL A   1      44.967  35.990  28.439  1.00  0.00     0.125 C 
BRANCH  19  20
ATOM     20  C   UNL A   1      45.403  36.573  29.807  1.00  0.00     0.156 C 
ATOM     21  N   UNL A   1      44.690  38.617  30.980  1.00  0.00    -0.240 N 
ATOM     22  C   UNL A   1      45.661  39.138  30.183  1.00  0.00     0.293 C 
ATOM     23  C   UNL A   1      44.381  37.280  30.761  1.00  0.00     0.248 C 
ATOM     24  O   UNL A   1      45.829  40.299  29.946  1.00  0.00    -0.261 OA
ATOM     25  S   UNL A   1      46.578  37.851  29.473  1.00  0.00    -0.050 SA
ATOM     26  O   UNL A   1      43.441  36.678  31.270  1.00  0.00    -0.273 OA
BRANCH  21  27
ATOM     27  C   UNL A   1      44.127  39.525  31.930  1.00  0.00     0.056 A 
ATOM     28  C   UNL A   1      42.280  42.908  31.876  1.00  0.00     0.044 C 
ATOM     29  C   UNL A   1      43.074  41.718  32.325  1.00  0.00    -0.049 A 
ATOM     30  C   UNL A   1      43.576  41.734  33.627  1.00  0.00     0.004 A 
ATOM     31  C   UNL A   1      43.359  40.621  31.480  1.00  0.00     0.030 A 
ATOM     32  C   UNL A   1      44.376  40.693  34.072  1.00  0.00     0.006 A 
ATOM     33  C   UNL A   1      44.691  39.611  33.228  1.00  0.00    -0.027 A 
ATOM     34  C   UNL A   1      45.691  38.630  33.769  1.00  0.00     0.046 C 
ENDBRANCH  21  27
ENDBRANCH  19  20
ENDBRANCH  16  19
ENDBRANCH  10  15
BRANCH  14  35
ATOM     35  O   UNL A   1      38.558  34.820  30.502  1.00  0.00    -0.507 OA
ATOM     36  H   UNL A   1      38.063  34.095  30.832  1.00  0.00     0.293 HD
ENDBRANCH  14  35
ENDBRANCH   7   9
ENDBRANCH   6   7
ENDBRANCH   5   6
ENDBRANCH   4   5
ENDBRANCH   3   4
ENDBRANCH   2   3
ENDBRANCH   1   2
BRANCH   1  37
ATOM     37  O   UNL A   1      37.015  32.881  36.319  1.00  0.00    -0.377 OA
BRANCH  37  38
ATOM     38  C   UNL A   1      37.061  32.764  34.904  1.00  0.00     0.188 C 
BRANCH  38  39
ATOM     39  C   UNL A   1      36.111  33.666  34.094  1.00  0.00     0.188 C 
BRANCH  39  40
ATOM     40  O   UNL A   1      34.859  33.066  33.782  1.00  0.00    -0.376 OA
BRANCH  40  41
ATOM     41  C   UNL A   1      34.412  33.175  32.440  1.00  0.00     0.202 C 
BRANCH  41  42
ATOM     42  C   UNL A   1      35.164  32.190  31.559  1.00  0.00     0.261 C 
BRANCH  42  43
ATOM     43  O   UNL A   1      35.273  32.622  30.175  1.00  0.00    -0.460 OA
BRANCH  43  44
ATOM     44  C   UNL A   1      35.286  31.660  29.200  1.00  0.00     0.338 C 
ATOM     45  O   UNL A   1      34.364  31.464  28.427  1.00  0.00    -0.246 OA
BRANCH  44  46
ATOM     46  C   UNL A   1      36.580  30.886  29.229  1.00  0.00     0.060 A 
ATOM     47  C   UNL A   1      36.634  29.511  29.425  1.00  0.00     0.016 A 
ATOM     48  C   UNL A   1      37.792  31.570  29.216  1.00  0.00     0.016 A 
ATOM     49  C   UNL A   1      37.877  28.895  29.750  1.00  0.00     0.010 A 
ATOM     50  C   UNL A   1      38.995  30.987  29.646  1.00  0.00     0.010 A 
ATOM     51  C   UNL A   1      39.063  29.636  29.999  1.00  0.00    -0.014 A 
BRANCH  51  52
ATOM     52  C   UNL A   1      40.441  29.010  30.031  1.00  0.00     0.031 A 
ATOM     53  C   UNL A   1      40.790  29.035  31.440  1.00  0.00     0.074 A 
ATOM     54  C   UNL A   1      41.426  28.606  29.157  1.00  0.00     0.049 A 
ATOM     55  N   UNL A   1      41.544  29.977  31.905  1.00  0.00    -0.248 NA
ATOM     56  C   UNL A   1      40.017  28.317  32.459  1.00  0.00     0.031 C 
ATOM     57  C   UNL A   1      41.543  29.053  27.800  1.00  0.00     0.029 A 
ATOM     58  N   UNL A   1      42.577  27.758  29.226  1.00  0.00    -0.354 N 
ATOM     59  C   UNL A   1      41.746  29.587  33.200  1.00  0.00     0.074 A 
ATOM     60  C   UNL A   1      40.585  28.809  33.565  1.00  0.00     0.031 C 
ATOM     61  C   UNL A   1      42.428  28.334  27.082  1.00  0.00     0.029 A 
ATOM     62  C   UNL A   1      42.996  27.276  27.920  1.00  0.00     0.049 A 
ATOM     63  H   UNL A   1      43.035  27.528  30.066  1.00  0.00     0.167 HD
ATOM     64  C   UNL A   1      43.055  29.393  33.498  1.00  0.00     0.037 A 
ATOM     65  C   UNL A   1      44.128  26.649  27.435  1.00  0.00     0.037 A 
ATOM     66  C   UNL A   1      43.924  30.240  32.695  1.00  0.00     0.049 A 
ATOM     67  C   UNL A   1      45.296  27.184  28.130  1.00  0.00     0.074 A 
ATOM     68  C   UNL A   1      44.078  31.603  32.522  1.00  0.00     0.029 A 
ATOM     69  N   UNL A   1      44.450  29.655  31.573  1.00  0.00    -0.354 N 
ATOM     70  N   UNL A   1      45.758  28.380  27.903  1.00  0.00    -0.248 NA
ATOM     71  C   UNL A   1      45.601  26.601  29.428  1.00  0.00     0.031 C 
ATOM     72  C   UNL A   1      44.728  31.807  31.270  1.00  0.00     0.029 A 
ATOM     73  C   UNL A   1      45.032  30.569  30.725  1.00  0.00     0.049 A 
ATOM     74  H   UNL A   1      44.416  28.688  31.392  1.00  0.00     0.167 HD
ATOM     75  C   UNL A   1      45.910  28.875  29.180  1.00  0.00     0.074 A 
ATOM     76  C   UNL A   1      45.950  27.718  30.066  1.00  0.00     0.031 C 
ATOM     77  C   UNL A   1      45.589  30.166  29.457  1.00  0.00     0.037 A 
BRANCH  64  78
ATOM     78  C   UNL A   1      43.496  28.073  34.060  1.00  0.00     0.064 A 
ATOM     79  C   UNL A   1      44.124  28.050  35.306  1.00  0.00     0.173 A 
ATOM     80  C   UNL A   1      43.524  26.855  33.334  1.00  0.00     0.173 A 
ATOM     81  F   UNL A   1      44.246  29.179  36.018  1.00  0.00    -0.203 F 
ATOM     82  C   UNL A   1      44.695  26.879  35.808  1.00  0.00     0.198 A 
ATOM     83  C   UNL A   1      44.015  25.673  33.867  1.00  0.00     0.198 A 
ATOM     84  F   UNL A   1      43.195  26.781  32.041  1.00  0.00    -0.203 F 
ATOM     85  F   UNL A   1      45.364  26.916  36.966  1.00  0.00    -0.200 F 
ATOM     86  C   UNL A   1      44.616  25.688  35.102  1.00  0.00     0.200 A 
ATOM     87  F   UNL A   1      43.964  24.547  33.140  1.00  0.00    -0.200 F 
ATOM     88  F   UNL A   1      45.173  24.570  35.583  1.00  0.00    -0.200 F 
ENDBRANCH  64  78
BRANCH  65  89
ATOM     89  C   UNL A   1      44.242  25.509  26.453  1.00  0.00     0.064 A 
ATOM     90  C   UNL A   1      45.341  25.209  25.623  1.00  0.00     0.173 A 
ATOM     91  C   UNL A   1      43.224  24.545  26.435  1.00  0.00     0.173 A 
ATOM     92  F   UNL A   1      46.443  25.971  25.656  1.00  0.00    -0.203 F 
ATOM     93  C   UNL A   1      45.350  24.082  24.765  1.00  0.00     0.198 A 
ATOM     94  C   UNL A   1      43.190  23.469  25.538  1.00  0.00     0.198 A 
ATOM     95  F   UNL A   1      42.241  24.634  27.336  1.00  0.00    -0.203 F 
ATOM     96  F   UNL A   1      46.435  23.799  24.026  1.00  0.00    -0.200 F 
ATOM     97  C   UNL A   1      44.255  23.236  24.695  1.00  0.00     0.200 A 
ATOM     98  F   UNL A   1      42.117  22.664  25.508  1.00  0.00    -0.200 F 
ATOM     99  F   UNL A   1      44.244  22.181  23.866  1.00  0.00    -0.200 F 
ENDBRANCH  65  89
BRANCH  77 100
ATOM    100  C   UNL A   1      45.812  31.179  28.380  1.00  0.00     0.064 A 
ATOM    101  C   UNL A   1      44.807  31.796  27.627  1.00  0.00     0.173 A 
ATOM    102  C   UNL A   1      47.129  31.586  28.145  1.00  0.00     0.173 A 
ATOM    103  F   UNL A   1      43.538  31.412  27.766  1.00  0.00    -0.203 F 
ATOM    104  C   UNL A   1      45.098  32.814  26.715  1.00  0.00     0.198 A 
ATOM    105  C   UNL A   1      47.427  32.589  27.226  1.00  0.00     0.198 A 
ATOM    106  F   UNL A   1      48.134  31.019  28.830  1.00  0.00    -0.203 F 
ATOM    107  F   UNL A   1      44.115  33.423  26.033  1.00  0.00    -0.200 F 
ATOM    108  C   UNL A   1      46.411  33.209  26.516  1.00  0.00     0.200 A 
ATOM    109  F   UNL A   1      48.699  32.968  27.046  1.00  0.00    -0.200 F 
ATOM    110  F   UNL A   1      46.701  34.186  25.645  1.00  0.00    -0.200 F 
ENDBRANCH  77 100
ENDBRANCH  51  52
ENDBRANCH  44  46
ENDBRANCH  43  44
ENDBRANCH  42  43
ENDBRANCH  41  42
ENDBRANCH  40  41
ENDBRANCH  39  40
ENDBRANCH  38  39
ENDBRANCH  37  38
ENDBRANCH   1  37
TORSDOF 25
ENDMDL
MODEL 3
REMARK VINA RESULT:      -9.4      5.109     11.298
REMARK SMILES Cc1ccc(C)c(N2C(=O)S[C@H](CC(=O)Nc3ccc(C(=O)OCCOCCOCCOCCOC(=O)c4ccc(-c5c6nc(c(-c7c(F)c(F)c(F)c(F)c7F)c7ccc([nH]7)c(-c7c(F)c(F)c(F)c(F)c7F)c7nc(c(-c8c(F)c(F)c(F)c(F)c8F)c8ccc5[nH]8)C=C7)C=C6)cc4)c(O)c3)C2=O)c1
REMARK SMILES IDX 28 1 27 2 26 3 25 4 24 5 23 6 21 7 22 8 20 9 17 10 18 11
REMARK SMILES IDX 103 12 19 13 101 14 16 15 14 16 15 17 13 19 12 20 8 21 9 22
REMARK SMILES IDX 104 23 10 24 11 25 105 26 7 27 1 28 2 29 3 30 106 31 4 32
REMARK SMILES IDX 5 33 6 34 102 35 29 37 30 38 31 39 32 40 33 41 34 42 35 43
REMARK SMILES IDX 36 44 37 45 38 46 39 47 100 48 40 49 99 50 41 51 42 52 43 53
REMARK SMILES IDX 93 54 44 55 98 56 92 57 94 58 45 59 97 60 91 61 90 62 46 64
REMARK SMILES IDX 78 65 58 66 77 67 59 68 62 69 76 70 95 71 60 72 61 73 75 75
REMARK SMILES IDX 96 76 63 77 47 78 48 79 56 80 49 81 50 82 54 83 57 84 51 85
REMARK SMILES IDX 52 86 55 87 53 88 79 89 80 90 88 91 81 92 82 93 86 94 89 95
REMARK SMILES IDX 83 96 84 97 87 98 85 99 64 100 65 101 73 102 66 103 67 104
REMARK SMILES IDX 71 105 74 106 68 107 69 108 72 109 70 110
REMARK H PARENT 16 18 102 36 94 63 62 74
REMARK Flexibility Score: inf
ROOT
ATOM      1  C   UNL A   1      38.049  33.595  36.879  1.00  0.00     0.188 C 
ENDROOT
BRANCH   1   2
ATOM      2  C   UNL A   1      39.323  32.873  37.402  1.00  0.00     0.188 C 
BRANCH   2   3
ATOM      3  O   UNL A   1      40.378  32.813  36.470  1.00  0.00    -0.376 OA
BRANCH   3   4
ATOM      4  C   UNL A   1      40.548  33.797  35.475  1.00  0.00     0.202 C 
BRANCH   4   5
ATOM      5  C   UNL A   1      41.212  33.441  34.140  1.00  0.00     0.261 C 
BRANCH   5   6
ATOM      6  O   UNL A   1      40.994  34.394  33.078  1.00  0.00    -0.460 OA
BRANCH   6   7
ATOM      7  C   UNL A   1      40.170  33.917  32.114  1.00  0.00     0.341 C 
ATOM      8  O   UNL A   1      39.080  33.419  32.337  1.00  0.00    -0.246 OA
BRANCH   7   9
ATOM      9  C   UNL A   1      40.590  34.263  30.732  1.00  0.00     0.101 A 
ATOM     10  C   UNL A   1      41.795  35.369  28.400  1.00  0.00     0.044 A 
ATOM     11  C   UNL A   1      42.487  34.523  29.210  1.00  0.00     0.027 A 
ATOM     12  C   UNL A   1      40.406  35.496  28.658  1.00  0.00     0.073 A 
ATOM     13  C   UNL A   1      41.927  34.093  30.393  1.00  0.00     0.022 A 
ATOM     14  C   UNL A   1      39.797  34.881  29.788  1.00  0.00     0.132 A 
BRANCH  10  15
ATOM     15  N   UNL A   1      42.505  36.198  27.495  1.00  0.00    -0.326 N 
ATOM     16  C   UNL A   1      43.069  37.460  27.654  1.00  0.00     0.226 C 
ATOM     17  O   UNL A   1      43.014  38.220  26.676  1.00  0.00    -0.275 OA
ATOM     18  H   UNL A   1      42.619  35.814  26.597  1.00  0.00     0.169 HD
BRANCH  16  19
ATOM     19  C   UNL A   1      43.842  37.957  28.925  1.00  0.00     0.125 C 
BRANCH  19  20
ATOM     20  C   UNL A   1      45.381  37.779  28.899  1.00  0.00     0.156 C 
ATOM     21  N   UNL A   1      46.819  36.094  29.974  1.00  0.00    -0.240 N 
ATOM     22  C   UNL A   1      46.704  36.983  30.998  1.00  0.00     0.293 C 
ATOM     23  C   UNL A   1      46.042  36.359  28.854  1.00  0.00     0.248 C 
ATOM     24  O   UNL A   1      46.977  36.776  32.144  1.00  0.00    -0.261 OA
ATOM     25  S   UNL A   1      46.006  38.456  30.408  1.00  0.00    -0.050 SA
ATOM     26  O   UNL A   1      45.896  35.602  27.899  1.00  0.00    -0.273 OA
BRANCH  21  27
ATOM     27  C   UNL A   1      47.727  35.014  30.204  1.00  0.00     0.056 A 
ATOM     28  C   UNL A   1      47.950  31.932  32.509  1.00  0.00     0.044 C 
ATOM     29  C   UNL A   1      48.308  33.056  31.583  1.00  0.00    -0.049 A 
ATOM     30  C   UNL A   1      49.657  33.226  31.272  1.00  0.00     0.004 A 
ATOM     31  C   UNL A   1      47.350  33.953  31.058  1.00  0.00     0.030 A 
ATOM     32  C   UNL A   1      50.054  34.292  30.479  1.00  0.00     0.006 A 
ATOM     33  C   UNL A   1      49.112  35.209  29.976  1.00  0.00    -0.027 A 
ATOM     34  C   UNL A   1      49.679  36.405  29.265  1.00  0.00     0.046 C 
ENDBRANCH  21  27
ENDBRANCH  19  20
ENDBRANCH  16  19
ENDBRANCH  10  15
BRANCH  14  35
ATOM     35  O   UNL A   1      38.440  34.928  29.923  1.00  0.00    -0.507 OA
ATOM     36  H   UNL A   1      38.037  34.647  30.721  1.00  0.00     0.293 HD
ENDBRANCH  14  35
ENDBRANCH   7   9
ENDBRANCH   6   7
ENDBRANCH   5   6
ENDBRANCH   4   5
ENDBRANCH   3   4
ENDBRANCH   2   3
ENDBRANCH   1   2
BRANCH   1  37
ATOM     37  O   UNL A   1      37.013  32.834  36.281  1.00  0.00    -0.377 OA
BRANCH  37  38
ATOM     38  C   UNL A   1      37.023  32.777  34.862  1.00  0.00     0.188 C 
BRANCH  38  39
ATOM     39  C   UNL A   1      36.065  33.725  34.116  1.00  0.00     0.188 C 
BRANCH  39  40
ATOM     40  O   UNL A   1      34.767  33.188  33.892  1.00  0.00    -0.376 OA
BRANCH  40  41
ATOM     41  C   UNL A   1      34.254  33.278  32.572  1.00  0.00     0.202 C 
BRANCH  41  42
ATOM     42  C   UNL A   1      34.994  32.313  31.659  1.00  0.00     0.261 C 
BRANCH  42  43
ATOM     43  O   UNL A   1      35.100  32.786  30.288  1.00  0.00    -0.460 OA
BRANCH  43  44
ATOM     44  C   UNL A   1      35.153  31.851  29.288  1.00  0.00     0.338 C 
ATOM     45  O   UNL A   1      34.286  31.711  28.442  1.00  0.00    -0.246 OA
BRANCH  44  46
ATOM     46  C   UNL A   1      36.413  31.028  29.390  1.00  0.00     0.060 A 
ATOM     47  C   UNL A   1      36.404  29.658  29.627  1.00  0.00     0.016 A 
ATOM     48  C   UNL A   1      37.651  31.664  29.406  1.00  0.00     0.016 A 
ATOM     49  C   UNL A   1      37.607  29.004  30.018  1.00  0.00     0.010 A 
ATOM     50  C   UNL A   1      38.812  31.046  29.900  1.00  0.00     0.010 A 
ATOM     51  C   UNL A   1      38.812  29.706  30.293  1.00  0.00    -0.014 A 
BRANCH  51  52
ATOM     52  C   UNL A   1      40.161  29.028  30.398  1.00  0.00     0.031 A 
ATOM     53  C   UNL A   1      40.499  29.164  31.803  1.00  0.00     0.074 A 
ATOM     54  C   UNL A   1      41.135  28.505  29.576  1.00  0.00     0.049 A 
ATOM     55  N   UNL A   1      41.290  30.111  32.191  1.00  0.00    -0.248 NA
ATOM     56  C   UNL A   1      39.688  28.574  32.873  1.00  0.00     0.031 C 
ATOM     57  C   UNL A   1      41.282  28.822  28.185  1.00  0.00     0.029 A 
ATOM     58  N   UNL A   1      42.248  27.619  29.734  1.00  0.00    -0.354 N 
ATOM     59  C   UNL A   1      41.464  29.832  33.517  1.00  0.00     0.074 A 
ATOM     60  C   UNL A   1      40.268  29.139  33.938  1.00  0.00     0.031 C 
ATOM     61  C   UNL A   1      42.141  28.005  27.545  1.00  0.00     0.029 A 
ATOM     62  C   UNL A   1      42.656  27.003  28.482  1.00  0.00     0.049 A 
ATOM     63  H   UNL A   1      42.688  27.446  30.597  1.00  0.00     0.167 HD
ATOM     64  C   UNL A   1      42.761  29.610  33.847  1.00  0.00     0.037 A 
ATOM     65  C   UNL A   1      43.764  26.288  28.068  1.00  0.00     0.037 A 
ATOM     66  C   UNL A   1      43.672  30.344  32.983  1.00  0.00     0.049 A 
ATOM     67  C   UNL A   1      44.948  26.834  28.727  1.00  0.00     0.074 A 
ATOM     68  C   UNL A   1      43.886  31.678  32.689  1.00  0.00     0.029 A 
ATOM     69  N   UNL A   1      44.182  29.639  31.923  1.00  0.00    -0.354 N 
ATOM     70  N   UNL A   1      45.464  27.984  28.399  1.00  0.00    -0.248 NA
ATOM     71  C   UNL A   1      45.218  26.358  30.075  1.00  0.00     0.031 C 
ATOM     72  C   UNL A   1      44.554  31.741  31.432  1.00  0.00     0.029 A 
ATOM     73  C   UNL A   1      44.810  30.447  31.005  1.00  0.00     0.049 A 
ATOM     74  H   UNL A   1      44.107  28.662  31.829  1.00  0.00     0.167 HD
ATOM     75  C   UNL A   1      45.626  28.585  29.628  1.00  0.00     0.074 A 
ATOM     76  C   UNL A   1      45.609  27.512  30.614  1.00  0.00     0.031 C 
ATOM     77  C   UNL A   1      45.359  29.908  29.784  1.00  0.00     0.037 A 
BRANCH  64  78
ATOM     78  C   UNL A   1      43.140  28.328  34.531  1.00  0.00     0.064 A 
ATOM     79  C   UNL A   1      43.709  28.390  35.803  1.00  0.00     0.173 A 
ATOM     80  C   UNL A   1      43.168  27.057  33.904  1.00  0.00     0.173 A 
ATOM     81  F   UNL A   1      43.829  29.569  36.430  1.00  0.00    -0.203 F 
ATOM     82  C   UNL A   1      44.225  27.249  36.421  1.00  0.00     0.198 A 
ATOM     83  C   UNL A   1      43.603  25.910  34.550  1.00  0.00     0.198 A 
ATOM     84  F   UNL A   1      42.897  26.889  32.607  1.00  0.00    -0.203 F 
ATOM     85  F   UNL A   1      44.841  27.362  37.604  1.00  0.00    -0.200 F 
ATOM     86  C   UNL A   1      44.147  26.008  35.808  1.00  0.00     0.200 A 
ATOM     87  F   UNL A   1      43.555  24.731  33.911  1.00  0.00    -0.200 F 
ATOM     88  F   UNL A   1      44.651  24.919  36.400  1.00  0.00    -0.200 F 
ENDBRANCH  64  78
BRANCH  65  89
ATOM     89  C   UNL A   1      43.837  25.060  27.194  1.00  0.00     0.064 A 
ATOM     90  C   UNL A   1      43.076  23.881  27.320  1.00  0.00     0.173 A 
ATOM     91  C   UNL A   1      44.633  25.114  26.041  1.00  0.00     0.173 A 
ATOM     92  F   UNL A   1      42.166  23.763  28.297  1.00  0.00    -0.203 F 
ATOM     93  C   UNL A   1      43.204  22.803  26.411  1.00  0.00     0.198 A 
ATOM     94  C   UNL A   1      44.822  24.026  25.177  1.00  0.00     0.198 A 
ATOM     95  F   UNL A   1      45.229  26.268  25.726  1.00  0.00    -0.203 F 
ATOM     96  F   UNL A   1      42.426  21.715  26.533  1.00  0.00    -0.200 F 
ATOM     97  C   UNL A   1      44.108  22.863  25.363  1.00  0.00     0.200 A 
ATOM     98  F   UNL A   1      45.698  24.127  24.166  1.00  0.00    -0.200 F 
ATOM     99  F   UNL A   1      44.254  21.836  24.512  1.00  0.00    -0.200 F 
ENDBRANCH  65  89
BRANCH  77 100
ATOM    100  C   UNL A   1      45.634  30.810  28.624  1.00  0.00     0.064 A 
ATOM    101  C   UNL A   1      44.680  31.265  27.707  1.00  0.00     0.173 A 
ATOM    102  C   UNL A   1      46.941  31.284  28.475  1.00  0.00     0.173 A 
ATOM    103  F   UNL A   1      43.429  30.807  27.762  1.00  0.00    -0.203 F 
ATOM    104  C   UNL A   1      45.005  32.195  26.715  1.00  0.00     0.198 A 
ATOM    105  C   UNL A   1      47.274  32.199  27.479  1.00  0.00     0.198 A 
ATOM    106  F   UNL A   1      47.899  30.871  29.319  1.00  0.00    -0.203 F 
ATOM    107  F   UNL A   1      44.066  32.651  25.871  1.00  0.00    -0.200 F 
ATOM    108  C   UNL A   1      46.305  32.660  26.604  1.00  0.00     0.200 A 
ATOM    109  F   UNL A   1      48.533  32.647  27.384  1.00  0.00    -0.200 F 
ATOM    110  F   UNL A   1      46.626  33.554  25.657  1.00  0.00    -0.200 F 
ENDBRANCH  77 100
ENDBRANCH  51  52
ENDBRANCH  44  46
ENDBRANCH  43  44
ENDBRANCH  42  43
ENDBRANCH  41  42
ENDBRANCH  40  41
ENDBRANCH  39  40
ENDBRANCH  38  39
ENDBRANCH  37  38
ENDBRANCH   1  37
TORSDOF 25
ENDMDL
