MODEL 1
REMARK VINA RESULT:     -12.8      0.000      0.000
REMARK SMILES Cc1ccc(Oc2cc(C(=O)OCCOCCOCCOCCOC(=O)c3ccc(-c4c5nc(c(-c6c(F)c(F)c(F)c(F)c6F)c6ccc([nH]6)c(-c6c(F)c(F)c(F)c(F)c6F)c6nc(c(-c7c(F)c(F)c(F)c(F)c7F)c7ccc4[nH]7)C=C6)C=C5)cc3)nc3ccccc23)cc1
REMARK SMILES IDX 18 1 17 2 16 3 15 4 14 5 13 6 12 7 10 8 11 9 9 10 7 11 8 12
REMARK SMILES IDX 96 13 91 14 95 15 90 16 92 17 94 18 93 19 6 20 5 21 1 22
REMARK SMILES IDX 2 23 3 24 98 25 4 26 97 27 19 28 20 29 21 30 22 31 23 32
REMARK SMILES IDX 24 33 25 34 26 35 27 36 28 37 89 38 29 39 88 40 30 41 31 42
REMARK SMILES IDX 32 43 82 44 33 45 87 46 81 47 83 48 34 49 86 50 80 51 79 52
REMARK SMILES IDX 35 54 67 55 47 56 66 57 48 58 51 59 65 60 84 61 49 62 50 63
REMARK SMILES IDX 64 65 85 66 52 67 36 68 37 69 45 70 38 71 39 72 43 73 46 74
REMARK SMILES IDX 40 75 41 76 44 77 42 78 68 79 69 80 77 81 70 82 71 83 75 84
REMARK SMILES IDX 78 85 72 86 73 87 76 88 74 89 53 90 54 91 62 92 55 93 56 94
REMARK SMILES IDX 60 95 63 96 57 97 58 98 61 99 59 100
REMARK H PARENT 83 53 51 64
REMARK Flexibility Score: inf
ROOT
ATOM      1  O   UNL A   1      40.099  19.988  26.194  1.00  0.00    -0.377 OA
ENDROOT
BRANCH   1   2
ATOM      2  C   UNL A   1      39.427  18.960  25.463  1.00  0.00     0.188 C 
BRANCH   2   3
ATOM      3  C   UNL A   1      37.802  18.454  25.362  1.00  0.00     0.188 C 
BRANCH   3   4
ATOM      4  O   UNL A   1      36.767  16.996  25.680  1.00  0.00    -0.376 OA
BRANCH   4   5
ATOM      5  C   UNL A   1      35.230  16.362  25.057  1.00  0.00     0.202 C 
BRANCH   5   6
ATOM      6  C   UNL A   1      34.181  17.069  23.657  1.00  0.00     0.261 C 
BRANCH   6   7
ATOM      7  O   UNL A   1      33.322  18.673  23.722  1.00  0.00    -0.459 OA
BRANCH   7   8
ATOM      8  C   UNL A   1      32.930  19.857  24.576  1.00  0.00     0.357 C 
ATOM      9  O   UNL A   1      31.795  20.059  25.034  1.00  0.00    -0.244 OA
BRANCH   8  10
ATOM     10  C   UNL A   1      33.862  20.983  25.188  1.00  0.00     0.152 A 
ATOM     11  C   UNL A   1      34.081  23.125  26.222  1.00  0.00     0.139 A 
ATOM     12  C   UNL A   1      33.272  22.049  25.838  1.00  0.00     0.084 A 
ATOM     13  C   UNL A   1      35.488  23.112  26.107  1.00  0.00     0.043 A 
ATOM     14  C   UNL A   1      36.012  21.969  25.524  1.00  0.00     0.075 A 
ATOM     15  C   UNL A   1      36.361  24.186  26.428  1.00  0.00     0.014 A 
ATOM     16  N   UNL A   1      35.208  21.009  25.034  1.00  0.00    -0.240 NA
ATOM     17  C   UNL A   1      37.396  21.867  25.378  1.00  0.00     0.029 A 
ATOM     18  C   UNL A   1      37.733  24.098  26.192  1.00  0.00     0.001 A 
ATOM     19  C   UNL A   1      38.258  22.918  25.691  1.00  0.00     0.002 A 
BRANCH  11  20
ATOM     20  O   UNL A   1      33.427  24.291  26.554  1.00  0.00    -0.457 OA
BRANCH  20  21
ATOM     21  C   UNL A   1      33.568  25.319  25.638  1.00  0.00     0.127 A 
ATOM     22  C   UNL A   1      33.654  28.325  22.571  1.00  0.00     0.044 C 
ATOM     23  C   UNL A   1      33.656  27.277  23.638  1.00  0.00    -0.051 A 
ATOM     24  C   UNL A   1      33.514  25.922  23.305  1.00  0.00     0.007 A 
ATOM     25  C   UNL A   1      33.803  27.642  24.975  1.00  0.00     0.007 A 
ATOM     26  C   UNL A   1      33.462  24.947  24.303  1.00  0.00     0.047 A 
ATOM     27  C   UNL A   1      33.771  26.669  25.967  1.00  0.00     0.047 A 
ENDBRANCH  20  21
ENDBRANCH  11  20
ENDBRANCH   8  10
ENDBRANCH   7   8
ENDBRANCH   6   7
ENDBRANCH   5   6
ENDBRANCH   4   5
ENDBRANCH   3   4
ENDBRANCH   2   3
ENDBRANCH   1   2
BRANCH   1  28
ATOM     28  C   UNL A   1      41.387  19.907  26.783  1.00  0.00     0.188 C 
BRANCH  28  29
ATOM     29  C   UNL A   1      42.587  19.701  25.902  1.00  0.00     0.188 C 
BRANCH  29  30
ATOM     30  O   UNL A   1      43.453  20.798  26.105  1.00  0.00    -0.376 OA
BRANCH  30  31
ATOM     31  C   UNL A   1      44.224  21.160  24.982  1.00  0.00     0.202 C 
BRANCH  31  32
ATOM     32  C   UNL A   1      44.248  22.680  24.814  1.00  0.00     0.261 C 
BRANCH  32  33
ATOM     33  O   UNL A   1      43.087  23.272  25.453  1.00  0.00    -0.460 OA
BRANCH  33  34
ATOM     34  C   UNL A   1      42.949  24.645  25.359  1.00  0.00     0.338 C 
ATOM     35  O   UNL A   1      43.789  25.394  24.930  1.00  0.00    -0.246 OA
BRANCH  34  36
ATOM     36  C   UNL A   1      41.720  25.078  26.117  1.00  0.00     0.060 A 
ATOM     37  C   UNL A   1      40.943  26.211  25.822  1.00  0.00     0.016 A 
ATOM     38  C   UNL A   1      41.574  24.577  27.359  1.00  0.00     0.016 A 
ATOM     39  C   UNL A   1      40.386  27.070  26.867  1.00  0.00     0.010 A 
ATOM     40  C   UNL A   1      41.134  25.478  28.321  1.00  0.00     0.010 A 
ATOM     41  C   UNL A   1      40.692  26.899  28.222  1.00  0.00    -0.014 A 
BRANCH  41  42
ATOM     42  C   UNL A   1      40.540  28.200  29.575  1.00  0.00     0.031 A 
ATOM     43  C   UNL A   1      38.889  29.321  29.814  1.00  0.00     0.074 A 
ATOM     44  C   UNL A   1      41.831  28.381  30.202  1.00  0.00     0.049 A 
ATOM     45  N   UNL A   1      38.825  30.656  29.506  1.00  0.00    -0.248 NA
ATOM     46  C   UNL A   1      37.266  29.121  29.672  1.00  0.00     0.031 C 
ATOM     47  C   UNL A   1      42.313  29.207  31.328  1.00  0.00     0.029 A 
ATOM     48  N   UNL A   1      43.131  27.874  29.851  1.00  0.00    -0.354 N 
ATOM     49  C   UNL A   1      37.652  31.332  29.542  1.00  0.00     0.074 A 
ATOM     50  C   UNL A   1      36.694  30.303  29.399  1.00  0.00     0.031 C 
ATOM     51  C   UNL A   1      43.601  29.202  31.622  1.00  0.00     0.029 A 
ATOM     52  C   UNL A   1      44.151  28.686  30.453  1.00  0.00     0.049 A 
ATOM     53  H   UNL A   1      43.297  27.089  29.283  1.00  0.00     0.167 HD
ATOM     54  C   UNL A   1      37.603  32.673  29.821  1.00  0.00     0.037 A 
ATOM     55  C   UNL A   1      45.026  29.496  29.806  1.00  0.00     0.037 A 
ATOM     56  C   UNL A   1      38.881  33.207  30.347  1.00  0.00     0.049 A 
ATOM     57  C   UNL A   1      44.667  31.003  29.837  1.00  0.00     0.074 A 
ATOM     58  C   UNL A   1      39.315  33.362  31.661  1.00  0.00     0.029 A 
ATOM     59  N   UNL A   1      40.027  33.384  29.570  1.00  0.00    -0.354 N 
ATOM     60  N   UNL A   1      43.456  31.531  29.824  1.00  0.00    -0.248 NA
ATOM     61  C   UNL A   1      45.696  32.018  30.058  1.00  0.00     0.031 C 
ATOM     62  C   UNL A   1      40.731  33.428  31.679  1.00  0.00     0.029 A 
ATOM     63  C   UNL A   1      41.180  33.454  30.367  1.00  0.00     0.049 A 
ATOM     64  H   UNL A   1      40.026  33.450  28.588  1.00  0.00     0.167 HD
ATOM     65  C   UNL A   1      43.539  32.917  29.930  1.00  0.00     0.074 A 
ATOM     66  C   UNL A   1      44.965  33.144  30.124  1.00  0.00     0.031 C 
ATOM     67  C   UNL A   1      42.501  33.831  29.861  1.00  0.00     0.037 A 
BRANCH  54  68
ATOM     68  C   UNL A   1      36.249  33.307  30.071  1.00  0.00     0.064 A 
ATOM     69  C   UNL A   1      35.493  33.885  29.034  1.00  0.00     0.173 A 
ATOM     70  C   UNL A   1      35.689  33.435  31.359  1.00  0.00     0.173 A 
ATOM     71  F   UNL A   1      35.810  33.707  27.747  1.00  0.00    -0.203 F 
ATOM     72  C   UNL A   1      34.366  34.673  29.283  1.00  0.00     0.198 A 
ATOM     73  C   UNL A   1      34.590  34.261  31.615  1.00  0.00     0.198 A 
ATOM     74  F   UNL A   1      36.195  32.754  32.400  1.00  0.00    -0.203 F 
ATOM     75  F   UNL A   1      33.703  35.224  28.257  1.00  0.00    -0.200 F 
ATOM     76  C   UNL A   1      33.942  34.899  30.576  1.00  0.00     0.200 A 
ATOM     77  F   UNL A   1      34.171  34.447  32.876  1.00  0.00    -0.200 F 
ATOM     78  F   UNL A   1      32.895  35.701  30.816  1.00  0.00    -0.200 F 
ENDBRANCH  54  68
BRANCH  55  79
ATOM     79  C   UNL A   1      45.795  28.639  28.883  1.00  0.00     0.064 A 
ATOM     80  C   UNL A   1      45.555  28.912  27.504  1.00  0.00     0.173 A 
ATOM     81  C   UNL A   1      47.072  28.237  29.260  1.00  0.00     0.173 A 
ATOM     82  F   UNL A   1      44.335  29.316  27.103  1.00  0.00    -0.203 F 
ATOM     83  C   UNL A   1      46.617  29.079  26.623  1.00  0.00     0.198 A 
ATOM     84  C   UNL A   1      48.120  28.330  28.345  1.00  0.00     0.198 A 
ATOM     85  F   UNL A   1      47.340  27.985  30.548  1.00  0.00    -0.203 F 
ATOM     86  F   UNL A   1      46.411  29.642  25.422  1.00  0.00    -0.200 F 
ATOM     87  C   UNL A   1      47.903  28.822  27.059  1.00  0.00     0.200 A 
ATOM     88  F   UNL A   1      49.376  28.122  28.762  1.00  0.00    -0.200 F 
ATOM     89  F   UNL A   1      48.944  29.138  26.275  1.00  0.00    -0.200 F 
ENDBRANCH  55  79
BRANCH  67  90
ATOM     90  C   UNL A   1      42.649  35.317  29.494  1.00  0.00     0.064 A 
ATOM     91  C   UNL A   1      43.281  36.268  30.310  1.00  0.00     0.173 A 
ATOM     92  C   UNL A   1      42.304  35.799  28.196  1.00  0.00     0.173 A 
ATOM     93  F   UNL A   1      43.785  35.946  31.507  1.00  0.00    -0.203 F 
ATOM     94  C   UNL A   1      43.484  37.591  29.899  1.00  0.00     0.198 A 
ATOM     95  C   UNL A   1      42.580  37.094  27.763  1.00  0.00     0.198 A 
ATOM     96  F   UNL A   1      41.718  35.031  27.270  1.00  0.00    -0.203 F 
ATOM     97  F   UNL A   1      44.042  38.465  30.747  1.00  0.00    -0.200 F 
ATOM     98  C   UNL A   1      43.151  37.999  28.623  1.00  0.00     0.200 A 
ATOM     99  F   UNL A   1      42.309  37.441  26.496  1.00  0.00    -0.200 F 
ATOM    100  F   UNL A   1      43.403  39.250  28.216  1.00  0.00    -0.200 F 
ENDBRANCH  67  90
ENDBRANCH  41  42
ENDBRANCH  34  36
ENDBRANCH  33  34
ENDBRANCH  32  33
ENDBRANCH  31  32
ENDBRANCH  30  31
ENDBRANCH  29  30
ENDBRANCH  28  29
ENDBRANCH   1  28
TORSDOF 22
ENDMDL
MODEL 2
REMARK VINA RESULT:     -12.3      2.076      3.395
REMARK SMILES Cc1ccc(Oc2cc(C(=O)OCCOCCOCCOCCOC(=O)c3ccc(-c4c5nc(c(-c6c(F)c(F)c(F)c(F)c6F)c6ccc([nH]6)c(-c6c(F)c(F)c(F)c(F)c6F)c6nc(c(-c7c(F)c(F)c(F)c(F)c7F)c7ccc4[nH]7)C=C6)C=C5)cc3)nc3ccccc23)cc1
REMARK SMILES IDX 18 1 17 2 16 3 15 4 14 5 13 6 12 7 10 8 11 9 9 10 7 11 8 12
REMARK SMILES IDX 96 13 91 14 95 15 90 16 92 17 94 18 93 19 6 20 5 21 1 22
REMARK SMILES IDX 2 23 3 24 98 25 4 26 97 27 19 28 20 29 21 30 22 31 23 32
REMARK SMILES IDX 24 33 25 34 26 35 27 36 28 37 89 38 29 39 88 40 30 41 31 42
REMARK SMILES IDX 32 43 82 44 33 45 87 46 81 47 83 48 34 49 86 50 80 51 79 52
REMARK SMILES IDX 35 54 67 55 47 56 66 57 48 58 51 59 65 60 84 61 49 62 50 63
REMARK SMILES IDX 64 65 85 66 52 67 36 68 37 69 45 70 38 71 39 72 43 73 46 74
REMARK SMILES IDX 40 75 41 76 44 77 42 78 68 79 69 80 77 81 70 82 71 83 75 84
REMARK SMILES IDX 78 85 72 86 73 87 76 88 74 89 53 90 54 91 62 92 55 93 56 94
REMARK SMILES IDX 60 95 63 96 57 97 58 98 61 99 59 100
REMARK H PARENT 83 53 51 64
REMARK Flexibility Score: inf
ROOT
ATOM      1  O   UNL A   1      39.569  21.086  26.912  1.00  0.00    -0.377 OA
ENDROOT
BRANCH   1   2
ATOM      2  C   UNL A   1      38.907  21.294  25.663  1.00  0.00     0.188 C 
BRANCH   2   3
ATOM      3  C   UNL A   1      37.477  20.678  24.968  1.00  0.00     0.188 C 
BRANCH   3   4
ATOM      4  O   UNL A   1      36.633  19.097  24.671  1.00  0.00    -0.376 OA
BRANCH   4   5
ATOM      5  C   UNL A   1      34.965  18.501  24.782  1.00  0.00     0.202 C 
BRANCH   5   6
ATOM      6  C   UNL A   1      33.398  19.360  24.178  1.00  0.00     0.261 C 
BRANCH   6   7
ATOM      7  O   UNL A   1      33.084  21.148  24.316  1.00  0.00    -0.459 OA
BRANCH   7   8
ATOM      8  C   UNL A   1      33.631  22.542  24.103  1.00  0.00     0.357 C 
ATOM      9  O   UNL A   1      34.835  22.832  24.044  1.00  0.00    -0.244 OA
BRANCH   8  10
ATOM     10  C   UNL A   1      32.836  23.871  23.769  1.00  0.00     0.152 A 
ATOM     11  C   UNL A   1      32.868  26.200  23.235  1.00  0.00     0.139 A 
ATOM     12  C   UNL A   1      33.548  24.982  23.360  1.00  0.00     0.084 A 
ATOM     13  C   UNL A   1      31.468  26.319  23.367  1.00  0.00     0.043 A 
ATOM     14  C   UNL A   1      30.814  25.142  23.693  1.00  0.00     0.075 A 
ATOM     15  C   UNL A   1      30.725  27.527  23.305  1.00  0.00     0.014 A 
ATOM     16  N   UNL A   1      31.500  24.013  23.948  1.00  0.00    -0.240 NA
ATOM     17  C   UNL A   1      29.426  25.165  23.836  1.00  0.00     0.029 A 
ATOM     18  C   UNL A   1      29.349  27.543  23.538  1.00  0.00     0.001 A 
ATOM     19  C   UNL A   1      28.690  26.348  23.775  1.00  0.00     0.002 A 
BRANCH  11  20
ATOM     20  O   UNL A   1      33.653  27.329  23.157  1.00  0.00    -0.457 OA
BRANCH  20  21
ATOM     21  C   UNL A   1      33.744  28.057  24.331  1.00  0.00     0.127 A 
ATOM     22  C   UNL A   1      33.597  30.449  27.896  1.00  0.00     0.044 C 
ATOM     23  C   UNL A   1      33.678  29.627  26.649  1.00  0.00    -0.051 A 
ATOM     24  C   UNL A   1      33.189  30.127  25.434  1.00  0.00     0.007 A 
ATOM     25  C   UNL A   1      34.244  28.354  26.687  1.00  0.00     0.007 A 
ATOM     26  C   UNL A   1      33.215  29.341  24.280  1.00  0.00     0.047 A 
ATOM     27  C   UNL A   1      34.288  27.579  25.535  1.00  0.00     0.047 A 
ENDBRANCH  20  21
ENDBRANCH  11  20
ENDBRANCH   8  10
ENDBRANCH   7   8
ENDBRANCH   6   7
ENDBRANCH   5   6
ENDBRANCH   4   5
ENDBRANCH   3   4
ENDBRANCH   2   3
ENDBRANCH   1   2
BRANCH   1  28
ATOM     28  C   UNL A   1      40.859  20.528  27.106  1.00  0.00     0.188 C 
BRANCH  28  29
ATOM     29  C   UNL A   1      41.507  19.763  25.986  1.00  0.00     0.188 C 
BRANCH  29  30
ATOM     30  O   UNL A   1      42.885  19.671  26.281  1.00  0.00    -0.376 OA
BRANCH  30  31
ATOM     31  C   UNL A   1      43.714  19.435  25.165  1.00  0.00     0.202 C 
BRANCH  31  32
ATOM     32  C   UNL A   1      44.631  20.634  24.915  1.00  0.00     0.261 C 
BRANCH  32  33
ATOM     33  O   UNL A   1      44.074  21.826  25.527  1.00  0.00    -0.460 OA
BRANCH  33  34
ATOM     34  C   UNL A   1      44.063  22.979  24.763  1.00  0.00     0.338 C 
ATOM     35  O   UNL A   1      44.928  23.299  23.988  1.00  0.00    -0.246 OA
BRANCH  34  36
ATOM     36  C   UNL A   1      42.962  23.888  25.243  1.00  0.00     0.060 A 
ATOM     37  C   UNL A   1      42.904  25.276  25.029  1.00  0.00     0.016 A 
ATOM     38  C   UNL A   1      42.192  23.420  26.245  1.00  0.00     0.016 A 
ATOM     39  C   UNL A   1      42.444  26.208  26.059  1.00  0.00     0.010 A 
ATOM     40  C   UNL A   1      41.876  24.339  27.239  1.00  0.00     0.010 A 
ATOM     41  C   UNL A   1      42.154  25.799  27.365  1.00  0.00    -0.014 A 
BRANCH  41  42
ATOM     42  C   UNL A   1      42.114  26.893  28.896  1.00  0.00     0.031 A 
ATOM     43  C   UNL A   1      40.441  27.816  29.521  1.00  0.00     0.074 A 
ATOM     44  C   UNL A   1      43.468  27.111  29.356  1.00  0.00     0.049 A 
ATOM     45  N   UNL A   1      40.234  29.168  29.416  1.00  0.00    -0.248 NA
ATOM     46  C   UNL A   1      38.834  27.486  29.580  1.00  0.00     0.031 C 
ATOM     47  C   UNL A   1      44.053  27.825  30.509  1.00  0.00     0.029 A 
ATOM     48  N   UNL A   1      44.734  26.777  28.758  1.00  0.00    -0.354 N 
ATOM     49  C   UNL A   1      39.034  29.722  29.712  1.00  0.00     0.074 A 
ATOM     50  C   UNL A   1      38.143  28.636  29.560  1.00  0.00     0.031 C 
ATOM     51  C   UNL A   1      45.369  27.902  30.616  1.00  0.00     0.029 A 
ATOM     52  C   UNL A   1      45.771  27.595  29.320  1.00  0.00     0.049 A 
ATOM     53  H   UNL A   1      44.868  26.090  28.067  1.00  0.00     0.167 HD
ATOM     54  C   UNL A   1      38.930  31.005  30.182  1.00  0.00     0.037 A 
ATOM     55  C   UNL A   1      46.477  28.559  28.678  1.00  0.00     0.037 A 
ATOM     56  C   UNL A   1      40.231  31.583  30.595  1.00  0.00     0.049 A 
ATOM     57  C   UNL A   1      46.018  30.009  28.972  1.00  0.00     0.074 A 
ATOM     58  C   UNL A   1      40.846  31.606  31.843  1.00  0.00     0.029 A 
ATOM     59  N   UNL A   1      41.230  31.965  29.697  1.00  0.00    -0.354 N 
ATOM     60  N   UNL A   1      44.784  30.421  29.204  1.00  0.00    -0.248 NA
ATOM     61  C   UNL A   1      46.992  31.078  29.189  1.00  0.00     0.031 C 
ATOM     62  C   UNL A   1      42.241  31.800  31.672  1.00  0.00     0.029 A 
ATOM     63  C   UNL A   1      42.482  32.038  30.327  1.00  0.00     0.049 A 
ATOM     64  H   UNL A   1      41.076  32.157  28.744  1.00  0.00     0.167 HD
ATOM     65  C   UNL A   1      44.781  31.783  29.492  1.00  0.00     0.074 A 
ATOM     66  C   UNL A   1      46.200  32.114  29.515  1.00  0.00     0.031 C 
ATOM     67  C   UNL A   1      43.681  32.597  29.699  1.00  0.00     0.037 A 
BRANCH  54  68
ATOM     68  C   UNL A   1      37.587  31.473  30.707  1.00  0.00     0.064 A 
ATOM     69  C   UNL A   1      36.613  32.038  29.863  1.00  0.00     0.173 A 
ATOM     70  C   UNL A   1      37.251  31.452  32.076  1.00  0.00     0.173 A 
ATOM     71  F   UNL A   1      36.717  31.983  28.530  1.00  0.00    -0.203 F 
ATOM     72  C   UNL A   1      35.478  32.682  30.361  1.00  0.00     0.198 A 
ATOM     73  C   UNL A   1      36.140  32.138  32.580  1.00  0.00     0.198 A 
ATOM     74  F   UNL A   1      37.991  30.760  32.956  1.00  0.00    -0.203 F 
ATOM     75  F   UNL A   1      34.598  33.229  29.511  1.00  0.00    -0.200 F 
ATOM     76  C   UNL A   1      35.265  32.773  31.721  1.00  0.00     0.200 A 
ATOM     77  F   UNL A   1      35.931  32.191  33.904  1.00  0.00    -0.200 F 
ATOM     78  F   UNL A   1      34.206  33.441  32.199  1.00  0.00    -0.200 F 
ENDBRANCH  54  68
BRANCH  55  79
ATOM     79  C   UNL A   1      47.158  27.904  27.545  1.00  0.00     0.064 A 
ATOM     80  C   UNL A   1      48.126  26.930  27.935  1.00  0.00     0.173 A 
ATOM     81  C   UNL A   1      46.437  27.680  26.377  1.00  0.00     0.173 A 
ATOM     82  F   UNL A   1      48.833  27.106  29.067  1.00  0.00    -0.203 F 
ATOM     83  C   UNL A   1      48.129  25.667  27.357  1.00  0.00     0.198 A 
ATOM     84  C   UNL A   1      46.508  26.435  25.754  1.00  0.00     0.198 A 
ATOM     85  F   UNL A   1      45.510  28.564  25.985  1.00  0.00    -0.203 F 
ATOM     86  F   UNL A   1      48.811  24.666  27.934  1.00  0.00    -0.200 F 
ATOM     87  C   UNL A   1      47.291  25.413  26.288  1.00  0.00     0.200 A 
ATOM     88  F   UNL A   1      45.674  26.159  24.742  1.00  0.00    -0.200 F 
ATOM     89  F   UNL A   1      47.162  24.159  25.830  1.00  0.00    -0.200 F 
ENDBRANCH  55  79
BRANCH  67  90
ATOM     90  C   UNL A   1      43.663  34.126  29.530  1.00  0.00     0.064 A 
ATOM     91  C   UNL A   1      43.818  35.035  30.587  1.00  0.00     0.173 A 
ATOM     92  C   UNL A   1      43.666  34.729  28.236  1.00  0.00     0.173 A 
ATOM     93  F   UNL A   1      43.967  34.626  31.852  1.00  0.00    -0.203 F 
ATOM     94  C   UNL A   1      43.896  36.418  30.380  1.00  0.00     0.198 A 
ATOM     95  C   UNL A   1      43.823  36.098  28.031  1.00  0.00     0.198 A 
ATOM     96  F   UNL A   1      43.554  34.021  27.106  1.00  0.00    -0.203 F 
ATOM     97  F   UNL A   1      43.987  37.236  31.437  1.00  0.00    -0.200 F 
ATOM     98  C   UNL A   1      43.916  36.947  29.105  1.00  0.00     0.200 A 
ATOM     99  F   UNL A   1      43.908  36.576  26.781  1.00  0.00    -0.200 F 
ATOM    100  F   UNL A   1      44.050  38.266  28.913  1.00  0.00    -0.200 F 
ENDBRANCH  67  90
ENDBRANCH  41  42
ENDBRANCH  34  36
ENDBRANCH  33  34
ENDBRANCH  32  33
ENDBRANCH  31  32
ENDBRANCH  30  31
ENDBRANCH  29  30
ENDBRANCH  28  29
ENDBRANCH   1  28
TORSDOF 22
ENDMDL
MODEL 3
REMARK VINA RESULT:     -12.2      3.732      7.231
REMARK SMILES Cc1ccc(Oc2cc(C(=O)OCCOCCOCCOCCOC(=O)c3ccc(-c4c5nc(c(-c6c(F)c(F)c(F)c(F)c6F)c6ccc([nH]6)c(-c6c(F)c(F)c(F)c(F)c6F)c6nc(c(-c7c(F)c(F)c(F)c(F)c7F)c7ccc4[nH]7)C=C6)C=C5)cc3)nc3ccccc23)cc1
REMARK SMILES IDX 18 1 17 2 16 3 15 4 14 5 13 6 12 7 10 8 11 9 9 10 7 11 8 12
REMARK SMILES IDX 96 13 91 14 95 15 90 16 92 17 94 18 93 19 6 20 5 21 1 22
REMARK SMILES IDX 2 23 3 24 98 25 4 26 97 27 19 28 20 29 21 30 22 31 23 32
REMARK SMILES IDX 24 33 25 34 26 35 27 36 28 37 89 38 29 39 88 40 30 41 31 42
REMARK SMILES IDX 32 43 82 44 33 45 87 46 81 47 83 48 34 49 86 50 80 51 79 52
REMARK SMILES IDX 35 54 67 55 47 56 66 57 48 58 51 59 65 60 84 61 49 62 50 63
REMARK SMILES IDX 64 65 85 66 52 67 36 68 37 69 45 70 38 71 39 72 43 73 46 74
REMARK SMILES IDX 40 75 41 76 44 77 42 78 68 79 69 80 77 81 70 82 71 83 75 84
REMARK SMILES IDX 78 85 72 86 73 87 76 88 74 89 53 90 54 91 62 92 55 93 56 94
REMARK SMILES IDX 60 95 63 96 57 97 58 98 61 99 59 100
REMARK H PARENT 83 53 51 64
REMARK Flexibility Score: inf
ROOT
ATOM      1  O   UNL A   1      43.835  24.694  24.696  1.00  0.00    -0.377 OA
ENDROOT
BRANCH   1   2
ATOM      2  C   UNL A   1      44.576  23.738  25.458  1.00  0.00     0.188 C 
BRANCH   2   3
ATOM      3  C   UNL A   1      45.870  22.689  25.096  1.00  0.00     0.188 C 
BRANCH   3   4
ATOM      4  O   UNL A   1      46.417  20.983  25.397  1.00  0.00    -0.376 OA
BRANCH   4   5
ATOM      5  C   UNL A   1      45.776  19.361  25.065  1.00  0.00     0.202 C 
BRANCH   5   6
ATOM      6  C   UNL A   1      43.969  18.818  25.075  1.00  0.00     0.261 C 
BRANCH   6   7
ATOM      7  O   UNL A   1      42.562  19.925  25.409  1.00  0.00    -0.459 OA
BRANCH   7   8
ATOM      8  C   UNL A   1      41.360  20.203  26.284  1.00  0.00     0.357 C 
ATOM      9  O   UNL A   1      40.758  19.354  26.957  1.00  0.00    -0.244 OA
BRANCH   8  10
ATOM     10  C   UNL A   1      40.713  21.602  26.652  1.00  0.00     0.152 A 
ATOM     11  C   UNL A   1      38.964  23.198  26.336  1.00  0.00     0.139 A 
ATOM     12  C   UNL A   1      39.458  21.900  26.158  1.00  0.00     0.084 A 
ATOM     13  C   UNL A   1      39.620  24.173  27.117  1.00  0.00     0.043 A 
ATOM     14  C   UNL A   1      40.833  23.769  27.651  1.00  0.00     0.075 A 
ATOM     15  C   UNL A   1      39.202  25.519  27.295  1.00  0.00     0.014 A 
ATOM     16  N   UNL A   1      41.358  22.567  27.352  1.00  0.00    -0.240 NA
ATOM     17  C   UNL A   1      41.549  24.667  28.443  1.00  0.00     0.029 A 
ATOM     18  C   UNL A   1      39.975  26.428  28.019  1.00  0.00     0.001 A 
ATOM     19  C   UNL A   1      41.142  25.990  28.623  1.00  0.00     0.002 A 
BRANCH  11  20
ATOM     20  O   UNL A   1      37.884  23.550  25.557  1.00  0.00    -0.457 OA
BRANCH  20  21
ATOM     21  C   UNL A   1      36.815  22.671  25.613  1.00  0.00     0.127 A 
ATOM     22  C   UNL A   1      33.229  20.310  25.744  1.00  0.00     0.044 C 
ATOM     23  C   UNL A   1      34.491  21.114  25.722  1.00  0.00    -0.051 A 
ATOM     24  C   UNL A   1      34.592  22.299  26.465  1.00  0.00     0.007 A 
ATOM     25  C   UNL A   1      35.577  20.688  24.961  1.00  0.00     0.007 A 
ATOM     26  C   UNL A   1      35.748  23.079  26.405  1.00  0.00     0.047 A 
ATOM     27  C   UNL A   1      36.736  21.454  24.916  1.00  0.00     0.047 A 
ENDBRANCH  20  21
ENDBRANCH  11  20
ENDBRANCH   8  10
ENDBRANCH   7   8
ENDBRANCH   6   7
ENDBRANCH   5   6
ENDBRANCH   4   5
ENDBRANCH   3   4
ENDBRANCH   2   3
ENDBRANCH   1   2
BRANCH   1  28
ATOM     28  C   UNL A   1      42.941  25.672  25.201  1.00  0.00     0.188 C 
BRANCH  28  29
ATOM     29  C   UNL A   1      43.494  26.922  25.827  1.00  0.00     0.188 C 
BRANCH  29  30
ATOM     30  O   UNL A   1      44.423  27.473  24.918  1.00  0.00    -0.376 OA
BRANCH  30  31
ATOM     31  C   UNL A   1      45.673  27.809  25.478  1.00  0.00     0.202 C 
BRANCH  31  32
ATOM     32  C   UNL A   1      46.699  26.708  25.201  1.00  0.00     0.261 C 
BRANCH  32  33
ATOM     33  O   UNL A   1      47.757  26.751  26.193  1.00  0.00    -0.460 OA
BRANCH  33  34
ATOM     34  C   UNL A   1      47.779  25.737  27.134  1.00  0.00     0.338 C 
ATOM     35  O   UNL A   1      48.165  24.614  26.927  1.00  0.00    -0.246 OA
BRANCH  34  36
ATOM     36  C   UNL A   1      47.004  26.167  28.353  1.00  0.00     0.060 A 
ATOM     37  C   UNL A   1      45.730  25.696  28.712  1.00  0.00     0.016 A 
ATOM     38  C   UNL A   1      47.379  27.329  28.922  1.00  0.00     0.016 A 
ATOM     39  C   UNL A   1      44.698  26.575  29.263  1.00  0.00     0.010 A 
ATOM     40  C   UNL A   1      46.341  28.158  29.333  1.00  0.00     0.010 A 
ATOM     41  C   UNL A   1      44.863  27.962  29.350  1.00  0.00    -0.014 A 
BRANCH  41  42
ATOM     42  C   UNL A   1      43.490  29.244  29.482  1.00  0.00     0.031 A 
ATOM     43  C   UNL A   1      43.583  31.024  28.555  1.00  0.00     0.074 A 
ATOM     44  C   UNL A   1      42.545  28.821  30.493  1.00  0.00     0.049 A 
ATOM     45  N   UNL A   1      43.788  32.213  29.209  1.00  0.00    -0.248 NA
ATOM     46  C   UNL A   1      44.145  31.613  27.128  1.00  0.00     0.031 C 
ATOM     47  C   UNL A   1      41.271  29.374  30.995  1.00  0.00     0.029 A 
ATOM     48  N   UNL A   1      42.598  27.742  31.442  1.00  0.00    -0.354 N 
ATOM     49  C   UNL A   1      43.993  33.366  28.528  1.00  0.00     0.074 A 
ATOM     50  C   UNL A   1      44.456  32.909  27.273  1.00  0.00     0.031 C 
ATOM     51  C   UNL A   1      40.663  28.772  32.003  1.00  0.00     0.029 A 
ATOM     52  C   UNL A   1      41.695  28.000  32.528  1.00  0.00     0.049 A 
ATOM     53  H   UNL A   1      43.169  26.944  31.360  1.00  0.00     0.167 HD
ATOM     54  C   UNL A   1      43.626  34.581  29.045  1.00  0.00     0.037 A 
ATOM     55  C   UNL A   1      42.033  28.264  33.815  1.00  0.00     0.037 A 
ATOM     56  C   UNL A   1      42.754  34.470  30.238  1.00  0.00     0.049 A 
ATOM     57  C   UNL A   1      41.970  29.760  34.213  1.00  0.00     0.074 A 
ATOM     58  C   UNL A   1      41.365  34.465  30.334  1.00  0.00     0.029 A 
ATOM     59  N   UNL A   1      43.201  34.043  31.489  1.00  0.00    -0.354 N 
ATOM     60  N   UNL A   1      42.244  30.799  33.444  1.00  0.00    -0.248 NA
ATOM     61  C   UNL A   1      41.415  30.175  35.501  1.00  0.00     0.031 C 
ATOM     62  C   UNL A   1      40.986  33.851  31.555  1.00  0.00     0.029 A 
ATOM     63  C   UNL A   1      42.136  33.597  32.287  1.00  0.00     0.049 A 
ATOM     64  H   UNL A   1      44.143  34.052  31.775  1.00  0.00     0.167 HD
ATOM     65  C   UNL A   1      42.008  31.983  34.138  1.00  0.00     0.074 A 
ATOM     66  C   UNL A   1      41.444  31.515  35.397  1.00  0.00     0.031 C 
ATOM     67  C   UNL A   1      42.261  33.275  33.710  1.00  0.00     0.037 A 
BRANCH  54  68
ATOM     68  C   UNL A   1      43.674  35.794  28.136  1.00  0.00     0.064 A 
ATOM     69  C   UNL A   1      44.865  36.508  27.907  1.00  0.00     0.173 A 
ATOM     70  C   UNL A   1      42.526  36.338  27.524  1.00  0.00     0.173 A 
ATOM     71  F   UNL A   1      46.057  36.031  28.285  1.00  0.00    -0.203 F 
ATOM     72  C   UNL A   1      44.879  37.750  27.269  1.00  0.00     0.198 A 
ATOM     73  C   UNL A   1      42.529  37.603  26.927  1.00  0.00     0.198 A 
ATOM     74  F   UNL A   1      41.375  35.649  27.488  1.00  0.00    -0.203 F 
ATOM     75  F   UNL A   1      46.040  38.399  27.105  1.00  0.00    -0.200 F 
ATOM     76  C   UNL A   1      43.705  38.319  26.820  1.00  0.00     0.200 A 
ATOM     77  F   UNL A   1      41.384  38.130  26.468  1.00  0.00    -0.200 F 
ATOM     78  F   UNL A   1      43.712  39.537  26.260  1.00  0.00    -0.200 F 
ENDBRANCH  54  68
BRANCH  55  79
ATOM     79  C   UNL A   1      42.799  27.100  34.300  1.00  0.00     0.064 A 
ATOM     80  C   UNL A   1      44.182  27.369  34.522  1.00  0.00     0.173 A 
ATOM     81  C   UNL A   1      42.164  26.192  35.141  1.00  0.00     0.173 A 
ATOM     82  F   UNL A   1      44.827  28.252  33.736  1.00  0.00    -0.203 F 
ATOM     83  C   UNL A   1      44.793  26.991  35.711  1.00  0.00     0.198 A 
ATOM     84  C   UNL A   1      42.815  25.752  36.293  1.00  0.00     0.198 A 
ATOM     85  F   UNL A   1      40.862  25.924  34.974  1.00  0.00    -0.203 F 
ATOM     86  F   UNL A   1      45.981  27.514  36.052  1.00  0.00    -0.200 F 
ATOM     87  C   UNL A   1      44.092  26.211  36.611  1.00  0.00     0.200 A 
ATOM     88  F   UNL A   1      42.136  25.029  37.194  1.00  0.00    -0.200 F 
ATOM     89  F   UNL A   1      44.605  25.980  37.828  1.00  0.00    -0.200 F 
ENDBRANCH  55  79
BRANCH  67  90
ATOM     90  C   UNL A   1      42.456  34.492  34.629  1.00  0.00     0.064 A 
ATOM     91  C   UNL A   1      41.415  35.124  35.328  1.00  0.00     0.173 A 
ATOM     92  C   UNL A   1      43.759  34.958  34.978  1.00  0.00     0.173 A 
ATOM     93  F   UNL A   1      40.145  34.719  35.217  1.00  0.00    -0.203 F 
ATOM     94  C   UNL A   1      41.647  36.168  36.232  1.00  0.00     0.198 A 
ATOM     95  C   UNL A   1      43.989  35.942  35.936  1.00  0.00     0.198 A 
ATOM     96  F   UNL A   1      44.877  34.459  34.435  1.00  0.00    -0.203 F 
ATOM     97  F   UNL A   1      40.604  36.766  36.824  1.00  0.00    -0.200 F 
ATOM     98  C   UNL A   1      42.930  36.564  36.550  1.00  0.00     0.200 A 
ATOM     99  F   UNL A   1      45.248  36.258  36.275  1.00  0.00    -0.200 F 
ATOM    100  F   UNL A   1      43.145  37.522  37.460  1.00  0.00    -0.200 F 
ENDBRANCH  67  90
ENDBRANCH  41  42
ENDBRANCH  34  36
ENDBRANCH  33  34
ENDBRANCH  32  33
ENDBRANCH  31  32
ENDBRANCH  30  31
ENDBRANCH  29  30
ENDBRANCH  28  29
ENDBRANCH   1  28
TORSDOF 22
ENDMDL
