MODEL 1
REMARK VINA RESULT:      -9.7      0.000      0.000
REMARK SMILES Cc1occc1C(=O)N[C@@H](C)CC(=O)OCCOCCOCCOCCOC(=O)c1ccc(-c2c3nc(c(-c4c(F)c(F)c(F)c(F)c4F)c4ccc([nH]4)c(-c4c(F)c(F)c(F)c(F)c4F)c4nc(c(-c5c(F)c(F)c(F)c(F)c5F)c5ccc2[nH]5)C=C4)C=C3)cc1
REMARK SMILES IDX 20 1 19 2 18 3 17 4 16 5 15 6 13 7 14 8 12 9 10 10 11 11
REMARK SMILES IDX 9 12 7 13 8 14 6 16 1 17 2 18 3 19 4 20 5 21 21 22 22 23
REMARK SMILES IDX 23 24 24 25 25 26 26 27 27 28 28 29 29 30 30 31 31 32 92 33
REMARK SMILES IDX 32 34 91 35 33 36 34 37 35 38 85 39 36 40 90 41 84 42 86 43
REMARK SMILES IDX 37 44 89 45 83 46 82 47 38 49 70 50 50 51 69 52 51 53 54 54
REMARK SMILES IDX 68 55 87 56 52 57 53 58 67 60 88 61 55 62 39 63 40 64 48 65
REMARK SMILES IDX 41 66 42 67 46 68 49 69 43 70 44 71 47 72 45 73 71 74 72 75
REMARK SMILES IDX 80 76 73 77 74 78 78 79 81 80 75 81 76 82 79 83 77 84 56 85
REMARK SMILES IDX 57 86 65 87 58 88 59 89 63 90 66 91 60 92 61 93 64 94 62 95
REMARK H PARENT 9 15 86 48 54 59
REMARK Flexibility Score: inf
ROOT
ATOM      1  C   UNL A   1      34.830  32.316  28.018  1.00  0.00     0.188 C 
ENDROOT
BRANCH   1   2
ATOM      2  C   UNL A   1      34.241  30.904  28.025  1.00  0.00     0.188 C 
BRANCH   2   3
ATOM      3  O   UNL A   1      33.713  30.302  26.850  1.00  0.00    -0.376 OA
BRANCH   3   4
ATOM      4  C   UNL A   1      34.143  29.013  26.452  1.00  0.00     0.202 C 
BRANCH   4   5
ATOM      5  C   UNL A   1      33.733  28.547  25.044  1.00  0.00     0.261 C 
BRANCH   5   6
ATOM      6  O   UNL A   1      32.633  27.617  24.937  1.00  0.00    -0.463 OA
BRANCH   6   7
ATOM      7  C   UNL A   1      32.909  26.322  25.241  1.00  0.00     0.307 C 
ATOM      8  O   UNL A   1      32.708  25.810  26.337  1.00  0.00    -0.252 OA
BRANCH   7   9
ATOM      9  C   UNL A   1      33.646  25.577  24.141  1.00  0.00     0.147 C 
BRANCH   9  10
ATOM     10  C   UNL A   1      33.820  24.047  24.219  1.00  0.00     0.090 C 
ATOM     11  C   UNL A   1      33.924  23.488  22.796  1.00  0.00     0.031 C 
BRANCH  10  12
ATOM     12  N   UNL A   1      32.713  23.385  24.888  1.00  0.00    -0.349 N 
ATOM     13  C   UNL A   1      32.359  22.090  25.150  1.00  0.00     0.255 C 
ATOM     14  O   UNL A   1      31.250  21.978  25.685  1.00  0.00    -0.269 OA
ATOM     15  H   UNL A   1      32.055  24.027  25.241  1.00  0.00     0.164 HD
BRANCH  13  16
ATOM     16  C   UNL A   1      33.139  20.875  24.878  1.00  0.00     0.080 A 
ATOM     17  C   UNL A   1      35.777  21.021  25.392  1.00  0.00     0.088 C 
ATOM     18  C   UNL A   1      34.469  20.469  24.982  1.00  0.00     0.113 A 
ATOM     19  O   UNL A   1      34.594  19.156  24.609  1.00  0.00    -0.469 OA
ATOM     20  C   UNL A   1      33.386  18.701  24.230  1.00  0.00     0.196 A 
ATOM     21  C   UNL A   1      32.462  19.697  24.371  1.00  0.00     0.056 A 
ENDBRANCH  13  16
ENDBRANCH  10  12
ENDBRANCH   9  10
ENDBRANCH   7   9
ENDBRANCH   6   7
ENDBRANCH   5   6
ENDBRANCH   4   5
ENDBRANCH   3   4
ENDBRANCH   2   3
ENDBRANCH   1   2
BRANCH   1  22
ATOM     22  O   UNL A   1      33.928  33.368  27.772  1.00  0.00    -0.377 OA
BRANCH  22  23
ATOM     23  C   UNL A   1      33.658  34.195  28.884  1.00  0.00     0.188 C 
BRANCH  23  24
ATOM     24  C   UNL A   1      34.513  33.898  30.121  1.00  0.00     0.188 C 
BRANCH  24  25
ATOM     25  O   UNL A   1      34.462  34.795  31.222  1.00  0.00    -0.376 OA
BRANCH  25  26
ATOM     26  C   UNL A   1      33.772  34.488  32.425  1.00  0.00     0.202 C 
BRANCH  26  27
ATOM     27  C   UNL A   1      34.268  33.434  33.424  1.00  0.00     0.261 C 
BRANCH  27  28
ATOM     28  O   UNL A   1      35.057  32.385  32.846  1.00  0.00    -0.460 OA
BRANCH  28  29
ATOM     29  C   UNL A   1      36.294  32.234  33.361  1.00  0.00     0.338 C 
ATOM     30  O   UNL A   1      36.673  32.557  34.483  1.00  0.00    -0.246 OA
BRANCH  29  31
ATOM     31  C   UNL A   1      37.134  31.435  32.453  1.00  0.00     0.060 A 
ATOM     32  C   UNL A   1      38.108  30.609  33.026  1.00  0.00     0.016 A 
ATOM     33  C   UNL A   1      37.040  31.559  31.065  1.00  0.00     0.016 A 
ATOM     34  C   UNL A   1      39.025  29.942  32.219  1.00  0.00     0.010 A 
ATOM     35  C   UNL A   1      37.972  30.900  30.254  1.00  0.00     0.010 A 
ATOM     36  C   UNL A   1      38.999  30.129  30.832  1.00  0.00    -0.014 A 
BRANCH  36  37
ATOM     37  C   UNL A   1      40.178  29.705  30.034  1.00  0.00     0.031 A 
ATOM     38  C   UNL A   1      41.317  30.677  29.863  1.00  0.00     0.074 A 
ATOM     39  C   UNL A   1      40.281  28.459  29.540  1.00  0.00     0.049 A 
ATOM     40  N   UNL A   1      42.457  30.527  29.238  1.00  0.00    -0.248 NA
ATOM     41  C   UNL A   1      41.143  31.999  30.485  1.00  0.00     0.031 C 
ATOM     42  C   UNL A   1      39.277  27.408  29.680  1.00  0.00     0.029 A 
ATOM     43  N   UNL A   1      41.294  27.867  28.824  1.00  0.00    -0.354 N 
ATOM     44  C   UNL A   1      43.133  31.731  29.392  1.00  0.00     0.074 A 
ATOM     45  C   UNL A   1      42.258  32.616  30.130  1.00  0.00     0.031 C 
ATOM     46  C   UNL A   1      39.724  26.296  29.070  1.00  0.00     0.029 A 
ATOM     47  C   UNL A   1      41.032  26.566  28.472  1.00  0.00     0.049 A 
ATOM     48  H   UNL A   1      42.129  28.332  28.586  1.00  0.00     0.167 HD
ATOM     49  C   UNL A   1      44.376  32.066  28.974  1.00  0.00     0.037 A 
ATOM     50  C   UNL A   1      41.760  25.701  27.738  1.00  0.00     0.037 A 
ATOM     51  C   UNL A   1      45.247  31.187  28.239  1.00  0.00     0.049 A 
ATOM     52  C   UNL A   1      43.102  26.130  27.200  1.00  0.00     0.074 A 
ATOM     53  C   UNL A   1      46.528  31.431  27.775  1.00  0.00     0.029 A 
ATOM     54  N   UNL A   1      44.921  29.896  27.849  1.00  0.00    -0.354 N 
ATOM     55  N   UNL A   1      43.745  27.260  27.371  1.00  0.00    -0.248 NA
ATOM     56  C   UNL A   1      43.823  25.156  26.366  1.00  0.00     0.031 C 
ATOM     57  C   UNL A   1      46.952  30.312  27.053  1.00  0.00     0.029 A 
ATOM     58  C   UNL A   1      45.965  29.343  27.124  1.00  0.00     0.049 A 
ATOM     59  H   UNL A   1      44.074  29.441  28.057  1.00  0.00     0.167 HD
ATOM     60  C   UNL A   1      44.954  27.120  26.700  1.00  0.00     0.074 A 
ATOM     61  C   UNL A   1      44.963  25.790  26.130  1.00  0.00     0.031 C 
ATOM     62  C   UNL A   1      45.967  28.013  26.569  1.00  0.00     0.037 A 
BRANCH  49  63
ATOM     63  C   UNL A   1      44.856  33.457  29.279  1.00  0.00     0.064 A 
ATOM     64  C   UNL A   1      45.598  33.747  30.434  1.00  0.00     0.173 A 
ATOM     65  C   UNL A   1      44.585  34.510  28.392  1.00  0.00     0.173 A 
ATOM     66  F   UNL A   1      45.872  32.779  31.322  1.00  0.00    -0.203 F 
ATOM     67  C   UNL A   1      46.019  35.046  30.708  1.00  0.00     0.198 A 
ATOM     68  C   UNL A   1      45.038  35.800  28.652  1.00  0.00     0.198 A 
ATOM     69  F   UNL A   1      43.884  34.288  27.270  1.00  0.00    -0.203 F 
ATOM     70  F   UNL A   1      46.676  35.309  31.847  1.00  0.00    -0.200 F 
ATOM     71  C   UNL A   1      45.746  36.070  29.814  1.00  0.00     0.200 A 
ATOM     72  F   UNL A   1      44.786  36.786  27.779  1.00  0.00    -0.200 F 
ATOM     73  F   UNL A   1      46.156  37.318  30.077  1.00  0.00    -0.200 F 
ENDBRANCH  49  63
BRANCH  50  74
ATOM     74  C   UNL A   1      41.237  24.336  27.459  1.00  0.00     0.064 A 
ATOM     75  C   UNL A   1      40.171  24.137  26.571  1.00  0.00     0.173 A 
ATOM     76  C   UNL A   1      41.768  23.207  28.102  1.00  0.00     0.173 A 
ATOM     77  F   UNL A   1      39.608  25.186  25.954  1.00  0.00    -0.203 F 
ATOM     78  C   UNL A   1      39.642  22.865  26.354  1.00  0.00     0.198 A 
ATOM     79  C   UNL A   1      41.260  21.933  27.859  1.00  0.00     0.198 A 
ATOM     80  F   UNL A   1      42.782  23.343  28.968  1.00  0.00    -0.203 F 
ATOM     81  F   UNL A   1      38.586  22.711  25.543  1.00  0.00    -0.200 F 
ATOM     82  C   UNL A   1      40.191  21.765  26.993  1.00  0.00     0.200 A 
ATOM     83  F   UNL A   1      41.800  20.871  28.472  1.00  0.00    -0.200 F 
ATOM     84  F   UNL A   1      39.682  20.543  26.783  1.00  0.00    -0.200 F 
ENDBRANCH  50  74
BRANCH  62  85
ATOM     85  C   UNL A   1      47.194  27.571  25.820  1.00  0.00     0.064 A 
ATOM     86  C   UNL A   1      48.272  26.944  26.464  1.00  0.00     0.173 A 
ATOM     87  C   UNL A   1      47.269  27.733  24.427  1.00  0.00     0.173 A 
ATOM     88  F   UNL A   1      48.257  26.775  27.794  1.00  0.00    -0.203 F 
ATOM     89  C   UNL A   1      49.391  26.527  25.747  1.00  0.00     0.198 A 
ATOM     90  C   UNL A   1      48.375  27.282  23.709  1.00  0.00     0.198 A 
ATOM     91  F   UNL A   1      46.263  28.315  23.757  1.00  0.00    -0.203 F 
ATOM     92  F   UNL A   1      50.431  25.980  26.392  1.00  0.00    -0.200 F 
ATOM     93  C   UNL A   1      49.438  26.688  24.371  1.00  0.00     0.200 A 
ATOM     94  F   UNL A   1      48.408  27.422  22.377  1.00  0.00    -0.200 F 
ATOM     95  F   UNL A   1      50.511  26.276  23.682  1.00  0.00    -0.200 F 
ENDBRANCH  62  85
ENDBRANCH  36  37
ENDBRANCH  29  31
ENDBRANCH  28  29
ENDBRANCH  27  28
ENDBRANCH  26  27
ENDBRANCH  25  26
ENDBRANCH  24  25
ENDBRANCH  23  24
ENDBRANCH  22  23
ENDBRANCH   1  22
TORSDOF 23
ENDMDL
MODEL 2
REMARK VINA RESULT:      -8.8      1.366      2.051
REMARK SMILES Cc1occc1C(=O)N[C@@H](C)CC(=O)OCCOCCOCCOCCOC(=O)c1ccc(-c2c3nc(c(-c4c(F)c(F)c(F)c(F)c4F)c4ccc([nH]4)c(-c4c(F)c(F)c(F)c(F)c4F)c4nc(c(-c5c(F)c(F)c(F)c(F)c5F)c5ccc2[nH]5)C=C4)C=C3)cc1
REMARK SMILES IDX 20 1 19 2 18 3 17 4 16 5 15 6 13 7 14 8 12 9 10 10 11 11
REMARK SMILES IDX 9 12 7 13 8 14 6 16 1 17 2 18 3 19 4 20 5 21 21 22 22 23
REMARK SMILES IDX 23 24 24 25 25 26 26 27 27 28 28 29 29 30 30 31 31 32 92 33
REMARK SMILES IDX 32 34 91 35 33 36 34 37 35 38 85 39 36 40 90 41 84 42 86 43
REMARK SMILES IDX 37 44 89 45 83 46 82 47 38 49 70 50 50 51 69 52 51 53 54 54
REMARK SMILES IDX 68 55 87 56 52 57 53 58 67 60 88 61 55 62 39 63 40 64 48 65
REMARK SMILES IDX 41 66 42 67 46 68 49 69 43 70 44 71 47 72 45 73 71 74 72 75
REMARK SMILES IDX 80 76 73 77 74 78 78 79 81 80 75 81 76 82 79 83 77 84 56 85
REMARK SMILES IDX 57 86 65 87 58 88 59 89 63 90 66 91 60 92 61 93 64 94 62 95
REMARK H PARENT 9 15 86 48 54 59
REMARK Flexibility Score: inf
ROOT
ATOM      1  C   UNL A   1      36.592  32.578  28.289  1.00  0.00     0.188 C 
ENDROOT
BRANCH   1   2
ATOM      2  C   UNL A   1      36.213  31.097  28.226  1.00  0.00     0.188 C 
BRANCH   2   3
ATOM      3  O   UNL A   1      35.188  30.617  27.367  1.00  0.00    -0.376 OA
BRANCH   3   4
ATOM      4  C   UNL A   1      34.787  29.260  27.420  1.00  0.00     0.202 C 
BRANCH   4   5
ATOM      5  C   UNL A   1      33.591  28.853  26.542  1.00  0.00     0.261 C 
BRANCH   5   6
ATOM      6  O   UNL A   1      32.301  28.727  27.180  1.00  0.00    -0.463 OA
BRANCH   6   7
ATOM      7  C   UNL A   1      31.429  27.858  26.606  1.00  0.00     0.307 C 
ATOM      8  O   UNL A   1      31.036  26.823  27.132  1.00  0.00    -0.252 OA
BRANCH   7   9
ATOM      9  C   UNL A   1      31.085  28.195  25.164  1.00  0.00     0.147 C 
BRANCH   9  10
ATOM     10  C   UNL A   1      31.385  27.188  24.037  1.00  0.00     0.090 C 
ATOM     11  C   UNL A   1      30.675  27.650  22.760  1.00  0.00     0.031 C 
BRANCH  10  12
ATOM     12  N   UNL A   1      30.935  25.841  24.346  1.00  0.00    -0.349 N 
ATOM     13  C   UNL A   1      31.532  24.624  24.520  1.00  0.00     0.255 C 
ATOM     14  O   UNL A   1      30.730  23.697  24.687  1.00  0.00    -0.269 OA
ATOM     15  H   UNL A   1      29.957  25.794  24.460  1.00  0.00     0.164 HD
BRANCH  13  16
ATOM     16  C   UNL A   1      32.971  24.325  24.537  1.00  0.00     0.080 A 
ATOM     17  C   UNL A   1      33.870  22.717  22.574  1.00  0.00     0.088 C 
ATOM     18  C   UNL A   1      33.870  23.585  23.769  1.00  0.00     0.113 A 
ATOM     19  O   UNL A   1      35.141  23.722  24.266  1.00  0.00    -0.469 OA
ATOM     20  C   UNL A   1      35.091  24.504  25.359  1.00  0.00     0.196 A 
ATOM     21  C   UNL A   1      33.803  24.901  25.574  1.00  0.00     0.056 A 
ENDBRANCH  13  16
ENDBRANCH  10  12
ENDBRANCH   9  10
ENDBRANCH   7   9
ENDBRANCH   6   7
ENDBRANCH   5   6
ENDBRANCH   4   5
ENDBRANCH   3   4
ENDBRANCH   2   3
ENDBRANCH   1   2
BRANCH   1  22
ATOM     22  O   UNL A   1      35.586  33.495  27.934  1.00  0.00    -0.377 OA
BRANCH  22  23
ATOM     23  C   UNL A   1      34.791  33.955  29.006  1.00  0.00     0.188 C 
BRANCH  23  24
ATOM     24  C   UNL A   1      35.560  34.198  30.310  1.00  0.00     0.188 C 
BRANCH  24  25
ATOM     25  O   UNL A   1      34.828  34.450  31.501  1.00  0.00    -0.376 OA
BRANCH  25  26
ATOM     26  C   UNL A   1      34.371  33.408  32.351  1.00  0.00     0.202 C 
BRANCH  26  27
ATOM     27  C   UNL A   1      35.145  32.949  33.594  1.00  0.00     0.261 C 
BRANCH  27  28
ATOM     28  O   UNL A   1      36.558  33.188  33.544  1.00  0.00    -0.460 OA
BRANCH  28  29
ATOM     29  C   UNL A   1      37.329  32.250  34.129  1.00  0.00     0.338 C 
ATOM     30  O   UNL A   1      37.346  31.942  35.317  1.00  0.00    -0.246 OA
BRANCH  29  31
ATOM     31  C   UNL A   1      38.051  31.470  33.110  1.00  0.00     0.060 A 
ATOM     32  C   UNL A   1      39.026  30.567  33.552  1.00  0.00     0.016 A 
ATOM     33  C   UNL A   1      37.851  31.682  31.744  1.00  0.00     0.016 A 
ATOM     34  C   UNL A   1      39.841  29.910  32.634  1.00  0.00     0.010 A 
ATOM     35  C   UNL A   1      38.680  31.032  30.822  1.00  0.00     0.010 A 
ATOM     36  C   UNL A   1      39.711  30.181  31.266  1.00  0.00    -0.014 A 
BRANCH  36  37
ATOM     37  C   UNL A   1      40.799  29.754  30.350  1.00  0.00     0.031 A 
ATOM     38  C   UNL A   1      41.947  30.698  30.108  1.00  0.00     0.074 A 
ATOM     39  C   UNL A   1      40.817  28.524  29.806  1.00  0.00     0.049 A 
ATOM     40  N   UNL A   1      43.021  30.539  29.377  1.00  0.00    -0.248 NA
ATOM     41  C   UNL A   1      41.873  32.001  30.789  1.00  0.00     0.031 C 
ATOM     42  C   UNL A   1      39.796  27.498  30.002  1.00  0.00     0.029 A 
ATOM     43  N   UNL A   1      41.741  27.931  28.980  1.00  0.00    -0.354 N 
ATOM     44  C   UNL A   1      43.746  31.717  29.509  1.00  0.00     0.074 A 
ATOM     45  C   UNL A   1      42.971  32.599  30.353  1.00  0.00     0.031 C 
ATOM     46  C   UNL A   1      40.151  26.397  29.316  1.00  0.00     0.029 A 
ATOM     47  C   UNL A   1      41.407  26.651  28.610  1.00  0.00     0.049 A 
ATOM     48  H   UNL A   1      42.565  28.380  28.683  1.00  0.00     0.167 HD
ATOM     49  C   UNL A   1      44.956  32.031  28.990  1.00  0.00     0.037 A 
ATOM     50  C   UNL A   1      42.037  25.793  27.783  1.00  0.00     0.037 A 
ATOM     51  C   UNL A   1      45.728  31.155  28.148  1.00  0.00     0.049 A 
ATOM     52  C   UNL A   1      43.338  26.204  27.138  1.00  0.00     0.074 A 
ATOM     53  C   UNL A   1      46.969  31.380  27.577  1.00  0.00     0.029 A 
ATOM     54  N   UNL A   1      45.327  29.890  27.746  1.00  0.00    -0.354 N 
ATOM     55  N   UNL A   1      44.029  27.308  27.288  1.00  0.00    -0.248 NA
ATOM     56  C   UNL A   1      43.949  25.241  26.209  1.00  0.00     0.031 C 
ATOM     57  C   UNL A   1      47.290  30.276  26.781  1.00  0.00     0.029 A 
ATOM     58  C   UNL A   1      46.283  29.334  26.910  1.00  0.00     0.049 A 
ATOM     59  H   UNL A   1      44.488  29.451  28.015  1.00  0.00     0.167 HD
ATOM     60  C   UNL A   1      45.167  27.158  26.505  1.00  0.00     0.074 A 
ATOM     61  C   UNL A   1      45.082  25.850  25.891  1.00  0.00     0.031 C 
ATOM     62  C   UNL A   1      46.193  28.026  26.312  1.00  0.00     0.037 A 
BRANCH  49  63
ATOM     63  C   UNL A   1      45.506  33.395  29.296  1.00  0.00     0.064 A 
ATOM     64  C   UNL A   1      46.380  33.616  30.372  1.00  0.00     0.173 A 
ATOM     65  C   UNL A   1      45.168  34.493  28.491  1.00  0.00     0.173 A 
ATOM     66  F   UNL A   1      46.724  32.603  31.182  1.00  0.00    -0.203 F 
ATOM     67  C   UNL A   1      46.865  34.891  30.651  1.00  0.00     0.198 A 
ATOM     68  C   UNL A   1      45.683  35.760  28.752  1.00  0.00     0.198 A 
ATOM     69  F   UNL A   1      44.340  34.338  27.447  1.00  0.00    -0.203 F 
ATOM     70  F   UNL A   1      47.652  35.088  31.718  1.00  0.00    -0.200 F 
ATOM     71  C   UNL A   1      46.523  35.960  29.837  1.00  0.00     0.200 A 
ATOM     72  F   UNL A   1      45.362  36.789  27.955  1.00  0.00    -0.200 F 
ATOM     73  F   UNL A   1      46.994  37.186  30.104  1.00  0.00    -0.200 F 
ENDBRANCH  49  63
BRANCH  50  74
ATOM     74  C   UNL A   1      41.448  24.455  27.506  1.00  0.00     0.064 A 
ATOM     75  C   UNL A   1      40.321  24.316  26.684  1.00  0.00     0.173 A 
ATOM     76  C   UNL A   1      41.976  23.293  28.088  1.00  0.00     0.173 A 
ATOM     77  F   UNL A   1      39.760  25.400  26.128  1.00  0.00    -0.203 F 
ATOM     78  C   UNL A   1      39.733  23.070  26.471  1.00  0.00     0.198 A 
ATOM     79  C   UNL A   1      41.407  22.044  27.849  1.00  0.00     0.198 A 
ATOM     80  F   UNL A   1      43.047  23.370  28.891  1.00  0.00    -0.203 F 
ATOM     81  F   UNL A   1      38.623  22.974  25.726  1.00  0.00    -0.200 F 
ATOM     82  C   UNL A   1      40.281  21.935  27.049  1.00  0.00     0.200 A 
ATOM     83  F   UNL A   1      41.945  20.949  28.402  1.00  0.00    -0.200 F 
ATOM     84  F   UNL A   1      39.714  20.737  26.844  1.00  0.00    -0.200 F 
ENDBRANCH  50  74
BRANCH  62  85
ATOM     85  C   UNL A   1      47.331  27.576  25.438  1.00  0.00     0.064 A 
ATOM     86  C   UNL A   1      47.331  27.791  24.051  1.00  0.00     0.173 A 
ATOM     87  C   UNL A   1      48.460  26.964  26.005  1.00  0.00     0.173 A 
ATOM     88  F   UNL A   1      46.272  28.361  23.456  1.00  0.00    -0.203 F 
ATOM     89  C   UNL A   1      48.403  27.381  23.262  1.00  0.00     0.198 A 
ATOM     90  C   UNL A   1      49.546  26.588  25.217  1.00  0.00     0.198 A 
ATOM     91  F   UNL A   1      48.519  26.744  27.327  1.00  0.00    -0.203 F 
ATOM     92  F   UNL A   1      48.356  27.548  21.933  1.00  0.00    -0.200 F 
ATOM     93  C   UNL A   1      49.513  26.789  23.846  1.00  0.00     0.200 A 
ATOM     94  F   UNL A   1      50.624  26.034  25.787  1.00  0.00    -0.200 F 
ATOM     95  F   UNL A   1      50.548  26.405  23.086  1.00  0.00    -0.200 F 
ENDBRANCH  62  85
ENDBRANCH  36  37
ENDBRANCH  29  31
ENDBRANCH  28  29
ENDBRANCH  27  28
ENDBRANCH  26  27
ENDBRANCH  25  26
ENDBRANCH  24  25
ENDBRANCH  23  24
ENDBRANCH  22  23
ENDBRANCH   1  22
TORSDOF 23
ENDMDL
MODEL 3
REMARK VINA RESULT:      -8.7      5.884     12.693
REMARK SMILES Cc1occc1C(=O)N[C@@H](C)CC(=O)OCCOCCOCCOCCOC(=O)c1ccc(-c2c3nc(c(-c4c(F)c(F)c(F)c(F)c4F)c4ccc([nH]4)c(-c4c(F)c(F)c(F)c(F)c4F)c4nc(c(-c5c(F)c(F)c(F)c(F)c5F)c5ccc2[nH]5)C=C4)C=C3)cc1
REMARK SMILES IDX 20 1 19 2 18 3 17 4 16 5 15 6 13 7 14 8 12 9 10 10 11 11
REMARK SMILES IDX 9 12 7 13 8 14 6 16 1 17 2 18 3 19 4 20 5 21 21 22 22 23
REMARK SMILES IDX 23 24 24 25 25 26 26 27 27 28 28 29 29 30 30 31 31 32 92 33
REMARK SMILES IDX 32 34 91 35 33 36 34 37 35 38 85 39 36 40 90 41 84 42 86 43
REMARK SMILES IDX 37 44 89 45 83 46 82 47 38 49 70 50 50 51 69 52 51 53 54 54
REMARK SMILES IDX 68 55 87 56 52 57 53 58 67 60 88 61 55 62 39 63 40 64 48 65
REMARK SMILES IDX 41 66 42 67 46 68 49 69 43 70 44 71 47 72 45 73 71 74 72 75
REMARK SMILES IDX 80 76 73 77 74 78 78 79 81 80 75 81 76 82 79 83 77 84 56 85
REMARK SMILES IDX 57 86 65 87 58 88 59 89 63 90 66 91 60 92 61 93 64 94 62 95
REMARK H PARENT 9 15 86 48 54 59
REMARK Flexibility Score: inf
ROOT
ATOM      1  C   UNL A   1      46.059  30.737  26.560  1.00  0.00     0.188 C 
ENDROOT
BRANCH   1   2
ATOM      2  C   UNL A   1      45.829  29.873  27.800  1.00  0.00     0.188 C 
BRANCH   2   3
ATOM      3  O   UNL A   1      46.740  29.862  28.891  1.00  0.00    -0.376 OA
BRANCH   3   4
ATOM      4  C   UNL A   1      46.261  29.909  30.223  1.00  0.00     0.202 C 
BRANCH   4   5
ATOM      5  C   UNL A   1      45.353  31.094  30.595  1.00  0.00     0.261 C 
BRANCH   5   6
ATOM      6  O   UNL A   1      43.940  30.837  30.746  1.00  0.00    -0.463 OA
BRANCH   6   7
ATOM      7  C   UNL A   1      43.135  31.294  29.752  1.00  0.00     0.307 C 
ATOM      8  O   UNL A   1      43.065  30.796  28.634  1.00  0.00    -0.252 OA
BRANCH   7   9
ATOM      9  C   UNL A   1      42.424  32.595  30.087  1.00  0.00     0.147 C 
BRANCH   9  10
ATOM     10  C   UNL A   1      41.570  32.708  31.365  1.00  0.00     0.090 C 
ATOM     11  C   UNL A   1      40.770  34.014  31.310  1.00  0.00     0.031 C 
BRANCH  10  12
ATOM     12  N   UNL A   1      42.367  32.713  32.580  1.00  0.00    -0.349 N 
ATOM     13  C   UNL A   1      43.146  33.625  33.237  1.00  0.00     0.255 C 
ATOM     14  O   UNL A   1      43.732  33.159  34.222  1.00  0.00    -0.269 OA
ATOM     15  H   UNL A   1      42.340  31.846  33.045  1.00  0.00     0.164 HD
BRANCH  13  16
ATOM     16  C   UNL A   1      43.336  35.045  32.908  1.00  0.00     0.080 A 
ATOM     17  C   UNL A   1      42.304  36.814  34.654  1.00  0.00     0.088 C 
ATOM     18  C   UNL A   1      43.009  36.277  33.472  1.00  0.00     0.113 A 
ATOM     19  O   UNL A   1      43.509  37.297  32.704  1.00  0.00    -0.469 OA
ATOM     20  C   UNL A   1      44.126  36.764  31.634  1.00  0.00     0.196 A 
ATOM     21  C   UNL A   1      44.056  35.402  31.702  1.00  0.00     0.056 A 
ENDBRANCH  13  16
ENDBRANCH  10  12
ENDBRANCH   9  10
ENDBRANCH   7   9
ENDBRANCH   6   7
ENDBRANCH   5   6
ENDBRANCH   4   5
ENDBRANCH   3   4
ENDBRANCH   2   3
ENDBRANCH   1   2
BRANCH   1  22
ATOM     22  O   UNL A   1      46.625  30.092  25.445  1.00  0.00    -0.377 OA
BRANCH  22  23
ATOM     23  C   UNL A   1      46.604  28.682  25.496  1.00  0.00     0.188 C 
BRANCH  23  24
ATOM     24  C   UNL A   1      46.520  27.996  24.127  1.00  0.00     0.188 C 
BRANCH  24  25
ATOM     25  O   UNL A   1      47.212  26.771  23.930  1.00  0.00    -0.376 OA
BRANCH  25  26
ATOM     26  C   UNL A   1      47.366  25.807  24.962  1.00  0.00     0.202 C 
BRANCH  26  27
ATOM     27  C   UNL A   1      46.715  24.419  24.907  1.00  0.00     0.261 C 
BRANCH  27  28
ATOM     28  O   UNL A   1      45.619  24.234  25.813  1.00  0.00    -0.460 OA
BRANCH  28  29
ATOM     29  C   UNL A   1      44.390  24.309  25.263  1.00  0.00     0.338 C 
ATOM     30  O   UNL A   1      43.962  23.659  24.314  1.00  0.00    -0.246 OA
BRANCH  29  31
ATOM     31  C   UNL A   1      43.514  25.167  26.080  1.00  0.00     0.060 A 
ATOM     32  C   UNL A   1      43.893  26.504  26.254  1.00  0.00     0.016 A 
ATOM     33  C   UNL A   1      42.397  24.656  26.745  1.00  0.00     0.016 A 
ATOM     34  C   UNL A   1      43.188  27.324  27.131  1.00  0.00     0.010 A 
ATOM     35  C   UNL A   1      41.698  25.477  27.638  1.00  0.00     0.010 A 
ATOM     36  C   UNL A   1      42.121  26.800  27.872  1.00  0.00    -0.014 A 
BRANCH  36  37
ATOM     37  C   UNL A   1      41.618  27.569  29.038  1.00  0.00     0.031 A 
ATOM     38  C   UNL A   1      42.388  27.498  30.331  1.00  0.00     0.074 A 
ATOM     39  C   UNL A   1      40.552  28.382  28.937  1.00  0.00     0.049 A 
ATOM     40  N   UNL A   1      42.164  28.099  31.472  1.00  0.00    -0.248 NA
ATOM     41  C   UNL A   1      43.575  26.627  30.335  1.00  0.00     0.031 C 
ATOM     42  C   UNL A   1      39.753  28.582  27.732  1.00  0.00     0.029 A 
ATOM     43  N   UNL A   1      39.965  29.199  29.873  1.00  0.00    -0.354 N 
ATOM     44  C   UNL A   1      43.177  27.681  32.325  1.00  0.00     0.074 A 
ATOM     45  C   UNL A   1      43.992  26.741  31.586  1.00  0.00     0.031 C 
ATOM     46  C   UNL A   1      38.778  29.469  27.999  1.00  0.00     0.029 A 
ATOM     47  C   UNL A   1      38.867  29.875  29.402  1.00  0.00     0.049 A 
ATOM     48  H   UNL A   1      40.300  29.290  30.794  1.00  0.00     0.167 HD
ATOM     49  C   UNL A   1      43.421  28.059  33.602  1.00  0.00     0.037 A 
ATOM     50  C   UNL A   1      38.023  30.713  30.038  1.00  0.00     0.037 A 
ATOM     51  C   UNL A   1      42.611  28.992  34.339  1.00  0.00     0.049 A 
ATOM     52  C   UNL A   1      38.260  31.043  31.491  1.00  0.00     0.074 A 
ATOM     53  C   UNL A   1      42.779  29.443  35.636  1.00  0.00     0.029 A 
ATOM     54  N   UNL A   1      41.471  29.610  33.846  1.00  0.00    -0.354 N 
ATOM     55  N   UNL A   1      39.234  30.664  32.283  1.00  0.00    -0.248 NA
ATOM     56  C   UNL A   1      37.276  31.924  32.138  1.00  0.00     0.031 C 
ATOM     57  C   UNL A   1      41.708  30.286  35.948  1.00  0.00     0.029 A 
ATOM     58  C   UNL A   1      40.909  30.415  34.824  1.00  0.00     0.049 A 
ATOM     59  H   UNL A   1      41.115  29.494  32.936  1.00  0.00     0.167 HD
ATOM     60  C   UNL A   1      39.001  31.286  33.504  1.00  0.00     0.074 A 
ATOM     61  C   UNL A   1      37.800  32.078  33.346  1.00  0.00     0.031 C 
ATOM     62  C   UNL A   1      39.718  31.208  34.653  1.00  0.00     0.037 A 
BRANCH  49  63
ATOM     63  C   UNL A   1      44.600  27.434  34.294  1.00  0.00     0.064 A 
ATOM     64  C   UNL A   1      45.875  28.017  34.254  1.00  0.00     0.173 A 
ATOM     65  C   UNL A   1      44.446  26.244  35.021  1.00  0.00     0.173 A 
ATOM     66  F   UNL A   1      46.080  29.148  33.560  1.00  0.00    -0.203 F 
ATOM     67  C   UNL A   1      46.960  27.414  34.887  1.00  0.00     0.198 A 
ATOM     68  C   UNL A   1      45.524  25.663  35.682  1.00  0.00     0.198 A 
ATOM     69  F   UNL A   1      43.248  25.646  35.096  1.00  0.00    -0.203 F 
ATOM     70  F   UNL A   1      48.180  27.959  34.786  1.00  0.00    -0.200 F 
ATOM     71  C   UNL A   1      46.783  26.242  35.606  1.00  0.00     0.200 A 
ATOM     72  F   UNL A   1      45.348  24.538  36.389  1.00  0.00    -0.200 F 
ATOM     73  F   UNL A   1      47.826  25.665  36.218  1.00  0.00    -0.200 F 
ENDBRANCH  49  63
BRANCH  50  74
ATOM     74  C   UNL A   1      36.866  31.301  29.310  1.00  0.00     0.064 A 
ATOM     75  C   UNL A   1      35.754  30.519  28.966  1.00  0.00     0.173 A 
ATOM     76  C   UNL A   1      36.865  32.646  28.910  1.00  0.00     0.173 A 
ATOM     77  F   UNL A   1      35.720  29.220  29.298  1.00  0.00    -0.203 F 
ATOM     78  C   UNL A   1      34.696  31.054  28.233  1.00  0.00     0.198 A 
ATOM     79  C   UNL A   1      35.792  33.187  28.206  1.00  0.00     0.198 A 
ATOM     80  F   UNL A   1      37.908  33.435  29.205  1.00  0.00    -0.203 F 
ATOM     81  F   UNL A   1      33.672  30.270  27.870  1.00  0.00    -0.200 F 
ATOM     82  C   UNL A   1      34.713  32.389  27.860  1.00  0.00     0.200 A 
ATOM     83  F   UNL A   1      35.809  34.480  27.854  1.00  0.00    -0.200 F 
ATOM     84  F   UNL A   1      33.696  32.903  27.154  1.00  0.00    -0.200 F 
ENDBRANCH  50  74
BRANCH  62  85
ATOM     85  C   UNL A   1      39.255  32.035  35.820  1.00  0.00     0.064 A 
ATOM     86  C   UNL A   1      39.653  33.371  35.988  1.00  0.00     0.173 A 
ATOM     87  C   UNL A   1      38.361  31.497  36.759  1.00  0.00     0.173 A 
ATOM     88  F   UNL A   1      40.515  33.931  35.127  1.00  0.00    -0.203 F 
ATOM     89  C   UNL A   1      39.198  34.124  37.068  1.00  0.00     0.198 A 
ATOM     90  C   UNL A   1      37.880  32.265  37.817  1.00  0.00     0.198 A 
ATOM     91  F   UNL A   1      37.938  30.229  36.642  1.00  0.00    -0.203 F 
ATOM     92  F   UNL A   1      39.634  35.380  37.237  1.00  0.00    -0.200 F 
ATOM     93  C   UNL A   1      38.306  33.574  37.976  1.00  0.00     0.200 A 
ATOM     94  F   UNL A   1      37.003  31.736  38.682  1.00  0.00    -0.200 F 
ATOM     95  F   UNL A   1      37.862  34.304  39.008  1.00  0.00    -0.200 F 
ENDBRANCH  62  85
ENDBRANCH  36  37
ENDBRANCH  29  31
ENDBRANCH  28  29
ENDBRANCH  27  28
ENDBRANCH  26  27
ENDBRANCH  25  26
ENDBRANCH  24  25
ENDBRANCH  23  24
ENDBRANCH  22  23
ENDBRANCH   1  22
TORSDOF 23
ENDMDL
