MODEL 1
REMARK VINA RESULT:     -11.3      0.000      0.000
REMARK SMILES CC(C)(C)CN1C(=O)CC[C@@H](C(=O)OCCOCCOCCOCCOC(=O)c2ccc(-c3c4nc(c(-c5c(F)c(F)c(F)c(F)c5F)c5ccc([nH]5)c(-c5c(F)c(F)c(F)c(F)c5F)c5nc(c(-c6c(F)c(F)c(F)c(F)c6F)c6ccc3[nH]6)C=C5)C=C4)cc2)[C@H]1c1cccc2c1OCO2
REMARK SMILES IDX 20 1 19 2 18 3 17 4 16 5 15 6 14 7 12 8 13 9 11 10 6 11 7 12
REMARK SMILES IDX 92 13 8 14 9 15 10 16 5 17 2 18 1 19 3 20 4 21 93 22 94 23
REMARK SMILES IDX 98 24 95 25 97 26 99 27 96 28 101 29 100 30 21 31 22 32
REMARK SMILES IDX 23 33 24 34 25 35 26 36 27 37 28 38 29 39 30 40 91 41 31 42
REMARK SMILES IDX 90 43 32 44 33 45 34 46 84 47 35 48 89 49 83 50 85 51 36 52
REMARK SMILES IDX 88 53 82 54 81 55 37 57 69 58 49 59 68 60 50 61 53 62 67 63
REMARK SMILES IDX 86 64 51 65 52 66 66 68 87 69 54 70 38 71 39 72 47 73 40 74
REMARK SMILES IDX 41 75 45 76 48 77 42 78 43 79 46 80 44 81 70 82 71 83 79 84
REMARK SMILES IDX 72 85 73 86 77 87 80 88 74 89 75 90 78 91 76 92 55 93 56 94
REMARK SMILES IDX 64 95 57 96 58 97 62 98 65 99 59 100 60 101 63 102 61 103
REMARK H PARENT 85 56 53 67
REMARK Flexibility Score: inf
ROOT
ATOM      1  O   UNL A   1      29.538  29.743  22.709  1.00  0.00    -0.377 OA
ENDROOT
BRANCH   1   2
ATOM      2  C   UNL A   1      29.661  28.331  22.796  1.00  0.00     0.188 C 
BRANCH   2   3
ATOM      3  C   UNL A   1      28.423  27.519  23.231  1.00  0.00     0.188 C 
BRANCH   3   4
ATOM      4  O   UNL A   1      28.749  26.301  23.890  1.00  0.00    -0.376 OA
BRANCH   4   5
ATOM      5  C   UNL A   1      29.630  26.299  24.997  1.00  0.00     0.202 C 
BRANCH   5   6
ATOM      6  C   UNL A   1      30.394  24.998  25.304  1.00  0.00     0.261 C 
BRANCH   6   7
ATOM      7  O   UNL A   1      30.546  24.014  24.264  1.00  0.00    -0.463 OA
BRANCH   7   8
ATOM      8  C   UNL A   1      31.459  23.041  24.483  1.00  0.00     0.311 C 
ATOM      9  O   UNL A   1      31.570  22.447  25.545  1.00  0.00    -0.252 OA
BRANCH   8  10
ATOM     10  C   UNL A   1      32.369  22.821  23.288  1.00  0.00     0.127 C 
ATOM     11  N   UNL A   1      34.173  21.856  24.742  1.00  0.00    -0.334 N 
ATOM     12  C   UNL A   1      33.612  20.582  24.595  1.00  0.00     0.223 C 
ATOM     13  C   UNL A   1      33.817  22.953  23.799  1.00  0.00     0.133 C 
ATOM     14  O   UNL A   1      33.907  19.609  25.287  1.00  0.00    -0.275 OA
ATOM     15  C   UNL A   1      32.536  20.337  23.555  1.00  0.00     0.101 C 
ATOM     16  C   UNL A   1      32.226  21.471  22.613  1.00  0.00     0.028 C 
BRANCH  11  17
ATOM     17  C   UNL A   1      35.398  22.007  25.546  1.00  0.00     0.126 C 
BRANCH  17  18
ATOM     18  C   UNL A   1      36.808  21.947  24.871  1.00  0.00    -0.021 C 
ATOM     19  C   UNL A   1      36.838  22.478  23.426  1.00  0.00     0.012 C 
ATOM     20  C   UNL A   1      37.227  20.457  24.806  1.00  0.00     0.012 C 
ATOM     21  C   UNL A   1      37.887  22.630  25.744  1.00  0.00     0.012 C 
ENDBRANCH  17  18
ENDBRANCH  11  17
BRANCH  13  22
ATOM     22  C   UNL A   1      33.967  24.407  24.260  1.00  0.00     0.022 A 
ATOM     23  C   UNL A   1      34.093  24.776  25.615  1.00  0.00     0.010 A 
ATOM     24  C   UNL A   1      33.703  25.444  23.378  1.00  0.00     0.171 A 
ATOM     25  C   UNL A   1      33.831  26.086  26.054  1.00  0.00     0.004 A 
ATOM     26  C   UNL A   1      33.485  26.737  23.806  1.00  0.00     0.166 A 
ATOM     27  O   UNL A   1      33.551  25.329  22.027  1.00  0.00    -0.453 OA
ATOM     28  C   UNL A   1      33.502  27.082  25.138  1.00  0.00     0.050 A 
ATOM     29  O   UNL A   1      33.207  27.586  22.779  1.00  0.00    -0.454 OA
ATOM     30  C   UNL A   1      33.429  26.717  21.653  1.00  0.00     0.468 C 
ENDBRANCH  13  22
ENDBRANCH   8  10
ENDBRANCH   7   8
ENDBRANCH   6   7
ENDBRANCH   5   6
ENDBRANCH   4   5
ENDBRANCH   3   4
ENDBRANCH   2   3
ENDBRANCH   1   2
BRANCH   1  31
ATOM     31  C   UNL A   1      29.934  30.453  23.865  1.00  0.00     0.188 C 
BRANCH  31  32
ATOM     32  C   UNL A   1      31.011  29.726  24.698  1.00  0.00     0.188 C 
BRANCH  32  33
ATOM     33  O   UNL A   1      32.042  30.424  25.380  1.00  0.00    -0.376 OA
BRANCH  33  34
ATOM     34  C   UNL A   1      31.860  31.043  26.642  1.00  0.00     0.202 C 
BRANCH  34  35
ATOM     35  C   UNL A   1      32.199  32.514  26.940  1.00  0.00     0.261 C 
BRANCH  35  36
ATOM     36  O   UNL A   1      32.923  32.802  28.135  1.00  0.00    -0.460 OA
BRANCH  36  37
ATOM     37  C   UNL A   1      33.985  33.620  27.996  1.00  0.00     0.338 C 
ATOM     38  O   UNL A   1      33.978  34.820  27.773  1.00  0.00    -0.246 OA
BRANCH  37  39
ATOM     39  C   UNL A   1      35.192  32.853  28.362  1.00  0.00     0.060 A 
ATOM     40  C   UNL A   1      35.053  31.485  28.641  1.00  0.00     0.016 A 
ATOM     41  C   UNL A   1      36.451  33.458  28.383  1.00  0.00     0.016 A 
ATOM     42  C   UNL A   1      36.168  30.718  28.953  1.00  0.00     0.010 A 
ATOM     43  C   UNL A   1      37.562  32.702  28.759  1.00  0.00     0.010 A 
ATOM     44  C   UNL A   1      37.414  31.341  29.078  1.00  0.00    -0.014 A 
BRANCH  44  45
ATOM     45  C   UNL A   1      38.473  30.631  29.822  1.00  0.00     0.031 A 
ATOM     46  C   UNL A   1      38.654  30.992  31.270  1.00  0.00     0.074 A 
ATOM     47  C   UNL A   1      39.213  29.669  29.250  1.00  0.00     0.049 A 
ATOM     48  N   UNL A   1      39.527  30.549  32.135  1.00  0.00    -0.248 NA
ATOM     49  C   UNL A   1      37.720  31.993  31.816  1.00  0.00     0.031 C 
ATOM     50  C   UNL A   1      39.081  29.204  27.872  1.00  0.00     0.029 A 
ATOM     51  N   UNL A   1      40.237  28.917  29.767  1.00  0.00    -0.354 N 
ATOM     52  C   UNL A   1      39.257  31.225  33.317  1.00  0.00     0.074 A 
ATOM     53  C   UNL A   1      38.153  32.121  33.060  1.00  0.00     0.031 C 
ATOM     54  C   UNL A   1      40.011  28.261  27.642  1.00  0.00     0.029 A 
ATOM     55  C   UNL A   1      40.820  28.082  28.847  1.00  0.00     0.049 A 
ATOM     56  H   UNL A   1      40.524  28.970  30.707  1.00  0.00     0.167 HD
ATOM     57  C   UNL A   1      39.878  31.106  34.512  1.00  0.00     0.037 A 
ATOM     58  C   UNL A   1      41.906  27.293  28.967  1.00  0.00     0.037 A 
ATOM     59  C   UNL A   1      40.973  30.208  34.758  1.00  0.00     0.049 A 
ATOM     60  C   UNL A   1      42.620  27.227  30.296  1.00  0.00     0.074 A 
ATOM     61  C   UNL A   1      41.653  29.986  35.941  1.00  0.00     0.029 A 
ATOM     62  N   UNL A   1      41.554  29.393  33.798  1.00  0.00    -0.354 N 
ATOM     63  N   UNL A   1      42.341  27.841  31.422  1.00  0.00    -0.248 NA
ATOM     64  C   UNL A   1      43.799  26.352  30.373  1.00  0.00     0.031 C 
ATOM     65  C   UNL A   1      42.692  29.088  35.680  1.00  0.00     0.029 A 
ATOM     66  C   UNL A   1      42.609  28.692  34.354  1.00  0.00     0.049 A 
ATOM     67  H   UNL A   1      41.258  29.322  32.862  1.00  0.00     0.167 HD
ATOM     68  C   UNL A   1      43.284  27.401  32.345  1.00  0.00     0.074 A 
ATOM     69  C   UNL A   1      44.132  26.456  31.651  1.00  0.00     0.031 C 
ATOM     70  C   UNL A   1      43.435  27.746  33.648  1.00  0.00     0.037 A 
BRANCH  57  71
ATOM     71  C   UNL A   1      39.423  31.998  35.627  1.00  0.00     0.064 A 
ATOM     72  C   UNL A   1      39.867  33.322  35.751  1.00  0.00     0.173 A 
ATOM     73  C   UNL A   1      38.489  31.528  36.562  1.00  0.00     0.173 A 
ATOM     74  F   UNL A   1      40.776  33.814  34.895  1.00  0.00    -0.203 F 
ATOM     75  C   UNL A   1      39.401  34.140  36.778  1.00  0.00     0.198 A 
ATOM     76  C   UNL A   1      38.003  32.357  37.569  1.00  0.00     0.198 A 
ATOM     77  F   UNL A   1      38.037  30.266  36.491  1.00  0.00    -0.203 F 
ATOM     78  F   UNL A   1      39.868  35.390  36.902  1.00  0.00    -0.200 F 
ATOM     79  C   UNL A   1      38.462  33.659  37.679  1.00  0.00     0.200 A 
ATOM     80  F   UNL A   1      37.086  31.893  38.429  1.00  0.00    -0.200 F 
ATOM     81  F   UNL A   1      38.002  34.452  38.656  1.00  0.00    -0.200 F 
ENDBRANCH  57  71
BRANCH  58  82
ATOM     82  C   UNL A   1      42.414  26.531  27.794  1.00  0.00     0.064 A 
ATOM     83  C   UNL A   1      43.375  27.074  26.932  1.00  0.00     0.173 A 
ATOM     84  C   UNL A   1      41.908  25.259  27.486  1.00  0.00     0.173 A 
ATOM     85  F   UNL A   1      43.873  28.297  27.168  1.00  0.00    -0.203 F 
ATOM     86  C   UNL A   1      43.786  26.390  25.788  1.00  0.00     0.198 A 
ATOM     87  C   UNL A   1      42.346  24.560  26.363  1.00  0.00     0.198 A 
ATOM     88  F   UNL A   1      40.985  24.692  28.278  1.00  0.00    -0.203 F 
ATOM     89  F   UNL A   1      44.658  26.962  24.946  1.00  0.00    -0.200 F 
ATOM     90  C   UNL A   1      43.275  25.132  25.508  1.00  0.00     0.200 A 
ATOM     91  F   UNL A   1      41.859  23.339  26.105  1.00  0.00    -0.200 F 
ATOM     92  F   UNL A   1      43.668  24.476  24.408  1.00  0.00    -0.200 F 
ENDBRANCH  58  82
BRANCH  70  93
ATOM     93  C   UNL A   1      44.525  27.063  34.424  1.00  0.00     0.064 A 
ATOM     94  C   UNL A   1      44.331  25.817  35.037  1.00  0.00     0.173 A 
ATOM     95  C   UNL A   1      45.799  27.647  34.515  1.00  0.00     0.173 A 
ATOM     96  F   UNL A   1      43.129  25.220  34.989  1.00  0.00    -0.203 F 
ATOM     97  C   UNL A   1      45.360  25.196  35.740  1.00  0.00     0.198 A 
ATOM     98  C   UNL A   1      46.836  27.006  35.186  1.00  0.00     0.198 A 
ATOM     99  F   UNL A   1      46.043  28.832  33.936  1.00  0.00    -0.203 F 
ATOM    100  F   UNL A   1      45.135  24.034  36.366  1.00  0.00    -0.200 F 
ATOM    101  C   UNL A   1      46.613  25.787  35.808  1.00  0.00     0.200 A 
ATOM    102  F   UNL A   1      48.051  27.569  35.231  1.00  0.00    -0.200 F 
ATOM    103  F   UNL A   1      47.605  25.184  36.476  1.00  0.00    -0.200 F 
ENDBRANCH  70  93
ENDBRANCH  44  45
ENDBRANCH  37  39
ENDBRANCH  36  37
ENDBRANCH  35  36
ENDBRANCH  34  35
ENDBRANCH  33  34
ENDBRANCH  32  33
ENDBRANCH  31  32
ENDBRANCH   1  31
TORSDOF 23
ENDMDL
MODEL 2
REMARK VINA RESULT:     -11.1      4.429      8.715
REMARK SMILES CC(C)(C)CN1C(=O)CC[C@@H](C(=O)OCCOCCOCCOCCOC(=O)c2ccc(-c3c4nc(c(-c5c(F)c(F)c(F)c(F)c5F)c5ccc([nH]5)c(-c5c(F)c(F)c(F)c(F)c5F)c5nc(c(-c6c(F)c(F)c(F)c(F)c6F)c6ccc3[nH]6)C=C5)C=C4)cc2)[C@H]1c1cccc2c1OCO2
REMARK SMILES IDX 20 1 19 2 18 3 17 4 16 5 15 6 14 7 12 8 13 9 11 10 6 11 7 12
REMARK SMILES IDX 92 13 8 14 9 15 10 16 5 17 2 18 1 19 3 20 4 21 93 22 94 23
REMARK SMILES IDX 98 24 95 25 97 26 99 27 96 28 101 29 100 30 21 31 22 32
REMARK SMILES IDX 23 33 24 34 25 35 26 36 27 37 28 38 29 39 30 40 91 41 31 42
REMARK SMILES IDX 90 43 32 44 33 45 34 46 84 47 35 48 89 49 83 50 85 51 36 52
REMARK SMILES IDX 88 53 82 54 81 55 37 57 69 58 49 59 68 60 50 61 53 62 67 63
REMARK SMILES IDX 86 64 51 65 52 66 66 68 87 69 54 70 38 71 39 72 47 73 40 74
REMARK SMILES IDX 41 75 45 76 48 77 42 78 43 79 46 80 44 81 70 82 71 83 79 84
REMARK SMILES IDX 72 85 73 86 77 87 80 88 74 89 75 90 78 91 76 92 55 93 56 94
REMARK SMILES IDX 64 95 57 96 58 97 62 98 65 99 59 100 60 101 63 102 61 103
REMARK H PARENT 85 56 53 67
REMARK Flexibility Score: inf
ROOT
ATOM      1  O   UNL A   1      34.200  19.179  24.604  1.00  0.00    -0.377 OA
ENDROOT
BRANCH   1   2
ATOM      2  C   UNL A   1      32.812  19.480  24.602  1.00  0.00     0.188 C 
BRANCH   2   3
ATOM      3  C   UNL A   1      32.230  20.217  23.378  1.00  0.00     0.188 C 
BRANCH   3   4
ATOM      4  O   UNL A   1      32.235  21.632  23.515  1.00  0.00    -0.376 OA
BRANCH   4   5
ATOM      5  C   UNL A   1      33.057  22.430  22.686  1.00  0.00     0.202 C 
BRANCH   5   6
ATOM      6  C   UNL A   1      32.563  23.845  22.333  1.00  0.00     0.261 C 
BRANCH   6   7
ATOM      7  O   UNL A   1      31.271  24.273  22.801  1.00  0.00    -0.463 OA
BRANCH   7   8
ATOM      8  C   UNL A   1      31.109  25.600  22.999  1.00  0.00     0.311 C 
ATOM      9  O   UNL A   1      31.599  26.454  22.276  1.00  0.00    -0.252 OA
BRANCH   8  10
ATOM     10  C   UNL A   1      30.310  25.906  24.253  1.00  0.00     0.127 C 
ATOM     11  N   UNL A   1      31.425  28.139  24.512  1.00  0.00    -0.334 N 
ATOM     12  C   UNL A   1      30.446  28.724  23.702  1.00  0.00     0.223 C 
ATOM     13  C   UNL A   1      31.194  26.807  25.137  1.00  0.00     0.133 C 
ATOM     14  O   UNL A   1      30.533  29.847  23.209  1.00  0.00    -0.275 OA
ATOM     15  C   UNL A   1      29.191  27.953  23.344  1.00  0.00     0.101 C 
ATOM     16  C   UNL A   1      28.993  26.619  24.017  1.00  0.00     0.028 C 
BRANCH  11  17
ATOM     17  C   UNL A   1      32.486  28.991  25.076  1.00  0.00     0.126 C 
BRANCH  17  18
ATOM     18  C   UNL A   1      32.292  29.698  26.459  1.00  0.00    -0.021 C 
ATOM     19  C   UNL A   1      31.561  31.050  26.377  1.00  0.00     0.012 C 
ATOM     20  C   UNL A   1      33.702  29.988  27.032  1.00  0.00     0.012 C 
ATOM     21  C   UNL A   1      31.623  28.759  27.490  1.00  0.00     0.012 C 
ENDBRANCH  17  18
ENDBRANCH  11  17
BRANCH  13  22
ATOM     22  C   UNL A   1      32.402  25.950  25.531  1.00  0.00     0.022 A 
ATOM     23  C   UNL A   1      33.706  26.190  25.049  1.00  0.00     0.010 A 
ATOM     24  C   UNL A   1      32.211  24.728  26.159  1.00  0.00     0.171 A 
ATOM     25  C   UNL A   1      34.703  25.199  25.084  1.00  0.00     0.004 A 
ATOM     26  C   UNL A   1      33.202  23.772  26.228  1.00  0.00     0.166 A 
ATOM     27  O   UNL A   1      31.044  24.284  26.708  1.00  0.00    -0.453 OA
ATOM     28  C   UNL A   1      34.444  23.961  25.666  1.00  0.00     0.050 A 
ATOM     29  O   UNL A   1      32.788  22.637  26.854  1.00  0.00    -0.454 OA
ATOM     30  C   UNL A   1      31.484  23.047  27.306  1.00  0.00     0.468 C 
ENDBRANCH  13  22
ENDBRANCH   8  10
ENDBRANCH   7   8
ENDBRANCH   6   7
ENDBRANCH   5   6
ENDBRANCH   4   5
ENDBRANCH   3   4
ENDBRANCH   2   3
ENDBRANCH   1   2
BRANCH   1  31
ATOM     31  C   UNL A   1      35.047  20.248  24.973  1.00  0.00     0.188 C 
BRANCH  31  32
ATOM     32  C   UNL A   1      36.548  19.890  24.929  1.00  0.00     0.188 C 
BRANCH  32  33
ATOM     33  O   UNL A   1      37.542  20.836  24.568  1.00  0.00    -0.376 OA
BRANCH  33  34
ATOM     34  C   UNL A   1      38.142  21.726  25.493  1.00  0.00     0.202 C 
BRANCH  34  35
ATOM     35  C   UNL A   1      39.561  21.553  26.064  1.00  0.00     0.261 C 
BRANCH  35  36
ATOM     36  O   UNL A   1      39.978  20.238  26.426  1.00  0.00    -0.460 OA
BRANCH  36  37
ATOM     37  C   UNL A   1      41.268  19.940  26.173  1.00  0.00     0.338 C 
ATOM     38  O   UNL A   1      41.708  18.955  25.603  1.00  0.00    -0.246 OA
BRANCH  37  39
ATOM     39  C   UNL A   1      42.078  21.120  26.532  1.00  0.00     0.060 A 
ATOM     40  C   UNL A   1      42.214  21.448  27.889  1.00  0.00     0.016 A 
ATOM     41  C   UNL A   1      42.735  21.867  25.551  1.00  0.00     0.016 A 
ATOM     42  C   UNL A   1      42.997  22.529  28.272  1.00  0.00     0.010 A 
ATOM     43  C   UNL A   1      43.470  22.991  25.931  1.00  0.00     0.010 A 
ATOM     44  C   UNL A   1      43.571  23.342  27.289  1.00  0.00    -0.014 A 
BRANCH  44  45
ATOM     45  C   UNL A   1      44.010  24.696  27.677  1.00  0.00     0.031 A 
ATOM     46  C   UNL A   1      42.942  25.682  28.060  1.00  0.00     0.074 A 
ATOM     47  C   UNL A   1      45.310  25.026  27.735  1.00  0.00     0.049 A 
ATOM     48  N   UNL A   1      43.052  26.937  28.404  1.00  0.00    -0.248 NA
ATOM     49  C   UNL A   1      41.556  25.179  28.052  1.00  0.00     0.031 C 
ATOM     50  C   UNL A   1      46.426  24.132  27.440  1.00  0.00     0.029 A 
ATOM     51  N   UNL A   1      45.905  26.219  28.057  1.00  0.00    -0.354 N 
ATOM     52  C   UNL A   1      41.756  27.375  28.638  1.00  0.00     0.074 A 
ATOM     53  C   UNL A   1      40.871  26.262  28.382  1.00  0.00     0.031 C 
ATOM     54  C   UNL A   1      47.576  24.817  27.568  1.00  0.00     0.029 A 
ATOM     55  C   UNL A   1      47.271  26.203  27.922  1.00  0.00     0.049 A 
ATOM     56  H   UNL A   1      45.401  27.010  28.357  1.00  0.00     0.167 HD
ATOM     57  C   UNL A   1      41.343  28.600  29.032  1.00  0.00     0.037 A 
ATOM     58  C   UNL A   1      48.160  27.209  28.041  1.00  0.00     0.037 A 
ATOM     59  C   UNL A   1      42.232  29.699  29.290  1.00  0.00     0.049 A 
ATOM     60  C   UNL A   1      47.664  28.584  28.421  1.00  0.00     0.074 A 
ATOM     61  C   UNL A   1      41.920  30.973  29.725  1.00  0.00     0.029 A 
ATOM     62  N   UNL A   1      43.608  29.655  29.122  1.00  0.00    -0.354 N 
ATOM     63  N   UNL A   1      46.442  28.986  28.676  1.00  0.00    -0.248 NA
ATOM     64  C   UNL A   1      48.675  29.644  28.537  1.00  0.00     0.031 C 
ATOM     65  C   UNL A   1      43.100  31.722  29.754  1.00  0.00     0.029 A 
ATOM     66  C   UNL A   1      44.157  30.892  29.411  1.00  0.00     0.049 A 
ATOM     67  H   UNL A   1      44.118  28.861  28.841  1.00  0.00     0.167 HD
ATOM     68  C   UNL A   1      46.541  30.331  29.014  1.00  0.00     0.074 A 
ATOM     69  C   UNL A   1      47.946  30.671  28.948  1.00  0.00     0.031 C 
ATOM     70  C   UNL A   1      45.561  31.206  29.350  1.00  0.00     0.037 A 
BRANCH  57  71
ATOM     71  C   UNL A   1      39.868  28.831  29.164  1.00  0.00     0.064 A 
ATOM     72  C   UNL A   1      39.193  28.664  30.382  1.00  0.00     0.173 A 
ATOM     73  C   UNL A   1      39.127  29.272  28.058  1.00  0.00     0.173 A 
ATOM     74  F   UNL A   1      39.851  28.223  31.466  1.00  0.00    -0.203 F 
ATOM     75  C   UNL A   1      37.827  28.918  30.484  1.00  0.00     0.198 A 
ATOM     76  C   UNL A   1      37.769  29.554  28.170  1.00  0.00     0.198 A 
ATOM     77  F   UNL A   1      39.724  29.442  26.868  1.00  0.00    -0.203 F 
ATOM     78  F   UNL A   1      37.194  28.714  31.647  1.00  0.00    -0.200 F 
ATOM     79  C   UNL A   1      37.120  29.373  29.381  1.00  0.00     0.200 A 
ATOM     80  F   UNL A   1      37.091  30.006  27.106  1.00  0.00    -0.200 F 
ATOM     81  F   UNL A   1      35.809  29.634  29.484  1.00  0.00    -0.200 F 
ENDBRANCH  57  71
BRANCH  58  82
ATOM     82  C   UNL A   1      49.602  26.972  27.762  1.00  0.00     0.064 A 
ATOM     83  C   UNL A   1      50.501  26.650  28.787  1.00  0.00     0.173 A 
ATOM     84  C   UNL A   1      50.119  27.112  26.464  1.00  0.00     0.173 A 
ATOM     85  F   UNL A   1      50.062  26.529  30.049  1.00  0.00    -0.203 F 
ATOM     86  C   UNL A   1      51.865  26.511  28.533  1.00  0.00     0.198 A 
ATOM     87  C   UNL A   1      51.477  26.937  26.205  1.00  0.00     0.198 A 
ATOM     88  F   UNL A   1      49.303  27.420  25.444  1.00  0.00    -0.203 F 
ATOM     89  F   UNL A   1      52.710  26.268  29.544  1.00  0.00    -0.200 F 
ATOM     90  C   UNL A   1      52.350  26.650  27.242  1.00  0.00     0.200 A 
ATOM     91  F   UNL A   1      51.938  27.058  24.953  1.00  0.00    -0.200 F 
ATOM     92  F   UNL A   1      53.661  26.519  26.999  1.00  0.00    -0.200 F 
ENDBRANCH  58  82
BRANCH  70  93
ATOM     93  C   UNL A   1      45.975  32.602  29.720  1.00  0.00     0.064 A 
ATOM     94  C   UNL A   1      46.346  32.944  31.029  1.00  0.00     0.173 A 
ATOM     95  C   UNL A   1      46.045  33.603  28.737  1.00  0.00     0.173 A 
ATOM     96  F   UNL A   1      46.286  32.029  32.009  1.00  0.00    -0.203 F 
ATOM     97  C   UNL A   1      46.738  34.242  31.347  1.00  0.00     0.198 A 
ATOM     98  C   UNL A   1      46.475  34.888  29.050  1.00  0.00     0.198 A 
ATOM     99  F   UNL A   1      45.714  33.327  27.467  1.00  0.00    -0.203 F 
ATOM    100  F   UNL A   1      47.033  34.559  32.614  1.00  0.00    -0.200 F 
ATOM    101  C   UNL A   1      46.810  35.210  30.356  1.00  0.00     0.200 A 
ATOM    102  F   UNL A   1      46.563  35.816  28.087  1.00  0.00    -0.200 F 
ATOM    103  F   UNL A   1      47.198  36.456  30.661  1.00  0.00    -0.200 F 
ENDBRANCH  70  93
ENDBRANCH  44  45
ENDBRANCH  37  39
ENDBRANCH  36  37
ENDBRANCH  35  36
ENDBRANCH  34  35
ENDBRANCH  33  34
ENDBRANCH  32  33
ENDBRANCH  31  32
ENDBRANCH   1  31
TORSDOF 23
ENDMDL
MODEL 3
REMARK VINA RESULT:     -10.7      2.828      3.874
REMARK SMILES CC(C)(C)CN1C(=O)CC[C@@H](C(=O)OCCOCCOCCOCCOC(=O)c2ccc(-c3c4nc(c(-c5c(F)c(F)c(F)c(F)c5F)c5ccc([nH]5)c(-c5c(F)c(F)c(F)c(F)c5F)c5nc(c(-c6c(F)c(F)c(F)c(F)c6F)c6ccc3[nH]6)C=C5)C=C4)cc2)[C@H]1c1cccc2c1OCO2
REMARK SMILES IDX 20 1 19 2 18 3 17 4 16 5 15 6 14 7 12 8 13 9 11 10 6 11 7 12
REMARK SMILES IDX 92 13 8 14 9 15 10 16 5 17 2 18 1 19 3 20 4 21 93 22 94 23
REMARK SMILES IDX 98 24 95 25 97 26 99 27 96 28 101 29 100 30 21 31 22 32
REMARK SMILES IDX 23 33 24 34 25 35 26 36 27 37 28 38 29 39 30 40 91 41 31 42
REMARK SMILES IDX 90 43 32 44 33 45 34 46 84 47 35 48 89 49 83 50 85 51 36 52
REMARK SMILES IDX 88 53 82 54 81 55 37 57 69 58 49 59 68 60 50 61 53 62 67 63
REMARK SMILES IDX 86 64 51 65 52 66 66 68 87 69 54 70 38 71 39 72 47 73 40 74
REMARK SMILES IDX 41 75 45 76 48 77 42 78 43 79 46 80 44 81 70 82 71 83 79 84
REMARK SMILES IDX 72 85 73 86 77 87 80 88 74 89 75 90 78 91 76 92 55 93 56 94
REMARK SMILES IDX 64 95 57 96 58 97 62 98 65 99 59 100 60 101 63 102 61 103
REMARK H PARENT 85 56 53 67
REMARK Flexibility Score: inf
ROOT
ATOM      1  O   UNL A   1      29.629  29.598  22.702  1.00  0.00    -0.377 OA
ENDROOT
BRANCH   1   2
ATOM      2  C   UNL A   1      29.710  28.187  22.837  1.00  0.00     0.188 C 
BRANCH   2   3
ATOM      3  C   UNL A   1      28.516  27.448  23.478  1.00  0.00     0.188 C 
BRANCH   3   4
ATOM      4  O   UNL A   1      28.865  26.187  24.034  1.00  0.00    -0.376 OA
BRANCH   4   5
ATOM      5  C   UNL A   1      29.859  26.097  25.036  1.00  0.00     0.202 C 
BRANCH   5   6
ATOM      6  C   UNL A   1      30.454  24.708  25.335  1.00  0.00     0.261 C 
BRANCH   6   7
ATOM      7  O   UNL A   1      30.641  23.779  24.251  1.00  0.00    -0.463 OA
BRANCH   7   8
ATOM      8  C   UNL A   1      31.500  22.760  24.471  1.00  0.00     0.311 C 
ATOM      9  O   UNL A   1      31.571  22.154  25.530  1.00  0.00    -0.252 OA
BRANCH   8  10
ATOM     10  C   UNL A   1      32.409  22.500  23.283  1.00  0.00     0.127 C 
ATOM     11  N   UNL A   1      34.212  21.577  24.764  1.00  0.00    -0.334 N 
ATOM     12  C   UNL A   1      33.649  20.301  24.658  1.00  0.00     0.223 C 
ATOM     13  C   UNL A   1      33.857  22.645  23.788  1.00  0.00     0.133 C 
ATOM     14  O   UNL A   1      33.943  19.350  25.380  1.00  0.00    -0.275 OA
ATOM     15  C   UNL A   1      32.571  20.026  23.627  1.00  0.00     0.101 C 
ATOM     16  C   UNL A   1      32.262  21.130  22.650  1.00  0.00     0.028 C 
BRANCH  11  17
ATOM     17  C   UNL A   1      35.438  21.751  25.561  1.00  0.00     0.126 C 
BRANCH  17  18
ATOM     18  C   UNL A   1      36.844  21.763  24.873  1.00  0.00    -0.021 C 
ATOM     19  C   UNL A   1      36.842  22.349  23.450  1.00  0.00     0.012 C 
ATOM     20  C   UNL A   1      37.309  20.290  24.748  1.00  0.00     0.012 C 
ATOM     21  C   UNL A   1      37.908  22.447  25.762  1.00  0.00     0.012 C 
ENDBRANCH  17  18
ENDBRANCH  11  17
BRANCH  13  22
ATOM     22  C   UNL A   1      34.011  24.112  24.202  1.00  0.00     0.022 A 
ATOM     23  C   UNL A   1      34.204  24.518  25.539  1.00  0.00     0.010 A 
ATOM     24  C   UNL A   1      33.684  25.123  23.310  1.00  0.00     0.171 A 
ATOM     25  C   UNL A   1      33.946  25.837  25.957  1.00  0.00     0.004 A 
ATOM     26  C   UNL A   1      33.471  26.424  23.716  1.00  0.00     0.166 A 
ATOM     27  O   UNL A   1      33.461  24.970  21.973  1.00  0.00    -0.453 OA
ATOM     28  C   UNL A   1      33.555  26.804  25.036  1.00  0.00     0.050 A 
ATOM     29  O   UNL A   1      33.125  27.241  22.684  1.00  0.00    -0.454 OA
ATOM     30  C   UNL A   1      33.299  26.346  21.570  1.00  0.00     0.468 C 
ENDBRANCH  13  22
ENDBRANCH   8  10
ENDBRANCH   7   8
ENDBRANCH   6   7
ENDBRANCH   5   6
ENDBRANCH   4   5
ENDBRANCH   3   4
ENDBRANCH   2   3
ENDBRANCH   1   2
BRANCH   1  31
ATOM     31  C   UNL A   1      30.000  30.335  23.849  1.00  0.00     0.188 C 
BRANCH  31  32
ATOM     32  C   UNL A   1      31.041  29.616  24.734  1.00  0.00     0.188 C 
BRANCH  32  33
ATOM     33  O   UNL A   1      32.386  30.059  24.834  1.00  0.00    -0.376 OA
BRANCH  33  34
ATOM     34  C   UNL A   1      33.200  29.828  25.970  1.00  0.00     0.202 C 
BRANCH  34  35
ATOM     35  C   UNL A   1      33.286  30.778  27.179  1.00  0.00     0.261 C 
BRANCH  35  36
ATOM     36  O   UNL A   1      34.032  30.344  28.315  1.00  0.00    -0.460 OA
BRANCH  36  37
ATOM     37  C   UNL A   1      34.990  31.188  28.746  1.00  0.00     0.338 C 
ATOM     38  O   UNL A   1      34.847  32.319  29.183  1.00  0.00    -0.246 OA
BRANCH  37  39
ATOM     39  C   UNL A   1      36.260  30.438  28.790  1.00  0.00     0.060 A 
ATOM     40  C   UNL A   1      36.560  29.702  29.945  1.00  0.00     0.016 A 
ATOM     41  C   UNL A   1      37.123  30.419  27.691  1.00  0.00     0.016 A 
ATOM     42  C   UNL A   1      37.727  28.952  30.014  1.00  0.00     0.010 A 
ATOM     43  C   UNL A   1      38.327  29.718  27.784  1.00  0.00     0.010 A 
ATOM     44  C   UNL A   1      38.644  29.015  28.959  1.00  0.00    -0.014 A 
BRANCH  44  45
ATOM     45  C   UNL A   1      40.034  28.591  29.221  1.00  0.00     0.031 A 
ATOM     46  C   UNL A   1      40.903  29.536  30.002  1.00  0.00     0.074 A 
ATOM     47  C   UNL A   1      40.492  27.394  28.824  1.00  0.00     0.049 A 
ATOM     48  N   UNL A   1      42.162  29.425  30.336  1.00  0.00    -0.248 NA
ATOM     49  C   UNL A   1      40.263  30.779  30.469  1.00  0.00     0.031 C 
ATOM     50  C   UNL A   1      39.717  26.382  28.112  1.00  0.00     0.029 A 
ATOM     51  N   UNL A   1      41.738  26.836  28.962  1.00  0.00    -0.354 N 
ATOM     52  C   UNL A   1      42.464  30.585  31.037  1.00  0.00     0.074 A 
ATOM     53  C   UNL A   1      41.269  31.397  31.067  1.00  0.00     0.031 C 
ATOM     54  C   UNL A   1      40.515  25.332  27.849  1.00  0.00     0.029 A 
ATOM     55  C   UNL A   1      41.860  25.615  28.346  1.00  0.00     0.049 A 
ATOM     56  H   UNL A   1      42.472  27.268  29.455  1.00  0.00     0.167 HD
ATOM     57  C   UNL A   1      43.639  30.939  31.604  1.00  0.00     0.037 A 
ATOM     58  C   UNL A   1      42.950  24.840  28.181  1.00  0.00     0.037 A 
ATOM     59  C   UNL A   1      44.821  30.122  31.572  1.00  0.00     0.049 A 
ATOM     60  C   UNL A   1      44.265  25.289  28.771  1.00  0.00     0.074 A 
ATOM     61  C   UNL A   1      46.054  30.372  32.143  1.00  0.00     0.029 A 
ATOM     62  N   UNL A   1      44.917  28.901  30.921  1.00  0.00    -0.354 N 
ATOM     63  N   UNL A   1      44.540  26.369  29.463  1.00  0.00    -0.248 NA
ATOM     64  C   UNL A   1      45.422  24.407  28.562  1.00  0.00     0.031 C 
ATOM     65  C   UNL A   1      46.918  29.335  31.779  1.00  0.00     0.029 A 
ATOM     66  C   UNL A   1      46.201  28.401  31.047  1.00  0.00     0.049 A 
ATOM     67  H   UNL A   1      44.180  28.455  30.443  1.00  0.00     0.167 HD
ATOM     68  C   UNL A   1      45.887  26.279  29.800  1.00  0.00     0.074 A 
ATOM     69  C   UNL A   1      46.367  25.030  29.249  1.00  0.00     0.031 C 
ATOM     70  C   UNL A   1      46.656  27.149  30.500  1.00  0.00     0.037 A 
BRANCH  57  71
ATOM     71  C   UNL A   1      43.719  32.282  32.264  1.00  0.00     0.064 A 
ATOM     72  C   UNL A   1      43.991  33.453  31.541  1.00  0.00     0.173 A 
ATOM     73  C   UNL A   1      43.473  32.402  33.640  1.00  0.00     0.173 A 
ATOM     74  F   UNL A   1      44.254  33.391  30.227  1.00  0.00    -0.203 F 
ATOM     75  C   UNL A   1      44.025  34.693  32.175  1.00  0.00     0.198 A 
ATOM     76  C   UNL A   1      43.478  33.645  34.264  1.00  0.00     0.198 A 
ATOM     77  F   UNL A   1      43.214  31.311  34.378  1.00  0.00    -0.203 F 
ATOM     78  F   UNL A   1      44.326  35.794  31.473  1.00  0.00    -0.200 F 
ATOM     79  C   UNL A   1      43.758  34.788  33.533  1.00  0.00     0.200 A 
ATOM     80  F   UNL A   1      43.207  33.735  35.574  1.00  0.00    -0.200 F 
ATOM     81  F   UNL A   1      43.775  35.984  34.139  1.00  0.00    -0.200 F 
ENDBRANCH  57  71
BRANCH  58  82
ATOM     82  C   UNL A   1      42.862  23.580  27.395  1.00  0.00     0.064 A 
ATOM     83  C   UNL A   1      42.374  22.396  27.964  1.00  0.00     0.173 A 
ATOM     84  C   UNL A   1      43.312  23.524  26.067  1.00  0.00     0.173 A 
ATOM     85  F   UNL A   1      41.955  22.390  29.239  1.00  0.00    -0.203 F 
ATOM     86  C   UNL A   1      42.371  21.199  27.249  1.00  0.00     0.198 A 
ATOM     87  C   UNL A   1      43.275  22.336  25.340  1.00  0.00     0.198 A 
ATOM     88  F   UNL A   1      43.789  24.628  25.471  1.00  0.00    -0.203 F 
ATOM     89  F   UNL A   1      41.960  20.069  27.841  1.00  0.00    -0.200 F 
ATOM     90  C   UNL A   1      42.817  21.172  25.937  1.00  0.00     0.200 A 
ATOM     91  F   UNL A   1      43.693  22.318  24.068  1.00  0.00    -0.200 F 
ATOM     92  F   UNL A   1      42.816  20.021  25.251  1.00  0.00    -0.200 F 
ENDBRANCH  58  82
BRANCH  70  93
ATOM     93  C   UNL A   1      48.085  26.759  30.757  1.00  0.00     0.064 A 
ATOM     94  C   UNL A   1      48.449  25.943  31.836  1.00  0.00     0.173 A 
ATOM     95  C   UNL A   1      49.098  27.175  29.878  1.00  0.00     0.173 A 
ATOM     96  F   UNL A   1      47.521  25.527  32.713  1.00  0.00    -0.203 F 
ATOM     97  C   UNL A   1      49.778  25.584  32.047  1.00  0.00     0.198 A 
ATOM     98  C   UNL A   1      50.419  26.783  30.069  1.00  0.00     0.198 A 
ATOM     99  F   UNL A   1      48.803  27.947  28.821  1.00  0.00    -0.203 F 
ATOM    100  F   UNL A   1      50.110  24.850  33.117  1.00  0.00    -0.200 F 
ATOM    101  C   UNL A   1      50.760  25.998  31.159  1.00  0.00     0.200 A 
ATOM    102  F   UNL A   1      51.363  27.167  29.198  1.00  0.00    -0.200 F 
ATOM    103  F   UNL A   1      52.037  25.643  31.357  1.00  0.00    -0.200 F 
ENDBRANCH  70  93
ENDBRANCH  44  45
ENDBRANCH  37  39
ENDBRANCH  36  37
ENDBRANCH  35  36
ENDBRANCH  34  35
ENDBRANCH  33  34
ENDBRANCH  32  33
ENDBRANCH  31  32
ENDBRANCH   1  31
TORSDOF 23
ENDMDL
