MODEL 1
REMARK VINA RESULT:     -10.6      0.000      0.000
REMARK SMILES CCCc1cc2c(cc1Cl)C=C(C(=O)OCCOCCOCCOCCOC(=O)c1ccc(-c3c4nc(c(-c5c(F)c(F)c(F)c(F)c5F)c5ccc([nH]5)c(-c5c(F)c(F)c(F)c(F)c5F)c5nc(c(-c6c(F)c(F)c(F)c(F)c6F)c6ccc3[nH]6)C=C5)C=C4)cc1)[C@H](C(F)(F)F)O2
REMARK SMILES IDX 21 1 20 2 19 3 18 4 17 5 16 6 15 7 13 8 14 9 12 10 4 11 5 12
REMARK SMILES IDX 9 13 6 14 8 15 10 16 7 17 98 18 11 19 93 20 3 21 2 22 1 23
REMARK SMILES IDX 94 24 95 25 96 26 97 27 22 28 23 29 24 30 25 31 26 32 27 33
REMARK SMILES IDX 28 34 29 35 30 36 31 37 92 38 32 39 91 40 33 41 34 42 35 43
REMARK SMILES IDX 85 44 36 45 90 46 84 47 86 48 37 49 89 50 83 51 82 52 38 54
REMARK SMILES IDX 70 55 50 56 69 57 51 58 54 59 68 60 87 61 52 62 53 63 67 65
REMARK SMILES IDX 88 66 55 67 39 68 40 69 48 70 41 71 42 72 46 73 49 74 43 75
REMARK SMILES IDX 44 76 47 77 45 78 71 79 72 80 80 81 73 82 74 83 78 84 81 85
REMARK SMILES IDX 75 86 76 87 79 88 77 89 56 90 57 91 65 92 58 93 59 94 63 95
REMARK SMILES IDX 66 96 60 97 61 98 64 99 62 100
REMARK H PARENT 86 53 54 64
REMARK Flexibility Score: inf
ROOT
ATOM      1  O   UNL A   1      41.893  20.277  27.402  1.00  0.00    -0.377 OA
ENDROOT
BRANCH   1   2
ATOM      2  C   UNL A   1      41.962  21.685  27.506  1.00  0.00     0.188 C 
BRANCH   2   3
ATOM      3  C   UNL A   1      40.600  22.379  27.693  1.00  0.00     0.188 C 
BRANCH   3   4
ATOM      4  O   UNL A   1      39.695  22.572  26.611  1.00  0.00    -0.376 OA
BRANCH   4   5
ATOM      5  C   UNL A   1      38.847  23.709  26.539  1.00  0.00     0.202 C 
BRANCH   5   6
ATOM      6  C   UNL A   1      37.491  23.600  25.831  1.00  0.00     0.261 C 
BRANCH   6   7
ATOM      7  O   UNL A   1      36.658  22.527  26.298  1.00  0.00    -0.460 OA
BRANCH   7   8
ATOM      8  C   UNL A   1      35.860  21.972  25.364  1.00  0.00     0.338 C 
ATOM      9  O   UNL A   1      35.967  20.852  24.888  1.00  0.00    -0.246 OA
BRANCH   8  10
ATOM     10  C   UNL A   1      34.721  22.853  25.060  1.00  0.00     0.087 C 
ATOM     11  C   UNL A   1      32.063  26.436  22.761  1.00  0.00    -0.026 A 
ATOM     12  C   UNL A   1      32.432  26.164  24.092  1.00  0.00     0.052 A 
ATOM     13  C   UNL A   1      32.433  25.510  21.770  1.00  0.00     0.045 A 
ATOM     14  C   UNL A   1      33.155  25.022  24.423  1.00  0.00     0.128 A 
ATOM     15  C   UNL A   1      33.193  24.380  22.096  1.00  0.00     0.032 A 
ATOM     16  Cl  UNL A   1      32.035  25.728  20.102  1.00  0.00    -0.084 Cl
ATOM     17  C   UNL A   1      33.574  24.149  23.419  1.00  0.00     0.019 A 
ATOM     18  O   UNL A   1      33.505  24.873  25.739  1.00  0.00    -0.475 OA
ATOM     19  C   UNL A   1      34.530  23.112  23.758  1.00  0.00     0.027 C 
ATOM     20  C   UNL A   1      33.934  23.536  26.146  1.00  0.00     0.316 C 
BRANCH  11  21
ATOM     21  C   UNL A   1      31.373  27.748  22.458  1.00  0.00     0.037 C 
BRANCH  21  22
ATOM     22  C   UNL A   1      30.399  28.255  23.528  1.00  0.00     0.001 C 
ATOM     23  C   UNL A   1      28.991  27.687  23.416  1.00  0.00     0.004 C 
ENDBRANCH  21  22
ENDBRANCH  11  21
BRANCH  20  24
ATOM     24  C   UNL A   1      32.721  22.753  26.687  1.00  0.00     0.430 C 
ATOM     25  F   UNL A   1      32.176  21.973  25.717  1.00  0.00    -0.167 F 
ATOM     26  F   UNL A   1      33.042  21.931  27.712  1.00  0.00    -0.167 F 
ATOM     27  F   UNL A   1      31.733  23.574  27.105  1.00  0.00    -0.167 F 
ENDBRANCH  20  24
ENDBRANCH   8  10
ENDBRANCH   7   8
ENDBRANCH   6   7
ENDBRANCH   5   6
ENDBRANCH   4   5
ENDBRANCH   3   4
ENDBRANCH   2   3
ENDBRANCH   1   2
BRANCH   1  28
ATOM     28  C   UNL A   1      41.994  19.751  26.086  1.00  0.00     0.188 C 
BRANCH  28  29
ATOM     29  C   UNL A   1      43.411  19.409  25.600  1.00  0.00     0.188 C 
BRANCH  29  30
ATOM     30  O   UNL A   1      43.809  20.223  24.496  1.00  0.00    -0.376 OA
BRANCH  30  31
ATOM     31  C   UNL A   1      44.583  21.379  24.802  1.00  0.00     0.202 C 
BRANCH  31  32
ATOM     32  C   UNL A   1      44.192  22.660  24.049  1.00  0.00     0.261 C 
BRANCH  32  33
ATOM     33  O   UNL A   1      43.687  23.749  24.842  1.00  0.00    -0.460 OA
BRANCH  33  34
ATOM     34  C   UNL A   1      44.501  24.782  25.145  1.00  0.00     0.338 C 
ATOM     35  O   UNL A   1      45.573  25.054  24.634  1.00  0.00    -0.246 OA
BRANCH  34  36
ATOM     36  C   UNL A   1      43.769  25.663  26.083  1.00  0.00     0.060 A 
ATOM     37  C   UNL A   1      42.885  25.125  27.023  1.00  0.00     0.016 A 
ATOM     38  C   UNL A   1      43.955  27.050  26.005  1.00  0.00     0.016 A 
ATOM     39  C   UNL A   1      42.219  25.972  27.910  1.00  0.00     0.010 A 
ATOM     40  C   UNL A   1      43.282  27.899  26.892  1.00  0.00     0.010 A 
ATOM     41  C   UNL A   1      42.433  27.362  27.870  1.00  0.00    -0.014 A 
BRANCH  41  42
ATOM     42  C   UNL A   1      41.935  28.205  28.986  1.00  0.00     0.031 A 
ATOM     43  C   UNL A   1      40.650  28.969  28.906  1.00  0.00     0.074 A 
ATOM     44  C   UNL A   1      42.681  28.255  30.105  1.00  0.00     0.049 A 
ATOM     45  N   UNL A   1      40.044  29.652  29.847  1.00  0.00    -0.248 NA
ATOM     46  C   UNL A   1      39.958  28.980  27.612  1.00  0.00     0.031 C 
ATOM     47  C   UNL A   1      43.967  27.576  30.280  1.00  0.00     0.029 A 
ATOM     48  N   UNL A   1      42.469  28.883  31.306  1.00  0.00    -0.354 N 
ATOM     49  C   UNL A   1      38.885  30.151  29.271  1.00  0.00     0.074 A 
ATOM     50  C   UNL A   1      38.898  29.736  27.882  1.00  0.00     0.031 C 
ATOM     51  C   UNL A   1      44.410  27.793  31.526  1.00  0.00     0.029 A 
ATOM     52  C   UNL A   1      43.455  28.644  32.230  1.00  0.00     0.049 A 
ATOM     53  H   UNL A   1      41.684  29.450  31.487  1.00  0.00     0.167 HD
ATOM     54  C   UNL A   1      37.898  30.872  29.859  1.00  0.00     0.037 A 
ATOM     55  C   UNL A   1      43.575  29.051  33.507  1.00  0.00     0.037 A 
ATOM     56  C   UNL A   1      37.905  31.295  31.238  1.00  0.00     0.049 A 
ATOM     57  C   UNL A   1      42.484  29.883  34.119  1.00  0.00     0.074 A 
ATOM     58  C   UNL A   1      36.931  31.996  31.929  1.00  0.00     0.029 A 
ATOM     59  N   UNL A   1      38.941  31.071  32.134  1.00  0.00    -0.354 N 
ATOM     60  N   UNL A   1      41.354  30.279  33.588  1.00  0.00    -0.248 NA
ATOM     61  C   UNL A   1      42.682  30.317  35.509  1.00  0.00     0.031 C 
ATOM     62  C   UNL A   1      37.399  32.241  33.224  1.00  0.00     0.029 A 
ATOM     63  C   UNL A   1      38.641  31.647  33.360  1.00  0.00     0.049 A 
ATOM     64  H   UNL A   1      39.768  30.577  31.930  1.00  0.00     0.167 HD
ATOM     65  C   UNL A   1      40.695  30.989  34.582  1.00  0.00     0.074 A 
ATOM     66  C   UNL A   1      41.546  30.956  35.753  1.00  0.00     0.031 C 
ATOM     67  C   UNL A   1      39.493  31.611  34.523  1.00  0.00     0.037 A 
BRANCH  54  68
ATOM     68  C   UNL A   1      36.705  31.243  29.026  1.00  0.00     0.064 A 
ATOM     69  C   UNL A   1      35.703  30.305  28.733  1.00  0.00     0.173 A 
ATOM     70  C   UNL A   1      36.505  32.568  28.609  1.00  0.00     0.173 A 
ATOM     71  F   UNL A   1      35.846  29.026  29.110  1.00  0.00    -0.203 F 
ATOM     72  C   UNL A   1      34.553  30.678  28.043  1.00  0.00     0.198 A 
ATOM     73  C   UNL A   1      35.341  32.942  27.941  1.00  0.00     0.198 A 
ATOM     74  F   UNL A   1      37.424  33.508  28.876  1.00  0.00    -0.203 F 
ATOM     75  F   UNL A   1      33.620  29.759  27.753  1.00  0.00    -0.200 F 
ATOM     76  C   UNL A   1      34.367  31.996  27.657  1.00  0.00     0.200 A 
ATOM     77  F   UNL A   1      35.154  34.221  27.586  1.00  0.00    -0.200 F 
ATOM     78  F   UNL A   1      33.249  32.357  27.010  1.00  0.00    -0.200 F 
ENDBRANCH  54  68
BRANCH  55  79
ATOM     79  C   UNL A   1      44.756  28.624  34.300  1.00  0.00     0.064 A 
ATOM     80  C   UNL A   1      44.828  27.332  34.839  1.00  0.00     0.173 A 
ATOM     81  C   UNL A   1      45.850  29.478  34.497  1.00  0.00     0.173 A 
ATOM     82  F   UNL A   1      43.799  26.485  34.688  1.00  0.00    -0.203 F 
ATOM     83  C   UNL A   1      45.949  26.913  35.552  1.00  0.00     0.198 A 
ATOM     84  C   UNL A   1      46.981  29.050  35.187  1.00  0.00     0.198 A 
ATOM     85  F   UNL A   1      45.830  30.721  33.993  1.00  0.00    -0.203 F 
ATOM     86  F   UNL A   1      45.981  25.683  36.082  1.00  0.00    -0.200 F 
ATOM     87  C   UNL A   1      47.028  27.769  35.717  1.00  0.00     0.200 A 
ATOM     88  F   UNL A   1      48.029  29.872  35.329  1.00  0.00    -0.200 F 
ATOM     89  F   UNL A   1      48.112  27.360  36.391  1.00  0.00    -0.200 F 
ENDBRANCH  55  79
BRANCH  67  90
ATOM     90  C   UNL A   1      39.006  32.302  35.764  1.00  0.00     0.064 A 
ATOM     91  C   UNL A   1      38.265  31.621  36.740  1.00  0.00     0.173 A 
ATOM     92  C   UNL A   1      39.346  33.641  36.013  1.00  0.00     0.173 A 
ATOM     93  F   UNL A   1      37.901  30.345  36.544  1.00  0.00    -0.203 F 
ATOM     94  C   UNL A   1      37.872  32.258  37.914  1.00  0.00     0.198 A 
ATOM     95  C   UNL A   1      38.975  34.266  37.201  1.00  0.00     0.198 A 
ATOM     96  F   UNL A   1      40.058  34.336  35.114  1.00  0.00    -0.203 F 
ATOM     97  F   UNL A   1      37.135  31.597  38.818  1.00  0.00    -0.200 F 
ATOM     98  C   UNL A   1      38.236  33.576  38.149  1.00  0.00     0.200 A 
ATOM     99  F   UNL A   1      39.341  35.535  37.432  1.00  0.00    -0.200 F 
ATOM    100  F   UNL A   1      37.872  34.181  39.287  1.00  0.00    -0.200 F 
ENDBRANCH  67  90
ENDBRANCH  41  42
ENDBRANCH  34  36
ENDBRANCH  33  34
ENDBRANCH  32  33
ENDBRANCH  31  32
ENDBRANCH  30  31
ENDBRANCH  29  30
ENDBRANCH  28  29
ENDBRANCH   1  28
TORSDOF 23
ENDMDL
MODEL 2
REMARK VINA RESULT:     -10.5      1.240      2.064
REMARK SMILES CCCc1cc2c(cc1Cl)C=C(C(=O)OCCOCCOCCOCCOC(=O)c1ccc(-c3c4nc(c(-c5c(F)c(F)c(F)c(F)c5F)c5ccc([nH]5)c(-c5c(F)c(F)c(F)c(F)c5F)c5nc(c(-c6c(F)c(F)c(F)c(F)c6F)c6ccc3[nH]6)C=C5)C=C4)cc1)[C@H](C(F)(F)F)O2
REMARK SMILES IDX 21 1 20 2 19 3 18 4 17 5 16 6 15 7 13 8 14 9 12 10 4 11 5 12
REMARK SMILES IDX 9 13 6 14 8 15 10 16 7 17 98 18 11 19 93 20 3 21 2 22 1 23
REMARK SMILES IDX 94 24 95 25 96 26 97 27 22 28 23 29 24 30 25 31 26 32 27 33
REMARK SMILES IDX 28 34 29 35 30 36 31 37 92 38 32 39 91 40 33 41 34 42 35 43
REMARK SMILES IDX 85 44 36 45 90 46 84 47 86 48 37 49 89 50 83 51 82 52 38 54
REMARK SMILES IDX 70 55 50 56 69 57 51 58 54 59 68 60 87 61 52 62 53 63 67 65
REMARK SMILES IDX 88 66 55 67 39 68 40 69 48 70 41 71 42 72 46 73 49 74 43 75
REMARK SMILES IDX 44 76 47 77 45 78 71 79 72 80 80 81 73 82 74 83 78 84 81 85
REMARK SMILES IDX 75 86 76 87 79 88 77 89 56 90 57 91 65 92 58 93 59 94 63 95
REMARK SMILES IDX 66 96 60 97 61 98 64 99 62 100
REMARK H PARENT 86 53 54 64
REMARK Flexibility Score: inf
ROOT
ATOM      1  O   UNL A   1      42.094  19.630  27.054  1.00  0.00    -0.377 OA
ENDROOT
BRANCH   1   2
ATOM      2  C   UNL A   1      41.840  20.964  27.446  1.00  0.00     0.188 C 
BRANCH   2   3
ATOM      3  C   UNL A   1      40.380  21.417  27.263  1.00  0.00     0.188 C 
BRANCH   3   4
ATOM      4  O   UNL A   1      39.765  21.483  25.980  1.00  0.00    -0.376 OA
BRANCH   4   5
ATOM      5  C   UNL A   1      38.544  22.179  25.772  1.00  0.00     0.202 C 
BRANCH   5   6
ATOM      6  C   UNL A   1      37.222  21.399  25.746  1.00  0.00     0.261 C 
BRANCH   6   7
ATOM      7  O   UNL A   1      36.150  22.066  25.060  1.00  0.00    -0.460 OA
BRANCH   7   8
ATOM      8  C   UNL A   1      35.033  22.257  25.791  1.00  0.00     0.338 C 
ATOM      9  O   UNL A   1      34.831  21.856  26.927  1.00  0.00    -0.246 OA
BRANCH   8  10
ATOM     10  C   UNL A   1      34.096  23.147  25.089  1.00  0.00     0.087 C 
ATOM     11  C   UNL A   1      31.523  27.320  24.016  1.00  0.00    -0.026 A 
ATOM     12  C   UNL A   1      31.187  25.979  24.280  1.00  0.00     0.052 A 
ATOM     13  C   UNL A   1      32.885  27.663  23.964  1.00  0.00     0.045 A 
ATOM     14  C   UNL A   1      32.168  25.017  24.498  1.00  0.00     0.128 A 
ATOM     15  C   UNL A   1      33.873  26.704  24.221  1.00  0.00     0.032 A 
ATOM     16  Cl  UNL A   1      33.425  29.273  23.645  1.00  0.00    -0.084 Cl
ATOM     17  C   UNL A   1      33.513  25.387  24.511  1.00  0.00     0.019 A 
ATOM     18  O   UNL A   1      31.737  23.750  24.792  1.00  0.00    -0.475 OA
ATOM     19  C   UNL A   1      34.491  24.425  24.985  1.00  0.00     0.027 C 
ATOM     20  C   UNL A   1      32.729  22.685  24.665  1.00  0.00     0.316 C 
BRANCH  11  21
ATOM     21  C   UNL A   1      30.405  28.333  23.897  1.00  0.00     0.037 C 
BRANCH  21  22
ATOM     22  C   UNL A   1      29.789  28.489  22.502  1.00  0.00     0.001 C 
ATOM     23  C   UNL A   1      29.401  29.917  22.142  1.00  0.00     0.004 C 
ENDBRANCH  21  22
ENDBRANCH  11  21
BRANCH  20  24
ATOM     24  C   UNL A   1      32.638  22.068  23.254  1.00  0.00     0.430 C 
ATOM     25  F   UNL A   1      33.043  20.771  23.265  1.00  0.00    -0.167 F 
ATOM     26  F   UNL A   1      31.381  22.078  22.756  1.00  0.00    -0.167 F 
ATOM     27  F   UNL A   1      33.442  22.702  22.371  1.00  0.00    -0.167 F 
ENDBRANCH  20  24
ENDBRANCH   8  10
ENDBRANCH   7   8
ENDBRANCH   6   7
ENDBRANCH   5   6
ENDBRANCH   4   5
ENDBRANCH   3   4
ENDBRANCH   2   3
ENDBRANCH   1   2
BRANCH   1  28
ATOM     28  C   UNL A   1      42.440  19.445  25.687  1.00  0.00     0.188 C 
BRANCH  28  29
ATOM     29  C   UNL A   1      43.788  18.759  25.418  1.00  0.00     0.188 C 
BRANCH  29  30
ATOM     30  O   UNL A   1      44.717  19.637  24.782  1.00  0.00    -0.376 OA
BRANCH  30  31
ATOM     31  C   UNL A   1      44.878  20.927  25.365  1.00  0.00     0.202 C 
BRANCH  31  32
ATOM     32  C   UNL A   1      44.223  22.088  24.602  1.00  0.00     0.261 C 
BRANCH  32  33
ATOM     33  O   UNL A   1      43.718  23.180  25.393  1.00  0.00    -0.460 OA
BRANCH  33  34
ATOM     34  C   UNL A   1      44.339  24.377  25.343  1.00  0.00     0.338 C 
ATOM     35  O   UNL A   1      45.207  24.728  24.564  1.00  0.00    -0.246 OA
BRANCH  34  36
ATOM     36  C   UNL A   1      43.635  25.280  26.282  1.00  0.00     0.060 A 
ATOM     37  C   UNL A   1      42.732  24.770  27.219  1.00  0.00     0.016 A 
ATOM     38  C   UNL A   1      43.869  26.660  26.208  1.00  0.00     0.016 A 
ATOM     39  C   UNL A   1      42.094  25.637  28.107  1.00  0.00     0.010 A 
ATOM     40  C   UNL A   1      43.224  27.529  27.096  1.00  0.00     0.010 A 
ATOM     41  C   UNL A   1      42.356  27.019  28.072  1.00  0.00    -0.014 A 
BRANCH  41  42
ATOM     42  C   UNL A   1      41.885  27.875  29.189  1.00  0.00     0.031 A 
ATOM     43  C   UNL A   1      40.651  28.718  29.093  1.00  0.00     0.074 A 
ATOM     44  C   UNL A   1      42.606  27.864  30.325  1.00  0.00     0.049 A 
ATOM     45  N   UNL A   1      40.066  29.424  30.031  1.00  0.00    -0.248 NA
ATOM     46  C   UNL A   1      39.990  28.790  27.784  1.00  0.00     0.031 C 
ATOM     47  C   UNL A   1      43.843  27.104  30.518  1.00  0.00     0.029 A 
ATOM     48  N   UNL A   1      42.405  28.487  31.530  1.00  0.00    -0.354 N 
ATOM     49  C   UNL A   1      38.954  30.001  29.436  1.00  0.00     0.074 A 
ATOM     50  C   UNL A   1      38.973  29.606  28.042  1.00  0.00     0.031 C 
ATOM     51  C   UNL A   1      44.271  27.276  31.776  1.00  0.00     0.029 A 
ATOM     52  C   UNL A   1      43.354  28.174  32.472  1.00  0.00     0.049 A 
ATOM     53  H   UNL A   1      41.653  29.098  31.703  1.00  0.00     0.167 HD
ATOM     54  C   UNL A   1      38.000  30.773  30.013  1.00  0.00     0.037 A 
ATOM     55  C   UNL A   1      43.469  28.555  33.758  1.00  0.00     0.037 A 
ATOM     56  C   UNL A   1      38.001  31.176  31.399  1.00  0.00     0.049 A 
ATOM     57  C   UNL A   1      42.418  29.445  34.358  1.00  0.00     0.074 A 
ATOM     58  C   UNL A   1      37.056  31.926  32.079  1.00  0.00     0.029 A 
ATOM     59  N   UNL A   1      39.001  30.876  32.314  1.00  0.00    -0.354 N 
ATOM     60  N   UNL A   1      41.327  29.917  33.809  1.00  0.00    -0.248 NA
ATOM     61  C   UNL A   1      42.610  29.846  35.758  1.00  0.00     0.031 C 
ATOM     62  C   UNL A   1      37.508  32.124  33.387  1.00  0.00     0.029 A 
ATOM     63  C   UNL A   1      38.708  31.452  33.542  1.00  0.00     0.049 A 
ATOM     64  H   UNL A   1      39.800  30.335  32.120  1.00  0.00     0.167 HD
ATOM     65  C   UNL A   1      40.690  30.653  34.798  1.00  0.00     0.074 A 
ATOM     66  C   UNL A   1      41.510  30.551  35.987  1.00  0.00     0.031 C 
ATOM     67  C   UNL A   1      39.529  31.348  34.723  1.00  0.00     0.037 A 
BRANCH  54  68
ATOM     68  C   UNL A   1      36.851  31.229  29.161  1.00  0.00     0.064 A 
ATOM     69  C   UNL A   1      35.807  30.355  28.821  1.00  0.00     0.173 A 
ATOM     70  C   UNL A   1      36.735  32.572  28.770  1.00  0.00     0.173 A 
ATOM     71  F   UNL A   1      35.868  29.062  29.171  1.00  0.00    -0.203 F 
ATOM     72  C   UNL A   1      34.697  30.807  28.111  1.00  0.00     0.198 A 
ATOM     73  C   UNL A   1      35.611  33.025  28.083  1.00  0.00     0.198 A 
ATOM     74  F   UNL A   1      37.698  33.453  29.081  1.00  0.00    -0.203 F 
ATOM     75  F   UNL A   1      33.722  29.949  27.777  1.00  0.00    -0.200 F 
ATOM     76  C   UNL A   1      34.595  32.142  27.752  1.00  0.00     0.200 A 
ATOM     77  F   UNL A   1      35.505  34.320  27.753  1.00  0.00    -0.200 F 
ATOM     78  F   UNL A   1      33.516  32.578  27.086  1.00  0.00    -0.200 F 
ENDBRANCH  54  68
BRANCH  55  79
ATOM     79  C   UNL A   1      44.603  28.045  34.569  1.00  0.00     0.064 A 
ATOM     80  C   UNL A   1      45.800  28.769  34.664  1.00  0.00     0.173 A 
ATOM     81  C   UNL A   1      44.500  26.852  35.297  1.00  0.00     0.173 A 
ATOM     82  F   UNL A   1      45.949  29.909  33.974  1.00  0.00    -0.203 F 
ATOM     83  C   UNL A   1      46.853  28.313  35.453  1.00  0.00     0.198 A 
ATOM     84  C   UNL A   1      45.544  26.411  36.106  1.00  0.00     0.198 A 
ATOM     85  F   UNL A   1      43.371  26.129  35.245  1.00  0.00    -0.203 F 
ATOM     86  F   UNL A   1      47.997  29.009  35.504  1.00  0.00    -0.200 F 
ATOM     87  C   UNL A   1      46.721  27.140  36.180  1.00  0.00     0.200 A 
ATOM     88  F   UNL A   1      45.406  25.286  36.823  1.00  0.00    -0.200 F 
ATOM     89  F   UNL A   1      47.730  26.710  36.951  1.00  0.00    -0.200 F 
ENDBRANCH  55  79
BRANCH  67  90
ATOM     90  C   UNL A   1      39.058  32.051  35.963  1.00  0.00     0.064 A 
ATOM     91  C   UNL A   1      39.404  33.385  36.225  1.00  0.00     0.173 A 
ATOM     92  C   UNL A   1      38.195  31.406  36.863  1.00  0.00     0.173 A 
ATOM     93  F   UNL A   1      40.238  34.039  35.405  1.00  0.00    -0.203 F 
ATOM     94  C   UNL A   1      38.911  34.043  37.349  1.00  0.00     0.198 A 
ATOM     95  C   UNL A   1      37.682  32.078  37.970  1.00  0.00     0.198 A 
ATOM     96  F   UNL A   1      37.830  30.132  36.655  1.00  0.00    -0.203 F 
ATOM     97  F   UNL A   1      39.281  35.307  37.598  1.00  0.00    -0.200 F 
ATOM     98  C   UNL A   1      38.043  33.394  38.214  1.00  0.00     0.200 A 
ATOM     99  F   UNL A   1      36.831  31.452  38.796  1.00  0.00    -0.200 F 
ATOM    100  F   UNL A   1      37.555  34.035  39.284  1.00  0.00    -0.200 F 
ENDBRANCH  67  90
ENDBRANCH  41  42
ENDBRANCH  34  36
ENDBRANCH  33  34
ENDBRANCH  32  33
ENDBRANCH  31  32
ENDBRANCH  30  31
ENDBRANCH  29  30
ENDBRANCH  28  29
ENDBRANCH   1  28
TORSDOF 23
ENDMDL
MODEL 3
REMARK VINA RESULT:     -10.3      3.396      8.930
REMARK SMILES CCCc1cc2c(cc1Cl)C=C(C(=O)OCCOCCOCCOCCOC(=O)c1ccc(-c3c4nc(c(-c5c(F)c(F)c(F)c(F)c5F)c5ccc([nH]5)c(-c5c(F)c(F)c(F)c(F)c5F)c5nc(c(-c6c(F)c(F)c(F)c(F)c6F)c6ccc3[nH]6)C=C5)C=C4)cc1)[C@H](C(F)(F)F)O2
REMARK SMILES IDX 21 1 20 2 19 3 18 4 17 5 16 6 15 7 13 8 14 9 12 10 4 11 5 12
REMARK SMILES IDX 9 13 6 14 8 15 10 16 7 17 98 18 11 19 93 20 3 21 2 22 1 23
REMARK SMILES IDX 94 24 95 25 96 26 97 27 22 28 23 29 24 30 25 31 26 32 27 33
REMARK SMILES IDX 28 34 29 35 30 36 31 37 92 38 32 39 91 40 33 41 34 42 35 43
REMARK SMILES IDX 85 44 36 45 90 46 84 47 86 48 37 49 89 50 83 51 82 52 38 54
REMARK SMILES IDX 70 55 50 56 69 57 51 58 54 59 68 60 87 61 52 62 53 63 67 65
REMARK SMILES IDX 88 66 55 67 39 68 40 69 48 70 41 71 42 72 46 73 49 74 43 75
REMARK SMILES IDX 44 76 47 77 45 78 71 79 72 80 80 81 73 82 74 83 78 84 81 85
REMARK SMILES IDX 75 86 76 87 79 88 77 89 56 90 57 91 65 92 58 93 59 94 63 95
REMARK SMILES IDX 66 96 60 97 61 98 64 99 62 100
REMARK H PARENT 86 53 54 64
REMARK Flexibility Score: inf
ROOT
ATOM      1  O   UNL A   1      30.752  26.179  26.872  1.00  0.00    -0.377 OA
ENDROOT
BRANCH   1   2
ATOM      2  C   UNL A   1      29.761  25.572  26.069  1.00  0.00     0.188 C 
BRANCH   2   3
ATOM      3  C   UNL A   1      29.866  25.899  24.568  1.00  0.00     0.188 C 
BRANCH   3   4
ATOM      4  O   UNL A   1      29.728  27.226  24.072  1.00  0.00    -0.376 OA
BRANCH   4   5
ATOM      5  C   UNL A   1      30.493  27.696  22.972  1.00  0.00     0.202 C 
BRANCH   5   6
ATOM      6  C   UNL A   1      31.893  27.119  22.719  1.00  0.00     0.261 C 
BRANCH   6   7
ATOM      7  O   UNL A   1      32.040  25.734  23.073  1.00  0.00    -0.460 OA
BRANCH   7   8
ATOM      8  C   UNL A   1      33.028  25.081  22.430  1.00  0.00     0.338 C 
ATOM      9  O   UNL A   1      33.696  25.506  21.500  1.00  0.00    -0.246 OA
BRANCH   8  10
ATOM     10  C   UNL A   1      33.312  23.793  23.082  1.00  0.00     0.087 C 
ATOM     11  C   UNL A   1      32.567  19.093  24.677  1.00  0.00    -0.026 A 
ATOM     12  C   UNL A   1      32.934  20.308  25.286  1.00  0.00     0.052 A 
ATOM     13  C   UNL A   1      32.401  19.075  23.282  1.00  0.00     0.045 A 
ATOM     14  C   UNL A   1      33.114  21.467  24.535  1.00  0.00     0.128 A 
ATOM     15  C   UNL A   1      32.544  20.249  22.531  1.00  0.00     0.032 A 
ATOM     16  Cl  UNL A   1      31.956  17.646  22.418  1.00  0.00    -0.084 Cl
ATOM     17  C   UNL A   1      32.877  21.449  23.162  1.00  0.00     0.019 A 
ATOM     18  O   UNL A   1      33.426  22.608  25.227  1.00  0.00    -0.475 OA
ATOM     19  C   UNL A   1      32.827  22.713  22.451  1.00  0.00     0.027 C 
ATOM     20  C   UNL A   1      33.960  23.715  24.438  1.00  0.00     0.316 C 
BRANCH  11  21
ATOM     21  C   UNL A   1      32.283  17.900  25.564  1.00  0.00     0.037 C 
BRANCH  21  22
ATOM     22  C   UNL A   1      33.370  16.819  25.602  1.00  0.00     0.001 C 
ATOM     23  C   UNL A   1      32.876  15.419  25.263  1.00  0.00     0.004 C 
ENDBRANCH  21  22
ENDBRANCH  11  21
BRANCH  20  24
ATOM     24  C   UNL A   1      35.501  23.648  24.441  1.00  0.00     0.430 C 
ATOM     25  F   UNL A   1      36.029  24.677  25.155  1.00  0.00    -0.167 F 
ATOM     26  F   UNL A   1      35.976  22.509  24.994  1.00  0.00    -0.167 F 
ATOM     27  F   UNL A   1      36.016  23.755  23.197  1.00  0.00    -0.167 F 
ENDBRANCH  20  24
ENDBRANCH   8  10
ENDBRANCH   7   8
ENDBRANCH   6   7
ENDBRANCH   5   6
ENDBRANCH   4   5
ENDBRANCH   3   4
ENDBRANCH   2   3
ENDBRANCH   1   2
BRANCH   1  28
ATOM     28  C   UNL A   1      32.060  26.212  26.318  1.00  0.00     0.188 C 
BRANCH  28  29
ATOM     29  C   UNL A   1      32.860  27.504  26.549  1.00  0.00     0.188 C 
BRANCH  29  30
ATOM     30  O   UNL A   1      32.072  28.516  27.176  1.00  0.00    -0.376 OA
BRANCH  30  31
ATOM     31  C   UNL A   1      31.408  29.435  26.313  1.00  0.00     0.202 C 
BRANCH  31  32
ATOM     32  C   UNL A   1      31.802  30.909  26.482  1.00  0.00     0.261 C 
BRANCH  32  33
ATOM     33  O   UNL A   1      33.211  31.201  26.536  1.00  0.00    -0.460 OA
BRANCH  33  34
ATOM     34  C   UNL A   1      33.666  32.113  27.420  1.00  0.00     0.338 C 
ATOM     35  O   UNL A   1      33.070  33.081  27.857  1.00  0.00    -0.246 OA
BRANCH  34  36
ATOM     36  C   UNL A   1      34.964  31.621  27.936  1.00  0.00     0.060 A 
ATOM     37  C   UNL A   1      36.043  32.494  28.098  1.00  0.00     0.016 A 
ATOM     38  C   UNL A   1      35.107  30.261  28.243  1.00  0.00     0.016 A 
ATOM     39  C   UNL A   1      37.252  32.014  28.604  1.00  0.00     0.010 A 
ATOM     40  C   UNL A   1      36.321  29.779  28.745  1.00  0.00     0.010 A 
ATOM     41  C   UNL A   1      37.392  30.659  28.958  1.00  0.00    -0.014 A 
BRANCH  41  42
ATOM     42  C   UNL A   1      38.579  30.233  29.740  1.00  0.00     0.031 A 
ATOM     43  C   UNL A   1      38.837  30.709  31.136  1.00  0.00     0.074 A 
ATOM     44  C   UNL A   1      39.431  29.372  29.153  1.00  0.00     0.049 A 
ATOM     45  N   UNL A   1      39.773  30.328  31.971  1.00  0.00    -0.248 NA
ATOM     46  C   UNL A   1      37.945  31.749  31.664  1.00  0.00     0.031 C 
ATOM     47  C   UNL A   1      39.294  28.868  27.785  1.00  0.00     0.029 A 
ATOM     48  N   UNL A   1      40.563  28.758  29.624  1.00  0.00    -0.354 N 
ATOM     49  C   UNL A   1      39.568  31.057  33.133  1.00  0.00     0.074 A 
ATOM     50  C   UNL A   1      38.449  31.943  32.878  1.00  0.00     0.031 C 
ATOM     51  C   UNL A   1      40.281  27.995  27.540  1.00  0.00     0.029 A 
ATOM     52  C   UNL A   1      41.132  27.894  28.722  1.00  0.00     0.049 A 
ATOM     53  H   UNL A   1      40.932  28.921  30.522  1.00  0.00     0.167 HD
ATOM     54  C   UNL A   1      40.243  30.974  34.306  1.00  0.00     0.037 A 
ATOM     55  C   UNL A   1      42.212  27.097  28.834  1.00  0.00     0.037 A 
ATOM     56  C   UNL A   1      41.367  30.101  34.544  1.00  0.00     0.049 A 
ATOM     57  C   UNL A   1      42.964  27.058  30.133  1.00  0.00     0.074 A 
ATOM     58  C   UNL A   1      42.089  29.923  35.712  1.00  0.00     0.029 A 
ATOM     59  N   UNL A   1      41.943  29.270  33.593  1.00  0.00    -0.354 N 
ATOM     60  N   UNL A   1      42.711  27.690  31.252  1.00  0.00    -0.248 NA
ATOM     61  C   UNL A   1      44.147  26.188  30.187  1.00  0.00     0.031 C 
ATOM     62  C   UNL A   1      43.131  29.028  35.455  1.00  0.00     0.029 A 
ATOM     63  C   UNL A   1      43.029  28.602  34.141  1.00  0.00     0.049 A 
ATOM     64  H   UNL A   1      41.629  29.169  32.665  1.00  0.00     0.167 HD
ATOM     65  C   UNL A   1      43.686  27.280  32.150  1.00  0.00     0.074 A 
ATOM     66  C   UNL A   1      44.527  26.332  31.450  1.00  0.00     0.031 C 
ATOM     67  C   UNL A   1      43.863  27.659  33.439  1.00  0.00     0.037 A 
BRANCH  54  68
ATOM     68  C   UNL A   1      39.783  31.835  35.447  1.00  0.00     0.064 A 
ATOM     69  C   UNL A   1      40.279  33.135  35.623  1.00  0.00     0.173 A 
ATOM     70  C   UNL A   1      38.762  31.401  36.307  1.00  0.00     0.173 A 
ATOM     71  F   UNL A   1      41.254  33.599  34.827  1.00  0.00    -0.203 F 
ATOM     72  C   UNL A   1      39.779  33.964  36.624  1.00  0.00     0.198 A 
ATOM     73  C   UNL A   1      38.247  32.243  37.291  1.00  0.00     0.198 A 
ATOM     74  F   UNL A   1      38.241  30.172  36.174  1.00  0.00    -0.203 F 
ATOM     75  F   UNL A   1      40.285  35.195  36.788  1.00  0.00    -0.200 F 
ATOM     76  C   UNL A   1      38.758  33.522  37.450  1.00  0.00     0.200 A 
ATOM     77  F   UNL A   1      37.246  31.820  38.077  1.00  0.00    -0.200 F 
ATOM     78  F   UNL A   1      38.264  34.329  38.401  1.00  0.00    -0.200 F 
ENDBRANCH  54  68
BRANCH  55  79
ATOM     79  C   UNL A   1      42.602  26.236  27.689  1.00  0.00     0.064 A 
ATOM     80  C   UNL A   1      43.576  26.658  26.773  1.00  0.00     0.173 A 
ATOM     81  C   UNL A   1      42.045  24.962  27.512  1.00  0.00     0.173 A 
ATOM     82  F   UNL A   1      44.126  27.875  26.895  1.00  0.00    -0.203 F 
ATOM     83  C   UNL A   1      43.972  25.839  25.719  1.00  0.00     0.198 A 
ATOM     84  C   UNL A   1      42.460  24.133  26.474  1.00  0.00     0.198 A 
ATOM     85  F   UNL A   1      41.115  24.511  28.368  1.00  0.00    -0.203 F 
ATOM     86  F   UNL A   1      44.884  26.276  24.841  1.00  0.00    -0.200 F 
ATOM     87  C   UNL A   1      43.421  24.574  25.575  1.00  0.00     0.200 A 
ATOM     88  F   UNL A   1      41.940  22.905  26.349  1.00  0.00    -0.200 F 
ATOM     89  F   UNL A   1      43.814  23.781  24.569  1.00  0.00    -0.200 F 
ENDBRANCH  55  79
BRANCH  67  90
ATOM     90  C   UNL A   1      45.005  27.042  34.194  1.00  0.00     0.064 A 
ATOM     91  C   UNL A   1      44.862  25.823  34.872  1.00  0.00     0.173 A 
ATOM     92  C   UNL A   1      46.274  27.641  34.180  1.00  0.00     0.173 A 
ATOM     93  F   UNL A   1      43.667  25.218  34.928  1.00  0.00    -0.203 F 
ATOM     94  C   UNL A   1      45.945  25.232  35.517  1.00  0.00     0.198 A 
ATOM     95  C   UNL A   1      47.361  27.032  34.802  1.00  0.00     0.198 A 
ATOM     96  F   UNL A   1      46.466  28.805  33.542  1.00  0.00    -0.203 F 
ATOM     97  F   UNL A   1      45.778  24.083  36.187  1.00  0.00    -0.200 F 
ATOM     98  C   UNL A   1      47.195  25.831  35.473  1.00  0.00     0.200 A 
ATOM     99  F   UNL A   1      48.572  27.606  34.746  1.00  0.00    -0.200 F 
ATOM    100  F   UNL A   1      48.240  25.251  36.079  1.00  0.00    -0.200 F 
ENDBRANCH  67  90
ENDBRANCH  41  42
ENDBRANCH  34  36
ENDBRANCH  33  34
ENDBRANCH  32  33
ENDBRANCH  31  32
ENDBRANCH  30  31
ENDBRANCH  29  30
ENDBRANCH  28  29
ENDBRANCH   1  28
TORSDOF 23
ENDMDL
