MODEL 1
REMARK VINA RESULT:      -7.5      0.000      0.000
REMARK SMILES CCOc1cc([C@@H]2[NH2+][C@H](C(=O)OCCOCCOCCOCCOC(=O)c3ccc(-c4c5nc(c(-c6c(F)c(F)c(F)c(F)c6F)c6ccc([nH]6)c(-c6c(F)c(F)c(F)c(F)c6F)c6nc(c(-c7c(F)c(F)c(F)c(F)c7F)c7ccc4[nH]7)C=C6)C=C5)cc3)CS2)ccc1OCc1ccc(Cl)cc1
REMARK SMILES IDX 17 1 16 2 15 3 14 4 13 5 12 6 10 7 11 8 9 9 7 10 8 11 91 12
REMARK SMILES IDX 90 15 6 16 4 17 5 18 94 19 93 20 92 21 3 22 2 23 1 24 95 25
REMARK SMILES IDX 96 26 97 27 98 28 103 29 99 30 102 31 100 32 101 33 18 34
REMARK SMILES IDX 19 35 20 36 21 37 22 38 23 39 24 40 25 41 26 42 27 43 28 44
REMARK SMILES IDX 89 45 29 46 88 47 30 48 31 49 32 50 82 51 33 52 87 53 81 54
REMARK SMILES IDX 83 55 34 56 86 57 80 58 79 59 35 61 67 62 47 63 66 64 48 65
REMARK SMILES IDX 51 66 65 67 84 68 49 69 50 70 64 72 85 73 52 74 36 75 37 76
REMARK SMILES IDX 45 77 38 78 39 79 43 80 46 81 40 82 41 83 44 84 42 85 68 86
REMARK SMILES IDX 69 87 77 88 70 89 71 90 75 91 78 92 72 93 73 94 76 95 74 96
REMARK SMILES IDX 53 97 54 98 62 99 55 100 56 101 60 102 63 103 57 104 58 105
REMARK SMILES IDX 61 106 59 107
REMARK H PARENT 8 13 8 14 83 60 51 71
REMARK Flexibility Score: inf
ROOT
ATOM      1  C   UNL A   1      43.321  28.530  30.184  1.00  0.00     0.188 C 
ENDROOT
BRANCH   1   2
ATOM      2  C   UNL A   1      43.727  29.356  31.405  1.00  0.00     0.188 C 
BRANCH   2   3
ATOM      3  O   UNL A   1      42.997  30.547  31.691  1.00  0.00    -0.376 OA
BRANCH   3   4
ATOM      4  C   UNL A   1      41.640  30.488  32.114  1.00  0.00     0.202 C 
BRANCH   4   5
ATOM      5  C   UNL A   1      40.570  31.329  31.410  1.00  0.00     0.261 C 
BRANCH   5   6
ATOM      6  O   UNL A   1      40.216  32.523  32.126  1.00  0.00    -0.459 OA
BRANCH   6   7
ATOM      7  C   UNL A   1      39.518  33.449  31.426  1.00  0.00     0.365 C 
ATOM      8  O   UNL A   1      39.486  33.482  30.198  1.00  0.00    -0.245 OA
BRANCH   7   9
ATOM      9  C   UNL A   1      38.703  34.445  32.269  1.00  0.00     0.304 C 
ATOM     10  C   UNL A   1      36.357  34.007  32.685  1.00  0.00     0.274 C 
ATOM     11  N   UNL A   1      37.307  34.736  31.825  1.00  0.00    -0.319 N 
ATOM     12  S   UNL A   1      37.045  34.094  34.338  1.00  0.00    -0.087 SA
ATOM     13  H   UNL A   1      37.129  35.738  31.896  1.00  0.00     0.348 HD
ATOM     14  H   UNL A   1      37.188  34.438  30.856  1.00  0.00     0.348 HD
ATOM     15  C   UNL A   1      38.742  33.989  33.729  1.00  0.00     0.153 C 
BRANCH  10  16
ATOM     16  C   UNL A   1      36.125  32.633  32.090  1.00  0.00     0.024 A 
ATOM     17  C   UNL A   1      35.894  31.461  29.976  1.00  0.00     0.161 A 
ATOM     18  C   UNL A   1      35.703  32.598  30.751  1.00  0.00     0.061 A 
ATOM     19  C   UNL A   1      36.450  30.323  30.555  1.00  0.00     0.161 A 
ATOM     20  C   UNL A   1      36.747  30.298  31.915  1.00  0.00     0.051 A 
ATOM     21  C   UNL A   1      36.554  31.439  32.687  1.00  0.00     0.015 A 
BRANCH  17  22
ATOM     22  O   UNL A   1      35.661  31.653  28.651  1.00  0.00    -0.490 OA
BRANCH  22  23
ATOM     23  C   UNL A   1      34.328  31.613  28.185  1.00  0.00     0.226 C 
ATOM     24  C   UNL A   1      33.770  33.005  27.936  1.00  0.00     0.049 C 
ENDBRANCH  22  23
ENDBRANCH  17  22
BRANCH  19  25
ATOM     25  O   UNL A   1      36.832  29.282  29.780  1.00  0.00    -0.485 OA
BRANCH  25  26
ATOM     26  C   UNL A   1      38.197  28.864  29.859  1.00  0.00     0.265 C 
BRANCH  26  27
ATOM     27  C   UNL A   1      39.000  28.336  28.681  1.00  0.00    -0.011 A 
ATOM     28  C   UNL A   1      39.633  29.144  27.720  1.00  0.00     0.009 A 
ATOM     29  C   UNL A   1      39.239  26.957  28.635  1.00  0.00     0.009 A 
ATOM     30  C   UNL A   1      40.487  28.607  26.759  1.00  0.00     0.021 A 
ATOM     31  C   UNL A   1      40.074  26.415  27.661  1.00  0.00     0.021 A 
ATOM     32  C   UNL A   1      40.716  27.242  26.743  1.00  0.00     0.041 A 
ATOM     33  Cl  UNL A   1      41.812  26.583  25.598  1.00  0.00    -0.084 Cl
ENDBRANCH  26  27
ENDBRANCH  25  26
ENDBRANCH  19  25
ENDBRANCH  10  16
ENDBRANCH   7   9
ENDBRANCH   6   7
ENDBRANCH   5   6
ENDBRANCH   4   5
ENDBRANCH   3   4
ENDBRANCH   2   3
ENDBRANCH   1   2
BRANCH   1  34
ATOM     34  O   UNL A   1      44.265  27.553  29.795  1.00  0.00    -0.377 OA
BRANCH  34  35
ATOM     35  C   UNL A   1      43.788  26.639  28.824  1.00  0.00     0.188 C 
BRANCH  35  36
ATOM     36  C   UNL A   1      42.963  25.518  29.422  1.00  0.00     0.188 C 
BRANCH  36  37
ATOM     37  O   UNL A   1      43.580  24.251  29.455  1.00  0.00    -0.376 OA
BRANCH  37  38
ATOM     38  C   UNL A   1      43.085  23.161  28.694  1.00  0.00     0.202 C 
BRANCH  38  39
ATOM     39  C   UNL A   1      42.482  23.199  27.264  1.00  0.00     0.261 C 
BRANCH  39  40
ATOM     40  O   UNL A   1      43.306  23.110  26.089  1.00  0.00    -0.460 OA
BRANCH  40  41
ATOM     41  C   UNL A   1      44.618  22.860  26.209  1.00  0.00     0.338 C 
ATOM     42  O   UNL A   1      45.150  21.756  26.278  1.00  0.00    -0.246 OA
BRANCH  41  43
ATOM     43  C   UNL A   1      45.358  24.153  26.143  1.00  0.00     0.060 A 
ATOM     44  C   UNL A   1      46.247  24.479  27.170  1.00  0.00     0.016 A 
ATOM     45  C   UNL A   1      45.189  25.056  25.081  1.00  0.00     0.016 A 
ATOM     46  C   UNL A   1      46.989  25.675  27.120  1.00  0.00     0.010 A 
ATOM     47  C   UNL A   1      45.927  26.262  25.038  1.00  0.00     0.010 A 
ATOM     48  C   UNL A   1      46.855  26.579  26.046  1.00  0.00    -0.014 A 
BRANCH  48  49
ATOM     49  C   UNL A   1      47.504  27.930  26.134  1.00  0.00     0.031 A 
ATOM     50  C   UNL A   1      48.974  27.992  25.829  1.00  0.00     0.074 A 
ATOM     51  C   UNL A   1      46.873  29.091  26.426  1.00  0.00     0.049 A 
ATOM     52  N   UNL A   1      49.777  29.025  25.788  1.00  0.00    -0.248 NA
ATOM     53  C   UNL A   1      49.626  26.702  25.555  1.00  0.00     0.031 C 
ATOM     54  C   UNL A   1      45.478  29.233  26.807  1.00  0.00     0.029 A 
ATOM     55  N   UNL A   1      47.331  30.395  26.443  1.00  0.00    -0.354 N 
ATOM     56  C   UNL A   1      51.024  28.511  25.474  1.00  0.00     0.074 A 
ATOM     57  C   UNL A   1      50.881  27.073  25.375  1.00  0.00     0.031 C 
ATOM     58  C   UNL A   1      45.170  30.533  26.967  1.00  0.00     0.029 A 
ATOM     59  C   UNL A   1      46.366  31.331  26.751  1.00  0.00     0.049 A 
ATOM     60  H   UNL A   1      48.267  30.635  26.252  1.00  0.00     0.167 HD
ATOM     61  C   UNL A   1      52.191  29.167  25.283  1.00  0.00     0.037 A 
ATOM     62  C   UNL A   1      46.430  32.672  26.879  1.00  0.00     0.037 A 
ATOM     63  C   UNL A   1      52.376  30.582  25.439  1.00  0.00     0.049 A 
ATOM     64  C   UNL A   1      47.754  33.367  26.749  1.00  0.00     0.074 A 
ATOM     65  C   UNL A   1      53.533  31.324  25.277  1.00  0.00     0.029 A 
ATOM     66  N   UNL A   1      51.383  31.471  25.824  1.00  0.00    -0.354 N 
ATOM     67  N   UNL A   1      48.926  32.863  26.461  1.00  0.00    -0.248 NA
ATOM     68  C   UNL A   1      47.764  34.817  26.999  1.00  0.00     0.031 C 
ATOM     69  C   UNL A   1      53.252  32.655  25.609  1.00  0.00     0.029 A 
ATOM     70  C   UNL A   1      51.906  32.752  25.917  1.00  0.00     0.049 A 
ATOM     71  H   UNL A   1      50.446  31.228  26.003  1.00  0.00     0.167 HD
ATOM     72  C   UNL A   1      49.812  33.928  26.494  1.00  0.00     0.074 A 
ATOM     73  C   UNL A   1      49.043  35.111  26.820  1.00  0.00     0.031 C 
ATOM     74  C   UNL A   1      51.145  33.922  26.265  1.00  0.00     0.037 A 
BRANCH  61  75
ATOM     75  C   UNL A   1      53.369  28.313  24.929  1.00  0.00     0.064 A 
ATOM     76  C   UNL A   1      54.199  27.765  25.920  1.00  0.00     0.173 A 
ATOM     77  C   UNL A   1      53.713  28.105  23.587  1.00  0.00     0.173 A 
ATOM     78  F   UNL A   1      53.925  27.970  27.218  1.00  0.00    -0.203 F 
ATOM     79  C   UNL A   1      55.361  27.082  25.578  1.00  0.00     0.198 A 
ATOM     80  C   UNL A   1      54.859  27.392  23.249  1.00  0.00     0.198 A 
ATOM     81  F   UNL A   1      52.956  28.618  22.606  1.00  0.00    -0.203 F 
ATOM     82  F   UNL A   1      56.184  26.642  26.539  1.00  0.00    -0.200 F 
ATOM     83  C   UNL A   1      55.689  26.894  24.243  1.00  0.00     0.200 A 
ATOM     84  F   UNL A   1      55.175  27.210  21.960  1.00  0.00    -0.200 F 
ATOM     85  F   UNL A   1      56.817  26.252  23.915  1.00  0.00    -0.200 F 
ENDBRANCH  61  75
BRANCH  62  86
ATOM     86  C   UNL A   1      45.240  33.489  27.244  1.00  0.00     0.064 A 
ATOM     87  C   UNL A   1      44.734  33.505  28.553  1.00  0.00     0.173 A 
ATOM     88  C   UNL A   1      44.497  34.136  26.250  1.00  0.00     0.173 A 
ATOM     89  F   UNL A   1      45.367  32.832  29.525  1.00  0.00    -0.203 F 
ATOM     90  C   UNL A   1      43.535  34.153  28.855  1.00  0.00     0.198 A 
ATOM     91  C   UNL A   1      43.292  34.769  26.552  1.00  0.00     0.198 A 
ATOM     92  F   UNL A   1      44.925  34.121  24.981  1.00  0.00    -0.203 F 
ATOM     93  F   UNL A   1      43.054  34.129  30.106  1.00  0.00    -0.200 F 
ATOM     94  C   UNL A   1      42.820  34.791  27.854  1.00  0.00     0.200 A 
ATOM     95  F   UNL A   1      42.587  35.366  25.582  1.00  0.00    -0.200 F 
ATOM     96  F   UNL A   1      41.670  35.417  28.140  1.00  0.00    -0.200 F 
ENDBRANCH  62  86
BRANCH  74  97
ATOM     97  C   UNL A   1      51.845  35.247  26.305  1.00  0.00     0.064 A 
ATOM     98  C   UNL A   1      52.018  36.035  25.158  1.00  0.00     0.173 A 
ATOM     99  C   UNL A   1      52.362  35.723  27.518  1.00  0.00     0.173 A 
ATOM    100  F   UNL A   1      51.569  35.606  23.969  1.00  0.00    -0.203 F 
ATOM    101  C   UNL A   1      52.709  37.243  25.221  1.00  0.00     0.198 A 
ATOM    102  C   UNL A   1      53.025  36.945  27.584  1.00  0.00     0.198 A 
ATOM    103  F   UNL A   1      52.229  35.001  28.641  1.00  0.00    -0.203 F 
ATOM    104  F   UNL A   1      52.916  37.954  24.104  1.00  0.00    -0.200 F 
ATOM    105  C   UNL A   1      53.206  37.698  26.433  1.00  0.00     0.200 A 
ATOM    106  F   UNL A   1      53.501  37.385  28.757  1.00  0.00    -0.200 F 
ATOM    107  F   UNL A   1      53.874  38.859  26.493  1.00  0.00    -0.200 F 
ENDBRANCH  74  97
ENDBRANCH  48  49
ENDBRANCH  41  43
ENDBRANCH  40  41
ENDBRANCH  39  40
ENDBRANCH  38  39
ENDBRANCH  37  38
ENDBRANCH  36  37
ENDBRANCH  35  36
ENDBRANCH  34  35
ENDBRANCH   1  34
TORSDOF 26
ENDMDL
MODEL 2
REMARK VINA RESULT:      -7.4      6.294      9.696
REMARK SMILES CCOc1cc([C@@H]2[NH2+][C@H](C(=O)OCCOCCOCCOCCOC(=O)c3ccc(-c4c5nc(c(-c6c(F)c(F)c(F)c(F)c6F)c6ccc([nH]6)c(-c6c(F)c(F)c(F)c(F)c6F)c6nc(c(-c7c(F)c(F)c(F)c(F)c7F)c7ccc4[nH]7)C=C6)C=C5)cc3)CS2)ccc1OCc1ccc(Cl)cc1
REMARK SMILES IDX 17 1 16 2 15 3 14 4 13 5 12 6 10 7 11 8 9 9 7 10 8 11 91 12
REMARK SMILES IDX 90 15 6 16 4 17 5 18 94 19 93 20 92 21 3 22 2 23 1 24 95 25
REMARK SMILES IDX 96 26 97 27 98 28 103 29 99 30 102 31 100 32 101 33 18 34
REMARK SMILES IDX 19 35 20 36 21 37 22 38 23 39 24 40 25 41 26 42 27 43 28 44
REMARK SMILES IDX 89 45 29 46 88 47 30 48 31 49 32 50 82 51 33 52 87 53 81 54
REMARK SMILES IDX 83 55 34 56 86 57 80 58 79 59 35 61 67 62 47 63 66 64 48 65
REMARK SMILES IDX 51 66 65 67 84 68 49 69 50 70 64 72 85 73 52 74 36 75 37 76
REMARK SMILES IDX 45 77 38 78 39 79 43 80 46 81 40 82 41 83 44 84 42 85 68 86
REMARK SMILES IDX 69 87 77 88 70 89 71 90 75 91 78 92 72 93 73 94 76 95 74 96
REMARK SMILES IDX 53 97 54 98 62 99 55 100 56 101 60 102 63 103 57 104 58 105
REMARK SMILES IDX 61 106 59 107
REMARK H PARENT 8 13 8 14 83 60 51 71
REMARK Flexibility Score: inf
ROOT
ATOM      1  C   UNL A   1      43.879  25.545  38.560  1.00  0.00     0.188 C 
ENDROOT
BRANCH   1   2
ATOM      2  C   UNL A   1      42.997  25.642  37.315  1.00  0.00     0.188 C 
BRANCH   2   3
ATOM      3  O   UNL A   1      42.053  26.708  37.234  1.00  0.00    -0.376 OA
BRANCH   3   4
ATOM      4  C   UNL A   1      42.370  27.912  36.546  1.00  0.00     0.202 C 
BRANCH   4   5
ATOM      5  C   UNL A   1      41.516  28.378  35.362  1.00  0.00     0.261 C 
BRANCH   5   6
ATOM      6  O   UNL A   1      40.882  29.649  35.578  1.00  0.00    -0.459 OA
BRANCH   6   7
ATOM      7  C   UNL A   1      40.485  30.309  34.463  1.00  0.00     0.365 C 
ATOM      8  O   UNL A   1      41.233  31.024  33.801  1.00  0.00    -0.245 OA
BRANCH   7   9
ATOM      9  C   UNL A   1      39.029  30.065  34.030  1.00  0.00     0.304 C 
ATOM     10  C   UNL A   1      37.530  31.953  33.788  1.00  0.00     0.274 C 
ATOM     11  N   UNL A   1      37.970  30.880  34.698  1.00  0.00    -0.319 N 
ATOM     12  S   UNL A   1      37.509  31.215  32.154  1.00  0.00    -0.087 SA
ATOM     13  H   UNL A   1      37.176  30.282  34.927  1.00  0.00     0.348 HD
ATOM     14  H   UNL A   1      38.344  31.290  35.553  1.00  0.00     0.348 HD
ATOM     15  C   UNL A   1      38.951  30.187  32.506  1.00  0.00     0.153 C 
BRANCH  10  16
ATOM     16  C   UNL A   1      38.418  33.162  34.003  1.00  0.00     0.024 A 
ATOM     17  C   UNL A   1      39.710  34.327  35.697  1.00  0.00     0.161 A 
ATOM     18  C   UNL A   1      38.606  33.565  35.335  1.00  0.00     0.061 A 
ATOM     19  C   UNL A   1      40.602  34.749  34.714  1.00  0.00     0.161 A 
ATOM     20  C   UNL A   1      40.355  34.472  33.372  1.00  0.00     0.051 A 
ATOM     21  C   UNL A   1      39.249  33.709  33.015  1.00  0.00     0.015 A 
BRANCH  17  22
ATOM     22  O   UNL A   1      39.887  34.435  37.039  1.00  0.00    -0.490 OA
BRANCH  22  23
ATOM     23  C   UNL A   1      39.673  35.691  37.652  1.00  0.00     0.226 C 
ATOM     24  C   UNL A   1      39.342  35.553  39.129  1.00  0.00     0.049 C 
ENDBRANCH  22  23
ENDBRANCH  17  22
BRANCH  19  25
ATOM     25  O   UNL A   1      41.783  35.312  35.062  1.00  0.00    -0.485 OA
BRANCH  25  26
ATOM     26  C   UNL A   1      41.989  36.683  34.717  1.00  0.00     0.265 C 
BRANCH  26  27
ATOM     27  C   UNL A   1      42.981  37.163  33.670  1.00  0.00    -0.011 A 
ATOM     28  C   UNL A   1      43.692  38.374  33.739  1.00  0.00     0.009 A 
ATOM     29  C   UNL A   1      43.309  36.271  32.641  1.00  0.00     0.009 A 
ATOM     30  C   UNL A   1      44.703  38.682  32.833  1.00  0.00     0.021 A 
ATOM     31  C   UNL A   1      44.304  36.588  31.719  1.00  0.00     0.021 A 
ATOM     32  C   UNL A   1      45.017  37.779  31.833  1.00  0.00     0.041 A 
ATOM     33  Cl  UNL A   1      46.301  38.129  30.749  1.00  0.00    -0.084 Cl
ENDBRANCH  26  27
ENDBRANCH  25  26
ENDBRANCH  19  25
ENDBRANCH  10  16
ENDBRANCH   7   9
ENDBRANCH   6   7
ENDBRANCH   5   6
ENDBRANCH   4   5
ENDBRANCH   3   4
ENDBRANCH   2   3
ENDBRANCH   1   2
BRANCH   1  34
ATOM     34  O   UNL A   1      45.224  25.198  38.303  1.00  0.00    -0.377 OA
BRANCH  34  35
ATOM     35  C   UNL A   1      45.917  24.684  39.426  1.00  0.00     0.188 C 
BRANCH  35  36
ATOM     36  C   UNL A   1      45.628  23.218  39.679  1.00  0.00     0.188 C 
BRANCH  36  37
ATOM     37  O   UNL A   1      46.700  22.332  39.451  1.00  0.00    -0.376 OA
BRANCH  37  38
ATOM     38  C   UNL A   1      46.488  20.947  39.232  1.00  0.00     0.202 C 
BRANCH  38  39
ATOM     39  C   UNL A   1      46.700  20.151  37.916  1.00  0.00     0.261 C 
BRANCH  39  40
ATOM     40  O   UNL A   1      45.666  20.037  36.923  1.00  0.00    -0.460 OA
BRANCH  40  41
ATOM     41  C   UNL A   1      45.978  20.102  35.621  1.00  0.00     0.338 C 
ATOM     42  O   UNL A   1      46.264  19.159  34.889  1.00  0.00    -0.246 OA
BRANCH  41  43
ATOM     43  C   UNL A   1      45.822  21.512  35.163  1.00  0.00     0.060 A 
ATOM     44  C   UNL A   1      44.539  22.055  35.064  1.00  0.00     0.016 A 
ATOM     45  C   UNL A   1      46.925  22.314  34.827  1.00  0.00     0.016 A 
ATOM     46  C   UNL A   1      44.358  23.395  34.670  1.00  0.00     0.010 A 
ATOM     47  C   UNL A   1      46.741  23.656  34.421  1.00  0.00     0.010 A 
ATOM     48  C   UNL A   1      45.456  24.224  34.358  1.00  0.00    -0.014 A 
BRANCH  48  49
ATOM     49  C   UNL A   1      45.210  25.573  33.747  1.00  0.00     0.031 A 
ATOM     50  C   UNL A   1      44.713  25.589  32.329  1.00  0.00     0.074 A 
ATOM     51  C   UNL A   1      45.362  26.763  34.374  1.00  0.00     0.049 A 
ATOM     52  N   UNL A   1      44.379  26.603  31.571  1.00  0.00    -0.248 NA
ATOM     53  C   UNL A   1      44.600  24.277  31.675  1.00  0.00     0.031 C 
ATOM     54  C   UNL A   1      45.885  26.961  35.715  1.00  0.00     0.029 A 
ATOM     55  N   UNL A   1      45.079  28.050  33.960  1.00  0.00    -0.354 N 
ATOM     56  C   UNL A   1      44.009  26.051  30.357  1.00  0.00     0.074 A 
ATOM     57  C   UNL A   1      44.195  24.619  30.464  1.00  0.00     0.031 C 
ATOM     58  C   UNL A   1      45.842  28.265  36.043  1.00  0.00     0.029 A 
ATOM     59  C   UNL A   1      45.331  29.019  34.909  1.00  0.00     0.049 A 
ATOM     60  H   UNL A   1      44.729  28.258  33.064  1.00  0.00     0.167 HD
ATOM     61  C   UNL A   1      43.552  26.670  29.244  1.00  0.00     0.037 A 
ATOM     62  C   UNL A   1      45.201  30.361  34.873  1.00  0.00     0.037 A 
ATOM     63  C   UNL A   1      43.420  28.091  29.087  1.00  0.00     0.049 A 
ATOM     64  C   UNL A   1      44.776  31.031  33.599  1.00  0.00     0.074 A 
ATOM     65  C   UNL A   1      42.978  28.800  27.984  1.00  0.00     0.029 A 
ATOM     66  N   UNL A   1      43.759  29.027  30.053  1.00  0.00    -0.354 N 
ATOM     67  N   UNL A   1      44.439  30.492  32.456  1.00  0.00    -0.248 NA
ATOM     68  C   UNL A   1      44.752  32.503  33.605  1.00  0.00     0.031 C 
ATOM     69  C   UNL A   1      43.093  30.166  28.265  1.00  0.00     0.029 A 
ATOM     70  C   UNL A   1      43.547  30.307  29.564  1.00  0.00     0.049 A 
ATOM     71  H   UNL A   1      44.098  28.813  30.953  1.00  0.00     0.167 HD
ATOM     72  C   UNL A   1      44.161  31.553  31.608  1.00  0.00     0.074 A 
ATOM     73  C   UNL A   1      44.359  32.768  32.368  1.00  0.00     0.031 C 
ATOM     74  C   UNL A   1      43.768  31.516  30.313  1.00  0.00     0.037 A 
BRANCH  61  75
ATOM     75  C   UNL A   1      43.213  25.775  28.093  1.00  0.00     0.064 A 
ATOM     76  C   UNL A   1      41.927  25.232  27.944  1.00  0.00     0.173 A 
ATOM     77  C   UNL A   1      44.203  25.397  27.176  1.00  0.00     0.173 A 
ATOM     78  F   UNL A   1      40.959  25.539  28.821  1.00  0.00    -0.203 F 
ATOM     79  C   UNL A   1      41.659  24.301  26.945  1.00  0.00     0.198 A 
ATOM     80  C   UNL A   1      43.921  24.491  26.159  1.00  0.00     0.198 A 
ATOM     81  F   UNL A   1      45.448  25.883  27.285  1.00  0.00    -0.203 F 
ATOM     82  F   UNL A   1      40.449  23.729  26.873  1.00  0.00    -0.200 F 
ATOM     83  C   UNL A   1      42.654  23.934  26.053  1.00  0.00     0.200 A 
ATOM     84  F   UNL A   1      44.883  24.137  25.296  1.00  0.00    -0.200 F 
ATOM     85  F   UNL A   1      42.400  23.024  25.103  1.00  0.00    -0.200 F 
ENDBRANCH  61  75
BRANCH  62  86
ATOM     86  C   UNL A   1      45.559  31.222  36.034  1.00  0.00     0.064 A 
ATOM     87  C   UNL A   1      44.595  31.636  36.966  1.00  0.00     0.173 A 
ATOM     88  C   UNL A   1      46.842  31.774  36.134  1.00  0.00     0.173 A 
ATOM     89  F   UNL A   1      43.332  31.197  36.864  1.00  0.00    -0.203 F 
ATOM     90  C   UNL A   1      44.907  32.560  37.965  1.00  0.00     0.198 A 
ATOM     91  C   UNL A   1      47.146  32.708  37.123  1.00  0.00     0.198 A 
ATOM     92  F   UNL A   1      47.786  31.431  35.247  1.00  0.00    -0.203 F 
ATOM     93  F   UNL A   1      43.963  32.966  38.824  1.00  0.00    -0.200 F 
ATOM     94  C   UNL A   1      46.186  33.089  38.045  1.00  0.00     0.200 A 
ATOM     95  F   UNL A   1      48.374  33.239  37.188  1.00  0.00    -0.200 F 
ATOM     96  F   UNL A   1      46.490  33.974  39.004  1.00  0.00    -0.200 F 
ENDBRANCH  62  86
BRANCH  74  97
ATOM     97  C   UNL A   1      43.474  32.830  29.657  1.00  0.00     0.064 A 
ATOM     98  C   UNL A   1      44.423  33.504  28.877  1.00  0.00     0.173 A 
ATOM     99  C   UNL A   1      42.216  33.426  29.829  1.00  0.00     0.173 A 
ATOM    100  F   UNL A   1      45.650  32.990  28.710  1.00  0.00    -0.203 F 
ATOM    101  C   UNL A   1      44.131  34.744  28.313  1.00  0.00     0.198 A 
ATOM    102  C   UNL A   1      41.917  34.650  29.240  1.00  0.00     0.198 A 
ATOM    103  F   UNL A   1      41.277  32.823  30.573  1.00  0.00    -0.203 F 
ATOM    104  F   UNL A   1      45.072  35.402  27.620  1.00  0.00    -0.200 F 
ATOM    105  C   UNL A   1      42.878  35.313  28.490  1.00  0.00     0.200 A 
ATOM    106  F   UNL A   1      40.705  35.195  29.408  1.00  0.00    -0.200 F 
ATOM    107  F   UNL A   1      42.600  36.508  27.951  1.00  0.00    -0.200 F 
ENDBRANCH  74  97
ENDBRANCH  48  49
ENDBRANCH  41  43
ENDBRANCH  40  41
ENDBRANCH  39  40
ENDBRANCH  38  39
ENDBRANCH  37  38
ENDBRANCH  36  37
ENDBRANCH  35  36
ENDBRANCH  34  35
ENDBRANCH   1  34
TORSDOF 26
ENDMDL
MODEL 3
REMARK VINA RESULT:      -7.2      6.230      9.637
REMARK SMILES CCOc1cc([C@@H]2[NH2+][C@H](C(=O)OCCOCCOCCOCCOC(=O)c3ccc(-c4c5nc(c(-c6c(F)c(F)c(F)c(F)c6F)c6ccc([nH]6)c(-c6c(F)c(F)c(F)c(F)c6F)c6nc(c(-c7c(F)c(F)c(F)c(F)c7F)c7ccc4[nH]7)C=C6)C=C5)cc3)CS2)ccc1OCc1ccc(Cl)cc1
REMARK SMILES IDX 17 1 16 2 15 3 14 4 13 5 12 6 10 7 11 8 9 9 7 10 8 11 91 12
REMARK SMILES IDX 90 15 6 16 4 17 5 18 94 19 93 20 92 21 3 22 2 23 1 24 95 25
REMARK SMILES IDX 96 26 97 27 98 28 103 29 99 30 102 31 100 32 101 33 18 34
REMARK SMILES IDX 19 35 20 36 21 37 22 38 23 39 24 40 25 41 26 42 27 43 28 44
REMARK SMILES IDX 89 45 29 46 88 47 30 48 31 49 32 50 82 51 33 52 87 53 81 54
REMARK SMILES IDX 83 55 34 56 86 57 80 58 79 59 35 61 67 62 47 63 66 64 48 65
REMARK SMILES IDX 51 66 65 67 84 68 49 69 50 70 64 72 85 73 52 74 36 75 37 76
REMARK SMILES IDX 45 77 38 78 39 79 43 80 46 81 40 82 41 83 44 84 42 85 68 86
REMARK SMILES IDX 69 87 77 88 70 89 71 90 75 91 78 92 72 93 73 94 76 95 74 96
REMARK SMILES IDX 53 97 54 98 62 99 55 100 56 101 60 102 63 103 57 104 58 105
REMARK SMILES IDX 61 106 59 107
REMARK H PARENT 8 13 8 14 83 60 51 71
REMARK Flexibility Score: inf
ROOT
ATOM      1  C   UNL A   1      44.102  25.781  38.598  1.00  0.00     0.188 C 
ENDROOT
BRANCH   1   2
ATOM      2  C   UNL A   1      43.399  26.186  37.302  1.00  0.00     0.188 C 
BRANCH   2   3
ATOM      3  O   UNL A   1      42.536  27.321  37.324  1.00  0.00    -0.376 OA
BRANCH   3   4
ATOM      4  C   UNL A   1      42.500  28.233  36.232  1.00  0.00     0.202 C 
BRANCH   4   5
ATOM      5  C   UNL A   1      41.173  28.569  35.545  1.00  0.00     0.261 C 
BRANCH   5   6
ATOM      6  O   UNL A   1      40.817  29.958  35.635  1.00  0.00    -0.459 OA
BRANCH   6   7
ATOM      7  C   UNL A   1      40.422  30.544  34.479  1.00  0.00     0.365 C 
ATOM      8  O   UNL A   1      40.864  31.621  34.085  1.00  0.00    -0.245 OA
BRANCH   7   9
ATOM      9  C   UNL A   1      39.410  29.745  33.640  1.00  0.00     0.304 C 
ATOM     10  C   UNL A   1      37.354  30.810  32.928  1.00  0.00     0.274 C 
ATOM     11  N   UNL A   1      37.962  29.936  33.949  1.00  0.00    -0.319 N 
ATOM     12  S   UNL A   1      38.112  30.331  31.376  1.00  0.00    -0.087 SA
ATOM     13  H   UNL A   1      37.491  29.032  33.945  1.00  0.00     0.348 HD
ATOM     14  H   UNL A   1      37.863  30.367  34.868  1.00  0.00     0.348 HD
ATOM     15  C   UNL A   1      39.705  29.996  32.159  1.00  0.00     0.153 C 
BRANCH  10  16
ATOM     16  C   UNL A   1      37.509  32.250  33.372  1.00  0.00     0.024 A 
ATOM     17  C   UNL A   1      37.812  33.638  35.342  1.00  0.00     0.161 A 
ATOM     18  C   UNL A   1      37.278  32.509  34.733  1.00  0.00     0.061 A 
ATOM     19  C   UNL A   1      38.529  34.554  34.575  1.00  0.00     0.161 A 
ATOM     20  C   UNL A   1      38.650  34.380  33.199  1.00  0.00     0.051 A 
ATOM     21  C   UNL A   1      38.113  33.248  32.595  1.00  0.00     0.015 A 
BRANCH  17  22
ATOM     22  O   UNL A   1      37.712  33.633  36.696  1.00  0.00    -0.490 OA
BRANCH  22  23
ATOM     23  C   UNL A   1      38.143  32.487  37.403  1.00  0.00     0.226 C 
ATOM     24  C   UNL A   1      37.425  32.338  38.735  1.00  0.00     0.049 C 
ENDBRANCH  22  23
ENDBRANCH  17  22
BRANCH  19  25
ATOM     25  O   UNL A   1      39.227  35.546  35.176  1.00  0.00    -0.485 OA
BRANCH  25  26
ATOM     26  C   UNL A   1      40.576  35.269  35.557  1.00  0.00     0.265 C 
BRANCH  26  27
ATOM     27  C   UNL A   1      41.111  35.404  36.973  1.00  0.00    -0.011 A 
ATOM     28  C   UNL A   1      40.952  34.438  37.983  1.00  0.00     0.009 A 
ATOM     29  C   UNL A   1      41.936  36.503  37.244  1.00  0.00     0.009 A 
ATOM     30  C   UNL A   1      41.602  34.547  39.210  1.00  0.00     0.021 A 
ATOM     31  C   UNL A   1      42.569  36.626  38.480  1.00  0.00     0.021 A 
ATOM     32  C   UNL A   1      42.422  35.636  39.448  1.00  0.00     0.041 A 
ATOM     33  Cl  UNL A   1      43.270  35.745  40.937  1.00  0.00    -0.084 Cl
ENDBRANCH  26  27
ENDBRANCH  25  26
ENDBRANCH  19  25
ENDBRANCH  10  16
ENDBRANCH   7   9
ENDBRANCH   6   7
ENDBRANCH   5   6
ENDBRANCH   4   5
ENDBRANCH   3   4
ENDBRANCH   2   3
ENDBRANCH   1   2
BRANCH   1  34
ATOM     34  O   UNL A   1      45.495  25.588  38.477  1.00  0.00    -0.377 OA
BRANCH  34  35
ATOM     35  C   UNL A   1      46.111  25.049  39.633  1.00  0.00     0.188 C 
BRANCH  35  36
ATOM     36  C   UNL A   1      45.864  23.563  39.795  1.00  0.00     0.188 C 
BRANCH  36  37
ATOM     37  O   UNL A   1      46.925  22.719  39.410  1.00  0.00    -0.376 OA
BRANCH  37  38
ATOM     38  C   UNL A   1      46.740  21.323  39.234  1.00  0.00     0.202 C 
BRANCH  38  39
ATOM     39  C   UNL A   1      46.804  20.518  37.909  1.00  0.00     0.261 C 
BRANCH  39  40
ATOM     40  O   UNL A   1      45.648  20.336  37.073  1.00  0.00    -0.460 OA
BRANCH  40  41
ATOM     41  C   UNL A   1      45.788  20.271  35.742  1.00  0.00     0.338 C 
ATOM     42  O   UNL A   1      45.890  19.251  35.066  1.00  0.00    -0.246 OA
BRANCH  41  43
ATOM     43  C   UNL A   1      45.698  21.650  35.184  1.00  0.00     0.060 A 
ATOM     44  C   UNL A   1      44.441  22.245  35.046  1.00  0.00     0.016 A 
ATOM     45  C   UNL A   1      46.836  22.373  34.791  1.00  0.00     0.016 A 
ATOM     46  C   UNL A   1      44.322  23.560  34.557  1.00  0.00     0.010 A 
ATOM     47  C   UNL A   1      46.714  23.690  34.289  1.00  0.00     0.010 A 
ATOM     48  C   UNL A   1      45.457  24.311  34.186  1.00  0.00    -0.014 A 
BRANCH  48  49
ATOM     49  C   UNL A   1      45.272  25.624  33.479  1.00  0.00     0.031 A 
ATOM     50  C   UNL A   1      44.767  25.561  32.065  1.00  0.00     0.074 A 
ATOM     51  C   UNL A   1      45.486  26.846  34.018  1.00  0.00     0.049 A 
ATOM     52  N   UNL A   1      44.478  26.533  31.238  1.00  0.00    -0.248 NA
ATOM     53  C   UNL A   1      44.586  24.213  31.509  1.00  0.00     0.031 C 
ATOM     54  C   UNL A   1      46.028  27.115  35.339  1.00  0.00     0.029 A 
ATOM     55  N   UNL A   1      45.264  28.113  33.513  1.00  0.00    -0.354 N 
ATOM     56  C   UNL A   1      44.073  25.914  30.068  1.00  0.00     0.074 A 
ATOM     57  C   UNL A   1      44.190  24.486  30.278  1.00  0.00     0.031 C 
ATOM     58  C   UNL A   1      46.050  28.440  35.572  1.00  0.00     0.029 A 
ATOM     59  C   UNL A   1      45.568  29.134  34.388  1.00  0.00     0.049 A 
ATOM     60  H   UNL A   1      44.918  28.273  32.605  1.00  0.00     0.167 HD
ATOM     61  C   UNL A   1      43.639  26.473  28.915  1.00  0.00     0.037 A 
ATOM     62  C   UNL A   1      45.504  30.475  34.256  1.00  0.00     0.037 A 
ATOM     63  C   UNL A   1      43.575  27.883  28.656  1.00  0.00     0.049 A 
ATOM     64  C   UNL A   1      45.103  31.071  32.938  1.00  0.00     0.074 A 
ATOM     65  C   UNL A   1      43.160  28.531  27.506  1.00  0.00     0.029 A 
ATOM     66  N   UNL A   1      43.965  28.868  29.550  1.00  0.00    -0.354 N 
ATOM     67  N   UNL A   1      44.732  30.469  31.838  1.00  0.00    -0.248 NA
ATOM     68  C   UNL A   1      45.150  32.539  32.837  1.00  0.00     0.031 C 
ATOM     69  C   UNL A   1      43.343  29.907  27.686  1.00  0.00     0.029 A 
ATOM     70  C   UNL A   1      43.813  30.119  28.970  1.00  0.00     0.049 A 
ATOM     71  H   UNL A   1      44.300  28.704  30.462  1.00  0.00     0.167 HD
ATOM     72  C   UNL A   1      44.500  31.477  30.916  1.00  0.00     0.074 A 
ATOM     73  C   UNL A   1      44.763  32.734  31.586  1.00  0.00     0.031 C 
ATOM     74  C   UNL A   1      44.097  31.366  29.629  1.00  0.00     0.037 A 
BRANCH  61  75
ATOM     75  C   UNL A   1      43.249  25.514  27.832  1.00  0.00     0.064 A 
ATOM     76  C   UNL A   1      41.964  24.951  27.783  1.00  0.00     0.173 A 
ATOM     77  C   UNL A   1      44.192  25.098  26.883  1.00  0.00     0.173 A 
ATOM     78  F   UNL A   1      41.041  25.295  28.696  1.00  0.00    -0.203 F 
ATOM     79  C   UNL A   1      41.653  23.966  26.851  1.00  0.00     0.198 A 
ATOM     80  C   UNL A   1      43.866  24.137  25.932  1.00  0.00     0.198 A 
ATOM     81  F   UNL A   1      45.434  25.602  26.898  1.00  0.00    -0.203 F 
ATOM     82  F   UNL A   1      40.449  23.379  26.877  1.00  0.00    -0.200 F 
ATOM     83  C   UNL A   1      42.603  23.562  25.926  1.00  0.00     0.200 A 
ATOM     84  F   UNL A   1      44.783  23.747  25.037  1.00  0.00    -0.200 F 
ATOM     85  F   UNL A   1      42.309  22.601  25.041  1.00  0.00    -0.200 F 
ENDBRANCH  61  75
BRANCH  62  86
ATOM     86  C   UNL A   1      45.911  31.399  35.350  1.00  0.00     0.064 A 
ATOM     87  C   UNL A   1      47.259  31.713  35.582  1.00  0.00     0.173 A 
ATOM     88  C   UNL A   1      44.967  31.849  36.281  1.00  0.00     0.173 A 
ATOM     89  F   UNL A   1      48.209  31.237  34.764  1.00  0.00    -0.203 F 
ATOM     90  C   UNL A   1      47.644  32.458  36.698  1.00  0.00     0.198 A 
ATOM     91  C   UNL A   1      45.357  32.580  37.402  1.00  0.00     0.198 A 
ATOM     92  F   UNL A   1      43.672  31.547  36.117  1.00  0.00    -0.203 F 
ATOM     93  F   UNL A   1      48.940  32.720  36.917  1.00  0.00    -0.200 F 
ATOM     94  C   UNL A   1      46.690  32.897  37.602  1.00  0.00     0.200 A 
ATOM     95  F   UNL A   1      44.439  32.985  38.290  1.00  0.00    -0.200 F 
ATOM     96  F   UNL A   1      47.055  33.616  38.673  1.00  0.00    -0.200 F 
ENDBRANCH  62  86
BRANCH  74  97
ATOM     97  C   UNL A   1      43.863  32.643  28.881  1.00  0.00     0.064 A 
ATOM     98  C   UNL A   1      44.764  33.122  27.920  1.00  0.00     0.173 A 
ATOM     99  C   UNL A   1      42.714  33.403  29.146  1.00  0.00     0.173 A 
ATOM    100  F   UNL A   1      45.892  32.446  27.655  1.00  0.00    -0.203 F 
ATOM    101  C   UNL A   1      44.537  34.332  27.270  1.00  0.00     0.198 A 
ATOM    102  C   UNL A   1      42.474  34.597  28.473  1.00  0.00     0.198 A 
ATOM    103  F   UNL A   1      41.826  32.989  30.062  1.00  0.00    -0.203 F 
ATOM    104  F   UNL A   1      45.439  34.804  26.399  1.00  0.00    -0.200 F 
ATOM    105  C   UNL A   1      43.391  35.065  27.543  1.00  0.00     0.200 A 
ATOM    106  F   UNL A   1      41.365  35.300  28.735  1.00  0.00    -0.200 F 
ATOM    107  F   UNL A   1      43.174  36.232  26.920  1.00  0.00    -0.200 F 
ENDBRANCH  74  97
ENDBRANCH  48  49
ENDBRANCH  41  43
ENDBRANCH  40  41
ENDBRANCH  39  40
ENDBRANCH  38  39
ENDBRANCH  37  38
ENDBRANCH  36  37
ENDBRANCH  35  36
ENDBRANCH  34  35
ENDBRANCH   1  34
TORSDOF 26
ENDMDL
