MODEL 1
REMARK VINA RESULT:      -9.1      0.000      0.000
REMARK SMILES O=C(CCCNc1ccccc1SC(F)F)OCCOCCOCCOCCOC(=O)c1ccc(-c2c3nc(c(-c4c(F)c(F)c(F)c(F)c4F)c4ccc([nH]4)c(-c4c(F)c(F)c(F)c(F)c4F)c4nc(c(-c5c(F)c(F)c(F)c(F)c5F)c5ccc2[nH]5)C=C4)C=C3)cc1
REMARK SMILES IDX 21 1 20 2 19 3 18 4 17 5 2 6 1 7 3 8 4 9 5 10 6 11 7 13 8 14
REMARK SMILES IDX 12 15 9 16 11 17 10 18 13 19 14 20 15 21 16 22 22 23 23 24
REMARK SMILES IDX 24 25 25 26 26 27 27 28 28 29 29 30 30 31 31 32 32 33 33 34
REMARK SMILES IDX 94 35 34 36 93 37 35 38 36 39 37 40 87 41 38 42 92 43 86 44
REMARK SMILES IDX 88 45 39 46 91 47 85 48 84 49 40 51 72 52 52 53 71 54 53 55
REMARK SMILES IDX 56 56 70 57 89 58 54 59 55 60 69 62 90 63 57 64 41 65 42 66
REMARK SMILES IDX 50 67 43 68 44 69 48 70 51 71 45 72 46 73 49 74 47 75 73 76
REMARK SMILES IDX 74 77 82 78 75 79 76 80 80 81 83 82 77 83 78 84 81 85 79 86
REMARK SMILES IDX 58 87 59 88 67 89 60 90 61 91 65 92 68 93 62 94 63 95 66 96
REMARK SMILES IDX 64 97
REMARK H PARENT 6 12 88 50 56 61
REMARK Flexibility Score: inf
ROOT
ATOM      1  C   UNL A   1      34.228  29.172  25.535  1.00  0.00     0.188 C 
ENDROOT
BRANCH   1   2
ATOM      2  O   UNL A   1      34.092  28.061  24.649  1.00  0.00    -0.376 OA
BRANCH   2   3
ATOM      3  C   UNL A   1      34.028  28.383  23.267  1.00  0.00     0.202 C 
BRANCH   3   4
ATOM      4  C   UNL A   1      32.652  28.181  22.659  1.00  0.00     0.261 C 
BRANCH   4   5
ATOM      5  O   UNL A   1      31.636  28.989  23.262  1.00  0.00    -0.463 OA
BRANCH   5   6
ATOM      6  C   UNL A   1      30.683  28.390  24.016  1.00  0.00     0.305 C 
ATOM      7  O   UNL A   1      30.635  28.593  25.228  1.00  0.00    -0.252 OA
BRANCH   6   8
ATOM      8  C   UNL A   1      29.835  27.306  23.374  1.00  0.00     0.124 C 
BRANCH   8   9
ATOM      9  C   UNL A   1      29.879  25.923  24.011  1.00  0.00     0.033 C 
BRANCH   9  10
ATOM     10  C   UNL A   1      30.946  25.653  25.074  1.00  0.00     0.113 C 
BRANCH  10  11
ATOM     11  N   UNL A   1      31.320  24.259  25.189  1.00  0.00    -0.384 N 
ATOM     12  H   UNL A   1      30.776  23.613  24.683  1.00  0.00     0.160 HD
BRANCH  11  13
ATOM     13  C   UNL A   1      32.370  23.735  25.940  1.00  0.00     0.048 A 
ATOM     14  C   UNL A   1      31.983  23.006  27.092  1.00  0.00     0.027 A 
ATOM     15  C   UNL A   1      33.755  23.755  25.640  1.00  0.00     0.036 A 
ATOM     16  C   UNL A   1      32.898  22.346  27.919  1.00  0.00     0.002 A 
ATOM     17  C   UNL A   1      34.673  23.108  26.501  1.00  0.00     0.017 A 
ATOM     18  C   UNL A   1      34.250  22.409  27.630  1.00  0.00     0.001 A 
BRANCH  15  19
ATOM     19  S   UNL A   1      34.527  24.453  24.174  1.00  0.00    -0.053 SA
BRANCH  19  20
ATOM     20  C   UNL A   1      34.765  22.996  23.143  1.00  0.00     0.405 C 
ATOM     21  F   UNL A   1      36.050  22.563  23.241  1.00  0.00    -0.198 F 
ATOM     22  F   UNL A   1      33.982  21.947  23.497  1.00  0.00    -0.198 F 
ENDBRANCH  19  20
ENDBRANCH  15  19
ENDBRANCH  11  13
ENDBRANCH  10  11
ENDBRANCH   9  10
ENDBRANCH   8   9
ENDBRANCH   6   8
ENDBRANCH   5   6
ENDBRANCH   4   5
ENDBRANCH   3   4
ENDBRANCH   2   3
ENDBRANCH   1   2
BRANCH   1  23
ATOM     23  C   UNL A   1      34.161  28.855  27.032  1.00  0.00     0.188 C 
BRANCH  23  24
ATOM     24  O   UNL A   1      34.299  29.909  27.985  1.00  0.00    -0.377 OA
BRANCH  24  25
ATOM     25  C   UNL A   1      34.417  31.249  27.528  1.00  0.00     0.188 C 
BRANCH  25  26
ATOM     26  C   UNL A   1      33.788  32.358  28.372  1.00  0.00     0.188 C 
BRANCH  26  27
ATOM     27  O   UNL A   1      34.742  33.230  28.965  1.00  0.00    -0.376 OA
BRANCH  27  28
ATOM     28  C   UNL A   1      34.170  34.232  29.800  1.00  0.00     0.202 C 
BRANCH  28  29
ATOM     29  C   UNL A   1      34.399  34.030  31.308  1.00  0.00     0.261 C 
BRANCH  29  30
ATOM     30  O   UNL A   1      35.757  33.801  31.730  1.00  0.00    -0.460 OA
BRANCH  30  31
ATOM     31  C   UNL A   1      35.994  32.736  32.529  1.00  0.00     0.338 C 
ATOM     32  O   UNL A   1      35.428  32.469  33.566  1.00  0.00    -0.246 OA
BRANCH  31  33
ATOM     33  C   UNL A   1      36.966  31.833  31.855  1.00  0.00     0.060 A 
ATOM     34  C   UNL A   1      38.100  31.421  32.569  1.00  0.00     0.016 A 
ATOM     35  C   UNL A   1      36.791  31.419  30.532  1.00  0.00     0.016 A 
ATOM     36  C   UNL A   1      39.062  30.607  31.963  1.00  0.00     0.010 A 
ATOM     37  C   UNL A   1      37.777  30.637  29.910  1.00  0.00     0.010 A 
ATOM     38  C   UNL A   1      38.933  30.254  30.613  1.00  0.00    -0.014 A 
BRANCH  38  39
ATOM     39  C   UNL A   1      40.126  29.742  29.885  1.00  0.00     0.031 A 
ATOM     40  C   UNL A   1      41.277  30.693  29.681  1.00  0.00     0.074 A 
ATOM     41  C   UNL A   1      40.227  28.473  29.451  1.00  0.00     0.049 A 
ATOM     42  N   UNL A   1      42.436  30.498  29.104  1.00  0.00    -0.248 NA
ATOM     43  C   UNL A   1      41.091  32.055  30.207  1.00  0.00     0.031 C 
ATOM     44  C   UNL A   1      39.214  27.435  29.619  1.00  0.00     0.029 A 
ATOM     45  N   UNL A   1      41.247  27.842  28.777  1.00  0.00    -0.354 N 
ATOM     46  C   UNL A   1      43.112  31.708  29.200  1.00  0.00     0.074 A 
ATOM     47  C   UNL A   1      42.223  32.641  29.857  1.00  0.00     0.031 C 
ATOM     48  C   UNL A   1      39.662  26.295  29.058  1.00  0.00     0.029 A 
ATOM     49  C   UNL A   1      40.982  26.529  28.471  1.00  0.00     0.049 A 
ATOM     50  H   UNL A   1      42.090  28.290  28.536  1.00  0.00     0.167 HD
ATOM     51  C   UNL A   1      44.364  32.018  28.787  1.00  0.00     0.037 A 
ATOM     52  C   UNL A   1      41.719  25.629  27.789  1.00  0.00     0.037 A 
ATOM     53  C   UNL A   1      45.246  31.101  28.118  1.00  0.00     0.049 A 
ATOM     54  C   UNL A   1      43.077  26.024  27.257  1.00  0.00     0.074 A 
ATOM     55  C   UNL A   1      46.538  31.317  27.671  1.00  0.00     0.029 A 
ATOM     56  N   UNL A   1      44.919  29.795  27.781  1.00  0.00    -0.354 N 
ATOM     57  N   UNL A   1      43.727  27.156  27.390  1.00  0.00    -0.248 NA
ATOM     58  C   UNL A   1      43.809  25.008  26.484  1.00  0.00     0.031 C 
ATOM     59  C   UNL A   1      46.970  30.164  27.009  1.00  0.00     0.029 A 
ATOM     60  C   UNL A   1      45.974  29.204  27.104  1.00  0.00     0.049 A 
ATOM     61  H   UNL A   1      44.066  29.355  27.993  1.00  0.00     0.167 HD
ATOM     62  C   UNL A   1      44.953  26.974  26.757  1.00  0.00     0.074 A 
ATOM     63  C   UNL A   1      44.961  25.620  26.248  1.00  0.00     0.031 C 
ATOM     64  C   UNL A   1      45.979  27.849  26.614  1.00  0.00     0.037 A 
BRANCH  51  65
ATOM     65  C   UNL A   1      44.831  33.426  29.015  1.00  0.00     0.064 A 
ATOM     66  C   UNL A   1      45.549  33.792  30.165  1.00  0.00     0.173 A 
ATOM     67  C   UNL A   1      44.559  34.425  28.068  1.00  0.00     0.173 A 
ATOM     68  F   UNL A   1      45.820  32.880  31.111  1.00  0.00    -0.203 F 
ATOM     69  C   UNL A   1      45.943  35.112  30.374  1.00  0.00     0.198 A 
ATOM     70  C   UNL A   1      44.985  35.736  28.265  1.00  0.00     0.198 A 
ATOM     71  F   UNL A   1      43.878  34.130  26.951  1.00  0.00    -0.203 F 
ATOM     72  F   UNL A   1      46.571  35.449  31.509  1.00  0.00    -0.200 F 
ATOM     73  C   UNL A   1      45.666  36.080  29.421  1.00  0.00     0.200 A 
ATOM     74  F   UNL A   1      44.728  36.667  27.337  1.00  0.00    -0.200 F 
ATOM     75  F   UNL A   1      46.046  37.349  29.624  1.00  0.00    -0.200 F 
ENDBRANCH  51  65
BRANCH  52  76
ATOM     76  C   UNL A   1      41.202  24.250  27.560  1.00  0.00     0.064 A 
ATOM     77  C   UNL A   1      41.848  23.134  28.111  1.00  0.00     0.173 A 
ATOM     78  C   UNL A   1      40.083  24.017  26.746  1.00  0.00     0.173 A 
ATOM     79  F   UNL A   1      42.942  23.299  28.869  1.00  0.00    -0.203 F 
ATOM     80  C   UNL A   1      41.408  21.839  27.841  1.00  0.00     0.198 A 
ATOM     81  C   UNL A   1      39.627  22.722  26.501  1.00  0.00     0.198 A 
ATOM     82  F   UNL A   1      39.435  25.046  26.183  1.00  0.00    -0.203 F 
ATOM     83  F   UNL A   1      42.078  20.789  28.337  1.00  0.00    -0.200 F 
ATOM     84  C   UNL A   1      40.295  21.634  27.042  1.00  0.00     0.200 A 
ATOM     85  F   UNL A   1      38.546  22.530  25.734  1.00  0.00    -0.200 F 
ATOM     86  F   UNL A   1      39.871  20.389  26.783  1.00  0.00    -0.200 F 
ENDBRANCH  52  76
BRANCH  64  87
ATOM     87  C   UNL A   1      47.226  27.357  25.929  1.00  0.00     0.064 A 
ATOM     88  C   UNL A   1      48.239  26.681  26.624  1.00  0.00     0.173 A 
ATOM     89  C   UNL A   1      47.387  27.532  24.545  1.00  0.00     0.173 A 
ATOM     90  F   UNL A   1      48.142  26.495  27.949  1.00  0.00    -0.203 F 
ATOM     91  C   UNL A   1      49.382  26.230  25.965  1.00  0.00     0.198 A 
ATOM     92  C   UNL A   1      48.513  27.050  23.885  1.00  0.00     0.198 A 
ATOM     93  F   UNL A   1      46.443  28.162  23.828  1.00  0.00    -0.203 F 
ATOM     94  F   UNL A   1      50.363  25.638  26.660  1.00  0.00    -0.200 F 
ATOM     95  C   UNL A   1      49.514  26.408  24.597  1.00  0.00     0.200 A 
ATOM     96  F   UNL A   1      48.629  27.207  22.558  1.00  0.00    -0.200 F 
ATOM     97  F   UNL A   1      50.611  25.969  23.964  1.00  0.00    -0.200 F 
ENDBRANCH  64  87
ENDBRANCH  38  39
ENDBRANCH  31  33
ENDBRANCH  30  31
ENDBRANCH  29  30
ENDBRANCH  28  29
ENDBRANCH  27  28
ENDBRANCH  26  27
ENDBRANCH  25  26
ENDBRANCH  24  25
ENDBRANCH  23  24
ENDBRANCH   1  23
TORSDOF 26
ENDMDL
MODEL 2
REMARK VINA RESULT:      -8.9      4.343      6.948
REMARK SMILES O=C(CCCNc1ccccc1SC(F)F)OCCOCCOCCOCCOC(=O)c1ccc(-c2c3nc(c(-c4c(F)c(F)c(F)c(F)c4F)c4ccc([nH]4)c(-c4c(F)c(F)c(F)c(F)c4F)c4nc(c(-c5c(F)c(F)c(F)c(F)c5F)c5ccc2[nH]5)C=C4)C=C3)cc1
REMARK SMILES IDX 21 1 20 2 19 3 18 4 17 5 2 6 1 7 3 8 4 9 5 10 6 11 7 13 8 14
REMARK SMILES IDX 12 15 9 16 11 17 10 18 13 19 14 20 15 21 16 22 22 23 23 24
REMARK SMILES IDX 24 25 25 26 26 27 27 28 28 29 29 30 30 31 31 32 32 33 33 34
REMARK SMILES IDX 94 35 34 36 93 37 35 38 36 39 37 40 87 41 38 42 92 43 86 44
REMARK SMILES IDX 88 45 39 46 91 47 85 48 84 49 40 51 72 52 52 53 71 54 53 55
REMARK SMILES IDX 56 56 70 57 89 58 54 59 55 60 69 62 90 63 57 64 41 65 42 66
REMARK SMILES IDX 50 67 43 68 44 69 48 70 51 71 45 72 46 73 49 74 47 75 73 76
REMARK SMILES IDX 74 77 82 78 75 79 76 80 80 81 83 82 77 83 78 84 81 85 79 86
REMARK SMILES IDX 58 87 59 88 67 89 60 90 61 91 65 92 68 93 62 94 63 95 66 96
REMARK SMILES IDX 64 97
REMARK H PARENT 6 12 88 50 56 61
REMARK Flexibility Score: inf
ROOT
ATOM      1  C   UNL A   1      31.497  24.595  22.857  1.00  0.00     0.188 C 
ENDROOT
BRANCH   1   2
ATOM      2  O   UNL A   1      32.474  25.630  22.749  1.00  0.00    -0.376 OA
BRANCH   2   3
ATOM      3  C   UNL A   1      33.536  25.571  23.690  1.00  0.00     0.202 C 
BRANCH   3   4
ATOM      4  C   UNL A   1      34.473  24.396  23.476  1.00  0.00     0.261 C 
BRANCH   4   5
ATOM      5  O   UNL A   1      34.709  23.628  24.660  1.00  0.00    -0.463 OA
BRANCH   5   6
ATOM      6  C   UNL A   1      35.678  22.681  24.647  1.00  0.00     0.305 C 
ATOM      7  O   UNL A   1      36.414  22.564  23.669  1.00  0.00    -0.252 OA
BRANCH   6   8
ATOM      8  C   UNL A   1      35.682  21.641  25.753  1.00  0.00     0.124 C 
BRANCH   8   9
ATOM      9  C   UNL A   1      34.739  21.875  26.927  1.00  0.00     0.033 C 
BRANCH   9  10
ATOM     10  C   UNL A   1      33.298  21.373  26.803  1.00  0.00     0.113 C 
BRANCH  10  11
ATOM     11  N   UNL A   1      33.192  19.996  26.370  1.00  0.00    -0.384 N 
ATOM     12  H   UNL A   1      33.408  19.305  27.038  1.00  0.00     0.160 HD
BRANCH  11  13
ATOM     13  C   UNL A   1      32.816  19.544  25.107  1.00  0.00     0.048 A 
ATOM     14  C   UNL A   1      32.554  20.562  24.156  1.00  0.00     0.027 A 
ATOM     15  C   UNL A   1      32.763  18.209  24.635  1.00  0.00     0.036 A 
ATOM     16  C   UNL A   1      32.241  20.293  22.819  1.00  0.00     0.002 A 
ATOM     17  C   UNL A   1      32.415  17.950  23.288  1.00  0.00     0.017 A 
ATOM     18  C   UNL A   1      32.157  18.981  22.387  1.00  0.00     0.001 A 
BRANCH  15  19
ATOM     19  S   UNL A   1      33.200  16.727  25.554  1.00  0.00    -0.053 SA
BRANCH  19  20
ATOM     20  C   UNL A   1      34.803  16.304  24.849  1.00  0.00     0.405 C 
ATOM     21  F   UNL A   1      35.451  17.435  24.462  1.00  0.00    -0.198 F 
ATOM     22  F   UNL A   1      35.627  15.671  25.719  1.00  0.00    -0.198 F 
ENDBRANCH  19  20
ENDBRANCH  15  19
ENDBRANCH  11  13
ENDBRANCH  10  11
ENDBRANCH   9  10
ENDBRANCH   8   9
ENDBRANCH   6   8
ENDBRANCH   5   6
ENDBRANCH   4   5
ENDBRANCH   3   4
ENDBRANCH   2   3
ENDBRANCH   1   2
BRANCH   1  23
ATOM     23  C   UNL A   1      30.229  24.942  23.643  1.00  0.00     0.188 C 
BRANCH  23  24
ATOM     24  O   UNL A   1      30.100  26.231  24.243  1.00  0.00    -0.377 OA
BRANCH  24  25
ATOM     25  C   UNL A   1      29.437  27.266  23.532  1.00  0.00     0.188 C 
BRANCH  25  26
ATOM     26  C   UNL A   1      30.292  28.294  22.788  1.00  0.00     0.188 C 
BRANCH  26  27
ATOM     27  O   UNL A   1      30.723  29.372  23.608  1.00  0.00    -0.376 OA
BRANCH  27  28
ATOM     28  C   UNL A   1      31.432  28.965  24.775  1.00  0.00     0.202 C 
BRANCH  28  29
ATOM     29  C   UNL A   1      32.752  29.714  25.028  1.00  0.00     0.261 C 
BRANCH  29  30
ATOM     30  O   UNL A   1      33.221  29.753  26.389  1.00  0.00    -0.460 OA
BRANCH  30  31
ATOM     31  C   UNL A   1      33.519  30.962  26.915  1.00  0.00     0.338 C 
ATOM     32  O   UNL A   1      32.890  31.988  26.773  1.00  0.00    -0.246 OA
BRANCH  31  33
ATOM     33  C   UNL A   1      34.671  30.815  27.844  1.00  0.00     0.060 A 
ATOM     34  C   UNL A   1      35.603  31.860  27.924  1.00  0.00     0.016 A 
ATOM     35  C   UNL A   1      34.860  29.658  28.605  1.00  0.00     0.016 A 
ATOM     36  C   UNL A   1      36.724  31.748  28.751  1.00  0.00     0.010 A 
ATOM     37  C   UNL A   1      36.008  29.527  29.403  1.00  0.00     0.010 A 
ATOM     38  C   UNL A   1      36.962  30.559  29.454  1.00  0.00    -0.014 A 
BRANCH  38  39
ATOM     39  C   UNL A   1      38.324  30.303  29.998  1.00  0.00     0.031 A 
ATOM     40  C   UNL A   1      38.665  30.914  31.332  1.00  0.00     0.074 A 
ATOM     41  C   UNL A   1      39.225  29.525  29.373  1.00  0.00     0.049 A 
ATOM     42  N   UNL A   1      39.765  30.831  32.039  1.00  0.00    -0.248 NA
ATOM     43  C   UNL A   1      37.613  31.733  31.957  1.00  0.00     0.031 C 
ATOM     44  C   UNL A   1      39.016  28.835  28.103  1.00  0.00     0.029 A 
ATOM     45  N   UNL A   1      40.508  29.183  29.734  1.00  0.00    -0.354 N 
ATOM     46  C   UNL A   1      39.534  31.581  33.184  1.00  0.00     0.074 A 
ATOM     47  C   UNL A   1      38.206  32.142  33.065  1.00  0.00     0.031 C 
ATOM     48  C   UNL A   1      40.135  28.155  27.788  1.00  0.00     0.029 A 
ATOM     49  C   UNL A   1      41.147  28.380  28.821  1.00  0.00     0.049 A 
ATOM     50  H   UNL A   1      40.929  29.487  30.570  1.00  0.00     0.167 HD
ATOM     51  C   UNL A   1      40.348  31.782  34.248  1.00  0.00     0.037 A 
ATOM     52  C   UNL A   1      42.404  27.893  28.820  1.00  0.00     0.037 A 
ATOM     53  C   UNL A   1      41.675  31.242  34.365  1.00  0.00     0.049 A 
ATOM     54  C   UNL A   1      43.327  28.205  29.975  1.00  0.00     0.074 A 
ATOM     55  C   UNL A   1      42.574  31.379  35.409  1.00  0.00     0.029 A 
ATOM     56  N   UNL A   1      42.303  30.475  33.394  1.00  0.00    -0.354 N 
ATOM     57  N   UNL A   1      43.087  28.879  31.075  1.00  0.00    -0.248 NA
ATOM     58  C   UNL A   1      44.699  27.680  29.889  1.00  0.00     0.031 C 
ATOM     59  C   UNL A   1      43.767  30.749  35.044  1.00  0.00     0.029 A 
ATOM     60  C   UNL A   1      43.590  30.158  33.802  1.00  0.00     0.049 A 
ATOM     61  H   UNL A   1      41.896  30.197  32.543  1.00  0.00     0.167 HD
ATOM     62  C   UNL A   1      44.258  28.822  31.825  1.00  0.00     0.074 A 
ATOM     63  C   UNL A   1      45.205  28.041  31.060  1.00  0.00     0.031 C 
ATOM     64  C   UNL A   1      44.521  29.366  33.040  1.00  0.00     0.037 A 
BRANCH  51  65
ATOM     65  C   UNL A   1      39.831  32.660  35.350  1.00  0.00     0.064 A 
ATOM     66  C   UNL A   1      40.070  34.043  35.371  1.00  0.00     0.173 A 
ATOM     67  C   UNL A   1      39.082  32.109  36.401  1.00  0.00     0.173 A 
ATOM     68  F   UNL A   1      40.795  34.617  34.399  1.00  0.00    -0.203 F 
ATOM     69  C   UNL A   1      39.610  34.834  36.421  1.00  0.00     0.198 A 
ATOM     70  C   UNL A   1      38.595  32.909  37.431  1.00  0.00     0.198 A 
ATOM     71  F   UNL A   1      38.822  30.793  36.430  1.00  0.00    -0.203 F 
ATOM     72  F   UNL A   1      39.905  36.141  36.452  1.00  0.00    -0.200 F 
ATOM     73  C   UNL A   1      38.869  34.267  37.446  1.00  0.00     0.200 A 
ATOM     74  F   UNL A   1      37.867  32.361  38.414  1.00  0.00    -0.200 F 
ATOM     75  F   UNL A   1      38.427  35.030  38.456  1.00  0.00    -0.200 F 
ENDBRANCH  51  65
BRANCH  52  76
ATOM     76  C   UNL A   1      42.886  27.050  27.690  1.00  0.00     0.064 A 
ATOM     77  C   UNL A   1      43.620  27.607  26.633  1.00  0.00     0.173 A 
ATOM     78  C   UNL A   1      42.580  25.682  27.618  1.00  0.00     0.173 A 
ATOM     79  F   UNL A   1      43.910  28.916  26.635  1.00  0.00    -0.203 F 
ATOM     80  C   UNL A   1      44.012  26.834  25.540  1.00  0.00     0.198 A 
ATOM     81  C   UNL A   1      42.999  24.905  26.539  1.00  0.00     0.198 A 
ATOM     82  F   UNL A   1      41.871  25.100  28.596  1.00  0.00    -0.203 F 
ATOM     83  F   UNL A   1      44.665  27.406  24.518  1.00  0.00    -0.200 F 
ATOM     84  C   UNL A   1      43.706  25.483  25.496  1.00  0.00     0.200 A 
ATOM     85  F   UNL A   1      42.708  23.598  26.506  1.00  0.00    -0.200 F 
ATOM     86  F   UNL A   1      44.083  24.741  24.446  1.00  0.00    -0.200 F 
ENDBRANCH  52  76
BRANCH  64  87
ATOM     87  C   UNL A   1      45.869  29.090  33.651  1.00  0.00     0.064 A 
ATOM     88  C   UNL A   1      46.964  29.944  33.456  1.00  0.00     0.173 A 
ATOM     89  C   UNL A   1      46.053  27.970  34.478  1.00  0.00     0.173 A 
ATOM     90  F   UNL A   1      46.846  31.023  32.667  1.00  0.00    -0.203 F 
ATOM     91  C   UNL A   1      48.200  29.669  34.037  1.00  0.00     0.198 A 
ATOM     92  C   UNL A   1      47.280  27.718  35.085  1.00  0.00     0.198 A 
ATOM     93  F   UNL A   1      45.037  27.124  34.709  1.00  0.00    -0.203 F 
ATOM     94  F   UNL A   1      49.247  30.469  33.790  1.00  0.00    -0.200 F 
ATOM     95  C   UNL A   1      48.355  28.562  34.856  1.00  0.00     0.200 A 
ATOM     96  F   UNL A   1      47.421  26.656  35.892  1.00  0.00    -0.200 F 
ATOM     97  F   UNL A   1      49.544  28.302  35.419  1.00  0.00    -0.200 F 
ENDBRANCH  64  87
ENDBRANCH  38  39
ENDBRANCH  31  33
ENDBRANCH  30  31
ENDBRANCH  29  30
ENDBRANCH  28  29
ENDBRANCH  27  28
ENDBRANCH  26  27
ENDBRANCH  25  26
ENDBRANCH  24  25
ENDBRANCH  23  24
ENDBRANCH   1  23
TORSDOF 26
ENDMDL
MODEL 3
REMARK VINA RESULT:      -8.4      4.553      8.915
REMARK SMILES O=C(CCCNc1ccccc1SC(F)F)OCCOCCOCCOCCOC(=O)c1ccc(-c2c3nc(c(-c4c(F)c(F)c(F)c(F)c4F)c4ccc([nH]4)c(-c4c(F)c(F)c(F)c(F)c4F)c4nc(c(-c5c(F)c(F)c(F)c(F)c5F)c5ccc2[nH]5)C=C4)C=C3)cc1
REMARK SMILES IDX 21 1 20 2 19 3 18 4 17 5 2 6 1 7 3 8 4 9 5 10 6 11 7 13 8 14
REMARK SMILES IDX 12 15 9 16 11 17 10 18 13 19 14 20 15 21 16 22 22 23 23 24
REMARK SMILES IDX 24 25 25 26 26 27 27 28 28 29 29 30 30 31 31 32 32 33 33 34
REMARK SMILES IDX 94 35 34 36 93 37 35 38 36 39 37 40 87 41 38 42 92 43 86 44
REMARK SMILES IDX 88 45 39 46 91 47 85 48 84 49 40 51 72 52 52 53 71 54 53 55
REMARK SMILES IDX 56 56 70 57 89 58 54 59 55 60 69 62 90 63 57 64 41 65 42 66
REMARK SMILES IDX 50 67 43 68 44 69 48 70 51 71 45 72 46 73 49 74 47 75 73 76
REMARK SMILES IDX 74 77 82 78 75 79 76 80 80 81 83 82 77 83 78 84 81 85 79 86
REMARK SMILES IDX 58 87 59 88 67 89 60 90 61 91 65 92 68 93 62 94 63 95 66 96
REMARK SMILES IDX 64 97
REMARK H PARENT 6 12 88 50 56 61
REMARK Flexibility Score: inf
ROOT
ATOM      1  C   UNL A   1      31.265  23.974  23.129  1.00  0.00     0.188 C 
ENDROOT
BRANCH   1   2
ATOM      2  O   UNL A   1      32.296  24.767  22.542  1.00  0.00    -0.376 OA
BRANCH   2   3
ATOM      3  C   UNL A   1      33.474  24.916  23.321  1.00  0.00     0.202 C 
BRANCH   3   4
ATOM      4  C   UNL A   1      34.428  23.741  23.212  1.00  0.00     0.261 C 
BRANCH   4   5
ATOM      5  O   UNL A   1      35.094  23.429  24.440  1.00  0.00    -0.463 OA
BRANCH   5   6
ATOM      6  C   UNL A   1      35.961  22.387  24.470  1.00  0.00     0.305 C 
ATOM      7  O   UNL A   1      36.770  22.229  23.558  1.00  0.00    -0.252 OA
BRANCH   6   8
ATOM      8  C   UNL A   1      35.757  21.313  25.525  1.00  0.00     0.124 C 
BRANCH   8   9
ATOM      9  C   UNL A   1      34.891  21.676  26.725  1.00  0.00     0.033 C 
BRANCH   9  10
ATOM     10  C   UNL A   1      33.399  21.341  26.664  1.00  0.00     0.113 C 
BRANCH  10  11
ATOM     11  N   UNL A   1      33.122  19.969  26.292  1.00  0.00    -0.384 N 
ATOM     12  H   UNL A   1      33.167  19.299  27.012  1.00  0.00     0.160 HD
BRANCH  11  13
ATOM     13  C   UNL A   1      32.795  19.498  25.022  1.00  0.00     0.048 A 
ATOM     14  C   UNL A   1      32.519  20.500  24.059  1.00  0.00     0.027 A 
ATOM     15  C   UNL A   1      32.806  18.160  24.557  1.00  0.00     0.036 A 
ATOM     16  C   UNL A   1      32.249  20.213  22.717  1.00  0.00     0.002 A 
ATOM     17  C   UNL A   1      32.502  17.881  23.203  1.00  0.00     0.017 A 
ATOM     18  C   UNL A   1      32.227  18.897  22.290  1.00  0.00     0.001 A 
BRANCH  15  19
ATOM     19  S   UNL A   1      33.276  16.699  25.495  1.00  0.00    -0.053 SA
BRANCH  19  20
ATOM     20  C   UNL A   1      34.945  16.386  24.894  1.00  0.00     0.405 C 
ATOM     21  F   UNL A   1      35.536  17.558  24.537  1.00  0.00    -0.198 F 
ATOM     22  F   UNL A   1      35.756  15.817  25.819  1.00  0.00    -0.198 F 
ENDBRANCH  19  20
ENDBRANCH  15  19
ENDBRANCH  11  13
ENDBRANCH  10  11
ENDBRANCH   9  10
ENDBRANCH   8   9
ENDBRANCH   6   8
ENDBRANCH   5   6
ENDBRANCH   4   5
ENDBRANCH   3   4
ENDBRANCH   2   3
ENDBRANCH   1   2
BRANCH   1  23
ATOM     23  C   UNL A   1      30.278  24.713  24.036  1.00  0.00     0.188 C 
BRANCH  23  24
ATOM     24  O   UNL A   1      30.418  26.120  24.236  1.00  0.00    -0.377 OA
BRANCH  24  25
ATOM     25  C   UNL A   1      29.627  27.014  23.467  1.00  0.00     0.188 C 
BRANCH  25  26
ATOM     26  C   UNL A   1      30.344  28.033  22.579  1.00  0.00     0.188 C 
BRANCH  26  27
ATOM     27  O   UNL A   1      30.752  29.204  23.275  1.00  0.00    -0.376 OA
BRANCH  27  28
ATOM     28  C   UNL A   1      31.225  28.957  24.596  1.00  0.00     0.202 C 
BRANCH  28  29
ATOM     29  C   UNL A   1      32.386  29.860  25.049  1.00  0.00     0.261 C 
BRANCH  29  30
ATOM     30  O   UNL A   1      32.506  30.095  26.464  1.00  0.00    -0.460 OA
BRANCH  30  31
ATOM     31  C   UNL A   1      33.099  31.244  26.861  1.00  0.00     0.338 C 
ATOM     32  O   UNL A   1      32.798  32.368  26.524  1.00  0.00    -0.246 OA
BRANCH  31  33
ATOM     33  C   UNL A   1      34.099  30.931  27.918  1.00  0.00     0.060 A 
ATOM     34  C   UNL A   1      34.595  31.984  28.700  1.00  0.00     0.016 A 
ATOM     35  C   UNL A   1      34.573  29.632  28.121  1.00  0.00     0.016 A 
ATOM     36  C   UNL A   1      35.567  31.744  29.676  1.00  0.00     0.010 A 
ATOM     37  C   UNL A   1      35.580  29.398  29.071  1.00  0.00     0.010 A 
ATOM     38  C   UNL A   1      36.105  30.460  29.831  1.00  0.00    -0.014 A 
BRANCH  38  39
ATOM     39  C   UNL A   1      37.388  30.299  30.569  1.00  0.00     0.031 A 
ATOM     40  C   UNL A   1      38.493  29.539  29.883  1.00  0.00     0.074 A 
ATOM     41  C   UNL A   1      37.604  30.836  31.783  1.00  0.00     0.049 A 
ATOM     42  N   UNL A   1      39.710  29.275  30.289  1.00  0.00    -0.248 NA
ATOM     43  C   UNL A   1      38.179  29.005  28.547  1.00  0.00     0.031 C 
ATOM     44  C   UNL A   1      36.644  31.631  32.542  1.00  0.00     0.029 A 
ATOM     45  N   UNL A   1      38.717  30.790  32.590  1.00  0.00    -0.354 N 
ATOM     46  C   UNL A   1      40.300  28.550  29.262  1.00  0.00     0.074 A 
ATOM     47  C   UNL A   1      39.301  28.383  28.230  1.00  0.00     0.031 C 
ATOM     48  C   UNL A   1      37.208  31.996  33.710  1.00  0.00     0.029 A 
ATOM     49  C   UNL A   1      38.560  31.440  33.790  1.00  0.00     0.049 A 
ATOM     50  H   UNL A   1      39.549  30.333  32.332  1.00  0.00     0.167 HD
ATOM     51  C   UNL A   1      41.564  28.070  29.177  1.00  0.00     0.037 A 
ATOM     52  C   UNL A   1      39.408  31.562  34.831  1.00  0.00     0.037 A 
ATOM     53  C   UNL A   1      42.557  28.216  30.206  1.00  0.00     0.049 A 
ATOM     54  C   UNL A   1      40.783  30.940  34.751  1.00  0.00     0.074 A 
ATOM     55  C   UNL A   1      43.869  27.776  30.209  1.00  0.00     0.029 A 
ATOM     56  N   UNL A   1      42.340  28.838  31.428  1.00  0.00    -0.354 N 
ATOM     57  N   UNL A   1      41.349  30.294  33.760  1.00  0.00    -0.248 NA
ATOM     58  C   UNL A   1      41.641  31.072  35.940  1.00  0.00     0.031 C 
ATOM     59  C   UNL A   1      44.428  28.075  31.455  1.00  0.00     0.029 A 
ATOM     60  C   UNL A   1      43.486  28.764  32.204  1.00  0.00     0.049 A 
ATOM     61  H   UNL A   1      41.499  29.268  31.701  1.00  0.00     0.167 HD
ATOM     62  C   UNL A   1      42.636  29.982  34.188  1.00  0.00     0.074 A 
ATOM     63  C   UNL A   1      42.771  30.517  35.525  1.00  0.00     0.031 C 
ATOM     64  C   UNL A   1      43.617  29.315  33.530  1.00  0.00     0.037 A 
BRANCH  51  65
ATOM     65  C   UNL A   1      41.923  27.303  27.937  1.00  0.00     0.064 A 
ATOM     66  C   UNL A   1      42.337  27.948  26.761  1.00  0.00     0.173 A 
ATOM     67  C   UNL A   1      41.855  25.902  27.926  1.00  0.00     0.173 A 
ATOM     68  F   UNL A   1      42.403  29.287  26.712  1.00  0.00    -0.203 F 
ATOM     69  C   UNL A   1      42.633  27.220  25.611  1.00  0.00     0.198 A 
ATOM     70  C   UNL A   1      42.185  25.176  26.785  1.00  0.00     0.198 A 
ATOM     71  F   UNL A   1      41.467  25.235  29.024  1.00  0.00    -0.203 F 
ATOM     72  F   UNL A   1      42.964  27.860  24.481  1.00  0.00    -0.200 F 
ATOM     73  C   UNL A   1      42.562  25.835  25.626  1.00  0.00     0.200 A 
ATOM     74  F   UNL A   1      42.128  23.838  26.807  1.00  0.00    -0.200 F 
ATOM     75  F   UNL A   1      42.847  25.136  24.520  1.00  0.00    -0.200 F 
ENDBRANCH  51  65
BRANCH  52  76
ATOM     76  C   UNL A   1      38.998  32.307  36.055  1.00  0.00     0.064 A 
ATOM     77  C   UNL A   1      39.393  33.637  36.260  1.00  0.00     0.173 A 
ATOM     78  C   UNL A   1      38.245  31.690  37.066  1.00  0.00     0.173 A 
ATOM     79  F   UNL A   1      40.143  34.262  35.340  1.00  0.00    -0.203 F 
ATOM     80  C   UNL A   1      39.070  34.313  37.435  1.00  0.00     0.198 A 
ATOM     81  C   UNL A   1      37.897  32.378  38.228  1.00  0.00     0.198 A 
ATOM     82  F   UNL A   1      37.850  30.417  36.928  1.00  0.00    -0.203 F 
ATOM     83  F   UNL A   1      39.509  35.566  37.627  1.00  0.00    -0.200 F 
ATOM     84  C   UNL A   1      38.317  33.686  38.415  1.00  0.00     0.200 A 
ATOM     85  F   UNL A   1      37.163  31.770  39.168  1.00  0.00    -0.200 F 
ATOM     86  F   UNL A   1      38.006  34.337  39.545  1.00  0.00    -0.200 F 
ENDBRANCH  52  76
BRANCH  64  87
ATOM     87  C   UNL A   1      44.948  29.173  34.218  1.00  0.00     0.064 A 
ATOM     88  C   UNL A   1      45.954  30.143  34.099  1.00  0.00     0.173 A 
ATOM     89  C   UNL A   1      45.202  28.065  35.043  1.00  0.00     0.173 A 
ATOM     90  F   UNL A   1      45.768  31.217  33.317  1.00  0.00    -0.203 F 
ATOM     91  C   UNL A   1      47.177  29.991  34.751  1.00  0.00     0.198 A 
ATOM     92  C   UNL A   1      46.411  27.935  35.720  1.00  0.00     0.198 A 
ATOM     93  F   UNL A   1      44.271  27.112  35.202  1.00  0.00    -0.203 F 
ATOM     94  F   UNL A   1      48.143  30.903  34.577  1.00  0.00    -0.200 F 
ATOM     95  C   UNL A   1      47.401  28.893  35.567  1.00  0.00     0.200 A 
ATOM     96  F   UNL A   1      46.617  26.880  36.522  1.00  0.00    -0.200 F 
ATOM     97  F   UNL A   1      48.575  28.752  36.197  1.00  0.00    -0.200 F 
ENDBRANCH  64  87
ENDBRANCH  38  39
ENDBRANCH  31  33
ENDBRANCH  30  31
ENDBRANCH  29  30
ENDBRANCH  28  29
ENDBRANCH  27  28
ENDBRANCH  26  27
ENDBRANCH  25  26
ENDBRANCH  24  25
ENDBRANCH  23  24
ENDBRANCH   1  23
TORSDOF 26
ENDMDL
