MODEL 1
REMARK VINA RESULT:      -8.1      0.000      0.000
REMARK SMILES C=CCN(CC(=O)OCCOCCOCCOCCOC(=O)c1ccc(-c2c3nc(c(-c4c(F)c(F)c(F)c(F)c4F)c4ccc([nH]4)c(-c4c(F)c(F)c(F)c(F)c4F)c4nc(c(-c5c(F)c(F)c(F)c(F)c5F)c5ccc2[nH]5)C=C4)C=C3)cc1)C(=O)CSc1cccs1
REMARK SMILES IDX 12 1 11 2 10 3 9 4 8 5 6 6 7 7 5 8 4 9 3 10 2 11 1 12 86 13
REMARK SMILES IDX 87 14 88 15 89 16 90 17 91 18 94 19 92 20 93 21 13 22 14 23
REMARK SMILES IDX 15 24 16 25 17 26 18 27 19 28 20 29 21 30 22 31 23 32 24 33
REMARK SMILES IDX 85 34 25 35 84 36 26 37 27 38 28 39 78 40 29 41 83 42 77 43
REMARK SMILES IDX 79 44 30 45 82 46 76 47 75 48 31 50 63 51 43 52 62 53 44 54
REMARK SMILES IDX 47 55 61 56 80 57 45 58 46 59 60 61 81 62 48 63 32 64 33 65
REMARK SMILES IDX 41 66 34 67 35 68 39 69 42 70 36 71 37 72 40 73 38 74 64 75
REMARK SMILES IDX 65 76 73 77 66 78 67 79 71 80 74 81 68 82 69 83 72 84 70 85
REMARK SMILES IDX 49 86 50 87 58 88 51 89 52 90 56 91 59 92 53 93 54 94 57 95
REMARK SMILES IDX 55 96
REMARK H PARENT 79 49 47 60
REMARK Flexibility Score: inf
ROOT
ATOM      1  C   UNL A   1      38.849  24.272  26.561  1.00  0.00     0.188 C 
ENDROOT
BRANCH   1   2
ATOM      2  O   UNL A   1      37.537  23.749  26.465  1.00  0.00    -0.376 OA
BRANCH   2   3
ATOM      3  C   UNL A   1      37.054  23.348  25.190  1.00  0.00     0.202 C 
BRANCH   3   4
ATOM      4  C   UNL A   1      36.657  21.870  24.985  1.00  0.00     0.261 C 
BRANCH   4   5
ATOM      5  O   UNL A   1      35.420  21.444  25.625  1.00  0.00    -0.462 OA
BRANCH   5   6
ATOM      6  C   UNL A   1      34.387  21.125  24.801  1.00  0.00     0.325 C 
ATOM      7  O   UNL A   1      34.013  19.970  24.609  1.00  0.00    -0.250 OA
BRANCH   6   8
ATOM      8  C   UNL A   1      33.638  22.307  24.123  1.00  0.00     0.242 C 
BRANCH   8   9
ATOM      9  N   UNL A   1      32.747  23.299  24.772  1.00  0.00    -0.327 N 
BRANCH   9  10
ATOM     10  C   UNL A   1      31.364  22.885  25.019  1.00  0.00     0.147 C 
BRANCH  10  11
ATOM     11  C   UNL A   1      31.071  22.898  26.498  1.00  0.00    -0.014 C 
ATOM     12  C   UNL A   1      29.835  22.967  27.017  1.00  0.00     0.006 C 
ENDBRANCH  10  11
ENDBRANCH   9  10
BRANCH   9  13
ATOM     13  C   UNL A   1      33.110  24.591  25.180  1.00  0.00     0.233 C 
ATOM     14  O   UNL A   1      34.015  24.780  26.002  1.00  0.00    -0.274 OA
BRANCH  13  15
ATOM     15  C   UNL A   1      32.313  25.799  24.704  1.00  0.00     0.175 C 
BRANCH  15  16
ATOM     16  S   UNL A   1      33.301  27.142  24.039  1.00  0.00    -0.105 SA
BRANCH  16  17
ATOM     17  C   UNL A   1      33.370  28.320  25.329  1.00  0.00     0.060 A 
ATOM     18  C   UNL A   1      34.337  28.293  26.311  1.00  0.00     0.027 A 
ATOM     19  S   UNL A   1      32.344  29.674  25.496  1.00  0.00    -0.137 S 
ATOM     20  C   UNL A   1      34.198  29.359  27.241  1.00  0.00     0.013 A 
ATOM     21  C   UNL A   1      33.142  30.183  26.923  1.00  0.00     0.066 A 
ENDBRANCH  16  17
ENDBRANCH  15  16
ENDBRANCH  13  15
ENDBRANCH   9  13
ENDBRANCH   8   9
ENDBRANCH   6   8
ENDBRANCH   5   6
ENDBRANCH   4   5
ENDBRANCH   3   4
ENDBRANCH   2   3
ENDBRANCH   1   2
BRANCH   1  22
ATOM     22  C   UNL A   1      39.981  23.372  27.061  1.00  0.00     0.188 C 
BRANCH  22  23
ATOM     23  O   UNL A   1      40.706  22.668  26.086  1.00  0.00    -0.377 OA
BRANCH  23  24
ATOM     24  C   UNL A   1      40.905  21.282  26.273  1.00  0.00     0.188 C 
BRANCH  24  25
ATOM     25  C   UNL A   1      41.502  20.841  27.611  1.00  0.00     0.188 C 
BRANCH  25  26
ATOM     26  O   UNL A   1      42.296  19.651  27.627  1.00  0.00    -0.376 OA
BRANCH  26  27
ATOM     27  C   UNL A   1      41.992  18.571  26.738  1.00  0.00     0.202 C 
BRANCH  27  28
ATOM     28  C   UNL A   1      43.047  18.258  25.687  1.00  0.00     0.261 C 
BRANCH  28  29
ATOM     29  O   UNL A   1      44.080  19.252  25.746  1.00  0.00    -0.460 OA
BRANCH  29  30
ATOM     30  C   UNL A   1      44.387  19.851  24.578  1.00  0.00     0.338 C 
ATOM     31  O   UNL A   1      44.161  19.446  23.449  1.00  0.00    -0.246 OA
BRANCH  30  32
ATOM     32  C   UNL A   1      44.858  21.215  24.876  1.00  0.00     0.060 A 
ATOM     33  C   UNL A   1      45.248  21.501  26.191  1.00  0.00     0.016 A 
ATOM     34  C   UNL A   1      44.927  22.192  23.879  1.00  0.00     0.016 A 
ATOM     35  C   UNL A   1      45.660  22.785  26.529  1.00  0.00     0.010 A 
ATOM     36  C   UNL A   1      45.315  23.484  24.222  1.00  0.00     0.010 A 
ATOM     37  C   UNL A   1      45.634  23.790  25.556  1.00  0.00    -0.014 A 
BRANCH  37  38
ATOM     38  C   UNL A   1      45.669  25.204  25.975  1.00  0.00     0.031 A 
ATOM     39  C   UNL A   1      46.997  25.905  25.922  1.00  0.00     0.074 A 
ATOM     40  C   UNL A   1      44.562  25.837  26.390  1.00  0.00     0.049 A 
ATOM     41  N   UNL A   1      47.326  27.101  26.330  1.00  0.00    -0.248 NA
ATOM     42  C   UNL A   1      48.111  25.140  25.335  1.00  0.00     0.031 C 
ATOM     43  C   UNL A   1      43.220  25.261  26.419  1.00  0.00     0.029 A 
ATOM     44  N   UNL A   1      44.403  27.105  26.884  1.00  0.00    -0.354 N 
ATOM     45  C   UNL A   1      48.683  27.226  26.062  1.00  0.00     0.074 A 
ATOM     46  C   UNL A   1      49.124  25.977  25.487  1.00  0.00     0.031 C 
ATOM     47  C   UNL A   1      42.370  26.173  26.925  1.00  0.00     0.029 A 
ATOM     48  C   UNL A   1      43.120  27.373  27.292  1.00  0.00     0.049 A 
ATOM     49  H   UNL A   1      45.136  27.759  26.940  1.00  0.00     0.167 HD
ATOM     50  C   UNL A   1      49.484  28.294  26.276  1.00  0.00     0.037 A 
ATOM     51  C   UNL A   1      42.630  28.459  27.919  1.00  0.00     0.037 A 
ATOM     52  C   UNL A   1      49.026  29.523  26.863  1.00  0.00     0.049 A 
ATOM     53  C   UNL A   1      43.565  29.598  28.241  1.00  0.00     0.074 A 
ATOM     54  C   UNL A   1      49.743  30.677  27.120  1.00  0.00     0.029 A 
ATOM     55  N   UNL A   1      47.727  29.749  27.297  1.00  0.00    -0.354 N 
ATOM     56  N   UNL A   1      44.842  29.726  27.967  1.00  0.00    -0.248 NA
ATOM     57  C   UNL A   1      42.991  30.743  28.961  1.00  0.00     0.031 C 
ATOM     58  C   UNL A   1      48.894  31.577  27.772  1.00  0.00     0.029 A 
ATOM     59  C   UNL A   1      47.629  31.012  27.853  1.00  0.00     0.049 A 
ATOM     60  H   UNL A   1      46.985  29.106  27.221  1.00  0.00     0.167 HD
ATOM     61  C   UNL A   1      45.213  30.978  28.444  1.00  0.00     0.074 A 
ATOM     62  C   UNL A   1      44.025  31.571  29.021  1.00  0.00     0.031 C 
ATOM     63  C   UNL A   1      46.425  31.586  28.403  1.00  0.00     0.037 A 
BRANCH  50  64
ATOM     64  C   UNL A   1      50.936  28.152  25.921  1.00  0.00     0.064 A 
ATOM     65  C   UNL A   1      51.397  28.307  24.604  1.00  0.00     0.173 A 
ATOM     66  C   UNL A   1      51.881  27.856  26.914  1.00  0.00     0.173 A 
ATOM     67  F   UNL A   1      50.533  28.573  23.612  1.00  0.00    -0.203 F 
ATOM     68  C   UNL A   1      52.744  28.135  24.291  1.00  0.00     0.198 A 
ATOM     69  C   UNL A   1      53.232  27.719  26.603  1.00  0.00     0.198 A 
ATOM     70  F   UNL A   1      51.496  27.695  28.189  1.00  0.00    -0.203 F 
ATOM     71  F   UNL A   1      53.150  28.226  23.017  1.00  0.00    -0.200 F 
ATOM     72  C   UNL A   1      53.659  27.849  25.291  1.00  0.00     0.200 A 
ATOM     73  F   UNL A   1      54.117  27.455  27.574  1.00  0.00    -0.200 F 
ATOM     74  F   UNL A   1      54.955  27.686  24.988  1.00  0.00    -0.200 F 
ENDBRANCH  50  64
BRANCH  51  75
ATOM     75  C   UNL A   1      41.192  28.520  28.292  1.00  0.00     0.064 A 
ATOM     76  C   UNL A   1      40.232  28.985  27.383  1.00  0.00     0.173 A 
ATOM     77  C   UNL A   1      40.747  28.130  29.565  1.00  0.00     0.173 A 
ATOM     78  F   UNL A   1      40.609  29.389  26.161  1.00  0.00    -0.203 F 
ATOM     79  C   UNL A   1      38.888  29.079  27.738  1.00  0.00     0.198 A 
ATOM     80  C   UNL A   1      39.399  28.195  29.908  1.00  0.00     0.198 A 
ATOM     81  F   UNL A   1      41.623  27.678  30.474  1.00  0.00    -0.203 F 
ATOM     82  F   UNL A   1      38.000  29.573  26.864  1.00  0.00    -0.200 F 
ATOM     83  C   UNL A   1      38.471  28.678  28.998  1.00  0.00     0.200 A 
ATOM     84  F   UNL A   1      38.998  27.794  31.123  1.00  0.00    -0.200 F 
ATOM     85  F   UNL A   1      37.178  28.766  29.337  1.00  0.00    -0.200 F 
ENDBRANCH  51  75
BRANCH  63  86
ATOM     86  C   UNL A   1      46.521  32.985  28.942  1.00  0.00     0.064 A 
ATOM     87  C   UNL A   1      46.890  33.244  30.270  1.00  0.00     0.173 A 
ATOM     88  C   UNL A   1      46.313  34.082  28.091  1.00  0.00     0.173 A 
ATOM     89  F   UNL A   1      47.086  32.230  31.127  1.00  0.00    -0.203 F 
ATOM     90  C   UNL A   1      47.029  34.550  30.730  1.00  0.00     0.198 A 
ATOM     91  C   UNL A   1      46.488  35.385  28.545  1.00  0.00     0.198 A 
ATOM     92  F   UNL A   1      45.968  33.887  26.809  1.00  0.00    -0.203 F 
ATOM     93  F   UNL A   1      47.341  34.777  32.014  1.00  0.00    -0.200 F 
ATOM     94  C   UNL A   1      46.840  35.618  29.865  1.00  0.00     0.200 A 
ATOM     95  F   UNL A   1      46.324  36.414  27.702  1.00  0.00    -0.200 F 
ATOM     96  F   UNL A   1      46.994  36.875  30.306  1.00  0.00    -0.200 F 
ENDBRANCH  63  86
ENDBRANCH  37  38
ENDBRANCH  30  32
ENDBRANCH  29  30
ENDBRANCH  28  29
ENDBRANCH  27  28
ENDBRANCH  26  27
ENDBRANCH  25  26
ENDBRANCH  24  25
ENDBRANCH  23  24
ENDBRANCH  22  23
ENDBRANCH   1  22
TORSDOF 27
ENDMDL
MODEL 2
REMARK VINA RESULT:      -7.6      1.825      2.677
REMARK SMILES C=CCN(CC(=O)OCCOCCOCCOCCOC(=O)c1ccc(-c2c3nc(c(-c4c(F)c(F)c(F)c(F)c4F)c4ccc([nH]4)c(-c4c(F)c(F)c(F)c(F)c4F)c4nc(c(-c5c(F)c(F)c(F)c(F)c5F)c5ccc2[nH]5)C=C4)C=C3)cc1)C(=O)CSc1cccs1
REMARK SMILES IDX 12 1 11 2 10 3 9 4 8 5 6 6 7 7 5 8 4 9 3 10 2 11 1 12 86 13
REMARK SMILES IDX 87 14 88 15 89 16 90 17 91 18 94 19 92 20 93 21 13 22 14 23
REMARK SMILES IDX 15 24 16 25 17 26 18 27 19 28 20 29 21 30 22 31 23 32 24 33
REMARK SMILES IDX 85 34 25 35 84 36 26 37 27 38 28 39 78 40 29 41 83 42 77 43
REMARK SMILES IDX 79 44 30 45 82 46 76 47 75 48 31 50 63 51 43 52 62 53 44 54
REMARK SMILES IDX 47 55 61 56 80 57 45 58 46 59 60 61 81 62 48 63 32 64 33 65
REMARK SMILES IDX 41 66 34 67 35 68 39 69 42 70 36 71 37 72 40 73 38 74 64 75
REMARK SMILES IDX 65 76 73 77 66 78 67 79 71 80 74 81 68 82 69 83 72 84 70 85
REMARK SMILES IDX 49 86 50 87 58 88 51 89 52 90 56 91 59 92 53 93 54 94 57 95
REMARK SMILES IDX 55 96
REMARK H PARENT 79 49 47 60
REMARK Flexibility Score: inf
ROOT
ATOM      1  C   UNL A   1      39.935  23.541  26.523  1.00  0.00     0.188 C 
ENDROOT
BRANCH   1   2
ATOM      2  O   UNL A   1      38.586  23.373  26.919  1.00  0.00    -0.376 OA
BRANCH   2   3
ATOM      3  C   UNL A   1      37.561  23.925  26.103  1.00  0.00     0.202 C 
BRANCH   3   4
ATOM      4  C   UNL A   1      36.529  22.967  25.470  1.00  0.00     0.261 C 
BRANCH   4   5
ATOM      5  O   UNL A   1      36.651  21.562  25.833  1.00  0.00    -0.462 OA
BRANCH   5   6
ATOM      6  C   UNL A   1      35.967  20.673  25.065  1.00  0.00     0.325 C 
ATOM      7  O   UNL A   1      36.307  19.500  24.931  1.00  0.00    -0.250 OA
BRANCH   6   8
ATOM      8  C   UNL A   1      34.672  21.191  24.375  1.00  0.00     0.242 C 
BRANCH   8   9
ATOM      9  N   UNL A   1      33.287  21.130  24.900  1.00  0.00    -0.327 N 
BRANCH   9  10
ATOM     10  C   UNL A   1      32.495  19.950  24.541  1.00  0.00     0.147 C 
BRANCH  10  11
ATOM     11  C   UNL A   1      32.921  18.764  25.370  1.00  0.00    -0.014 C 
ATOM     12  C   UNL A   1      32.416  17.529  25.226  1.00  0.00     0.006 C 
ENDBRANCH  10  11
ENDBRANCH   9  10
BRANCH   9  13
ATOM     13  C   UNL A   1      32.671  22.090  25.716  1.00  0.00     0.233 C 
ATOM     14  O   UNL A   1      32.850  22.112  26.939  1.00  0.00    -0.274 OA
BRANCH  13  15
ATOM     15  C   UNL A   1      31.664  23.068  25.124  1.00  0.00     0.175 C 
BRANCH  15  16
ATOM     16  S   UNL A   1      30.985  24.254  26.289  1.00  0.00    -0.105 SA
BRANCH  16  17
ATOM     17  C   UNL A   1      31.909  25.714  26.020  1.00  0.00     0.060 A 
ATOM     18  C   UNL A   1      33.287  25.738  26.042  1.00  0.00     0.027 A 
ATOM     19  S   UNL A   1      31.262  27.240  25.615  1.00  0.00    -0.137 S 
ATOM     20  C   UNL A   1      33.813  27.032  25.783  1.00  0.00     0.013 A 
ATOM     21  C   UNL A   1      32.817  27.952  25.544  1.00  0.00     0.066 A 
ENDBRANCH  16  17
ENDBRANCH  15  16
ENDBRANCH  13  15
ENDBRANCH   9  13
ENDBRANCH   8   9
ENDBRANCH   6   8
ENDBRANCH   5   6
ENDBRANCH   4   5
ENDBRANCH   3   4
ENDBRANCH   2   3
ENDBRANCH   1   2
BRANCH   1  22
ATOM     22  C   UNL A   1      40.825  22.308  26.348  1.00  0.00     0.188 C 
BRANCH  22  23
ATOM     23  O   UNL A   1      40.221  21.165  25.799  1.00  0.00    -0.377 OA
BRANCH  23  24
ATOM     24  C   UNL A   1      40.397  19.932  26.464  1.00  0.00     0.188 C 
BRANCH  24  25
ATOM     25  C   UNL A   1      41.538  19.849  27.480  1.00  0.00     0.188 C 
BRANCH  25  26
ATOM     26  O   UNL A   1      42.767  19.253  27.055  1.00  0.00    -0.376 OA
BRANCH  26  27
ATOM     27  C   UNL A   1      42.816  18.490  25.844  1.00  0.00     0.202 C 
BRANCH  27  28
ATOM     28  C   UNL A   1      44.120  18.565  25.063  1.00  0.00     0.261 C 
BRANCH  28  29
ATOM     29  O   UNL A   1      44.818  19.764  25.427  1.00  0.00    -0.460 OA
BRANCH  29  30
ATOM     30  C   UNL A   1      44.807  20.752  24.510  1.00  0.00     0.338 C 
ATOM     31  O   UNL A   1      44.881  20.646  23.297  1.00  0.00    -0.246 OA
BRANCH  30  32
ATOM     32  C   UNL A   1      44.465  22.009  25.198  1.00  0.00     0.060 A 
ATOM     33  C   UNL A   1      44.082  23.103  24.412  1.00  0.00     0.016 A 
ATOM     34  C   UNL A   1      44.509  22.108  26.592  1.00  0.00     0.016 A 
ATOM     35  C   UNL A   1      43.791  24.323  25.013  1.00  0.00     0.010 A 
ATOM     36  C   UNL A   1      44.243  23.336  27.193  1.00  0.00     0.010 A 
ATOM     37  C   UNL A   1      43.931  24.452  26.399  1.00  0.00    -0.014 A 
BRANCH  37  38
ATOM     38  C   UNL A   1      44.026  25.799  26.994  1.00  0.00     0.031 A 
ATOM     39  C   UNL A   1      45.402  26.352  27.230  1.00  0.00     0.074 A 
ATOM     40  C   UNL A   1      42.929  26.499  27.315  1.00  0.00     0.049 A 
ATOM     41  N   UNL A   1      45.768  27.453  27.831  1.00  0.00    -0.248 NA
ATOM     42  C   UNL A   1      46.524  25.541  26.724  1.00  0.00     0.031 C 
ATOM     43  C   UNL A   1      41.553  26.073  27.070  1.00  0.00     0.029 A 
ATOM     44  N   UNL A   1      42.806  27.714  27.936  1.00  0.00    -0.354 N 
ATOM     45  C   UNL A   1      47.156  27.457  27.788  1.00  0.00     0.074 A 
ATOM     46  C   UNL A   1      47.570  26.239  27.131  1.00  0.00     0.031 C 
ATOM     47  C   UNL A   1      40.718  27.011  27.554  1.00  0.00     0.029 A 
ATOM     48  C   UNL A   1      41.504  28.073  28.179  1.00  0.00     0.049 A 
ATOM     49  H   UNL A   1      43.577  28.274  28.184  1.00  0.00     0.167 HD
ATOM     50  C   UNL A   1      48.005  28.401  28.253  1.00  0.00     0.037 A 
ATOM     51  C   UNL A   1      41.019  29.130  28.858  1.00  0.00     0.037 A 
ATOM     52  C   UNL A   1      47.571  29.600  28.917  1.00  0.00     0.049 A 
ATOM     53  C   UNL A   1      41.988  30.117  29.459  1.00  0.00     0.074 A 
ATOM     54  C   UNL A   1      48.339  30.633  29.423  1.00  0.00     0.029 A 
ATOM     55  N   UNL A   1      46.245  29.917  29.176  1.00  0.00    -0.354 N 
ATOM     56  N   UNL A   1      43.299  30.135  29.398  1.00  0.00    -0.248 NA
ATOM     57  C   UNL A   1      41.411  31.230  30.224  1.00  0.00     0.031 C 
ATOM     58  C   UNL A   1      47.480  31.542  30.048  1.00  0.00     0.029 A 
ATOM     59  C   UNL A   1      46.173  31.113  29.867  1.00  0.00     0.049 A 
ATOM     60  H   UNL A   1      45.470  29.371  28.909  1.00  0.00     0.167 HD
ATOM     61  C   UNL A   1      43.700  31.278  30.080  1.00  0.00     0.074 A 
ATOM     62  C   UNL A   1      42.492  31.929  30.543  1.00  0.00     0.031 C 
ATOM     63  C   UNL A   1      44.953  31.750  30.298  1.00  0.00     0.037 A 
BRANCH  50  64
ATOM     64  C   UNL A   1      49.477  28.142  28.104  1.00  0.00     0.064 A 
ATOM     65  C   UNL A   1      50.180  28.499  26.944  1.00  0.00     0.173 A 
ATOM     66  C   UNL A   1      50.194  27.526  29.140  1.00  0.00     0.173 A 
ATOM     67  F   UNL A   1      49.539  29.075  25.915  1.00  0.00    -0.203 F 
ATOM     68  C   UNL A   1      51.538  28.217  26.812  1.00  0.00     0.198 A 
ATOM     69  C   UNL A   1      51.559  27.276  29.020  1.00  0.00     0.198 A 
ATOM     70  F   UNL A   1      49.572  27.161  30.271  1.00  0.00    -0.203 F 
ATOM     71  F   UNL A   1      52.174  28.510  25.669  1.00  0.00    -0.200 F 
ATOM     72  C   UNL A   1      52.226  27.613  27.853  1.00  0.00     0.200 A 
ATOM     73  F   UNL A   1      52.225  26.704  30.032  1.00  0.00    -0.200 F 
ATOM     74  F   UNL A   1      53.534  27.343  27.725  1.00  0.00    -0.200 F 
ENDBRANCH  50  64
BRANCH  51  75
ATOM     75  C   UNL A   1      39.551  29.306  29.016  1.00  0.00     0.064 A 
ATOM     76  C   UNL A   1      38.936  29.127  30.263  1.00  0.00     0.173 A 
ATOM     77  C   UNL A   1      38.731  29.640  27.927  1.00  0.00     0.173 A 
ATOM     78  F   UNL A   1      39.673  28.786  31.330  1.00  0.00    -0.203 F 
ATOM     79  C   UNL A   1      37.556  29.254  30.410  1.00  0.00     0.198 A 
ATOM     80  C   UNL A   1      37.356  29.797  28.083  1.00  0.00     0.198 A 
ATOM     81  F   UNL A   1      39.267  29.823  26.712  1.00  0.00    -0.203 F 
ATOM     82  F   UNL A   1      36.990  29.029  31.604  1.00  0.00    -0.200 F 
ATOM     83  C   UNL A   1      36.768  29.595  29.322  1.00  0.00     0.200 A 
ATOM     84  F   UNL A   1      36.598  30.142  27.031  1.00  0.00    -0.200 F 
ATOM     85  F   UNL A   1      35.441  29.721  29.466  1.00  0.00    -0.200 F 
ENDBRANCH  51  75
BRANCH  63  86
ATOM     86  C   UNL A   1      45.086  33.061  31.019  1.00  0.00     0.064 A 
ATOM     87  C   UNL A   1      45.312  33.128  32.401  1.00  0.00     0.173 A 
ATOM     88  C   UNL A   1      45.061  34.265  30.298  1.00  0.00     0.173 A 
ATOM     89  F   UNL A   1      45.331  32.006  33.137  1.00  0.00    -0.203 F 
ATOM     90  C   UNL A   1      45.492  34.353  33.036  1.00  0.00     0.198 A 
ATOM     91  C   UNL A   1      45.276  35.485  30.930  1.00  0.00     0.198 A 
ATOM     92  F   UNL A   1      44.857  34.255  28.971  1.00  0.00    -0.203 F 
ATOM     93  F   UNL A   1      45.665  34.398  34.365  1.00  0.00    -0.200 F 
ATOM     94  C   UNL A   1      45.485  35.529  32.300  1.00  0.00     0.200 A 
ATOM     95  F   UNL A   1      45.289  36.617  30.213  1.00  0.00    -0.200 F 
ATOM     96  F   UNL A   1      45.677  36.706  32.912  1.00  0.00    -0.200 F 
ENDBRANCH  63  86
ENDBRANCH  37  38
ENDBRANCH  30  32
ENDBRANCH  29  30
ENDBRANCH  28  29
ENDBRANCH  27  28
ENDBRANCH  26  27
ENDBRANCH  25  26
ENDBRANCH  24  25
ENDBRANCH  23  24
ENDBRANCH  22  23
ENDBRANCH   1  22
TORSDOF 27
ENDMDL
MODEL 3
REMARK VINA RESULT:      -7.1      2.538      4.008
REMARK SMILES C=CCN(CC(=O)OCCOCCOCCOCCOC(=O)c1ccc(-c2c3nc(c(-c4c(F)c(F)c(F)c(F)c4F)c4ccc([nH]4)c(-c4c(F)c(F)c(F)c(F)c4F)c4nc(c(-c5c(F)c(F)c(F)c(F)c5F)c5ccc2[nH]5)C=C4)C=C3)cc1)C(=O)CSc1cccs1
REMARK SMILES IDX 12 1 11 2 10 3 9 4 8 5 6 6 7 7 5 8 4 9 3 10 2 11 1 12 86 13
REMARK SMILES IDX 87 14 88 15 89 16 90 17 91 18 94 19 92 20 93 21 13 22 14 23
REMARK SMILES IDX 15 24 16 25 17 26 18 27 19 28 20 29 21 30 22 31 23 32 24 33
REMARK SMILES IDX 85 34 25 35 84 36 26 37 27 38 28 39 78 40 29 41 83 42 77 43
REMARK SMILES IDX 79 44 30 45 82 46 76 47 75 48 31 50 63 51 43 52 62 53 44 54
REMARK SMILES IDX 47 55 61 56 80 57 45 58 46 59 60 61 81 62 48 63 32 64 33 65
REMARK SMILES IDX 41 66 34 67 35 68 39 69 42 70 36 71 37 72 40 73 38 74 64 75
REMARK SMILES IDX 65 76 73 77 66 78 67 79 71 80 74 81 68 82 69 83 72 84 70 85
REMARK SMILES IDX 49 86 50 87 58 88 51 89 52 90 56 91 59 92 53 93 54 94 57 95
REMARK SMILES IDX 55 96
REMARK H PARENT 79 49 47 60
REMARK Flexibility Score: inf
ROOT
ATOM      1  C   UNL A   1      40.619  23.762  27.235  1.00  0.00     0.188 C 
ENDROOT
BRANCH   1   2
ATOM      2  O   UNL A   1      39.239  23.452  27.305  1.00  0.00    -0.376 OA
BRANCH   2   3
ATOM      3  C   UNL A   1      38.297  24.457  26.955  1.00  0.00     0.202 C 
BRANCH   3   4
ATOM      4  C   UNL A   1      37.057  24.047  26.132  1.00  0.00     0.261 C 
BRANCH   4   5
ATOM      5  O   UNL A   1      36.881  22.620  25.904  1.00  0.00    -0.462 OA
BRANCH   5   6
ATOM      6  C   UNL A   1      36.572  22.239  24.636  1.00  0.00     0.325 C 
ATOM      7  O   UNL A   1      37.015  21.218  24.115  1.00  0.00    -0.250 OA
BRANCH   6   8
ATOM      8  C   UNL A   1      35.573  23.140  23.856  1.00  0.00     0.242 C 
BRANCH   8   9
ATOM      9  N   UNL A   1      34.092  23.120  23.934  1.00  0.00    -0.327 N 
BRANCH   9  10
ATOM     10  C   UNL A   1      33.448  24.267  24.580  1.00  0.00     0.147 C 
BRANCH  10  11
ATOM     11  C   UNL A   1      33.995  25.557  24.019  1.00  0.00    -0.014 C 
ATOM     12  C   UNL A   1      33.353  26.313  23.116  1.00  0.00     0.006 C 
ENDBRANCH  10  11
ENDBRANCH   9  10
BRANCH   9  13
ATOM     13  C   UNL A   1      33.254  22.112  23.438  1.00  0.00     0.233 C 
ATOM     14  O   UNL A   1      32.606  22.263  22.395  1.00  0.00    -0.274 OA
BRANCH  13  15
ATOM     15  C   UNL A   1      33.029  20.836  24.239  1.00  0.00     0.175 C 
BRANCH  15  16
ATOM     16  S   UNL A   1      32.313  19.476  23.312  1.00  0.00    -0.105 SA
BRANCH  16  17
ATOM     17  C   UNL A   1      32.932  18.038  24.090  1.00  0.00     0.060 A 
ATOM     18  C   UNL A   1      32.548  17.652  25.356  1.00  0.00     0.027 A 
ATOM     19  S   UNL A   1      33.988  16.900  23.381  1.00  0.00    -0.137 S 
ATOM     20  C   UNL A   1      33.172  16.444  25.770  1.00  0.00     0.013 A 
ATOM     21  C   UNL A   1      33.994  15.931  24.792  1.00  0.00     0.066 A 
ENDBRANCH  16  17
ENDBRANCH  15  16
ENDBRANCH  13  15
ENDBRANCH   9  13
ENDBRANCH   8   9
ENDBRANCH   6   8
ENDBRANCH   5   6
ENDBRANCH   4   5
ENDBRANCH   3   4
ENDBRANCH   2   3
ENDBRANCH   1   2
BRANCH   1  22
ATOM     22  C   UNL A   1      41.617  22.660  26.870  1.00  0.00     0.188 C 
BRANCH  22  23
ATOM     23  O   UNL A   1      41.199  21.719  25.916  1.00  0.00    -0.377 OA
BRANCH  23  24
ATOM     24  C   UNL A   1      40.803  20.441  26.368  1.00  0.00     0.188 C 
BRANCH  24  25
ATOM     25  C   UNL A   1      41.640  19.808  27.481  1.00  0.00     0.188 C 
BRANCH  25  26
ATOM     26  O   UNL A   1      42.815  19.084  27.102  1.00  0.00    -0.376 OA
BRANCH  26  27
ATOM     27  C   UNL A   1      42.802  18.249  25.939  1.00  0.00     0.202 C 
BRANCH  27  28
ATOM     28  C   UNL A   1      44.049  18.303  25.069  1.00  0.00     0.261 C 
BRANCH  28  29
ATOM     29  O   UNL A   1      44.779  19.502  25.365  1.00  0.00    -0.460 OA
BRANCH  29  30
ATOM     30  C   UNL A   1      44.752  20.457  24.416  1.00  0.00     0.338 C 
ATOM     31  O   UNL A   1      44.526  20.320  23.224  1.00  0.00    -0.246 OA
BRANCH  30  32
ATOM     32  C   UNL A   1      44.824  21.768  25.085  1.00  0.00     0.060 A 
ATOM     33  C   UNL A   1      44.370  22.890  24.380  1.00  0.00     0.016 A 
ATOM     34  C   UNL A   1      45.318  21.892  26.387  1.00  0.00     0.016 A 
ATOM     35  C   UNL A   1      44.457  24.154  24.954  1.00  0.00     0.010 A 
ATOM     36  C   UNL A   1      45.431  23.159  26.952  1.00  0.00     0.010 A 
ATOM     37  C   UNL A   1      45.044  24.292  26.216  1.00  0.00    -0.014 A 
BRANCH  37  38
ATOM     38  C   UNL A   1      45.510  25.621  26.656  1.00  0.00     0.031 A 
ATOM     39  C   UNL A   1      46.848  26.082  26.156  1.00  0.00     0.074 A 
ATOM     40  C   UNL A   1      44.770  26.384  27.474  1.00  0.00     0.049 A 
ATOM     41  N   UNL A   1      47.535  27.148  26.469  1.00  0.00    -0.248 NA
ATOM     42  C   UNL A   1      47.509  25.209  25.169  1.00  0.00     0.031 C 
ATOM     43  C   UNL A   1      43.435  26.050  27.964  1.00  0.00     0.029 A 
ATOM     44  N   UNL A   1      45.053  27.595  28.049  1.00  0.00    -0.354 N 
ATOM     45  C   UNL A   1      48.709  27.066  25.732  1.00  0.00     0.074 A 
ATOM     46  C   UNL A   1      48.659  25.834  24.980  1.00  0.00     0.031 C 
ATOM     47  C   UNL A   1      43.018  27.031  28.785  1.00  0.00     0.029 A 
ATOM     48  C   UNL A   1      44.076  28.032  28.907  1.00  0.00     0.049 A 
ATOM     49  H   UNL A   1      45.877  28.101  27.864  1.00  0.00     0.167 HD
ATOM     50  C   UNL A   1      49.734  27.947  25.688  1.00  0.00     0.037 A 
ATOM     51  C   UNL A   1      44.067  29.107  29.719  1.00  0.00     0.037 A 
ATOM     52  C   UNL A   1      49.769  29.161  26.457  1.00  0.00     0.049 A 
ATOM     53  C   UNL A   1      45.266  30.022  29.730  1.00  0.00     0.074 A 
ATOM     54  C   UNL A   1      50.749  30.135  26.487  1.00  0.00     0.029 A 
ATOM     55  N   UNL A   1      48.777  29.557  27.343  1.00  0.00    -0.354 N 
ATOM     56  N   UNL A   1      46.366  29.957  29.016  1.00  0.00    -0.248 NA
ATOM     57  C   UNL A   1      45.224  31.158  30.660  1.00  0.00     0.031 C 
ATOM     58  C   UNL A   1      50.382  31.087  27.443  1.00  0.00     0.029 A 
ATOM     59  C   UNL A   1      49.138  30.745  27.953  1.00  0.00     0.049 A 
ATOM     60  H   UNL A   1      47.941  29.065  27.513  1.00  0.00     0.167 HD
ATOM     61  C   UNL A   1      47.126  31.062  29.380  1.00  0.00     0.074 A 
ATOM     62  C   UNL A   1      46.360  31.782  30.377  1.00  0.00     0.031 C 
ATOM     63  C   UNL A   1      48.344  31.452  28.929  1.00  0.00     0.037 A 
BRANCH  50  64
ATOM     64  C   UNL A   1      50.910  27.597  24.822  1.00  0.00     0.064 A 
ATOM     65  C   UNL A   1      50.900  27.807  23.435  1.00  0.00     0.173 A 
ATOM     66  C   UNL A   1      52.066  27.042  25.391  1.00  0.00     0.173 A 
ATOM     67  F   UNL A   1      49.813  28.318  22.836  1.00  0.00    -0.203 F 
ATOM     68  C   UNL A   1      51.988  27.442  22.646  1.00  0.00     0.198 A 
ATOM     69  C   UNL A   1      53.166  26.710  24.604  1.00  0.00     0.198 A 
ATOM     70  F   UNL A   1      52.130  26.817  26.712  1.00  0.00    -0.203 F 
ATOM     71  F   UNL A   1      51.930  27.594  21.316  1.00  0.00    -0.200 F 
ATOM     72  C   UNL A   1      53.122  26.901  23.232  1.00  0.00     0.200 A 
ATOM     73  F   UNL A   1      54.266  26.200  25.175  1.00  0.00    -0.200 F 
ATOM     74  F   UNL A   1      54.170  26.552  22.472  1.00  0.00    -0.200 F 
ENDBRANCH  50  64
BRANCH  51  75
ATOM     75  C   UNL A   1      42.893  29.373  30.592  1.00  0.00     0.064 A 
ATOM     76  C   UNL A   1      42.749  28.717  31.822  1.00  0.00     0.173 A 
ATOM     77  C   UNL A   1      41.886  30.273  30.212  1.00  0.00     0.173 A 
ATOM     78  F   UNL A   1      43.674  27.831  32.220  1.00  0.00    -0.203 F 
ATOM     79  C   UNL A   1      41.634  28.934  32.628  1.00  0.00     0.198 A 
ATOM     80  C   UNL A   1      40.786  30.513  31.034  1.00  0.00     0.198 A 
ATOM     81  F   UNL A   1      41.973  30.928  29.045  1.00  0.00    -0.203 F 
ATOM     82  F   UNL A   1      41.499  28.256  33.777  1.00  0.00    -0.200 F 
ATOM     83  C   UNL A   1      40.656  29.836  32.237  1.00  0.00     0.200 A 
ATOM     84  F   UNL A   1      39.851  31.396  30.659  1.00  0.00    -0.200 F 
ATOM     85  F   UNL A   1      39.586  30.046  33.015  1.00  0.00    -0.200 F 
ENDBRANCH  51  75
BRANCH  63  86
ATOM     86  C   UNL A   1      48.904  32.740  29.459  1.00  0.00     0.064 A 
ATOM     87  C   UNL A   1      49.839  32.769  30.504  1.00  0.00     0.173 A 
ATOM     88  C   UNL A   1      48.553  33.959  28.857  1.00  0.00     0.173 A 
ATOM     89  F   UNL A   1      50.197  31.632  31.121  1.00  0.00    -0.203 F 
ATOM     90  C   UNL A   1      50.387  33.972  30.937  1.00  0.00     0.198 A 
ATOM     91  C   UNL A   1      49.130  35.155  29.270  1.00  0.00     0.198 A 
ATOM     92  F   UNL A   1      47.669  33.985  27.847  1.00  0.00    -0.203 F 
ATOM     93  F   UNL A   1      51.248  33.982  31.965  1.00  0.00    -0.200 F 
ATOM     94  C   UNL A   1      50.042  35.162  30.313  1.00  0.00     0.200 A 
ATOM     95  F   UNL A   1      48.809  36.300  28.651  1.00  0.00    -0.200 F 
ATOM     96  F   UNL A   1      50.587  36.317  30.720  1.00  0.00    -0.200 F 
ENDBRANCH  63  86
ENDBRANCH  37  38
ENDBRANCH  30  32
ENDBRANCH  29  30
ENDBRANCH  28  29
ENDBRANCH  27  28
ENDBRANCH  26  27
ENDBRANCH  25  26
ENDBRANCH  24  25
ENDBRANCH  23  24
ENDBRANCH  22  23
ENDBRANCH   1  22
TORSDOF 27
ENDMDL
