MODEL 1
REMARK VINA RESULT:      -9.4      0.000      0.000
REMARK SMILES COc1cc(NC(=O)C2CCN(S(=O)(=O)c3cccs3)CC2)c(Cl)cc1C(=O)OCCOCCOCCOCCOC(=O)c1ccc(-c2c3nc(c(-c4c(F)c(F)c(F)c(F)c4F)c4ccc([nH]4)c(-c4c(F)c(F)c(F)c(F)c4F)c4nc(c(-c5c(F)c(F)c(F)c(F)c5F)c5ccc2[nH]5)C=C4)C=C3)cc1
REMARK SMILES IDX 34 1 33 2 32 3 31 4 30 5 29 6 27 7 28 8 26 9 3 10 4 11 5 12
REMARK SMILES IDX 25 13 23 14 24 15 2 16 1 17 6 18 7 19 8 21 9 22 10 23 22 24
REMARK SMILES IDX 11 25 21 26 12 27 13 28 14 29 15 30 16 31 17 32 20 33 18 34
REMARK SMILES IDX 19 35 35 36 36 37 37 38 38 39 39 40 40 41 41 42 42 43 43 44
REMARK SMILES IDX 44 45 45 46 106 47 46 48 105 49 47 50 48 51 49 52 99 53
REMARK SMILES IDX 50 54 104 55 98 56 100 57 51 58 103 59 97 60 96 61 52 63
REMARK SMILES IDX 84 64 64 65 83 66 65 67 68 68 82 69 101 70 66 71 67 72 81 74
REMARK SMILES IDX 102 75 69 76 53 77 54 78 62 79 55 80 56 81 60 82 63 83 57 84
REMARK SMILES IDX 58 85 61 86 59 87 85 88 86 89 94 90 87 91 88 92 92 93 95 94
REMARK SMILES IDX 89 95 90 96 93 97 91 98 70 99 71 100 79 101 72 102 73 103
REMARK SMILES IDX 77 104 80 105 74 106 75 107 78 108 76 109
REMARK H PARENT 6 20 100 62 68 73
REMARK Flexibility Score: inf
ROOT
ATOM      1  C   UNL A   1      39.492  22.856  26.749  1.00  0.00     0.188 C 
ENDROOT
BRANCH   1   2
ATOM      2  C   UNL A   1      38.097  23.101  26.124  1.00  0.00     0.188 C 
BRANCH   2   3
ATOM      3  O   UNL A   1      37.826  22.321  24.972  1.00  0.00    -0.376 OA
BRANCH   3   4
ATOM      4  C   UNL A   1      37.137  21.094  25.109  1.00  0.00     0.202 C 
BRANCH   4   5
ATOM      5  C   UNL A   1      35.626  21.169  25.336  1.00  0.00     0.261 C 
BRANCH   5   6
ATOM      6  O   UNL A   1      34.892  21.681  24.225  1.00  0.00    -0.460 OA
BRANCH   6   7
ATOM      7  C   UNL A   1      33.555  21.791  24.362  1.00  0.00     0.342 C 
ATOM      8  O   UNL A   1      32.774  20.896  24.630  1.00  0.00    -0.246 OA
BRANCH   7   9
ATOM      9  C   UNL A   1      33.194  23.223  24.328  1.00  0.00     0.103 A 
ATOM     10  C   UNL A   1      32.585  23.860  25.403  1.00  0.00     0.135 A 
ATOM     11  C   UNL A   1      32.386  25.238  25.362  1.00  0.00     0.075 A 
ATOM     12  C   UNL A   1      32.576  25.985  24.204  1.00  0.00     0.063 A 
ATOM     13  C   UNL A   1      33.427  23.947  23.150  1.00  0.00     0.042 A 
ATOM     14  C   UNL A   1      33.083  25.304  23.080  1.00  0.00     0.065 A 
ATOM     15  Cl  UNL A   1      33.270  26.112  21.561  1.00  0.00    -0.082 Cl
BRANCH  10  16
ATOM     16  O   UNL A   1      32.179  23.178  26.521  1.00  0.00    -0.496 OA
ATOM     17  C   UNL A   1      30.743  23.100  26.592  1.00  0.00     0.278 C 
ENDBRANCH  10  16
BRANCH  12  18
ATOM     18  N   UNL A   1      32.283  27.367  24.099  1.00  0.00    -0.324 N 
ATOM     19  C   UNL A   1      32.282  28.419  24.977  1.00  0.00     0.227 C 
ATOM     20  H   UNL A   1      32.019  27.632  23.189  1.00  0.00     0.169 HD
ATOM     21  O   UNL A   1      32.051  29.542  24.521  1.00  0.00    -0.274 OA
BRANCH  19  22
ATOM     22  C   UNL A   1      32.516  28.221  26.471  1.00  0.00     0.081 C 
ATOM     23  C   UNL A   1      31.748  29.270  27.288  1.00  0.00     0.030 C 
ATOM     24  C   UNL A   1      33.992  28.211  26.877  1.00  0.00     0.030 C 
ATOM     25  C   UNL A   1      32.424  30.631  27.238  1.00  0.00     0.103 C 
ATOM     26  C   UNL A   1      34.620  29.596  26.941  1.00  0.00     0.103 C 
ATOM     27  N   UNL A   1      33.793  30.497  27.789  1.00  0.00    -0.197 NA
BRANCH  27  28
ATOM     28  S   UNL A   1      34.500  32.030  28.111  1.00  0.00     0.252 S 
ATOM     29  O   UNL A   1      35.723  32.112  27.339  1.00  0.00    -0.206 OA
ATOM     30  O   UNL A   1      33.460  33.028  27.979  1.00  0.00    -0.206 OA
BRANCH  28  31
ATOM     31  C   UNL A   1      35.030  32.029  29.812  1.00  0.00     0.135 A 
ATOM     32  C   UNL A   1      34.599  32.765  30.903  1.00  0.00     0.033 A 
ATOM     33  S   UNL A   1      36.288  30.955  30.248  1.00  0.00    -0.131 S 
ATOM     34  C   UNL A   1      35.336  32.476  32.085  1.00  0.00     0.013 A 
ATOM     35  C   UNL A   1      36.271  31.488  31.873  1.00  0.00     0.066 A 
ENDBRANCH  28  31
ENDBRANCH  27  28
ENDBRANCH  19  22
ENDBRANCH  12  18
ENDBRANCH   7   9
ENDBRANCH   6   7
ENDBRANCH   5   6
ENDBRANCH   4   5
ENDBRANCH   3   4
ENDBRANCH   2   3
ENDBRANCH   1   2
BRANCH   1  36
ATOM     36  O   UNL A   1      40.222  21.669  26.455  1.00  0.00    -0.377 OA
BRANCH  36  37
ATOM     37  C   UNL A   1      41.622  21.742  26.199  1.00  0.00     0.188 C 
BRANCH  37  38
ATOM     38  C   UNL A   1      42.575  22.414  27.217  1.00  0.00     0.188 C 
BRANCH  38  39
ATOM     39  O   UNL A   1      43.753  22.950  26.641  1.00  0.00    -0.376 OA
BRANCH  39  40
ATOM     40  C   UNL A   1      43.786  23.109  25.236  1.00  0.00     0.202 C 
BRANCH  40  41
ATOM     41  C   UNL A   1      45.012  23.816  24.643  1.00  0.00     0.261 C 
BRANCH  41  42
ATOM     42  O   UNL A   1      45.831  24.549  25.567  1.00  0.00    -0.460 OA
BRANCH  42  43
ATOM     43  C   UNL A   1      46.289  25.755  25.170  1.00  0.00     0.338 C 
ATOM     44  O   UNL A   1      46.862  26.025  24.126  1.00  0.00    -0.246 OA
BRANCH  43  45
ATOM     45  C   UNL A   1      45.804  26.753  26.143  1.00  0.00     0.060 A 
ATOM     46  C   UNL A   1      46.728  27.445  26.939  1.00  0.00     0.016 A 
ATOM     47  C   UNL A   1      44.437  27.014  26.252  1.00  0.00     0.016 A 
ATOM     48  C   UNL A   1      46.282  28.379  27.872  1.00  0.00     0.010 A 
ATOM     49  C   UNL A   1      43.989  27.933  27.204  1.00  0.00     0.010 A 
ATOM     50  C   UNL A   1      44.907  28.594  28.039  1.00  0.00    -0.014 A 
BRANCH  50  51
ATOM     51  C   UNL A   1      44.418  29.347  29.216  1.00  0.00     0.031 A 
ATOM     52  C   UNL A   1      44.224  30.830  29.082  1.00  0.00     0.074 A 
ATOM     53  C   UNL A   1      44.152  28.732  30.381  1.00  0.00     0.049 A 
ATOM     54  N   UNL A   1      43.871  31.711  29.981  1.00  0.00    -0.248 NA
ATOM     55  C   UNL A   1      44.473  31.395  27.746  1.00  0.00     0.031 C 
ATOM     56  C   UNL A   1      44.274  27.298  30.624  1.00  0.00     0.029 A 
ATOM     57  N   UNL A   1      43.744  29.250  31.585  1.00  0.00    -0.354 N 
ATOM     58  C   UNL A   1      43.873  32.936  29.326  1.00  0.00     0.074 A 
ATOM     59  C   UNL A   1      44.291  32.688  27.963  1.00  0.00     0.031 C 
ATOM     60  C   UNL A   1      43.972  27.051  31.911  1.00  0.00     0.029 A 
ATOM     61  C   UNL A   1      43.671  28.313  32.585  1.00  0.00     0.049 A 
ATOM     62  H   UNL A   1      43.525  30.200  31.718  1.00  0.00     0.167 HD
ATOM     63  C   UNL A   1      43.553  34.157  29.817  1.00  0.00     0.037 A 
ATOM     64  C   UNL A   1      43.422  28.467  33.901  1.00  0.00     0.037 A 
ATOM     65  C   UNL A   1      43.144  34.395  31.177  1.00  0.00     0.049 A 
ATOM     66  C   UNL A   1      43.123  29.840  34.443  1.00  0.00     0.074 A 
ATOM     67  C   UNL A   1      42.755  35.584  31.765  1.00  0.00     0.029 A 
ATOM     68  N   UNL A   1      43.096  33.424  32.168  1.00  0.00    -0.354 N 
ATOM     69  N   UNL A   1      43.079  30.989  33.812  1.00  0.00    -0.248 NA
ATOM     70  C   UNL A   1      42.830  29.937  35.880  1.00  0.00     0.031 C 
ATOM     71  C   UNL A   1      42.543  35.348  33.127  1.00  0.00     0.029 A 
ATOM     72  C   UNL A   1      42.724  33.997  33.374  1.00  0.00     0.049 A 
ATOM     73  H   UNL A   1      43.295  32.470  32.033  1.00  0.00     0.167 HD
ATOM     74  C   UNL A   1      42.736  31.940  34.766  1.00  0.00     0.074 A 
ATOM     75  C   UNL A   1      42.567  31.230  36.017  1.00  0.00     0.031 C 
ATOM     76  C   UNL A   1      42.571  33.279  34.617  1.00  0.00     0.037 A 
BRANCH  63  77
ATOM     77  C   UNL A   1      43.688  35.329  28.886  1.00  0.00     0.064 A 
ATOM     78  C   UNL A   1      44.925  35.940  28.629  1.00  0.00     0.173 A 
ATOM     79  C   UNL A   1      42.554  35.857  28.250  1.00  0.00     0.173 A 
ATOM     80  F   UNL A   1      46.040  35.484  29.220  1.00  0.00    -0.203 F 
ATOM     81  C   UNL A   1      45.013  37.064  27.810  1.00  0.00     0.198 A 
ATOM     82  C   UNL A   1      42.652  36.956  27.403  1.00  0.00     0.198 A 
ATOM     83  F   UNL A   1      41.347  35.310  28.456  1.00  0.00    -0.203 F 
ATOM     84  F   UNL A   1      46.195  37.675  27.639  1.00  0.00    -0.200 F 
ATOM     85  C   UNL A   1      43.878  37.568  27.195  1.00  0.00     0.200 A 
ATOM     86  F   UNL A   1      41.556  37.433  26.797  1.00  0.00    -0.200 F 
ATOM     87  F   UNL A   1      43.965  38.651  26.411  1.00  0.00    -0.200 F 
ENDBRANCH  63  77
BRANCH  64  88
ATOM     88  C   UNL A   1      43.470  27.279  34.792  1.00  0.00     0.064 A 
ATOM     89  C   UNL A   1      42.351  26.456  34.971  1.00  0.00     0.173 A 
ATOM     90  C   UNL A   1      44.652  26.929  35.465  1.00  0.00     0.173 A 
ATOM     91  F   UNL A   1      41.192  26.763  34.370  1.00  0.00    -0.203 F 
ATOM     92  C   UNL A   1      42.410  25.329  35.789  1.00  0.00     0.198 A 
ATOM     93  C   UNL A   1      44.719  25.787  36.259  1.00  0.00     0.198 A 
ATOM     94  F   UNL A   1      45.751  27.686  35.329  1.00  0.00    -0.203 F 
ATOM     95  F   UNL A   1      41.317  24.574  35.967  1.00  0.00    -0.200 F 
ATOM     96  C   UNL A   1      43.597  24.989  36.423  1.00  0.00     0.200 A 
ATOM     97  F   UNL A   1      45.871  25.455  36.856  1.00  0.00    -0.200 F 
ATOM     98  F   UNL A   1      43.657  23.895  37.194  1.00  0.00    -0.200 F 
ENDBRANCH  64  88
BRANCH  76  99
ATOM     99  C   UNL A   1      42.161  34.067  35.831  1.00  0.00     0.064 A 
ATOM    100  C   UNL A   1      43.105  34.669  36.677  1.00  0.00     0.173 A 
ATOM    101  C   UNL A   1      40.802  34.263  36.125  1.00  0.00     0.173 A 
ATOM    102  F   UNL A   1      44.417  34.504  36.451  1.00  0.00    -0.203 F 
ATOM    103  C   UNL A   1      42.704  35.412  37.785  1.00  0.00     0.198 A 
ATOM    104  C   UNL A   1      40.404  35.037  37.212  1.00  0.00     0.198 A 
ATOM    105  F   UNL A   1      39.857  33.719  35.344  1.00  0.00    -0.203 F 
ATOM    106  F   UNL A   1      43.624  35.933  38.608  1.00  0.00    -0.200 F 
ATOM    107  C   UNL A   1      41.355  35.602  38.046  1.00  0.00     0.200 A 
ATOM    108  F   UNL A   1      39.101  35.234  37.450  1.00  0.00    -0.200 F 
ATOM    109  F   UNL A   1      40.972  36.327  39.107  1.00  0.00    -0.200 F 
ENDBRANCH  76  99
ENDBRANCH  50  51
ENDBRANCH  43  45
ENDBRANCH  42  43
ENDBRANCH  41  42
ENDBRANCH  40  41
ENDBRANCH  39  40
ENDBRANCH  38  39
ENDBRANCH  37  38
ENDBRANCH  36  37
ENDBRANCH   1  36
TORSDOF 25
ENDMDL
MODEL 2
REMARK VINA RESULT:      -9.3      4.628      9.307
REMARK SMILES COc1cc(NC(=O)C2CCN(S(=O)(=O)c3cccs3)CC2)c(Cl)cc1C(=O)OCCOCCOCCOCCOC(=O)c1ccc(-c2c3nc(c(-c4c(F)c(F)c(F)c(F)c4F)c4ccc([nH]4)c(-c4c(F)c(F)c(F)c(F)c4F)c4nc(c(-c5c(F)c(F)c(F)c(F)c5F)c5ccc2[nH]5)C=C4)C=C3)cc1
REMARK SMILES IDX 34 1 33 2 32 3 31 4 30 5 29 6 27 7 28 8 26 9 3 10 4 11 5 12
REMARK SMILES IDX 25 13 23 14 24 15 2 16 1 17 6 18 7 19 8 21 9 22 10 23 22 24
REMARK SMILES IDX 11 25 21 26 12 27 13 28 14 29 15 30 16 31 17 32 20 33 18 34
REMARK SMILES IDX 19 35 35 36 36 37 37 38 38 39 39 40 40 41 41 42 42 43 43 44
REMARK SMILES IDX 44 45 45 46 106 47 46 48 105 49 47 50 48 51 49 52 99 53
REMARK SMILES IDX 50 54 104 55 98 56 100 57 51 58 103 59 97 60 96 61 52 63
REMARK SMILES IDX 84 64 64 65 83 66 65 67 68 68 82 69 101 70 66 71 67 72 81 74
REMARK SMILES IDX 102 75 69 76 53 77 54 78 62 79 55 80 56 81 60 82 63 83 57 84
REMARK SMILES IDX 58 85 61 86 59 87 85 88 86 89 94 90 87 91 88 92 92 93 95 94
REMARK SMILES IDX 89 95 90 96 93 97 91 98 70 99 71 100 79 101 72 102 73 103
REMARK SMILES IDX 77 104 80 105 74 106 75 107 78 108 76 109
REMARK H PARENT 6 20 100 62 68 73
REMARK Flexibility Score: inf
ROOT
ATOM      1  C   UNL A   1      35.094  21.975  25.230  1.00  0.00     0.188 C 
ENDROOT
BRANCH   1   2
ATOM      2  C   UNL A   1      34.119  22.334  24.082  1.00  0.00     0.188 C 
BRANCH   2   3
ATOM      3  O   UNL A   1      32.778  21.932  24.306  1.00  0.00    -0.376 OA
BRANCH   3   4
ATOM      4  C   UNL A   1      31.784  22.914  24.522  1.00  0.00     0.202 C 
BRANCH   4   5
ATOM      5  C   UNL A   1      31.673  24.028  23.480  1.00  0.00     0.261 C 
BRANCH   5   6
ATOM      6  O   UNL A   1      32.272  25.261  23.875  1.00  0.00    -0.460 OA
BRANCH   6   7
ATOM      7  C   UNL A   1      31.748  26.396  23.369  1.00  0.00     0.342 C 
ATOM      8  O   UNL A   1      31.044  26.497  22.380  1.00  0.00    -0.246 OA
BRANCH   7   9
ATOM      9  C   UNL A   1      32.000  27.497  24.321  1.00  0.00     0.103 A 
ATOM     10  C   UNL A   1      32.586  28.696  23.931  1.00  0.00     0.135 A 
ATOM     11  C   UNL A   1      32.680  29.744  24.843  1.00  0.00     0.075 A 
ATOM     12  C   UNL A   1      32.406  29.581  26.198  1.00  0.00     0.063 A 
ATOM     13  C   UNL A   1      31.685  27.301  25.674  1.00  0.00     0.042 A 
ATOM     14  C   UNL A   1      31.925  28.322  26.605  1.00  0.00     0.065 A 
ATOM     15  Cl  UNL A   1      31.641  27.977  28.277  1.00  0.00    -0.082 Cl
BRANCH  10  16
ATOM     16  O   UNL A   1      33.069  28.894  22.663  1.00  0.00    -0.496 OA
ATOM     17  C   UNL A   1      34.477  28.604  22.590  1.00  0.00     0.278 C 
ENDBRANCH  10  16
BRANCH  12  18
ATOM     18  N   UNL A   1      32.593  30.596  27.169  1.00  0.00    -0.324 N 
ATOM     19  C   UNL A   1      33.683  31.252  27.676  1.00  0.00     0.227 C 
ATOM     20  H   UNL A   1      31.746  30.898  27.570  1.00  0.00     0.169 HD
ATOM     21  O   UNL A   1      33.476  32.169  28.474  1.00  0.00    -0.274 OA
BRANCH  19  22
ATOM     22  C   UNL A   1      35.108  30.848  27.311  1.00  0.00     0.081 C 
ATOM     23  C   UNL A   1      35.462  29.483  27.920  1.00  0.00     0.030 C 
ATOM     24  C   UNL A   1      36.168  31.887  27.686  1.00  0.00     0.030 C 
ATOM     25  C   UNL A   1      35.742  29.586  29.411  1.00  0.00     0.103 C 
ATOM     26  C   UNL A   1      36.526  31.889  29.165  1.00  0.00     0.103 C 
ATOM     27  N   UNL A   1      36.879  30.515  29.613  1.00  0.00    -0.197 NA
BRANCH  27  28
ATOM     28  S   UNL A   1      37.502  30.417  31.211  1.00  0.00     0.252 S 
ATOM     29  O   UNL A   1      37.299  31.709  31.833  1.00  0.00    -0.206 OA
ATOM     30  O   UNL A   1      36.983  29.206  31.810  1.00  0.00    -0.206 OA
BRANCH  28  31
ATOM     31  C   UNL A   1      39.271  30.238  31.087  1.00  0.00     0.135 A 
ATOM     32  C   UNL A   1      40.202  30.892  30.298  1.00  0.00     0.033 A 
ATOM     33  S   UNL A   1      40.019  29.074  32.092  1.00  0.00    -0.131 S 
ATOM     34  C   UNL A   1      41.523  30.401  30.490  1.00  0.00     0.013 A 
ATOM     35  C   UNL A   1      41.568  29.425  31.459  1.00  0.00     0.066 A 
ENDBRANCH  28  31
ENDBRANCH  27  28
ENDBRANCH  19  22
ENDBRANCH  12  18
ENDBRANCH   7   9
ENDBRANCH   6   7
ENDBRANCH   5   6
ENDBRANCH   4   5
ENDBRANCH   3   4
ENDBRANCH   2   3
ENDBRANCH   1   2
BRANCH   1  36
ATOM     36  O   UNL A   1      35.818  20.748  25.213  1.00  0.00    -0.377 OA
BRANCH  36  37
ATOM     37  C   UNL A   1      37.210  20.751  24.912  1.00  0.00     0.188 C 
BRANCH  37  38
ATOM     38  C   UNL A   1      38.144  21.829  25.513  1.00  0.00     0.188 C 
BRANCH  38  39
ATOM     39  O   UNL A   1      39.305  21.308  26.137  1.00  0.00    -0.376 OA
BRANCH  39  40
ATOM     40  C   UNL A   1      40.154  22.218  26.810  1.00  0.00     0.202 C 
BRANCH  40  41
ATOM     41  C   UNL A   1      41.505  21.679  27.300  1.00  0.00     0.261 C 
BRANCH  41  42
ATOM     42  O   UNL A   1      42.595  22.614  27.311  1.00  0.00    -0.460 OA
BRANCH  42  43
ATOM     43  C   UNL A   1      43.179  22.899  26.128  1.00  0.00     0.338 C 
ATOM     44  O   UNL A   1      43.114  22.256  25.092  1.00  0.00    -0.246 OA
BRANCH  43  45
ATOM     45  C   UNL A   1      43.767  24.248  26.241  1.00  0.00     0.060 A 
ATOM     46  C   UNL A   1      43.806  25.079  25.113  1.00  0.00     0.016 A 
ATOM     47  C   UNL A   1      44.263  24.692  27.468  1.00  0.00     0.016 A 
ATOM     48  C   UNL A   1      44.373  26.350  25.203  1.00  0.00     0.010 A 
ATOM     49  C   UNL A   1      44.852  25.956  27.552  1.00  0.00     0.010 A 
ATOM     50  C   UNL A   1      44.939  26.775  26.412  1.00  0.00    -0.014 A 
BRANCH  50  51
ATOM     51  C   UNL A   1      45.799  27.980  26.439  1.00  0.00     0.031 A 
ATOM     52  C   UNL A   1      47.276  27.806  26.234  1.00  0.00     0.074 A 
ATOM     53  C   UNL A   1      45.284  29.205  26.643  1.00  0.00     0.049 A 
ATOM     54  N   UNL A   1      48.237  28.691  26.280  1.00  0.00    -0.248 NA
ATOM     55  C   UNL A   1      47.729  26.435  25.947  1.00  0.00     0.031 C 
ATOM     56  C   UNL A   1      43.867  29.503  26.825  1.00  0.00     0.029 A 
ATOM     57  N   UNL A   1      45.908  30.423  26.751  1.00  0.00    -0.354 N 
ATOM     58  C   UNL A   1      49.409  27.985  26.046  1.00  0.00     0.074 A 
ATOM     59  C   UNL A   1      49.042  26.593  25.889  1.00  0.00     0.031 C 
ATOM     60  C   UNL A   1      43.728  30.822  27.049  1.00  0.00     0.029 A 
ATOM     61  C   UNL A   1      45.050  31.448  27.061  1.00  0.00     0.049 A 
ATOM     62  H   UNL A   1      46.874  30.548  26.619  1.00  0.00     0.167 HD
ATOM     63  C   UNL A   1      50.677  28.454  25.966  1.00  0.00     0.037 A 
ATOM     64  C   UNL A   1      45.311  32.738  27.352  1.00  0.00     0.037 A 
ATOM     65  C   UNL A   1      51.032  29.840  26.130  1.00  0.00     0.049 A 
ATOM     66  C   UNL A   1      46.732  33.234  27.316  1.00  0.00     0.074 A 
ATOM     67  C   UNL A   1      52.280  30.428  26.025  1.00  0.00     0.029 A 
ATOM     68  N   UNL A   1      50.140  30.850  26.458  1.00  0.00    -0.354 N 
ATOM     69  N   UNL A   1      47.834  32.573  27.047  1.00  0.00    -0.248 NA
ATOM     70  C   UNL A   1      46.948  34.657  27.614  1.00  0.00     0.031 C 
ATOM     71  C   UNL A   1      52.154  31.780  26.362  1.00  0.00     0.029 A 
ATOM     72  C   UNL A   1      50.816  32.052  26.602  1.00  0.00     0.049 A 
ATOM     73  H   UNL A   1      49.169  30.731  26.571  1.00  0.00     0.167 HD
ATOM     74  C   UNL A   1      48.867  33.500  27.125  1.00  0.00     0.074 A 
ATOM     75  C   UNL A   1      48.259  34.773  27.449  1.00  0.00     0.031 C 
ATOM     76  C   UNL A   1      50.199  33.312  26.938  1.00  0.00     0.037 A 
BRANCH  63  77
ATOM     77  C   UNL A   1      51.770  27.447  25.745  1.00  0.00     0.064 A 
ATOM     78  C   UNL A   1      52.120  26.993  24.463  1.00  0.00     0.173 A 
ATOM     79  C   UNL A   1      52.471  26.918  26.839  1.00  0.00     0.173 A 
ATOM     80  F   UNL A   1      51.473  27.456  23.382  1.00  0.00    -0.203 F 
ATOM     81  C   UNL A   1      53.095  26.012  24.291  1.00  0.00     0.198 A 
ATOM     82  C   UNL A   1      53.470  25.966  26.660  1.00  0.00     0.198 A 
ATOM     83  F   UNL A   1      52.181  27.318  28.086  1.00  0.00    -0.203 F 
ATOM     84  F   UNL A   1      53.359  25.541  23.064  1.00  0.00    -0.200 F 
ATOM     85  C   UNL A   1      53.771  25.503  25.389  1.00  0.00     0.200 A 
ATOM     86  F   UNL A   1      54.134  25.486  27.721  1.00  0.00    -0.200 F 
ATOM     87  F   UNL A   1      54.706  24.558  25.221  1.00  0.00    -0.200 F 
ENDBRANCH  63  77
BRANCH  64  88
ATOM     88  C   UNL A   1      44.189  33.639  27.727  1.00  0.00     0.064 A 
ATOM     89  C   UNL A   1      43.617  33.597  29.004  1.00  0.00     0.173 A 
ATOM     90  C   UNL A   1      43.686  34.580  26.816  1.00  0.00     0.173 A 
ATOM     91  F   UNL A   1      44.046  32.697  29.901  1.00  0.00    -0.203 F 
ATOM     92  C   UNL A   1      42.582  34.461  29.357  1.00  0.00     0.198 A 
ATOM     93  C   UNL A   1      42.671  35.463  27.179  1.00  0.00     0.198 A 
ATOM     94  F   UNL A   1      44.198  34.659  25.579  1.00  0.00    -0.203 F 
ATOM     95  F   UNL A   1      42.031  34.382  30.577  1.00  0.00    -0.200 F 
ATOM     96  C   UNL A   1      42.118  35.401  28.448  1.00  0.00     0.200 A 
ATOM     97  F   UNL A   1      42.238  36.379  26.302  1.00  0.00    -0.200 F 
ATOM     98  F   UNL A   1      41.136  36.244  28.795  1.00  0.00    -0.200 F 
ENDBRANCH  64  88
BRANCH  76  99
ATOM     99  C   UNL A   1      51.092  34.517  27.054  1.00  0.00     0.064 A 
ATOM    100  C   UNL A   1      51.342  35.362  25.962  1.00  0.00     0.173 A 
ATOM    101  C   UNL A   1      51.667  34.858  28.289  1.00  0.00     0.173 A 
ATOM    102  F   UNL A   1      50.828  35.077  24.756  1.00  0.00    -0.203 F 
ATOM    103  C   UNL A   1      52.156  36.484  26.096  1.00  0.00     0.198 A 
ATOM    104  C   UNL A   1      52.450  36.001  28.427  1.00  0.00     0.198 A 
ATOM    105  F   UNL A   1      51.454  34.091  29.369  1.00  0.00    -0.203 F 
ATOM    106  F   UNL A   1      52.423  37.247  25.027  1.00  0.00    -0.200 F 
ATOM    107  C   UNL A   1      52.701  36.807  27.329  1.00  0.00     0.200 A 
ATOM    108  F   UNL A   1      52.961  36.319  29.625  1.00  0.00    -0.200 F 
ATOM    109  F   UNL A   1      53.476  37.894  27.458  1.00  0.00    -0.200 F 
ENDBRANCH  76  99
ENDBRANCH  50  51
ENDBRANCH  43  45
ENDBRANCH  42  43
ENDBRANCH  41  42
ENDBRANCH  40  41
ENDBRANCH  39  40
ENDBRANCH  38  39
ENDBRANCH  37  38
ENDBRANCH  36  37
ENDBRANCH   1  36
TORSDOF 25
ENDMDL
MODEL 3
REMARK VINA RESULT:      -9.0      4.805      8.467
REMARK SMILES COc1cc(NC(=O)C2CCN(S(=O)(=O)c3cccs3)CC2)c(Cl)cc1C(=O)OCCOCCOCCOCCOC(=O)c1ccc(-c2c3nc(c(-c4c(F)c(F)c(F)c(F)c4F)c4ccc([nH]4)c(-c4c(F)c(F)c(F)c(F)c4F)c4nc(c(-c5c(F)c(F)c(F)c(F)c5F)c5ccc2[nH]5)C=C4)C=C3)cc1
REMARK SMILES IDX 34 1 33 2 32 3 31 4 30 5 29 6 27 7 28 8 26 9 3 10 4 11 5 12
REMARK SMILES IDX 25 13 23 14 24 15 2 16 1 17 6 18 7 19 8 21 9 22 10 23 22 24
REMARK SMILES IDX 11 25 21 26 12 27 13 28 14 29 15 30 16 31 17 32 20 33 18 34
REMARK SMILES IDX 19 35 35 36 36 37 37 38 38 39 39 40 40 41 41 42 42 43 43 44
REMARK SMILES IDX 44 45 45 46 106 47 46 48 105 49 47 50 48 51 49 52 99 53
REMARK SMILES IDX 50 54 104 55 98 56 100 57 51 58 103 59 97 60 96 61 52 63
REMARK SMILES IDX 84 64 64 65 83 66 65 67 68 68 82 69 101 70 66 71 67 72 81 74
REMARK SMILES IDX 102 75 69 76 53 77 54 78 62 79 55 80 56 81 60 82 63 83 57 84
REMARK SMILES IDX 58 85 61 86 59 87 85 88 86 89 94 90 87 91 88 92 92 93 95 94
REMARK SMILES IDX 89 95 90 96 93 97 91 98 70 99 71 100 79 101 72 102 73 103
REMARK SMILES IDX 77 104 80 105 74 106 75 107 78 108 76 109
REMARK H PARENT 6 20 100 62 68 73
REMARK Flexibility Score: inf
ROOT
ATOM      1  C   UNL A   1      34.989  21.215  25.074  1.00  0.00     0.188 C 
ENDROOT
BRANCH   1   2
ATOM      2  C   UNL A   1      33.682  21.351  24.254  1.00  0.00     0.188 C 
BRANCH   2   3
ATOM      3  O   UNL A   1      32.496  21.222  25.019  1.00  0.00    -0.376 OA
BRANCH   3   4
ATOM      4  C   UNL A   1      31.981  22.348  25.701  1.00  0.00     0.202 C 
BRANCH   4   5
ATOM      5  C   UNL A   1      31.349  23.447  24.846  1.00  0.00     0.261 C 
BRANCH   5   6
ATOM      6  O   UNL A   1      32.261  24.460  24.425  1.00  0.00    -0.460 OA
BRANCH   6   7
ATOM      7  C   UNL A   1      31.749  25.529  23.783  1.00  0.00     0.342 C 
ATOM      8  O   UNL A   1      30.947  25.514  22.866  1.00  0.00    -0.246 OA
BRANCH   7   9
ATOM      9  C   UNL A   1      32.165  26.753  24.498  1.00  0.00     0.103 A 
ATOM     10  C   UNL A   1      33.074  27.655  23.957  1.00  0.00     0.135 A 
ATOM     11  C   UNL A   1      33.329  28.854  24.619  1.00  0.00     0.075 A 
ATOM     12  C   UNL A   1      32.876  29.104  25.911  1.00  0.00     0.063 A 
ATOM     13  C   UNL A   1      31.664  26.981  25.788  1.00  0.00     0.042 A 
ATOM     14  C   UNL A   1      32.050  28.126  26.499  1.00  0.00     0.065 A 
ATOM     15  Cl  UNL A   1      31.507  28.288  28.134  1.00  0.00    -0.082 Cl
BRANCH  10  16
ATOM     16  O   UNL A   1      33.727  27.414  22.776  1.00  0.00    -0.496 OA
ATOM     17  C   UNL A   1      34.482  28.565  22.353  1.00  0.00     0.278 C 
ENDBRANCH  10  16
BRANCH  12  18
ATOM     18  N   UNL A   1      33.206  30.265  26.652  1.00  0.00    -0.324 N 
ATOM     19  C   UNL A   1      34.297  30.666  27.377  1.00  0.00     0.227 C 
ATOM     20  H   UNL A   1      32.487  30.939  26.643  1.00  0.00     0.169 HD
ATOM     21  O   UNL A   1      34.287  31.810  27.837  1.00  0.00    -0.274 OA
BRANCH  19  22
ATOM     22  C   UNL A   1      35.469  29.729  27.651  1.00  0.00     0.081 C 
ATOM     23  C   UNL A   1      35.464  29.259  29.113  1.00  0.00     0.030 C 
ATOM     24  C   UNL A   1      36.836  30.317  27.289  1.00  0.00     0.030 C 
ATOM     25  C   UNL A   1      35.952  30.346  30.058  1.00  0.00     0.103 C 
ATOM     26  C   UNL A   1      37.365  31.312  28.311  1.00  0.00     0.103 C 
ATOM     27  N   UNL A   1      37.334  30.716  29.674  1.00  0.00    -0.197 NA
BRANCH  27  28
ATOM     28  S   UNL A   1      38.098  31.660  30.889  1.00  0.00     0.252 S 
ATOM     29  O   UNL A   1      38.724  30.743  31.819  1.00  0.00    -0.206 OA
ATOM     30  O   UNL A   1      38.863  32.694  30.225  1.00  0.00    -0.206 OA
BRANCH  28  31
ATOM     31  C   UNL A   1      36.815  32.464  31.830  1.00  0.00     0.135 A 
ATOM     32  C   UNL A   1      36.404  32.298  33.142  1.00  0.00     0.033 A 
ATOM     33  S   UNL A   1      35.888  33.663  31.037  1.00  0.00    -0.131 S 
ATOM     34  C   UNL A   1      35.298  33.127  33.478  1.00  0.00     0.013 A 
ATOM     35  C   UNL A   1      34.932  33.938  32.429  1.00  0.00     0.066 A 
ENDBRANCH  28  31
ENDBRANCH  27  28
ENDBRANCH  19  22
ENDBRANCH  12  18
ENDBRANCH   7   9
ENDBRANCH   6   7
ENDBRANCH   5   6
ENDBRANCH   4   5
ENDBRANCH   3   4
ENDBRANCH   2   3
ENDBRANCH   1   2
BRANCH   1  36
ATOM     36  O   UNL A   1      35.793  20.043  24.973  1.00  0.00    -0.377 OA
BRANCH  36  37
ATOM     37  C   UNL A   1      37.209  20.162  24.872  1.00  0.00     0.188 C 
BRANCH  37  38
ATOM     38  C   UNL A   1      37.929  21.444  25.356  1.00  0.00     0.188 C 
BRANCH  38  39
ATOM     39  O   UNL A   1      39.006  21.204  26.244  1.00  0.00    -0.376 OA
BRANCH  39  40
ATOM     40  C   UNL A   1      39.740  22.321  26.706  1.00  0.00     0.202 C 
BRANCH  40  41
ATOM     41  C   UNL A   1      41.053  22.036  27.446  1.00  0.00     0.261 C 
BRANCH  41  42
ATOM     42  O   UNL A   1      42.041  23.078  27.409  1.00  0.00    -0.460 OA
BRANCH  42  43
ATOM     43  C   UNL A   1      42.701  23.268  26.247  1.00  0.00     0.338 C 
ATOM     44  O   UNL A   1      42.574  22.637  25.209  1.00  0.00    -0.246 OA
BRANCH  43  45
ATOM     45  C   UNL A   1      43.480  24.513  26.381  1.00  0.00     0.060 A 
ATOM     46  C   UNL A   1      43.805  25.250  25.233  1.00  0.00     0.016 A 
ATOM     47  C   UNL A   1      43.874  24.958  27.645  1.00  0.00     0.016 A 
ATOM     48  C   UNL A   1      44.554  26.421  25.345  1.00  0.00     0.010 A 
ATOM     49  C   UNL A   1      44.645  26.117  27.754  1.00  0.00     0.010 A 
ATOM     50  C   UNL A   1      45.015  26.834  26.602  1.00  0.00    -0.014 A 
BRANCH  50  51
ATOM     51  C   UNL A   1      46.049  27.890  26.696  1.00  0.00     0.031 A 
ATOM     52  C   UNL A   1      45.604  29.301  26.958  1.00  0.00     0.074 A 
ATOM     53  C   UNL A   1      47.355  27.608  26.550  1.00  0.00     0.049 A 
ATOM     54  N   UNL A   1      46.307  30.401  27.016  1.00  0.00    -0.248 NA
ATOM     55  C   UNL A   1      44.161  29.492  27.174  1.00  0.00     0.031 C 
ATOM     56  C   UNL A   1      47.909  26.277  26.321  1.00  0.00     0.029 A 
ATOM     57  N   UNL A   1      48.448  28.439  26.552  1.00  0.00    -0.354 N 
ATOM     58  C   UNL A   1      45.392  31.418  27.258  1.00  0.00     0.074 A 
ATOM     59  C   UNL A   1      44.081  30.806  27.305  1.00  0.00     0.031 C 
ATOM     60  C   UNL A   1      49.242  26.383  26.178  1.00  0.00     0.029 A 
ATOM     61  C   UNL A   1      49.624  27.792  26.271  1.00  0.00     0.049 A 
ATOM     62  H   UNL A   1      48.392  29.404  26.737  1.00  0.00     0.167 HD
ATOM     63  C   UNL A   1      45.625  32.740  27.428  1.00  0.00     0.037 A 
ATOM     64  C   UNL A   1      50.862  28.289  26.078  1.00  0.00     0.037 A 
ATOM     65  C   UNL A   1      46.933  33.340  27.373  1.00  0.00     0.049 A 
ATOM     66  C   UNL A   1      51.096  29.770  26.214  1.00  0.00     0.074 A 
ATOM     67  C   UNL A   1      47.284  34.662  27.575  1.00  0.00     0.029 A 
ATOM     68  N   UNL A   1      48.103  32.657  27.071  1.00  0.00    -0.354 N 
ATOM     69  N   UNL A   1      50.237  30.723  26.490  1.00  0.00    -0.248 NA
ATOM     70  C   UNL A   1      52.473  30.246  26.022  1.00  0.00     0.031 C 
ATOM     71  C   UNL A   1      48.655  34.793  27.323  1.00  0.00     0.029 A 
ATOM     72  C   UNL A   1      49.172  33.539  27.039  1.00  0.00     0.049 A 
ATOM     73  H   UNL A   1      48.164  31.689  26.905  1.00  0.00     0.167 HD
ATOM     74  C   UNL A   1      50.969  31.905  26.523  1.00  0.00     0.074 A 
ATOM     75  C   UNL A   1      52.346  31.546  26.256  1.00  0.00     0.031 C 
ATOM     76  C   UNL A   1      50.539  33.170  26.759  1.00  0.00     0.037 A 
BRANCH  63  77
ATOM     77  C   UNL A   1      44.429  33.628  27.633  1.00  0.00     0.064 A 
ATOM     78  C   UNL A   1      43.880  34.393  26.593  1.00  0.00     0.173 A 
ATOM     79  C   UNL A   1      43.833  33.722  28.900  1.00  0.00     0.173 A 
ATOM     80  F   UNL A   1      44.418  34.351  25.365  1.00  0.00    -0.203 F 
ATOM     81  C   UNL A   1      42.810  35.255  26.825  1.00  0.00     0.198 A 
ATOM     82  C   UNL A   1      42.740  34.556  29.118  1.00  0.00     0.198 A 
ATOM     83  F   UNL A   1      44.314  33.011  29.929  1.00  0.00    -0.203 F 
ATOM     84  F   UNL A   1      42.350  36.031  25.833  1.00  0.00    -0.200 F 
ATOM     85  C   UNL A   1      42.239  35.332  28.086  1.00  0.00     0.200 A 
ATOM     86  F   UNL A   1      42.180  34.618  30.334  1.00  0.00    -0.200 F 
ATOM     87  F   UNL A   1      41.212  36.165  28.307  1.00  0.00    -0.200 F 
ENDBRANCH  63  77
BRANCH  64  88
ATOM     88  C   UNL A   1      51.967  27.364  25.712  1.00  0.00     0.064 A 
ATOM     89  C   UNL A   1      52.259  27.072  24.374  1.00  0.00     0.173 A 
ATOM     90  C   UNL A   1      52.771  26.775  26.699  1.00  0.00     0.173 A 
ATOM     91  F   UNL A   1      51.502  27.590  23.395  1.00  0.00    -0.203 F 
ATOM     92  C   UNL A   1      53.312  26.223  24.036  1.00  0.00     0.198 A 
ATOM     93  C   UNL A   1      53.841  25.951  26.360  1.00  0.00     0.198 A 
ATOM     94  F   UNL A   1      52.532  27.021  27.996  1.00  0.00    -0.203 F 
ATOM     95  F   UNL A   1      53.552  25.936  22.749  1.00  0.00    -0.200 F 
ATOM     96  C   UNL A   1      54.109  25.672  25.029  1.00  0.00     0.200 A 
ATOM     97  F   UNL A   1      54.618  25.434  27.322  1.00  0.00    -0.200 F 
ATOM     98  F   UNL A   1      55.133  24.872  24.702  1.00  0.00    -0.200 F 
ENDBRANCH  64  88
BRANCH  76  99
ATOM     99  C   UNL A   1      51.571  34.264  26.766  1.00  0.00     0.064 A 
ATOM    100  C   UNL A   1      52.322  34.568  27.911  1.00  0.00     0.173 A 
ATOM    101  C   UNL A   1      51.848  34.986  25.593  1.00  0.00     0.173 A 
ATOM    102  F   UNL A   1      52.091  33.918  29.062  1.00  0.00    -0.203 F 
ATOM    103  C   UNL A   1      53.288  35.571  27.891  1.00  0.00     0.198 A 
ATOM    104  C   UNL A   1      52.839  35.963  25.566  1.00  0.00     0.198 A 
ATOM    105  F   UNL A   1      51.167  34.731  24.466  1.00  0.00    -0.203 F 
ATOM    106  F   UNL A   1      53.955  35.880  29.011  1.00  0.00    -0.200 F 
ATOM    107  C   UNL A   1      53.551  36.261  26.717  1.00  0.00     0.200 A 
ATOM    108  F   UNL A   1      53.104  36.615  24.426  1.00  0.00    -0.200 F 
ATOM    109  F   UNL A   1      54.489  37.219  26.696  1.00  0.00    -0.200 F 
ENDBRANCH  76  99
ENDBRANCH  50  51
ENDBRANCH  43  45
ENDBRANCH  42  43
ENDBRANCH  41  42
ENDBRANCH  40  41
ENDBRANCH  39  40
ENDBRANCH  38  39
ENDBRANCH  37  38
ENDBRANCH  36  37
ENDBRANCH   1  36
TORSDOF 25
ENDMDL
