MODEL 1
REMARK VINA RESULT:      -7.1      0.000      0.000
REMARK SMILES COc1cc(C)cc2c1[C@@H](C)[C@@H](CC(=O)N[C@@H](Cc1c[nH]c3ccccc13)C(=O)OCCOCCOCCOCCOC(=O)c1ccc(-c3c4nc(c(-c5c(F)c(F)c(F)c(F)c5F)c5ccc([nH]5)c(-c5c(F)c(F)c(F)c(F)c5F)c5nc(c(-c6c(F)c(F)c(F)c(F)c6F)c6ccc3[nH]6)C=C5)C=C4)cc1)C(=O)O2
REMARK SMILES IDX 35 1 34 2 33 3 32 4 31 5 30 6 28 7 29 8 17 9 16 10 14 11
REMARK SMILES IDX 15 12 13 14 12 15 3 16 4 17 9 18 5 19 8 20 10 21 6 22 7 23
REMARK SMILES IDX 110 24 11 25 108 26 109 27 2 28 1 29 18 30 19 31 20 32 27 33
REMARK SMILES IDX 21 34 22 35 26 36 23 38 25 39 24 40 36 41 37 42 38 43 39 44
REMARK SMILES IDX 40 45 41 46 42 47 43 48 44 49 45 50 46 51 107 52 47 53
REMARK SMILES IDX 106 54 48 55 49 56 50 57 100 58 51 59 105 60 99 61 101 62
REMARK SMILES IDX 52 63 104 64 98 65 97 66 53 68 85 69 65 70 84 71 66 72 69 73
REMARK SMILES IDX 83 74 102 75 67 76 68 77 82 79 103 80 70 81 54 82 55 83
REMARK SMILES IDX 63 84 56 85 57 86 61 87 64 88 58 89 59 90 62 91 60 92 86 93
REMARK SMILES IDX 87 94 95 95 88 96 89 97 93 98 96 99 90 100 91 101 94 102
REMARK SMILES IDX 92 103 71 104 72 105 80 106 73 107 74 108 78 109 81 110
REMARK SMILES IDX 75 111 76 112 79 113 77 114
REMARK H PARENT 16 13 21 37 101 67 69 78
REMARK Flexibility Score: inf
ROOT
ATOM      1  C   UNL A   1      47.625  33.516  33.858  1.00  0.00     0.188 C 
ENDROOT
BRANCH   1   2
ATOM      2  C   UNL A   1      47.173  33.780  32.418  1.00  0.00     0.188 C 
BRANCH   2   3
ATOM      3  O   UNL A   1      46.397  32.805  31.747  1.00  0.00    -0.376 OA
BRANCH   3   4
ATOM      4  C   UNL A   1      46.715  32.442  30.405  1.00  0.00     0.202 C 
BRANCH   4   5
ATOM      5  C   UNL A   1      45.866  31.418  29.643  1.00  0.00     0.261 C 
BRANCH   5   6
ATOM      6  O   UNL A   1      46.652  30.518  28.840  1.00  0.00    -0.462 OA
BRANCH   6   7
ATOM      7  C   UNL A   1      45.943  29.568  28.197  1.00  0.00     0.329 C 
ATOM      8  O   UNL A   1      45.002  29.821  27.446  1.00  0.00    -0.250 OA
BRANCH   7   9
ATOM      9  C   UNL A   1      46.417  28.120  28.413  1.00  0.00     0.196 C 
BRANCH   9  10
ATOM     10  N   UNL A   1      47.022  27.227  27.438  1.00  0.00    -0.342 N 
ATOM     11  C   UNL A   1      47.031  25.852  27.458  1.00  0.00     0.221 C 
ATOM     12  O   UNL A   1      48.021  25.244  27.050  1.00  0.00    -0.275 OA
ATOM     13  H   UNL A   1      47.477  27.654  26.677  1.00  0.00     0.164 HD
BRANCH  11  14
ATOM     14  C   UNL A   1      45.730  25.099  27.748  1.00  0.00     0.116 C 
BRANCH  14  15
ATOM     15  C   UNL A   1      44.435  25.493  27.005  1.00  0.00     0.116 C 
ATOM     16  C   UNL A   1      43.404  21.872  26.328  1.00  0.00     0.126 A 
ATOM     17  C   UNL A   1      44.092  20.812  25.712  1.00  0.00     0.050 A 
ATOM     18  C   UNL A   1      43.868  23.185  26.192  1.00  0.00     0.041 A 
ATOM     19  C   UNL A   1      45.239  21.045  24.937  1.00  0.00    -0.044 A 
ATOM     20  C   UNL A   1      44.896  23.402  25.268  1.00  0.00     0.138 A 
ATOM     21  C   UNL A   1      43.336  24.388  26.961  1.00  0.00     0.038 C 
ATOM     22  C   UNL A   1      45.983  19.898  24.317  1.00  0.00     0.044 C 
ATOM     23  C   UNL A   1      45.609  22.362  24.673  1.00  0.00     0.051 A 
ATOM     24  O   UNL A   1      45.214  24.705  24.843  1.00  0.00    -0.426 OA
ATOM     25  C   UNL A   1      42.823  24.102  28.378  1.00  0.00     0.014 C 
ATOM     26  C   UNL A   1      44.693  25.779  25.552  1.00  0.00     0.315 C 
ATOM     27  O   UNL A   1      44.574  26.893  25.056  1.00  0.00    -0.251 OA
BRANCH  16  28
ATOM     28  O   UNL A   1      42.201  21.705  26.957  1.00  0.00    -0.496 OA
ATOM     29  C   UNL A   1      41.174  21.095  26.188  1.00  0.00     0.278 C 
ENDBRANCH  16  28
ENDBRANCH  14  15
ENDBRANCH  11  14
ENDBRANCH   9  10
BRANCH   9  30
ATOM     30  C   UNL A   1      47.185  28.036  29.723  1.00  0.00     0.074 C 
BRANCH  30  31
ATOM     31  C   UNL A   1      48.678  27.809  29.732  1.00  0.00    -0.020 A 
ATOM     32  C   UNL A   1      49.549  28.837  29.379  1.00  0.00     0.087 A 
ATOM     33  C   UNL A   1      49.530  26.896  30.470  1.00  0.00     0.003 A 
ATOM     34  N   UNL A   1      50.266  28.989  30.557  1.00  0.00    -0.361 N 
ATOM     35  C   UNL A   1      50.539  27.712  31.006  1.00  0.00     0.046 A 
ATOM     36  C   UNL A   1      49.551  25.540  30.866  1.00  0.00     0.010 A 
ATOM     37  H   UNL A   1      50.528  29.835  30.985  1.00  0.00     0.166 HD
ATOM     38  C   UNL A   1      51.508  27.278  31.914  1.00  0.00     0.026 A 
ATOM     39  C   UNL A   1      50.575  25.063  31.706  1.00  0.00     0.001 A 
ATOM     40  C   UNL A   1      51.532  25.922  32.228  1.00  0.00     0.002 A 
ENDBRANCH  30  31
ENDBRANCH   9  30
ENDBRANCH   7   9
ENDBRANCH   6   7
ENDBRANCH   5   6
ENDBRANCH   4   5
ENDBRANCH   3   4
ENDBRANCH   2   3
ENDBRANCH   1   2
BRANCH   1  41
ATOM     41  O   UNL A   1      48.560  34.410  34.426  1.00  0.00    -0.377 OA
BRANCH  41  42
ATOM     42  C   UNL A   1      49.909  34.003  34.608  1.00  0.00     0.188 C 
BRANCH  42  43
ATOM     43  C   UNL A   1      50.411  32.660  34.045  1.00  0.00     0.188 C 
BRANCH  43  44
ATOM     44  O   UNL A   1      50.749  31.683  35.011  1.00  0.00    -0.376 OA
BRANCH  44  45
ATOM     45  C   UNL A   1      50.899  30.326  34.619  1.00  0.00     0.202 C 
BRANCH  45  46
ATOM     46  C   UNL A   1      50.756  29.233  35.691  1.00  0.00     0.261 C 
BRANCH  46  47
ATOM     47  O   UNL A   1      49.443  28.681  35.883  1.00  0.00    -0.460 OA
BRANCH  47  48
ATOM     48  C   UNL A   1      49.058  27.619  35.146  1.00  0.00     0.338 C 
ATOM     49  O   UNL A   1      49.520  26.492  35.169  1.00  0.00    -0.246 OA
BRANCH  48  50
ATOM     50  C   UNL A   1      47.810  27.999  34.448  1.00  0.00     0.060 A 
ATOM     51  C   UNL A   1      46.580  27.470  34.846  1.00  0.00     0.016 A 
ATOM     52  C   UNL A   1      47.884  28.876  33.357  1.00  0.00     0.016 A 
ATOM     53  C   UNL A   1      45.416  27.867  34.185  1.00  0.00     0.010 A 
ATOM     54  C   UNL A   1      46.720  29.264  32.690  1.00  0.00     0.010 A 
ATOM     55  C   UNL A   1      45.475  28.794  33.128  1.00  0.00    -0.014 A 
BRANCH  55  56
ATOM     56  C   UNL A   1      44.227  29.451  32.665  1.00  0.00     0.031 A 
ATOM     57  C   UNL A   1      43.362  28.881  31.586  1.00  0.00     0.074 A 
ATOM     58  C   UNL A   1      43.892  30.611  33.258  1.00  0.00     0.049 A 
ATOM     59  N   UNL A   1      42.187  29.292  31.180  1.00  0.00    -0.248 NA
ATOM     60  C   UNL A   1      43.880  27.717  30.859  1.00  0.00     0.031 C 
ATOM     61  C   UNL A   1      44.693  31.283  34.284  1.00  0.00     0.029 A 
ATOM     62  N   UNL A   1      42.796  31.420  33.107  1.00  0.00    -0.354 N 
ATOM     63  C   UNL A   1      41.804  28.416  30.175  1.00  0.00     0.074 A 
ATOM     64  C   UNL A   1      42.904  27.490  29.988  1.00  0.00     0.031 C 
ATOM     65  C   UNL A   1      44.038  32.373  34.707  1.00  0.00     0.029 A 
ATOM     66  C   UNL A   1      42.785  32.489  33.969  1.00  0.00     0.049 A 
ATOM     67  H   UNL A   1      42.086  31.252  32.446  1.00  0.00     0.167 HD
ATOM     68  C   UNL A   1      40.630  28.380  29.497  1.00  0.00     0.037 A 
ATOM     69  C   UNL A   1      41.858  33.446  34.162  1.00  0.00     0.037 A 
ATOM     70  C   UNL A   1      39.555  29.327  29.676  1.00  0.00     0.049 A 
ATOM     71  C   UNL A   1      40.588  33.407  33.364  1.00  0.00     0.074 A 
ATOM     72  C   UNL A   1      38.316  29.352  29.058  1.00  0.00     0.029 A 
ATOM     73  N   UNL A   1      39.596  30.425  30.525  1.00  0.00    -0.354 N 
ATOM     74  N   UNL A   1      40.193  32.520  32.485  1.00  0.00    -0.248 NA
ATOM     75  C   UNL A   1      39.630  34.497  33.591  1.00  0.00     0.031 C 
ATOM     76  C   UNL A   1      37.631  30.491  29.491  1.00  0.00     0.029 A 
ATOM     77  C   UNL A   1      38.417  31.148  30.423  1.00  0.00     0.049 A 
ATOM     78  H   UNL A   1      40.351  30.655  31.114  1.00  0.00     0.167 HD
ATOM     79  C   UNL A   1      38.934  32.929  32.070  1.00  0.00     0.074 A 
ATOM     80  C   UNL A   1      38.623  34.137  32.806  1.00  0.00     0.031 C 
ATOM     81  C   UNL A   1      38.113  32.350  31.160  1.00  0.00     0.037 A 
BRANCH  68  82
ATOM     82  C   UNL A   1      40.423  27.266  28.511  1.00  0.00     0.064 A 
ATOM     83  C   UNL A   1      39.562  26.195  28.798  1.00  0.00     0.173 A 
ATOM     84  C   UNL A   1      41.008  27.310  27.235  1.00  0.00     0.173 A 
ATOM     85  F   UNL A   1      38.974  26.106  30.000  1.00  0.00    -0.203 F 
ATOM     86  C   UNL A   1      39.310  25.202  27.855  1.00  0.00     0.198 A 
ATOM     87  C   UNL A   1      40.730  26.331  26.284  1.00  0.00     0.198 A 
ATOM     88  F   UNL A   1      41.826  28.319  26.901  1.00  0.00    -0.203 F 
ATOM     89  F   UNL A   1      38.508  24.173  28.164  1.00  0.00    -0.200 F 
ATOM     90  C   UNL A   1      39.887  25.276  26.595  1.00  0.00     0.200 A 
ATOM     91  F   UNL A   1      41.272  26.414  25.061  1.00  0.00    -0.200 F 
ATOM     92  F   UNL A   1      39.627  24.329  25.682  1.00  0.00    -0.200 F 
ENDBRANCH  68  82
BRANCH  69  93
ATOM     93  C   UNL A   1      42.082  34.470  35.213  1.00  0.00     0.064 A 
ATOM     94  C   UNL A   1      41.744  34.208  36.548  1.00  0.00     0.173 A 
ATOM     95  C   UNL A   1      42.685  35.702  34.921  1.00  0.00     0.173 A 
ATOM     96  F   UNL A   1      41.155  33.047  36.873  1.00  0.00    -0.203 F 
ATOM     97  C   UNL A   1      41.994  35.141  37.550  1.00  0.00     0.198 A 
ATOM     98  C   UNL A   1      42.960  36.624  35.927  1.00  0.00     0.198 A 
ATOM     99  F   UNL A   1      43.038  35.995  33.660  1.00  0.00    -0.203 F 
ATOM    100  F   UNL A   1      41.637  34.876  38.813  1.00  0.00    -0.200 F 
ATOM    101  C   UNL A   1      42.611  36.345  37.241  1.00  0.00     0.200 A 
ATOM    102  F   UNL A   1      43.575  37.776  35.628  1.00  0.00    -0.200 F 
ATOM    103  F   UNL A   1      42.869  37.235  38.208  1.00  0.00    -0.200 F 
ENDBRANCH  69  93
BRANCH  81 104
ATOM    104  C   UNL A   1      36.783  33.000  30.907  1.00  0.00     0.064 A 
ATOM    105  C   UNL A   1      35.753  32.955  31.856  1.00  0.00     0.173 A 
ATOM    106  C   UNL A   1      36.569  33.750  29.739  1.00  0.00     0.173 A 
ATOM    107  F   UNL A   1      35.902  32.239  32.981  1.00  0.00    -0.203 F 
ATOM    108  C   UNL A   1      34.554  33.633  31.644  1.00  0.00     0.198 A 
ATOM    109  C   UNL A   1      35.381  34.449  29.544  1.00  0.00     0.198 A 
ATOM    110  F   UNL A   1      37.524  33.828  28.800  1.00  0.00    -0.203 F 
ATOM    111  F   UNL A   1      33.573  33.554  32.553  1.00  0.00    -0.200 F 
ATOM    112  C   UNL A   1      34.375  34.389  30.496  1.00  0.00     0.200 A 
ATOM    113  F   UNL A   1      35.215  35.192  28.442  1.00  0.00    -0.200 F 
ATOM    114  F   UNL A   1      33.230  35.060  30.306  1.00  0.00    -0.200 F 
ENDBRANCH  81 104
ENDBRANCH  55  56
ENDBRANCH  48  50
ENDBRANCH  47  48
ENDBRANCH  46  47
ENDBRANCH  45  46
ENDBRANCH  44  45
ENDBRANCH  43  44
ENDBRANCH  42  43
ENDBRANCH  41  42
ENDBRANCH   1  41
TORSDOF 26
ENDMDL
MODEL 2
REMARK VINA RESULT:      -7.1      4.695     11.192
REMARK SMILES COc1cc(C)cc2c1[C@@H](C)[C@@H](CC(=O)N[C@@H](Cc1c[nH]c3ccccc13)C(=O)OCCOCCOCCOCCOC(=O)c1ccc(-c3c4nc(c(-c5c(F)c(F)c(F)c(F)c5F)c5ccc([nH]5)c(-c5c(F)c(F)c(F)c(F)c5F)c5nc(c(-c6c(F)c(F)c(F)c(F)c6F)c6ccc3[nH]6)C=C5)C=C4)cc1)C(=O)O2
REMARK SMILES IDX 35 1 34 2 33 3 32 4 31 5 30 6 28 7 29 8 17 9 16 10 14 11
REMARK SMILES IDX 15 12 13 14 12 15 3 16 4 17 9 18 5 19 8 20 10 21 6 22 7 23
REMARK SMILES IDX 110 24 11 25 108 26 109 27 2 28 1 29 18 30 19 31 20 32 27 33
REMARK SMILES IDX 21 34 22 35 26 36 23 38 25 39 24 40 36 41 37 42 38 43 39 44
REMARK SMILES IDX 40 45 41 46 42 47 43 48 44 49 45 50 46 51 107 52 47 53
REMARK SMILES IDX 106 54 48 55 49 56 50 57 100 58 51 59 105 60 99 61 101 62
REMARK SMILES IDX 52 63 104 64 98 65 97 66 53 68 85 69 65 70 84 71 66 72 69 73
REMARK SMILES IDX 83 74 102 75 67 76 68 77 82 79 103 80 70 81 54 82 55 83
REMARK SMILES IDX 63 84 56 85 57 86 61 87 64 88 58 89 59 90 62 91 60 92 86 93
REMARK SMILES IDX 87 94 95 95 88 96 89 97 93 98 96 99 90 100 91 101 94 102
REMARK SMILES IDX 92 103 71 104 72 105 80 106 73 107 74 108 78 109 81 110
REMARK SMILES IDX 75 111 76 112 79 113 77 114
REMARK H PARENT 16 13 21 37 101 67 69 78
REMARK Flexibility Score: inf
ROOT
ATOM      1  C   UNL A   1      42.996  34.863  29.913  1.00  0.00     0.188 C 
ENDROOT
BRANCH   1   2
ATOM      2  C   UNL A   1      41.482  34.825  30.149  1.00  0.00     0.188 C 
BRANCH   2   3
ATOM      3  O   UNL A   1      40.929  33.771  30.916  1.00  0.00    -0.376 OA
BRANCH   3   4
ATOM      4  C   UNL A   1      41.578  32.502  30.956  1.00  0.00     0.202 C 
BRANCH   4   5
ATOM      5  C   UNL A   1      40.969  31.281  30.258  1.00  0.00     0.261 C 
BRANCH   5   6
ATOM      6  O   UNL A   1      39.531  31.257  30.314  1.00  0.00    -0.462 OA
BRANCH   6   7
ATOM      7  C   UNL A   1      39.017  30.794  31.472  1.00  0.00     0.329 C 
ATOM      8  O   UNL A   1      39.241  29.664  31.904  1.00  0.00    -0.250 OA
BRANCH   7   9
ATOM      9  C   UNL A   1      38.164  31.793  32.271  1.00  0.00     0.196 C 
BRANCH   9  10
ATOM     10  N   UNL A   1      38.082  33.235  32.095  1.00  0.00    -0.342 N 
ATOM     11  C   UNL A   1      38.088  34.198  33.077  1.00  0.00     0.221 C 
ATOM     12  O   UNL A   1      37.400  35.210  32.939  1.00  0.00    -0.275 OA
ATOM     13  H   UNL A   1      38.013  33.558  31.168  1.00  0.00     0.164 HD
BRANCH  11  14
ATOM     14  C   UNL A   1      39.128  34.118  34.196  1.00  0.00     0.116 C 
BRANCH  14  15
ATOM     15  C   UNL A   1      38.668  34.099  35.670  1.00  0.00     0.116 C 
ATOM     16  C   UNL A   1      41.621  31.970  36.844  1.00  0.00     0.126 A 
ATOM     17  C   UNL A   1      42.101  30.725  36.401  1.00  0.00     0.050 A 
ATOM     18  C   UNL A   1      40.348  32.410  36.464  1.00  0.00     0.041 A 
ATOM     19  C   UNL A   1      41.314  29.892  35.590  1.00  0.00    -0.044 A 
ATOM     20  C   UNL A   1      39.524  31.482  35.815  1.00  0.00     0.138 A 
ATOM     21  C   UNL A   1      39.792  33.806  36.710  1.00  0.00     0.038 C 
ATOM     22  C   UNL A   1      41.856  28.583  35.094  1.00  0.00     0.044 C 
ATOM     23  C   UNL A   1      39.993  30.258  35.341  1.00  0.00     0.051 A 
ATOM     24  O   UNL A   1      38.147  31.727  35.671  1.00  0.00    -0.426 OA
ATOM     25  C   UNL A   1      40.819  34.946  36.706  1.00  0.00     0.014 C 
ATOM     26  C   UNL A   1      37.670  33.006  35.926  1.00  0.00     0.315 C 
ATOM     27  O   UNL A   1      36.498  33.219  36.215  1.00  0.00    -0.251 OA
BRANCH  16  28
ATOM     28  O   UNL A   1      42.290  32.736  37.759  1.00  0.00    -0.496 OA
ATOM     29  C   UNL A   1      42.066  32.415  39.125  1.00  0.00     0.278 C 
ENDBRANCH  16  28
ENDBRANCH  14  15
ENDBRANCH  11  14
ENDBRANCH   9  10
BRANCH   9  30
ATOM     30  C   UNL A   1      36.765  31.223  32.452  1.00  0.00     0.074 C 
BRANCH  30  31
ATOM     31  C   UNL A   1      35.584  31.829  31.730  1.00  0.00    -0.020 A 
ATOM     32  C   UNL A   1      34.669  32.622  32.419  1.00  0.00     0.087 A 
ATOM     33  C   UNL A   1      35.360  32.197  30.346  1.00  0.00     0.003 A 
ATOM     34  N   UNL A   1      34.811  33.827  31.749  1.00  0.00    -0.361 N 
ATOM     35  C   UNL A   1      34.876  33.514  30.406  1.00  0.00     0.046 A 
ATOM     36  C   UNL A   1      35.594  31.680  29.052  1.00  0.00     0.010 A 
ATOM     37  H   UNL A   1      34.855  34.725  32.149  1.00  0.00     0.166 HD
ATOM     38  C   UNL A   1      34.658  34.329  29.292  1.00  0.00     0.026 A 
ATOM     39  C   UNL A   1      35.292  32.451  27.914  1.00  0.00     0.001 A 
ATOM     40  C   UNL A   1      34.840  33.759  28.035  1.00  0.00     0.002 A 
ENDBRANCH  30  31
ENDBRANCH   9  30
ENDBRANCH   7   9
ENDBRANCH   6   7
ENDBRANCH   5   6
ENDBRANCH   4   5
ENDBRANCH   3   4
ENDBRANCH   2   3
ENDBRANCH   1   2
BRANCH   1  41
ATOM     41  O   UNL A   1      43.550  36.061  29.409  1.00  0.00    -0.377 OA
BRANCH  41  42
ATOM     42  C   UNL A   1      43.751  37.168  30.275  1.00  0.00     0.188 C 
BRANCH  42  43
ATOM     43  C   UNL A   1      44.793  37.104  31.409  1.00  0.00     0.188 C 
BRANCH  43  44
ATOM     44  O   UNL A   1      44.295  37.359  32.709  1.00  0.00    -0.376 OA
BRANCH  44  45
ATOM     45  C   UNL A   1      45.179  37.806  33.726  1.00  0.00     0.202 C 
BRANCH  45  46
ATOM     46  C   UNL A   1      44.930  37.342  35.171  1.00  0.00     0.261 C 
BRANCH  46  47
ATOM     47  O   UNL A   1      46.027  36.704  35.845  1.00  0.00    -0.460 OA
BRANCH  47  48
ATOM     48  C   UNL A   1      45.782  35.674  36.680  1.00  0.00     0.338 C 
ATOM     49  O   UNL A   1      45.434  35.730  37.846  1.00  0.00    -0.246 OA
BRANCH  48  50
ATOM     50  C   UNL A   1      45.792  34.438  35.867  1.00  0.00     0.060 A 
ATOM     51  C   UNL A   1      44.596  33.843  35.459  1.00  0.00     0.016 A 
ATOM     52  C   UNL A   1      47.023  33.854  35.538  1.00  0.00     0.016 A 
ATOM     53  C   UNL A   1      44.636  32.691  34.670  1.00  0.00     0.010 A 
ATOM     54  C   UNL A   1      47.062  32.696  34.758  1.00  0.00     0.010 A 
ATOM     55  C   UNL A   1      45.869  32.132  34.284  1.00  0.00    -0.014 A 
BRANCH  55  56
ATOM     56  C   UNL A   1      45.904  31.128  33.193  1.00  0.00     0.031 A 
ATOM     57  C   UNL A   1      45.805  29.656  33.440  1.00  0.00     0.074 A 
ATOM     58  C   UNL A   1      46.038  31.595  31.937  1.00  0.00     0.049 A 
ATOM     59  N   UNL A   1      45.697  28.687  32.565  1.00  0.00    -0.248 NA
ATOM     60  C   UNL A   1      45.847  29.209  34.837  1.00  0.00     0.031 C 
ATOM     61  C   UNL A   1      46.197  33.009  31.588  1.00  0.00     0.029 A 
ATOM     62  N   UNL A   1      46.043  30.949  30.728  1.00  0.00    -0.354 N 
ATOM     63  C   UNL A   1      45.619  27.515  33.304  1.00  0.00     0.074 A 
ATOM     64  C   UNL A   1      45.761  27.891  34.697  1.00  0.00     0.031 C 
ATOM     65  C   UNL A   1      46.232  33.129  30.254  1.00  0.00     0.029 A 
ATOM     66  C   UNL A   1      46.121  31.803  29.656  1.00  0.00     0.049 A 
ATOM     67  H   UNL A   1      45.996  29.970  30.637  1.00  0.00     0.167 HD
ATOM     68  C   UNL A   1      45.422  26.252  32.854  1.00  0.00     0.037 A 
ATOM     69  C   UNL A   1      46.083  31.550  28.334  1.00  0.00     0.037 A 
ATOM     70  C   UNL A   1      45.311  25.891  31.460  1.00  0.00     0.049 A 
ATOM     71  C   UNL A   1      45.909  30.136  27.863  1.00  0.00     0.074 A 
ATOM     72  C   UNL A   1      45.079  24.642  30.909  1.00  0.00     0.029 A 
ATOM     73  N   UNL A   1      45.440  26.775  30.397  1.00  0.00    -0.354 N 
ATOM     74  N   UNL A   1      45.741  29.046  28.569  1.00  0.00    -0.248 NA
ATOM     75  C   UNL A   1      45.912  29.917  26.411  1.00  0.00     0.031 C 
ATOM     76  C   UNL A   1      45.120  24.761  29.517  1.00  0.00     0.029 A 
ATOM     77  C   UNL A   1      45.322  26.093  29.195  1.00  0.00     0.049 A 
ATOM     78  H   UNL A   1      45.593  27.744  30.484  1.00  0.00     0.167 HD
ATOM     79  C   UNL A   1      45.594  28.016  27.653  1.00  0.00     0.074 A 
ATOM     80  C   UNL A   1      45.678  28.613  26.336  1.00  0.00     0.031 C 
ATOM     81  C   UNL A   1      45.405  26.694  27.887  1.00  0.00     0.037 A 
BRANCH  68  82
ATOM     82  C   UNL A   1      45.284  25.157  33.872  1.00  0.00     0.064 A 
ATOM     83  C   UNL A   1      44.035  24.836  34.427  1.00  0.00     0.173 A 
ATOM     84  C   UNL A   1      46.381  24.357  34.228  1.00  0.00     0.173 A 
ATOM     85  F   UNL A   1      42.953  25.566  34.118  1.00  0.00    -0.203 F 
ATOM     86  C   UNL A   1      43.893  23.772  35.314  1.00  0.00     0.198 A 
ATOM     87  C   UNL A   1      46.230  23.274  35.092  1.00  0.00     0.198 A 
ATOM     88  F   UNL A   1      47.596  24.607  33.716  1.00  0.00    -0.203 F 
ATOM     89  F   UNL A   1      42.695  23.505  35.853  1.00  0.00    -0.200 F 
ATOM     90  C   UNL A   1      44.989  22.986  35.638  1.00  0.00     0.200 A 
ATOM     91  F   UNL A   1      47.285  22.502  35.388  1.00  0.00    -0.200 F 
ATOM     92  F   UNL A   1      44.846  21.949  36.475  1.00  0.00    -0.200 F 
ENDBRANCH  68  82
BRANCH  69  93
ATOM     93  C   UNL A   1      46.136  32.684  27.378  1.00  0.00     0.064 A 
ATOM     94  C   UNL A   1      44.961  33.336  26.978  1.00  0.00     0.173 A 
ATOM     95  C   UNL A   1      47.355  33.175  26.889  1.00  0.00     0.173 A 
ATOM     96  F   UNL A   1      43.771  32.894  27.411  1.00  0.00    -0.203 F 
ATOM     97  C   UNL A   1      45.003  34.432  26.120  1.00  0.00     0.198 A 
ATOM     98  C   UNL A   1      47.398  34.289  26.053  1.00  0.00     0.198 A 
ATOM     99  F   UNL A   1      48.508  32.594  27.252  1.00  0.00    -0.203 F 
ATOM    100  F   UNL A   1      43.864  35.019  25.733  1.00  0.00    -0.200 F 
ATOM    101  C   UNL A   1      46.222  34.913  25.665  1.00  0.00     0.200 A 
ATOM    102  F   UNL A   1      48.578  34.764  25.633  1.00  0.00    -0.200 F 
ATOM    103  F   UNL A   1      46.263  35.979  24.855  1.00  0.00    -0.200 F 
ENDBRANCH  69  93
BRANCH  81 104
ATOM    104  C   UNL A   1      45.263  25.788  26.698  1.00  0.00     0.064 A 
ATOM    105  C   UNL A   1      46.383  25.293  26.017  1.00  0.00     0.173 A 
ATOM    106  C   UNL A   1      43.996  25.343  26.290  1.00  0.00     0.173 A 
ATOM    107  F   UNL A   1      47.615  25.700  26.357  1.00  0.00    -0.203 F 
ATOM    108  C   UNL A   1      46.241  24.387  24.968  1.00  0.00     0.198 A 
ATOM    109  C   UNL A   1      43.859  24.415  25.260  1.00  0.00     0.198 A 
ATOM    110  F   UNL A   1      42.892  25.784  26.910  1.00  0.00    -0.203 F 
ATOM    111  F   UNL A   1      47.324  23.947  24.314  1.00  0.00    -0.200 F 
ATOM    112  C   UNL A   1      44.981  23.940  24.600  1.00  0.00     0.200 A 
ATOM    113  F   UNL A   1      42.642  23.973  24.916  1.00  0.00    -0.200 F 
ATOM    114  F   UNL A   1      44.848  23.050  23.606  1.00  0.00    -0.200 F 
ENDBRANCH  81 104
ENDBRANCH  55  56
ENDBRANCH  48  50
ENDBRANCH  47  48
ENDBRANCH  46  47
ENDBRANCH  45  46
ENDBRANCH  44  45
ENDBRANCH  43  44
ENDBRANCH  42  43
ENDBRANCH  41  42
ENDBRANCH   1  41
TORSDOF 26
ENDMDL
MODEL 3
REMARK VINA RESULT:      -6.9      3.241      6.680
REMARK SMILES COc1cc(C)cc2c1[C@@H](C)[C@@H](CC(=O)N[C@@H](Cc1c[nH]c3ccccc13)C(=O)OCCOCCOCCOCCOC(=O)c1ccc(-c3c4nc(c(-c5c(F)c(F)c(F)c(F)c5F)c5ccc([nH]5)c(-c5c(F)c(F)c(F)c(F)c5F)c5nc(c(-c6c(F)c(F)c(F)c(F)c6F)c6ccc3[nH]6)C=C5)C=C4)cc1)C(=O)O2
REMARK SMILES IDX 35 1 34 2 33 3 32 4 31 5 30 6 28 7 29 8 17 9 16 10 14 11
REMARK SMILES IDX 15 12 13 14 12 15 3 16 4 17 9 18 5 19 8 20 10 21 6 22 7 23
REMARK SMILES IDX 110 24 11 25 108 26 109 27 2 28 1 29 18 30 19 31 20 32 27 33
REMARK SMILES IDX 21 34 22 35 26 36 23 38 25 39 24 40 36 41 37 42 38 43 39 44
REMARK SMILES IDX 40 45 41 46 42 47 43 48 44 49 45 50 46 51 107 52 47 53
REMARK SMILES IDX 106 54 48 55 49 56 50 57 100 58 51 59 105 60 99 61 101 62
REMARK SMILES IDX 52 63 104 64 98 65 97 66 53 68 85 69 65 70 84 71 66 72 69 73
REMARK SMILES IDX 83 74 102 75 67 76 68 77 82 79 103 80 70 81 54 82 55 83
REMARK SMILES IDX 63 84 56 85 57 86 61 87 64 88 58 89 59 90 62 91 60 92 86 93
REMARK SMILES IDX 87 94 95 95 88 96 89 97 93 98 96 99 90 100 91 101 94 102
REMARK SMILES IDX 92 103 71 104 72 105 80 106 73 107 74 108 78 109 81 110
REMARK SMILES IDX 75 111 76 112 79 113 77 114
REMARK H PARENT 16 13 21 37 101 67 69 78
REMARK Flexibility Score: inf
ROOT
ATOM      1  C   UNL A   1      46.573  29.905  28.867  1.00  0.00     0.188 C 
ENDROOT
BRANCH   1   2
ATOM      2  C   UNL A   1      45.531  28.936  28.299  1.00  0.00     0.188 C 
BRANCH   2   3
ATOM      3  O   UNL A   1      44.156  29.256  28.408  1.00  0.00    -0.376 OA
BRANCH   3   4
ATOM      4  C   UNL A   1      43.173  28.233  28.273  1.00  0.00     0.202 C 
BRANCH   4   5
ATOM      5  C   UNL A   1      42.605  27.860  26.899  1.00  0.00     0.261 C 
BRANCH   5   6
ATOM      6  O   UNL A   1      42.773  26.468  26.576  1.00  0.00    -0.462 OA
BRANCH   6   7
ATOM      7  C   UNL A   1      44.048  26.089  26.348  1.00  0.00     0.329 C 
ATOM      8  O   UNL A   1      44.800  26.685  25.578  1.00  0.00    -0.250 OA
BRANCH   7   9
ATOM      9  C   UNL A   1      44.541  24.881  27.162  1.00  0.00     0.196 C 
BRANCH   9  10
ATOM     10  N   UNL A   1      43.749  23.971  27.974  1.00  0.00    -0.342 N 
ATOM     11  C   UNL A   1      43.883  23.720  29.320  1.00  0.00     0.221 C 
ATOM     12  O   UNL A   1      43.686  22.583  29.749  1.00  0.00    -0.275 OA
ATOM     13  H   UNL A   1      43.036  23.478  27.508  1.00  0.00     0.164 HD
BRANCH  11  14
ATOM     14  C   UNL A   1      44.028  24.896  30.289  1.00  0.00     0.116 C 
BRANCH  14  15
ATOM     15  C   UNL A   1      45.192  24.913  31.304  1.00  0.00     0.116 C 
ATOM     16  C   UNL A   1      43.140  26.639  34.033  1.00  0.00     0.126 A 
ATOM     17  C   UNL A   1      42.402  27.835  34.021  1.00  0.00     0.050 A 
ATOM     18  C   UNL A   1      44.053  26.365  33.008  1.00  0.00     0.041 A 
ATOM     19  C   UNL A   1      42.575  28.784  33.001  1.00  0.00    -0.044 A 
ATOM     20  C   UNL A   1      44.335  27.405  32.115  1.00  0.00     0.138 A 
ATOM     21  C   UNL A   1      44.764  25.034  32.798  1.00  0.00     0.038 C 
ATOM     22  C   UNL A   1      41.751  30.038  32.982  1.00  0.00     0.044 C 
ATOM     23  C   UNL A   1      43.592  28.583  32.069  1.00  0.00     0.051 A 
ATOM     24  O   UNL A   1      45.446  27.328  31.255  1.00  0.00    -0.426 OA
ATOM     25  C   UNL A   1      43.983  23.784  33.223  1.00  0.00     0.014 C 
ATOM     26  C   UNL A   1      46.085  26.105  31.105  1.00  0.00     0.315 C 
ATOM     27  O   UNL A   1      47.246  26.018  30.722  1.00  0.00    -0.251 OA
BRANCH  16  28
ATOM     28  O   UNL A   1      43.116  25.766  35.086  1.00  0.00    -0.496 OA
ATOM     29  C   UNL A   1      41.830  25.345  35.517  1.00  0.00     0.278 C 
ENDBRANCH  16  28
ENDBRANCH  14  15
ENDBRANCH  11  14
ENDBRANCH   9  10
BRANCH   9  30
ATOM     30  C   UNL A   1      45.529  24.084  26.323  1.00  0.00     0.074 C 
BRANCH  30  31
ATOM     31  C   UNL A   1      45.045  23.088  25.295  1.00  0.00    -0.020 A 
ATOM     32  C   UNL A   1      45.737  22.921  24.097  1.00  0.00     0.087 A 
ATOM     33  C   UNL A   1      44.264  21.871  25.396  1.00  0.00     0.003 A 
ATOM     34  N   UNL A   1      46.109  21.589  24.195  1.00  0.00    -0.361 N 
ATOM     35  C   UNL A   1      45.006  20.917  24.681  1.00  0.00     0.046 A 
ATOM     36  C   UNL A   1      43.116  21.391  26.066  1.00  0.00     0.010 A 
ATOM     37  H   UNL A   1      46.983  21.201  23.962  1.00  0.00     0.166 HD
ATOM     38  C   UNL A   1      44.702  19.554  24.632  1.00  0.00     0.026 A 
ATOM     39  C   UNL A   1      42.741  20.040  25.951  1.00  0.00     0.001 A 
ATOM     40  C   UNL A   1      43.529  19.134  25.252  1.00  0.00     0.002 A 
ENDBRANCH  30  31
ENDBRANCH   9  30
ENDBRANCH   7   9
ENDBRANCH   6   7
ENDBRANCH   5   6
ENDBRANCH   4   5
ENDBRANCH   3   4
ENDBRANCH   2   3
ENDBRANCH   1   2
BRANCH   1  41
ATOM     41  O   UNL A   1      46.383  30.373  30.186  1.00  0.00    -0.377 OA
BRANCH  41  42
ATOM     42  C   UNL A   1      47.307  31.291  30.753  1.00  0.00     0.188 C 
BRANCH  42  43
ATOM     43  C   UNL A   1      47.738  31.168  32.227  1.00  0.00     0.188 C 
BRANCH  43  44
ATOM     44  O   UNL A   1      48.228  32.356  32.819  1.00  0.00    -0.376 OA
BRANCH  44  45
ATOM     45  C   UNL A   1      49.600  32.453  33.172  1.00  0.00     0.202 C 
BRANCH  45  46
ATOM     46  C   UNL A   1      49.977  32.436  34.663  1.00  0.00     0.261 C 
BRANCH  46  47
ATOM     47  O   UNL A   1      49.455  31.353  35.451  1.00  0.00    -0.460 OA
BRANCH  47  48
ATOM     48  C   UNL A   1      48.826  31.624  36.612  1.00  0.00     0.338 C 
ATOM     49  O   UNL A   1      49.328  31.764  37.714  1.00  0.00    -0.246 OA
BRANCH  48  50
ATOM     50  C   UNL A   1      47.420  31.948  36.285  1.00  0.00     0.060 A 
ATOM     51  C   UNL A   1      46.921  33.238  36.482  1.00  0.00     0.016 A 
ATOM     52  C   UNL A   1      46.585  30.931  35.802  1.00  0.00     0.016 A 
ATOM     53  C   UNL A   1      45.597  33.522  36.140  1.00  0.00     0.010 A 
ATOM     54  C   UNL A   1      45.259  31.214  35.470  1.00  0.00     0.010 A 
ATOM     55  C   UNL A   1      44.769  32.520  35.597  1.00  0.00    -0.014 A 
BRANCH  55  56
ATOM     56  C   UNL A   1      43.497  32.906  34.938  1.00  0.00     0.031 A 
ATOM     57  C   UNL A   1      43.423  33.346  33.511  1.00  0.00     0.074 A 
ATOM     58  C   UNL A   1      42.380  32.851  35.687  1.00  0.00     0.049 A 
ATOM     59  N   UNL A   1      42.360  33.588  32.784  1.00  0.00    -0.248 NA
ATOM     60  C   UNL A   1      44.696  33.559  32.810  1.00  0.00     0.031 C 
ATOM     61  C   UNL A   1      42.347  32.487  37.106  1.00  0.00     0.029 A 
ATOM     62  N   UNL A   1      41.067  33.079  35.369  1.00  0.00    -0.354 N 
ATOM     63  C   UNL A   1      42.831  33.944  31.529  1.00  0.00     0.074 A 
ATOM     64  C   UNL A   1      44.278  33.952  31.613  1.00  0.00     0.031 C 
ATOM     65  C   UNL A   1      41.074  32.465  37.522  1.00  0.00     0.029 A 
ATOM     66  C   UNL A   1      40.205  32.835  36.410  1.00  0.00     0.049 A 
ATOM     67  H   UNL A   1      40.770  33.388  34.483  1.00  0.00     0.167 HD
ATOM     68  C   UNL A   1      42.113  34.212  30.410  1.00  0.00     0.037 A 
ATOM     69  C   UNL A   1      38.860  32.880  36.459  1.00  0.00     0.037 A 
ATOM     70  C   UNL A   1      40.670  34.228  30.351  1.00  0.00     0.049 A 
ATOM     71  C   UNL A   1      38.092  33.224  35.216  1.00  0.00     0.074 A 
ATOM     72  C   UNL A   1      39.855  34.457  29.255  1.00  0.00     0.029 A 
ATOM     73  N   UNL A   1      39.828  34.020  31.435  1.00  0.00    -0.354 N 
ATOM     74  N   UNL A   1      38.542  33.466  34.010  1.00  0.00    -0.248 NA
ATOM     75  C   UNL A   1      36.631  33.294  35.339  1.00  0.00     0.031 C 
ATOM     76  C   UNL A   1      38.525  34.441  29.686  1.00  0.00     0.029 A 
ATOM     77  C   UNL A   1      38.505  34.146  31.039  1.00  0.00     0.049 A 
ATOM     78  H   UNL A   1      40.126  33.814  32.351  1.00  0.00     0.167 HD
ATOM     79  C   UNL A   1      37.422  33.693  33.224  1.00  0.00     0.074 A 
ATOM     80  C   UNL A   1      36.268  33.545  34.087  1.00  0.00     0.031 C 
ATOM     81  C   UNL A   1      37.360  33.996  31.904  1.00  0.00     0.037 A 
BRANCH  68  82
ATOM     82  C   UNL A   1      42.868  34.487  29.141  1.00  0.00     0.064 A 
ATOM     83  C   UNL A   1      43.371  33.438  28.356  1.00  0.00     0.173 A 
ATOM     84  C   UNL A   1      43.008  35.795  28.651  1.00  0.00     0.173 A 
ATOM     85  F   UNL A   1      43.260  32.169  28.775  1.00  0.00    -0.203 F 
ATOM     86  C   UNL A   1      44.004  33.688  27.141  1.00  0.00     0.198 A 
ATOM     87  C   UNL A   1      43.615  36.040  27.421  1.00  0.00     0.198 A 
ATOM     88  F   UNL A   1      42.531  36.835  29.352  1.00  0.00    -0.203 F 
ATOM     89  F   UNL A   1      44.503  32.671  26.424  1.00  0.00    -0.200 F 
ATOM     90  C   UNL A   1      44.116  34.988  26.670  1.00  0.00     0.200 A 
ATOM     91  F   UNL A   1      43.704  37.294  26.957  1.00  0.00    -0.200 F 
ATOM     92  F   UNL A   1      44.708  35.225  25.490  1.00  0.00    -0.200 F 
ENDBRANCH  68  82
BRANCH  69  93
ATOM     93  C   UNL A   1      38.168  32.513  37.720  1.00  0.00     0.064 A 
ATOM     94  C   UNL A   1      38.032  33.445  38.757  1.00  0.00     0.173 A 
ATOM     95  C   UNL A   1      37.584  31.250  37.894  1.00  0.00     0.173 A 
ATOM     96  F   UNL A   1      38.585  34.662  38.639  1.00  0.00    -0.203 F 
ATOM     97  C   UNL A   1      37.343  33.128  39.924  1.00  0.00     0.198 A 
ATOM     98  C   UNL A   1      36.871  30.942  39.050  1.00  0.00     0.198 A 
ATOM     99  F   UNL A   1      37.676  30.327  36.926  1.00  0.00    -0.203 F 
ATOM    100  F   UNL A   1      37.250  34.028  40.910  1.00  0.00    -0.200 F 
ATOM    101  C   UNL A   1      36.754  31.879  40.066  1.00  0.00     0.200 A 
ATOM    102  F   UNL A   1      36.286  29.743  39.175  1.00  0.00    -0.200 F 
ATOM    103  F   UNL A   1      36.075  31.580  41.181  1.00  0.00    -0.200 F 
ENDBRANCH  69  93
BRANCH  81 104
ATOM    104  C   UNL A   1      36.001  34.180  31.293  1.00  0.00     0.064 A 
ATOM    105  C   UNL A   1      35.183  35.264  31.640  1.00  0.00     0.173 A 
ATOM    106  C   UNL A   1      35.550  33.312  30.286  1.00  0.00     0.173 A 
ATOM    107  F   UNL A   1      35.562  36.113  32.607  1.00  0.00    -0.203 F 
ATOM    108  C   UNL A   1      33.960  35.470  31.005  1.00  0.00     0.198 A 
ATOM    109  C   UNL A   1      34.340  33.537  29.635  1.00  0.00     0.198 A 
ATOM    110  F   UNL A   1      36.295  32.261  29.915  1.00  0.00    -0.203 F 
ATOM    111  F   UNL A   1      33.183  36.498  31.372  1.00  0.00    -0.200 F 
ATOM    112  C   UNL A   1      33.546  34.615  29.996  1.00  0.00     0.200 A 
ATOM    113  F   UNL A   1      33.949  32.719  28.649  1.00  0.00    -0.200 F 
ATOM    114  F   UNL A   1      32.380  34.829  29.370  1.00  0.00    -0.200 F 
ENDBRANCH  81 104
ENDBRANCH  55  56
ENDBRANCH  48  50
ENDBRANCH  47  48
ENDBRANCH  46  47
ENDBRANCH  45  46
ENDBRANCH  44  45
ENDBRANCH  43  44
ENDBRANCH  42  43
ENDBRANCH  41  42
ENDBRANCH   1  41
TORSDOF 26
ENDMDL
