MODEL 1
REMARK VINA RESULT:      -9.6      0.000      0.000
REMARK SMILES COC(=O)c1c(NC(=O)[C@@H]2C[C@@H]2C(=O)OCCOCCOCCOCCOC(=O)c2ccc(-c3c4nc(c(-c5c(F)c(F)c(F)c(F)c5F)c5ccc([nH]5)c(-c5c(F)c(F)c(F)c(F)c5F)c5nc(c(-c6c(F)c(F)c(F)c(F)c6F)c6ccc3[nH]6)C=C5)C=C4)cc2)sc2c1CC[N@@H+](Cc1ccccc1)C2
REMARK SMILES IDX 20 1 19 2 18 3 17 4 16 5 15 6 13 7 14 8 12 9 10 10 11 11
REMARK SMILES IDX 8 12 7 13 9 15 6 16 5 17 95 18 93 19 94 20 96 21 106 22
REMARK SMILES IDX 97 23 98 24 3 26 4 27 2 28 1 29 99 30 100 31 101 32 105 33
REMARK SMILES IDX 102 34 104 35 103 36 21 37 22 38 23 39 24 40 25 41 26 42
REMARK SMILES IDX 27 43 28 44 29 45 30 46 31 47 92 48 32 49 91 50 33 51 34 52
REMARK SMILES IDX 35 53 85 54 36 55 90 56 84 57 86 58 37 59 89 60 83 61 82 62
REMARK SMILES IDX 38 64 70 65 50 66 69 67 51 68 54 69 68 70 87 71 52 72 53 73
REMARK SMILES IDX 67 75 88 76 55 77 39 78 40 79 48 80 41 81 42 82 46 83 49 84
REMARK SMILES IDX 43 85 44 86 47 87 45 88 71 89 72 90 80 91 73 92 74 93 78 94
REMARK SMILES IDX 81 95 75 96 76 97 79 98 77 99 56 100 57 101 65 102 58 103
REMARK SMILES IDX 59 104 63 105 66 106 60 107 61 108 64 109 62 110
REMARK H PARENT 7 14 98 25 86 63 54 74
REMARK Flexibility Score: inf
ROOT
ATOM      1  C   UNL A   1      33.568  27.806  23.466  1.00  0.00     0.188 C 
ENDROOT
BRANCH   1   2
ATOM      2  C   UNL A   1      33.286  27.192  22.079  1.00  0.00     0.188 C 
BRANCH   2   3
ATOM      3  O   UNL A   1      33.826  25.897  21.933  1.00  0.00    -0.376 OA
BRANCH   3   4
ATOM      4  C   UNL A   1      33.451  24.931  22.891  1.00  0.00     0.202 C 
BRANCH   4   5
ATOM      5  C   UNL A   1      34.005  23.507  22.728  1.00  0.00     0.261 C 
BRANCH   5   6
ATOM      6  O   UNL A   1      35.382  23.289  23.103  1.00  0.00    -0.463 OA
BRANCH   6   7
ATOM      7  C   UNL A   1      35.657  23.223  24.428  1.00  0.00     0.309 C 
ATOM      8  O   UNL A   1      34.854  22.902  25.293  1.00  0.00    -0.252 OA
BRANCH   7   9
ATOM      9  C   UNL A   1      37.034  23.690  24.762  1.00  0.00     0.112 C 
ATOM     10  C   UNL A   1      38.256  23.018  25.381  1.00  0.00     0.094 C 
ATOM     11  C   UNL A   1      37.298  23.771  26.255  1.00  0.00     0.030 C 
BRANCH  10  12
ATOM     12  C   UNL A   1      38.518  21.587  25.609  1.00  0.00     0.229 C 
ATOM     13  N   UNL A   1      39.656  21.135  26.231  1.00  0.00    -0.317 N 
ATOM     14  H   UNL A   1      39.593  20.181  26.465  1.00  0.00     0.170 HD
ATOM     15  O   UNL A   1      37.672  20.753  25.290  1.00  0.00    -0.274 OA
BRANCH  13  16
ATOM     16  C   UNL A   1      40.863  21.683  26.611  1.00  0.00     0.110 A 
ATOM     17  C   UNL A   1      42.219  21.572  26.359  1.00  0.00     0.098 A 
ATOM     18  C   UNL A   1      42.974  22.549  27.126  1.00  0.00    -0.006 A 
ATOM     19  S   UNL A   1      40.542  22.869  27.825  1.00  0.00    -0.116 S 
ATOM     20  C   UNL A   1      42.159  23.352  27.894  1.00  0.00     0.065 A 
ATOM     21  C   UNL A   1      44.444  22.853  27.012  1.00  0.00     0.099 C 
ATOM     22  C   UNL A   1      42.617  24.579  28.626  1.00  0.00     0.310 C 
ATOM     23  C   UNL A   1      44.856  24.151  27.761  1.00  0.00     0.267 C 
ATOM     24  N   UNL A   1      43.814  25.167  27.999  1.00  0.00    -0.326 N 
ATOM     25  H   UNL A   1      44.211  25.809  28.687  1.00  0.00     0.348 HD
BRANCH  17  26
ATOM     26  C   UNL A   1      42.873  20.678  25.409  1.00  0.00     0.341 C 
ATOM     27  O   UNL A   1      43.795  20.997  24.718  1.00  0.00    -0.246 OA
BRANCH  26  28
ATOM     28  O   UNL A   1      42.248  19.456  25.386  1.00  0.00    -0.465 OA
ATOM     29  C   UNL A   1      42.756  18.473  26.293  1.00  0.00     0.282 C 
ENDBRANCH  26  28
ENDBRANCH  17  26
BRANCH  24  30
ATOM     30  C   UNL A   1      43.550  26.092  26.882  1.00  0.00     0.299 C 
BRANCH  30  31
ATOM     31  C   UNL A   1      42.446  27.115  27.051  1.00  0.00     0.006 A 
ATOM     32  C   UNL A   1      41.116  26.790  26.749  1.00  0.00     0.009 A 
ATOM     33  C   UNL A   1      42.722  28.391  27.563  1.00  0.00     0.009 A 
ATOM     34  C   UNL A   1      40.082  27.680  27.045  1.00  0.00     0.001 A 
ATOM     35  C   UNL A   1      41.687  29.272  27.882  1.00  0.00     0.001 A 
ATOM     36  C   UNL A   1      40.366  28.910  27.635  1.00  0.00     0.000 A 
ENDBRANCH  30  31
ENDBRANCH  24  30
ENDBRANCH  13  16
ENDBRANCH  10  12
ENDBRANCH   7   9
ENDBRANCH   6   7
ENDBRANCH   5   6
ENDBRANCH   4   5
ENDBRANCH   3   4
ENDBRANCH   2   3
ENDBRANCH   1   2
BRANCH   1  37
ATOM     37  O   UNL A   1      33.154  29.109  23.827  1.00  0.00    -0.377 OA
BRANCH  37  38
ATOM     38  C   UNL A   1      32.209  29.268  24.857  1.00  0.00     0.188 C 
BRANCH  38  39
ATOM     39  C   UNL A   1      32.547  28.940  26.332  1.00  0.00     0.188 C 
BRANCH  39  40
ATOM     40  O   UNL A   1      33.829  29.063  26.915  1.00  0.00    -0.376 OA
BRANCH  40  41
ATOM     41  C   UNL A   1      34.524  30.227  27.324  1.00  0.00     0.202 C 
BRANCH  41  42
ATOM     42  C   UNL A   1      33.914  31.456  27.967  1.00  0.00     0.261 C 
BRANCH  42  43
ATOM     43  O   UNL A   1      34.856  32.405  28.388  1.00  0.00    -0.460 OA
BRANCH  43  44
ATOM     44  C   UNL A   1      34.921  32.434  29.731  1.00  0.00     0.338 C 
ATOM     45  O   UNL A   1      34.172  33.009  30.506  1.00  0.00    -0.246 OA
BRANCH  44  46
ATOM     46  C   UNL A   1      36.176  31.839  30.157  1.00  0.00     0.060 A 
ATOM     47  C   UNL A   1      36.058  30.964  31.236  1.00  0.00     0.016 A 
ATOM     48  C   UNL A   1      37.346  32.548  29.855  1.00  0.00     0.016 A 
ATOM     49  C   UNL A   1      37.040  31.005  32.185  1.00  0.00     0.010 A 
ATOM     50  C   UNL A   1      38.313  32.609  30.818  1.00  0.00     0.010 A 
ATOM     51  C   UNL A   1      38.106  31.892  31.996  1.00  0.00    -0.014 A 
BRANCH  51  52
ATOM     52  C   UNL A   1      39.146  31.884  32.994  1.00  0.00     0.031 A 
ATOM     53  C   UNL A   1      38.839  32.874  34.048  1.00  0.00     0.074 A 
ATOM     54  C   UNL A   1      40.156  30.999  32.955  1.00  0.00     0.049 A 
ATOM     55  N   UNL A   1      39.517  33.927  34.350  1.00  0.00    -0.248 NA
ATOM     56  C   UNL A   1      37.506  32.822  34.684  1.00  0.00     0.031 C 
ATOM     57  C   UNL A   1      40.287  29.861  32.040  1.00  0.00     0.029 A 
ATOM     58  N   UNL A   1      41.211  30.839  33.802  1.00  0.00    -0.354 N 
ATOM     59  C   UNL A   1      38.818  34.519  35.397  1.00  0.00     0.074 A 
ATOM     60  C   UNL A   1      37.502  33.958  35.378  1.00  0.00     0.031 C 
ATOM     61  C   UNL A   1      41.209  29.003  32.531  1.00  0.00     0.029 A 
ATOM     62  C   UNL A   1      41.803  29.583  33.722  1.00  0.00     0.049 A 
ATOM     63  H   UNL A   1      41.525  31.546  34.412  1.00  0.00     0.167 HD
ATOM     64  C   UNL A   1      39.524  35.083  36.413  1.00  0.00     0.037 A 
ATOM     65  C   UNL A   1      42.640  29.040  34.640  1.00  0.00     0.037 A 
ATOM     66  C   UNL A   1      40.857  35.402  35.958  1.00  0.00     0.049 A 
ATOM     67  C   UNL A   1      43.180  30.151  35.462  1.00  0.00     0.074 A 
ATOM     68  C   UNL A   1      41.435  36.338  35.131  1.00  0.00     0.029 A 
ATOM     69  N   UNL A   1      41.738  34.360  36.075  1.00  0.00    -0.354 N 
ATOM     70  N   UNL A   1      44.013  31.046  35.008  1.00  0.00    -0.248 NA
ATOM     71  C   UNL A   1      42.518  30.497  36.718  1.00  0.00     0.031 C 
ATOM     72  C   UNL A   1      42.663  35.769  34.678  1.00  0.00     0.029 A 
ATOM     73  C   UNL A   1      42.828  34.517  35.269  1.00  0.00     0.049 A 
ATOM     74  H   UNL A   1      41.602  33.588  36.671  1.00  0.00     0.167 HD
ATOM     75  C   UNL A   1      43.652  32.209  35.660  1.00  0.00     0.074 A 
ATOM     76  C   UNL A   1      42.873  31.781  36.814  1.00  0.00     0.031 C 
ATOM     77  C   UNL A   1      43.720  33.409  35.016  1.00  0.00     0.037 A 
BRANCH  64  78
ATOM     78  C   UNL A   1      39.267  34.765  37.885  1.00  0.00     0.064 A 
ATOM     79  C   UNL A   1      39.310  35.841  38.799  1.00  0.00     0.173 A 
ATOM     80  C   UNL A   1      39.334  33.481  38.475  1.00  0.00     0.173 A 
ATOM     81  F   UNL A   1      39.226  37.108  38.368  1.00  0.00    -0.203 F 
ATOM     82  C   UNL A   1      39.544  35.648  40.163  1.00  0.00     0.198 A 
ATOM     83  C   UNL A   1      39.536  33.293  39.842  1.00  0.00     0.198 A 
ATOM     84  F   UNL A   1      39.294  32.348  37.771  1.00  0.00    -0.203 F 
ATOM     85  F   UNL A   1      39.714  36.708  40.964  1.00  0.00    -0.200 F 
ATOM     86  C   UNL A   1      39.680  34.374  40.680  1.00  0.00     0.200 A 
ATOM     87  F   UNL A   1      39.672  32.047  40.319  1.00  0.00    -0.200 F 
ATOM     88  F   UNL A   1      39.981  34.188  41.971  1.00  0.00    -0.200 F 
ENDBRANCH  64  78
BRANCH  65  89
ATOM     89  C   UNL A   1      42.807  27.618  35.029  1.00  0.00     0.064 A 
ATOM     90  C   UNL A   1      41.928  27.019  35.948  1.00  0.00     0.173 A 
ATOM     91  C   UNL A   1      43.648  26.745  34.313  1.00  0.00     0.173 A 
ATOM     92  F   UNL A   1      41.066  27.772  36.647  1.00  0.00    -0.203 F 
ATOM     93  C   UNL A   1      41.866  25.631  36.109  1.00  0.00     0.198 A 
ATOM     94  C   UNL A   1      43.595  25.360  34.484  1.00  0.00     0.198 A 
ATOM     95  F   UNL A   1      44.474  27.203  33.362  1.00  0.00    -0.203 F 
ATOM     96  F   UNL A   1      40.961  25.096  36.941  1.00  0.00    -0.200 F 
ATOM     97  C   UNL A   1      42.690  24.803  35.368  1.00  0.00     0.200 A 
ATOM     98  F   UNL A   1      44.378  24.568  33.739  1.00  0.00    -0.200 F 
ATOM     99  F   UNL A   1      42.586  23.471  35.473  1.00  0.00    -0.200 F 
ENDBRANCH  65  89
BRANCH  77 100
ATOM    100  C   UNL A   1      44.692  33.530  33.887  1.00  0.00     0.064 A 
ATOM    101  C   UNL A   1      44.390  33.293  32.538  1.00  0.00     0.173 A 
ATOM    102  C   UNL A   1      45.985  33.975  34.199  1.00  0.00     0.173 A 
ATOM    103  F   UNL A   1      43.151  32.948  32.157  1.00  0.00    -0.203 F 
ATOM    104  C   UNL A   1      45.361  33.452  31.551  1.00  0.00     0.198 A 
ATOM    105  C   UNL A   1      46.937  34.175  33.209  1.00  0.00     0.198 A 
ATOM    106  F   UNL A   1      46.314  34.250  35.471  1.00  0.00    -0.203 F 
ATOM    107  F   UNL A   1      45.065  33.193  30.269  1.00  0.00    -0.200 F 
ATOM    108  C   UNL A   1      46.630  33.900  31.886  1.00  0.00     0.200 A 
ATOM    109  F   UNL A   1      48.146  34.651  33.536  1.00  0.00    -0.200 F 
ATOM    110  F   UNL A   1      47.554  34.085  30.933  1.00  0.00    -0.200 F 
ENDBRANCH  77 100
ENDBRANCH  51  52
ENDBRANCH  44  46
ENDBRANCH  43  44
ENDBRANCH  42  43
ENDBRANCH  41  42
ENDBRANCH  40  41
ENDBRANCH  39  40
ENDBRANCH  38  39
ENDBRANCH  37  38
ENDBRANCH   1  37
TORSDOF 26
ENDMDL
MODEL 2
REMARK VINA RESULT:      -9.4      2.365      6.690
REMARK SMILES COC(=O)c1c(NC(=O)[C@@H]2C[C@@H]2C(=O)OCCOCCOCCOCCOC(=O)c2ccc(-c3c4nc(c(-c5c(F)c(F)c(F)c(F)c5F)c5ccc([nH]5)c(-c5c(F)c(F)c(F)c(F)c5F)c5nc(c(-c6c(F)c(F)c(F)c(F)c6F)c6ccc3[nH]6)C=C5)C=C4)cc2)sc2c1CC[N@@H+](Cc1ccccc1)C2
REMARK SMILES IDX 20 1 19 2 18 3 17 4 16 5 15 6 13 7 14 8 12 9 10 10 11 11
REMARK SMILES IDX 8 12 7 13 9 15 6 16 5 17 95 18 93 19 94 20 96 21 106 22
REMARK SMILES IDX 97 23 98 24 3 26 4 27 2 28 1 29 99 30 100 31 101 32 105 33
REMARK SMILES IDX 102 34 104 35 103 36 21 37 22 38 23 39 24 40 25 41 26 42
REMARK SMILES IDX 27 43 28 44 29 45 30 46 31 47 92 48 32 49 91 50 33 51 34 52
REMARK SMILES IDX 35 53 85 54 36 55 90 56 84 57 86 58 37 59 89 60 83 61 82 62
REMARK SMILES IDX 38 64 70 65 50 66 69 67 51 68 54 69 68 70 87 71 52 72 53 73
REMARK SMILES IDX 67 75 88 76 55 77 39 78 40 79 48 80 41 81 42 82 46 83 49 84
REMARK SMILES IDX 43 85 44 86 47 87 45 88 71 89 72 90 80 91 73 92 74 93 78 94
REMARK SMILES IDX 81 95 75 96 76 97 79 98 77 99 56 100 57 101 65 102 58 103
REMARK SMILES IDX 59 104 63 105 66 106 60 107 61 108 64 109 62 110
REMARK H PARENT 7 14 98 25 86 63 54 74
REMARK Flexibility Score: inf
ROOT
ATOM      1  C   UNL A   1      33.163  27.899  23.335  1.00  0.00     0.188 C 
ENDROOT
BRANCH   1   2
ATOM      2  C   UNL A   1      33.181  27.568  21.828  1.00  0.00     0.188 C 
BRANCH   2   3
ATOM      3  O   UNL A   1      33.704  26.285  21.555  1.00  0.00    -0.376 OA
BRANCH   3   4
ATOM      4  C   UNL A   1      33.042  25.183  22.137  1.00  0.00     0.202 C 
BRANCH   4   5
ATOM      5  C   UNL A   1      33.701  23.801  22.007  1.00  0.00     0.261 C 
BRANCH   5   6
ATOM      6  O   UNL A   1      34.757  23.485  22.939  1.00  0.00    -0.463 OA
BRANCH   6   7
ATOM      7  C   UNL A   1      34.398  22.868  24.091  1.00  0.00     0.309 C 
ATOM      8  O   UNL A   1      33.513  22.029  24.187  1.00  0.00    -0.252 OA
BRANCH   7   9
ATOM      9  C   UNL A   1      35.126  23.390  25.284  1.00  0.00     0.112 C 
ATOM     10  C   UNL A   1      36.370  22.939  26.042  1.00  0.00     0.094 C 
ATOM     11  C   UNL A   1      35.014  22.488  26.500  1.00  0.00     0.030 C 
BRANCH  10  12
ATOM     12  C   UNL A   1      37.397  21.960  25.651  1.00  0.00     0.229 C 
ATOM     13  N   UNL A   1      38.695  22.036  26.092  1.00  0.00    -0.317 N 
ATOM     14  H   UNL A   1      39.202  21.216  25.890  1.00  0.00     0.170 HD
ATOM     15  O   UNL A   1      37.088  20.997  24.951  1.00  0.00    -0.274 OA
BRANCH  13  16
ATOM     16  C   UNL A   1      39.467  22.972  26.750  1.00  0.00     0.110 A 
ATOM     17  C   UNL A   1      40.610  23.068  27.524  1.00  0.00     0.098 A 
ATOM     18  C   UNL A   1      40.892  24.452  27.867  1.00  0.00    -0.006 A 
ATOM     19  S   UNL A   1      38.713  24.511  26.545  1.00  0.00    -0.116 S 
ATOM     20  C   UNL A   1      39.972  25.322  27.325  1.00  0.00     0.065 A 
ATOM     21  C   UNL A   1      42.121  24.983  28.557  1.00  0.00     0.099 C 
ATOM     22  C   UNL A   1      40.110  26.816  27.323  1.00  0.00     0.310 C 
ATOM     23  C   UNL A   1      42.230  26.532  28.495  1.00  0.00     0.267 C 
ATOM     24  N   UNL A   1      41.523  27.228  27.404  1.00  0.00    -0.326 N 
ATOM     25  H   UNL A   1      41.518  28.214  27.667  1.00  0.00     0.348 HD
BRANCH  17  26
ATOM     26  C   UNL A   1      41.506  21.986  27.917  1.00  0.00     0.341 C 
ATOM     27  O   UNL A   1      42.669  22.135  28.154  1.00  0.00    -0.246 OA
BRANCH  26  28
ATOM     28  O   UNL A   1      40.842  20.784  27.920  1.00  0.00    -0.465 OA
ATOM     29  C   UNL A   1      41.465  19.721  27.192  1.00  0.00     0.282 C 
ENDBRANCH  26  28
ENDBRANCH  17  26
BRANCH  24  30
ATOM     30  C   UNL A   1      42.235  27.293  26.115  1.00  0.00     0.299 C 
BRANCH  30  31
ATOM     31  C   UNL A   1      43.355  26.303  25.872  1.00  0.00     0.006 A 
ATOM     32  C   UNL A   1      43.110  25.091  25.211  1.00  0.00     0.009 A 
ATOM     33  C   UNL A   1      44.672  26.599  26.256  1.00  0.00     0.009 A 
ATOM     34  C   UNL A   1      44.166  24.249  24.856  1.00  0.00     0.001 A 
ATOM     35  C   UNL A   1      45.730  25.770  25.880  1.00  0.00     0.001 A 
ATOM     36  C   UNL A   1      45.477  24.601  25.169  1.00  0.00     0.000 A 
ENDBRANCH  30  31
ENDBRANCH  24  30
ENDBRANCH  13  16
ENDBRANCH  10  12
ENDBRANCH   7   9
ENDBRANCH   6   7
ENDBRANCH   5   6
ENDBRANCH   4   5
ENDBRANCH   3   4
ENDBRANCH   2   3
ENDBRANCH   1   2
BRANCH   1  37
ATOM     37  O   UNL A   1      32.515  29.039  23.863  1.00  0.00    -0.377 OA
BRANCH  37  38
ATOM     38  C   UNL A   1      31.364  28.870  24.653  1.00  0.00     0.188 C 
BRANCH  38  39
ATOM     39  C   UNL A   1      31.424  28.206  26.050  1.00  0.00     0.188 C 
BRANCH  39  40
ATOM     40  O   UNL A   1      32.597  28.053  26.823  1.00  0.00    -0.376 OA
BRANCH  40  41
ATOM     41  C   UNL A   1      33.543  29.027  27.226  1.00  0.00     0.202 C 
BRANCH  41  42
ATOM     42  C   UNL A   1      33.251  30.476  27.559  1.00  0.00     0.261 C 
BRANCH  42  43
ATOM     43  O   UNL A   1      34.359  31.326  27.425  1.00  0.00    -0.460 OA
BRANCH  43  44
ATOM     44  C   UNL A   1      34.647  31.908  28.602  1.00  0.00     0.338 C 
ATOM     45  O   UNL A   1      34.189  32.945  29.057  1.00  0.00    -0.246 OA
BRANCH  44  46
ATOM     46  C   UNL A   1      35.779  31.225  29.205  1.00  0.00     0.060 A 
ATOM     47  C   UNL A   1      35.922  31.452  30.573  1.00  0.00     0.016 A 
ATOM     48  C   UNL A   1      36.842  30.894  28.355  1.00  0.00     0.016 A 
ATOM     49  C   UNL A   1      37.193  31.616  31.049  1.00  0.00     0.010 A 
ATOM     50  C   UNL A   1      38.110  31.087  28.826  1.00  0.00     0.010 A 
ATOM     51  C   UNL A   1      38.257  31.515  30.145  1.00  0.00    -0.014 A 
BRANCH  51  52
ATOM     52  C   UNL A   1      39.586  31.654  30.684  1.00  0.00     0.031 A 
ATOM     53  C   UNL A   1      40.055  30.353  31.206  1.00  0.00     0.074 A 
ATOM     54  C   UNL A   1      40.271  32.806  30.589  1.00  0.00     0.049 A 
ATOM     55  N   UNL A   1      40.341  30.059  32.428  1.00  0.00    -0.248 NA
ATOM     56  C   UNL A   1      39.975  29.177  30.315  1.00  0.00     0.031 C 
ATOM     57  C   UNL A   1      39.876  33.998  29.833  1.00  0.00     0.029 A 
ATOM     58  N   UNL A   1      41.522  33.117  31.029  1.00  0.00    -0.354 N 
ATOM     59  C   UNL A   1      40.728  28.723  32.397  1.00  0.00     0.074 A 
ATOM     60  C   UNL A   1      40.245  28.185  31.162  1.00  0.00     0.031 C 
ATOM     61  C   UNL A   1      40.956  34.793  29.665  1.00  0.00     0.029 A 
ATOM     62  C   UNL A   1      42.077  34.222  30.390  1.00  0.00     0.049 A 
ATOM     63  H   UNL A   1      41.989  32.610  31.732  1.00  0.00     0.167 HD
ATOM     64  C   UNL A   1      41.759  28.327  33.191  1.00  0.00     0.037 A 
ATOM     65  C   UNL A   1      43.389  34.562  30.389  1.00  0.00     0.037 A 
ATOM     66  C   UNL A   1      41.919  29.261  34.280  1.00  0.00     0.049 A 
ATOM     67  C   UNL A   1      44.030  33.867  31.532  1.00  0.00     0.074 A 
ATOM     68  C   UNL A   1      41.243  29.575  35.436  1.00  0.00     0.029 A 
ATOM     69  N   UNL A   1      42.716  30.331  33.970  1.00  0.00    -0.354 N 
ATOM     70  N   UNL A   1      43.798  34.166  32.780  1.00  0.00    -0.248 NA
ATOM     71  C   UNL A   1      44.677  32.576  31.312  1.00  0.00     0.031 C 
ATOM     72  C   UNL A   1      41.597  30.920  35.756  1.00  0.00     0.029 A 
ATOM     73  C   UNL A   1      42.512  31.384  34.812  1.00  0.00     0.049 A 
ATOM     74  H   UNL A   1      43.363  30.338  33.227  1.00  0.00     0.167 HD
ATOM     75  C   UNL A   1      43.857  32.954  33.438  1.00  0.00     0.074 A 
ATOM     76  C   UNL A   1      44.575  32.060  32.540  1.00  0.00     0.031 C 
ATOM     77  C   UNL A   1      43.022  32.696  34.485  1.00  0.00     0.037 A 
BRANCH  64  78
ATOM     78  C   UNL A   1      42.960  27.539  32.667  1.00  0.00     0.064 A 
ATOM     79  C   UNL A   1      43.439  26.479  33.468  1.00  0.00     0.173 A 
ATOM     80  C   UNL A   1      43.847  27.967  31.653  1.00  0.00     0.173 A 
ATOM     81  F   UNL A   1      42.680  25.964  34.446  1.00  0.00    -0.203 F 
ATOM     82  C   UNL A   1      44.744  25.993  33.353  1.00  0.00     0.198 A 
ATOM     83  C   UNL A   1      45.139  27.457  31.523  1.00  0.00     0.198 A 
ATOM     84  F   UNL A   1      43.561  28.947  30.793  1.00  0.00    -0.203 F 
ATOM     85  F   UNL A   1      45.194  25.084  34.228  1.00  0.00    -0.200 F 
ATOM     86  C   UNL A   1      45.601  26.499  32.395  1.00  0.00     0.200 A 
ATOM     87  F   UNL A   1      45.955  27.969  30.589  1.00  0.00    -0.200 F 
ATOM     88  F   UNL A   1      46.875  26.092  32.332  1.00  0.00    -0.200 F 
ENDBRANCH  64  78
BRANCH  65  89
ATOM     89  C   UNL A   1      44.182  35.228  29.326  1.00  0.00     0.064 A 
ATOM     90  C   UNL A   1      44.800  36.467  29.564  1.00  0.00     0.173 A 
ATOM     91  C   UNL A   1      44.580  34.548  28.158  1.00  0.00     0.173 A 
ATOM     92  F   UNL A   1      44.508  37.166  30.671  1.00  0.00    -0.203 F 
ATOM     93  C   UNL A   1      45.784  36.975  28.710  1.00  0.00     0.198 A 
ATOM     94  C   UNL A   1      45.553  35.062  27.299  1.00  0.00     0.198 A 
ATOM     95  F   UNL A   1      44.107  33.327  27.872  1.00  0.00    -0.203 F 
ATOM     96  F   UNL A   1      46.403  38.125  29.013  1.00  0.00    -0.200 F 
ATOM     97  C   UNL A   1      46.169  36.266  27.585  1.00  0.00     0.200 A 
ATOM     98  F   UNL A   1      45.937  34.350  26.230  1.00  0.00    -0.200 F 
ATOM     99  F   UNL A   1      47.158  36.718  26.803  1.00  0.00    -0.200 F 
ENDBRANCH  65  89
BRANCH  77 100
ATOM    100  C   UNL A   1      42.500  33.867  35.253  1.00  0.00     0.064 A 
ATOM    101  C   UNL A   1      41.324  34.568  34.949  1.00  0.00     0.173 A 
ATOM    102  C   UNL A   1      43.211  34.250  36.400  1.00  0.00     0.173 A 
ATOM    103  F   UNL A   1      40.549  34.203  33.917  1.00  0.00    -0.203 F 
ATOM    104  C   UNL A   1      40.906  35.638  35.738  1.00  0.00     0.198 A 
ATOM    105  C   UNL A   1      42.769  35.288  37.209  1.00  0.00     0.198 A 
ATOM    106  F   UNL A   1      44.323  33.588  36.755  1.00  0.00    -0.203 F 
ATOM    107  F   UNL A   1      39.796  36.317  35.418  1.00  0.00    -0.200 F 
ATOM    108  C   UNL A   1      41.625  35.992  36.871  1.00  0.00     0.200 A 
ATOM    109  F   UNL A   1      43.444  35.593  38.326  1.00  0.00    -0.200 F 
ATOM    110  F   UNL A   1      41.205  36.999  37.649  1.00  0.00    -0.200 F 
ENDBRANCH  77 100
ENDBRANCH  51  52
ENDBRANCH  44  46
ENDBRANCH  43  44
ENDBRANCH  42  43
ENDBRANCH  41  42
ENDBRANCH  40  41
ENDBRANCH  39  40
ENDBRANCH  38  39
ENDBRANCH  37  38
ENDBRANCH   1  37
TORSDOF 26
ENDMDL
MODEL 3
REMARK VINA RESULT:      -9.1      7.964     13.624
REMARK SMILES COC(=O)c1c(NC(=O)[C@@H]2C[C@@H]2C(=O)OCCOCCOCCOCCOC(=O)c2ccc(-c3c4nc(c(-c5c(F)c(F)c(F)c(F)c5F)c5ccc([nH]5)c(-c5c(F)c(F)c(F)c(F)c5F)c5nc(c(-c6c(F)c(F)c(F)c(F)c6F)c6ccc3[nH]6)C=C5)C=C4)cc2)sc2c1CC[N@@H+](Cc1ccccc1)C2
REMARK SMILES IDX 20 1 19 2 18 3 17 4 16 5 15 6 13 7 14 8 12 9 10 10 11 11
REMARK SMILES IDX 8 12 7 13 9 15 6 16 5 17 95 18 93 19 94 20 96 21 106 22
REMARK SMILES IDX 97 23 98 24 3 26 4 27 2 28 1 29 99 30 100 31 101 32 105 33
REMARK SMILES IDX 102 34 104 35 103 36 21 37 22 38 23 39 24 40 25 41 26 42
REMARK SMILES IDX 27 43 28 44 29 45 30 46 31 47 92 48 32 49 91 50 33 51 34 52
REMARK SMILES IDX 35 53 85 54 36 55 90 56 84 57 86 58 37 59 89 60 83 61 82 62
REMARK SMILES IDX 38 64 70 65 50 66 69 67 51 68 54 69 68 70 87 71 52 72 53 73
REMARK SMILES IDX 67 75 88 76 55 77 39 78 40 79 48 80 41 81 42 82 46 83 49 84
REMARK SMILES IDX 43 85 44 86 47 87 45 88 71 89 72 90 80 91 73 92 74 93 78 94
REMARK SMILES IDX 81 95 75 96 76 97 79 98 77 99 56 100 57 101 65 102 58 103
REMARK SMILES IDX 59 104 63 105 66 106 60 107 61 108 64 109 62 110
REMARK H PARENT 7 14 98 25 86 63 54 74
REMARK Flexibility Score: inf
ROOT
ATOM      1  C   UNL A   1      47.333  38.183  30.247  1.00  0.00     0.188 C 
ENDROOT
BRANCH   1   2
ATOM      2  C   UNL A   1      45.791  38.171  30.204  1.00  0.00     0.188 C 
BRANCH   2   3
ATOM      3  O   UNL A   1      45.276  37.231  29.285  1.00  0.00    -0.376 OA
BRANCH   3   4
ATOM      4  C   UNL A   1      44.287  36.343  29.759  1.00  0.00     0.202 C 
BRANCH   4   5
ATOM      5  C   UNL A   1      42.883  36.438  29.140  1.00  0.00     0.261 C 
BRANCH   5   6
ATOM      6  O   UNL A   1      42.489  37.716  28.596  1.00  0.00    -0.463 OA
BRANCH   6   7
ATOM      7  C   UNL A   1      42.535  37.853  27.249  1.00  0.00     0.309 C 
ATOM      8  O   UNL A   1      42.910  36.987  26.471  1.00  0.00    -0.252 OA
BRANCH   7   9
ATOM      9  C   UNL A   1      42.176  39.226  26.789  1.00  0.00     0.112 C 
ATOM     10  C   UNL A   1      42.637  40.625  27.183  1.00  0.00     0.094 C 
ATOM     11  C   UNL A   1      41.420  40.033  27.830  1.00  0.00     0.030 C 
BRANCH  10  12
ATOM     12  C   UNL A   1      43.798  41.032  27.992  1.00  0.00     0.229 C 
ATOM     13  N   UNL A   1      44.891  41.661  27.450  1.00  0.00    -0.317 N 
ATOM     14  H   UNL A   1      45.489  42.024  28.143  1.00  0.00     0.170 HD
ATOM     15  O   UNL A   1      43.782  40.863  29.210  1.00  0.00    -0.274 OA
BRANCH  13  16
ATOM     16  C   UNL A   1      45.361  41.915  26.178  1.00  0.00     0.110 A 
ATOM     17  C   UNL A   1      46.125  41.336  25.180  1.00  0.00     0.098 A 
ATOM     18  C   UNL A   1      46.186  42.191  24.007  1.00  0.00    -0.006 A 
ATOM     19  S   UNL A   1      44.831  43.496  25.728  1.00  0.00    -0.116 S 
ATOM     20  C   UNL A   1      45.457  43.350  24.167  1.00  0.00     0.065 A 
ATOM     21  C   UNL A   1      46.780  41.851  22.666  1.00  0.00     0.099 C 
ATOM     22  C   UNL A   1      45.155  44.326  23.068  1.00  0.00     0.310 C 
ATOM     23  C   UNL A   1      46.407  42.876  21.558  1.00  0.00     0.267 C 
ATOM     24  N   UNL A   1      45.181  43.675  21.746  1.00  0.00    -0.326 N 
ATOM     25  H   UNL A   1      45.239  44.427  21.058  1.00  0.00     0.348 HD
BRANCH  17  26
ATOM     26  C   UNL A   1      46.750  40.018  25.197  1.00  0.00     0.341 C 
ATOM     27  O   UNL A   1      46.908  39.341  24.223  1.00  0.00    -0.246 OA
BRANCH  26  28
ATOM     28  O   UNL A   1      47.073  39.650  26.480  1.00  0.00    -0.465 OA
ATOM     29  C   UNL A   1      48.259  38.864  26.628  1.00  0.00     0.282 C 
ENDBRANCH  26  28
ENDBRANCH  17  26
BRANCH  24  30
ATOM     30  C   UNL A   1      43.922  43.026  21.337  1.00  0.00     0.299 C 
BRANCH  30  31
ATOM     31  C   UNL A   1      43.170  43.612  20.161  1.00  0.00     0.006 A 
ATOM     32  C   UNL A   1      41.866  43.193  19.863  1.00  0.00     0.009 A 
ATOM     33  C   UNL A   1      43.742  44.624  19.375  1.00  0.00     0.009 A 
ATOM     34  C   UNL A   1      41.121  43.837  18.873  1.00  0.00     0.001 A 
ATOM     35  C   UNL A   1      42.989  45.285  18.402  1.00  0.00     0.001 A 
ATOM     36  C   UNL A   1      41.674  44.899  18.161  1.00  0.00     0.000 A 
ENDBRANCH  30  31
ENDBRANCH  24  30
ENDBRANCH  13  16
ENDBRANCH  10  12
ENDBRANCH   7   9
ENDBRANCH   6   7
ENDBRANCH   5   6
ENDBRANCH   4   5
ENDBRANCH   3   4
ENDBRANCH   2   3
ENDBRANCH   1   2
BRANCH   1  37
ATOM     37  O   UNL A   1      48.085  39.363  30.448  1.00  0.00    -0.377 OA
BRANCH  37  38
ATOM     38  C   UNL A   1      47.582  40.588  29.971  1.00  0.00     0.188 C 
BRANCH  38  39
ATOM     39  C   UNL A   1      47.090  41.697  30.933  1.00  0.00     0.188 C 
BRANCH  39  40
ATOM     40  O   UNL A   1      45.793  41.768  31.491  1.00  0.00    -0.376 OA
BRANCH  40  41
ATOM     41  C   UNL A   1      45.351  41.409  32.788  1.00  0.00     0.202 C 
BRANCH  41  42
ATOM     42  C   UNL A   1      46.224  40.961  33.941  1.00  0.00     0.261 C 
BRANCH  42  43
ATOM     43  O   UNL A   1      45.551  40.190  34.900  1.00  0.00    -0.460 OA
BRANCH  43  44
ATOM     44  C   UNL A   1      45.525  38.898  34.527  1.00  0.00     0.338 C 
ATOM     45  O   UNL A   1      46.399  38.267  33.952  1.00  0.00    -0.246 OA
BRANCH  44  46
ATOM     46  C   UNL A   1      44.182  38.377  34.717  1.00  0.00     0.060 A 
ATOM     47  C   UNL A   1      43.972  37.774  35.956  1.00  0.00     0.016 A 
ATOM     48  C   UNL A   1      43.462  38.052  33.561  1.00  0.00     0.016 A 
ATOM     49  C   UNL A   1      43.215  36.636  35.977  1.00  0.00     0.010 A 
ATOM     50  C   UNL A   1      42.730  36.898  33.578  1.00  0.00     0.010 A 
ATOM     51  C   UNL A   1      42.681  36.175  34.769  1.00  0.00    -0.014 A 
BRANCH  51  52
ATOM     52  C   UNL A   1      41.855  34.996  34.829  1.00  0.00     0.031 A 
ATOM     53  C   UNL A   1      42.520  33.879  34.125  1.00  0.00     0.074 A 
ATOM     54  C   UNL A   1      40.712  34.968  35.536  1.00  0.00     0.049 A 
ATOM     55  N   UNL A   1      42.109  33.267  33.069  1.00  0.00    -0.248 NA
ATOM     56  C   UNL A   1      43.915  33.558  34.493  1.00  0.00     0.031 C 
ATOM     57  C   UNL A   1      40.215  36.012  36.437  1.00  0.00     0.029 A 
ATOM     58  N   UNL A   1      39.817  33.955  35.711  1.00  0.00    -0.354 N 
ATOM     59  C   UNL A   1      43.081  32.307  32.805  1.00  0.00     0.074 A 
ATOM     60  C   UNL A   1      44.250  32.699  33.532  1.00  0.00     0.031 C 
ATOM     61  C   UNL A   1      39.259  35.489  37.236  1.00  0.00     0.029 A 
ATOM     62  C   UNL A   1      39.005  34.119  36.829  1.00  0.00     0.049 A 
ATOM     63  H   UNL A   1      39.751  33.183  35.104  1.00  0.00     0.167 HD
ATOM     64  C   UNL A   1      42.684  31.084  32.362  1.00  0.00     0.037 A 
ATOM     65  C   UNL A   1      38.264  33.150  37.420  1.00  0.00     0.037 A 
ATOM     66  C   UNL A   1      41.370  31.186  31.772  1.00  0.00     0.049 A 
ATOM     67  C   UNL A   1      38.091  32.056  36.432  1.00  0.00     0.074 A 
ATOM     68  C   UNL A   1      40.829  31.702  30.617  1.00  0.00     0.029 A 
ATOM     69  N   UNL A   1      40.352  31.063  32.680  1.00  0.00    -0.354 N 
ATOM     70  N   UNL A   1      37.364  32.166  35.355  1.00  0.00    -0.248 NA
ATOM     71  C   UNL A   1      39.021  30.930  36.443  1.00  0.00     0.031 C 
ATOM     72  C   UNL A   1      39.457  31.974  30.902  1.00  0.00     0.029 A 
ATOM     73  C   UNL A   1      39.180  31.581  32.211  1.00  0.00     0.049 A 
ATOM     74  H   UNL A   1      40.453  30.648  33.567  1.00  0.00     0.167 HD
ATOM     75  C   UNL A   1      38.040  31.419  34.410  1.00  0.00     0.074 A 
ATOM     76  C   UNL A   1      38.926  30.546  35.167  1.00  0.00     0.031 C 
ATOM     77  C   UNL A   1      38.073  31.822  33.107  1.00  0.00     0.037 A 
BRANCH  64  78
ATOM     78  C   UNL A   1      43.142  29.776  33.003  1.00  0.00     0.064 A 
ATOM     79  C   UNL A   1      43.541  28.733  32.137  1.00  0.00     0.173 A 
ATOM     80  C   UNL A   1      42.887  29.376  34.335  1.00  0.00     0.173 A 
ATOM     81  F   UNL A   1      43.840  28.987  30.854  1.00  0.00    -0.203 F 
ATOM     82  C   UNL A   1      43.541  27.394  32.537  1.00  0.00     0.198 A 
ATOM     83  C   UNL A   1      42.919  28.042  34.737  1.00  0.00     0.198 A 
ATOM     84  F   UNL A   1      42.513  30.224  35.296  1.00  0.00    -0.203 F 
ATOM     85  F   UNL A   1      43.792  26.433  31.638  1.00  0.00    -0.200 F 
ATOM     86  C   UNL A   1      43.209  27.047  33.832  1.00  0.00     0.200 A 
ATOM     87  F   UNL A   1      42.585  27.728  35.998  1.00  0.00    -0.200 F 
ATOM     88  F   UNL A   1      43.132  25.762  34.198  1.00  0.00    -0.200 F 
ENDBRANCH  64  78
BRANCH  65  89
ATOM     89  C   UNL A   1      37.919  32.979  38.852  1.00  0.00     0.064 A 
ATOM     90  C   UNL A   1      36.582  32.804  39.251  1.00  0.00     0.173 A 
ATOM     91  C   UNL A   1      38.899  32.711  39.827  1.00  0.00     0.173 A 
ATOM     92  F   UNL A   1      35.585  33.003  38.377  1.00  0.00    -0.203 F 
ATOM     93  C   UNL A   1      36.250  32.348  40.531  1.00  0.00     0.198 A 
ATOM     94  C   UNL A   1      38.566  32.268  41.109  1.00  0.00     0.198 A 
ATOM     95  F   UNL A   1      40.205  32.777  39.533  1.00  0.00    -0.203 F 
ATOM     96  F   UNL A   1      34.967  32.122  40.847  1.00  0.00    -0.200 F 
ATOM     97  C   UNL A   1      37.243  32.068  41.454  1.00  0.00     0.200 A 
ATOM     98  F   UNL A   1      39.538  31.972  41.983  1.00  0.00    -0.200 F 
ATOM     99  F   UNL A   1      36.930  31.568  42.657  1.00  0.00    -0.200 F 
ENDBRANCH  65  89
BRANCH  77 100
ATOM    100  C   UNL A   1      36.950  32.682  32.625  1.00  0.00     0.064 A 
ATOM    101  C   UNL A   1      36.783  34.039  32.943  1.00  0.00     0.173 A 
ATOM    102  C   UNL A   1      36.032  32.102  31.738  1.00  0.00     0.173 A 
ATOM    103  F   UNL A   1      37.670  34.681  33.717  1.00  0.00    -0.203 F 
ATOM    104  C   UNL A   1      35.712  34.766  32.427  1.00  0.00     0.198 A 
ATOM    105  C   UNL A   1      34.991  32.840  31.191  1.00  0.00     0.198 A 
ATOM    106  F   UNL A   1      36.169  30.817  31.373  1.00  0.00    -0.203 F 
ATOM    107  F   UNL A   1      35.549  36.053  32.764  1.00  0.00    -0.200 F 
ATOM    108  C   UNL A   1      34.822  34.168  31.546  1.00  0.00     0.200 A 
ATOM    109  F   UNL A   1      34.164  32.268  30.306  1.00  0.00    -0.200 F 
ATOM    110  F   UNL A   1      33.812  34.876  31.024  1.00  0.00    -0.200 F 
ENDBRANCH  77 100
ENDBRANCH  51  52
ENDBRANCH  44  46
ENDBRANCH  43  44
ENDBRANCH  42  43
ENDBRANCH  41  42
ENDBRANCH  40  41
ENDBRANCH  39  40
ENDBRANCH  38  39
ENDBRANCH  37  38
ENDBRANCH   1  37
TORSDOF 26
ENDMDL
