MODEL 1
REMARK VINA RESULT:      -9.5      0.000      0.000
REMARK SMILES CC(C)Cc1ccc([C@H](CF)C(=O)OCCOCCOCCOCCOC(=O)c2ccc(-c3c4nc(c(-c5c(F)c(F)c(F)c(F)c5F)c5ccc([nH]5)c(-c5c(F)c(F)c(F)c(F)c5F)c5nc(c(-c6c(F)c(F)c(F)c(F)c6F)c6ccc3[nH]6)C=C5)C=C4)cc2)cc1
REMARK SMILES IDX 19 1 18 2 17 3 16 4 15 5 14 6 12 7 13 8 9 9 8 10 5 11 6 12
REMARK SMILES IDX 93 13 7 14 92 15 4 16 2 17 1 18 3 19 10 20 11 21 20 22 21 23
REMARK SMILES IDX 22 24 23 25 24 26 25 27 26 28 27 29 28 30 29 31 30 32 91 33
REMARK SMILES IDX 31 34 90 35 32 36 33 37 34 38 84 39 35 40 89 41 83 42 85 43
REMARK SMILES IDX 36 44 88 45 82 46 81 47 37 49 69 50 49 51 68 52 50 53 53 54
REMARK SMILES IDX 67 55 86 56 51 57 52 58 66 60 87 61 54 62 38 63 39 64 47 65
REMARK SMILES IDX 40 66 41 67 45 68 48 69 42 70 43 71 46 72 44 73 70 74 71 75
REMARK SMILES IDX 79 76 72 77 73 78 77 79 80 80 74 81 75 82 78 83 76 84 55 85
REMARK SMILES IDX 56 86 64 87 57 88 58 89 62 90 65 91 59 92 60 93 63 94 61 95
REMARK H PARENT 85 48 53 59
REMARK Flexibility Score: inf
ROOT
ATOM      1  C   UNL A   1      32.199  23.479  27.078  1.00  0.00     0.188 C 
ENDROOT
BRANCH   1   2
ATOM      2  C   UNL A   1      30.734  23.235  26.693  1.00  0.00     0.188 C 
BRANCH   2   3
ATOM      3  O   UNL A   1      30.530  23.190  25.298  1.00  0.00    -0.376 OA
BRANCH   3   4
ATOM      4  C   UNL A   1      31.259  24.066  24.466  1.00  0.00     0.202 C 
BRANCH   4   5
ATOM      5  C   UNL A   1      30.659  24.707  23.195  1.00  0.00     0.261 C 
BRANCH   5   6
ATOM      6  O   UNL A   1      31.070  26.027  22.803  1.00  0.00    -0.463 OA
BRANCH   6   7
ATOM      7  C   UNL A   1      30.347  27.055  23.313  1.00  0.00     0.316 C 
ATOM      8  O   UNL A   1      29.292  26.889  23.924  1.00  0.00    -0.251 OA
BRANCH   7   9
ATOM      9  C   UNL A   1      30.899  28.453  23.006  1.00  0.00     0.160 C 
BRANCH   9  10
ATOM     10  C   UNL A   1      31.847  28.829  24.124  1.00  0.00    -0.031 A 
ATOM     11  C   UNL A   1      33.541  29.298  26.284  1.00  0.00    -0.048 A 
ATOM     12  C   UNL A   1      32.253  29.844  26.275  1.00  0.00     0.004 A 
ATOM     13  C   UNL A   1      34.002  28.570  25.182  1.00  0.00     0.004 A 
ATOM     14  C   UNL A   1      31.399  29.582  25.218  1.00  0.00     0.005 A 
ATOM     15  C   UNL A   1      33.159  28.340  24.104  1.00  0.00     0.005 A 
BRANCH  11  16
ATOM     16  C   UNL A   1      34.343  29.350  27.554  1.00  0.00     0.038 C 
BRANCH  16  17
ATOM     17  C   UNL A   1      35.258  30.595  27.558  1.00  0.00    -0.013 C 
ATOM     18  C   UNL A   1      34.922  31.558  28.705  1.00  0.00     0.008 C 
ATOM     19  C   UNL A   1      36.717  30.165  27.628  1.00  0.00     0.008 C 
ENDBRANCH  16  17
ENDBRANCH  11  16
ENDBRANCH   9  10
BRANCH   9  20
ATOM     20  C   UNL A   1      29.927  29.597  22.712  1.00  0.00     0.234 C 
ATOM     21  F   UNL A   1      28.882  29.127  21.970  1.00  0.00    -0.250 F 
ENDBRANCH   9  20
ENDBRANCH   7   9
ENDBRANCH   6   7
ENDBRANCH   5   6
ENDBRANCH   4   5
ENDBRANCH   3   4
ENDBRANCH   2   3
ENDBRANCH   1   2
BRANCH   1  22
ATOM     22  O   UNL A   1      32.844  22.580  27.976  1.00  0.00    -0.377 OA
BRANCH  22  23
ATOM     23  C   UNL A   1      33.923  21.766  27.521  1.00  0.00     0.188 C 
BRANCH  23  24
ATOM     24  C   UNL A   1      33.782  20.965  26.211  1.00  0.00     0.188 C 
BRANCH  24  25
ATOM     25  O   UNL A   1      34.816  21.186  25.275  1.00  0.00    -0.376 OA
BRANCH  25  26
ATOM     26  C   UNL A   1      36.091  21.588  25.748  1.00  0.00     0.202 C 
BRANCH  26  27
ATOM     27  C   UNL A   1      37.344  20.778  25.378  1.00  0.00     0.261 C 
BRANCH  27  28
ATOM     28  O   UNL A   1      38.591  21.486  25.295  1.00  0.00    -0.460 OA
BRANCH  28  29
ATOM     29  C   UNL A   1      39.498  21.325  26.278  1.00  0.00     0.338 C 
ATOM     30  O   UNL A   1      40.024  20.289  26.648  1.00  0.00    -0.246 OA
BRANCH  29  31
ATOM     31  C   UNL A   1      39.883  22.678  26.728  1.00  0.00     0.060 A 
ATOM     32  C   UNL A   1      39.195  23.801  26.242  1.00  0.00     0.016 A 
ATOM     33  C   UNL A   1      40.922  22.827  27.648  1.00  0.00     0.016 A 
ATOM     34  C   UNL A   1      39.569  25.082  26.656  1.00  0.00     0.010 A 
ATOM     35  C   UNL A   1      41.309  24.108  28.041  1.00  0.00     0.010 A 
ATOM     36  C   UNL A   1      40.657  25.241  27.523  1.00  0.00    -0.014 A 
BRANCH  36  37
ATOM     37  C   UNL A   1      41.266  26.576  27.733  1.00  0.00     0.031 A 
ATOM     38  C   UNL A   1      42.658  26.800  27.212  1.00  0.00     0.074 A 
ATOM     39  C   UNL A   1      40.623  27.546  28.406  1.00  0.00     0.049 A 
ATOM     40  N   UNL A   1      43.474  27.799  27.418  1.00  0.00    -0.248 NA
ATOM     41  C   UNL A   1      43.207  25.741  26.349  1.00  0.00     0.031 C 
ATOM     42  C   UNL A   1      39.256  27.463  28.913  1.00  0.00     0.029 A 
ATOM     43  N   UNL A   1      41.056  28.787  28.804  1.00  0.00    -0.354 N 
ATOM     44  C   UNL A   1      44.640  27.476  26.736  1.00  0.00     0.074 A 
ATOM     45  C   UNL A   1      44.432  26.185  26.119  1.00  0.00     0.031 C 
ATOM     46  C   UNL A   1      38.973  28.591  29.589  1.00  0.00     0.029 A 
ATOM     47  C   UNL A   1      40.155  29.452  29.601  1.00  0.00     0.049 A 
ATOM     48  H   UNL A   1      41.928  29.165  28.545  1.00  0.00     0.167 HD
ATOM     49  C   UNL A   1      45.782  28.195  26.640  1.00  0.00     0.037 A 
ATOM     50  C   UNL A   1      40.293  30.598  30.298  1.00  0.00     0.037 A 
ATOM     51  C   UNL A   1      45.973  29.482  27.249  1.00  0.00     0.049 A 
ATOM     52  C   UNL A   1      41.603  31.348  30.228  1.00  0.00     0.074 A 
ATOM     53  C   UNL A   1      47.079  30.311  27.183  1.00  0.00     0.029 A 
ATOM     54  N   UNL A   1      45.037  30.123  28.047  1.00  0.00    -0.354 N 
ATOM     55  N   UNL A   1      42.693  31.053  29.562  1.00  0.00    -0.248 NA
ATOM     56  C   UNL A   1      41.702  32.591  31.010  1.00  0.00     0.031 C 
ATOM     57  C   UNL A   1      46.840  31.420  27.996  1.00  0.00     0.029 A 
ATOM     58  C   UNL A   1      45.555  31.322  28.507  1.00  0.00     0.049 A 
ATOM     59  H   UNL A   1      44.139  29.778  28.255  1.00  0.00     0.167 HD
ATOM     60  C   UNL A   1      43.589  32.088  29.812  1.00  0.00     0.074 A 
ATOM     61  C   UNL A   1      42.913  33.021  30.685  1.00  0.00     0.031 C 
ATOM     62  C   UNL A   1      44.855  32.252  29.357  1.00  0.00     0.037 A 
BRANCH  49  63
ATOM     63  C   UNL A   1      46.930  27.593  25.884  1.00  0.00     0.064 A 
ATOM     64  C   UNL A   1      47.109  27.803  24.510  1.00  0.00     0.173 A 
ATOM     65  C   UNL A   1      47.902  26.842  26.565  1.00  0.00     0.173 A 
ATOM     66  F   UNL A   1      46.202  28.501  23.809  1.00  0.00    -0.203 F 
ATOM     67  C   UNL A   1      48.209  27.271  23.841  1.00  0.00     0.198 A 
ATOM     68  C   UNL A   1      49.016  26.338  25.901  1.00  0.00     0.198 A 
ATOM     69  F   UNL A   1      47.779  26.611  27.881  1.00  0.00    -0.203 F 
ATOM     70  F   UNL A   1      48.340  27.452  22.520  1.00  0.00    -0.200 F 
ATOM     71  C   UNL A   1      49.166  26.549  24.539  1.00  0.00     0.200 A 
ATOM     72  F   UNL A   1      49.946  25.654  26.581  1.00  0.00    -0.200 F 
ATOM     73  F   UNL A   1      50.233  26.054  23.898  1.00  0.00    -0.200 F 
ENDBRANCH  49  63
BRANCH  50  74
ATOM     74  C   UNL A   1      39.185  31.091  31.162  1.00  0.00     0.064 A 
ATOM     75  C   UNL A   1      39.027  30.628  32.476  1.00  0.00     0.173 A 
ATOM     76  C   UNL A   1      38.235  32.003  30.678  1.00  0.00     0.173 A 
ATOM     77  F   UNL A   1      39.893  29.736  32.980  1.00  0.00    -0.203 F 
ATOM     78  C   UNL A   1      37.946  31.032  33.258  1.00  0.00     0.198 A 
ATOM     79  C   UNL A   1      37.175  32.434  31.473  1.00  0.00     0.198 A 
ATOM     80  F   UNL A   1      38.335  32.479  29.428  1.00  0.00    -0.203 F 
ATOM     81  F   UNL A   1      37.784  30.522  34.487  1.00  0.00    -0.200 F 
ATOM     82  C   UNL A   1      37.024  31.938  32.759  1.00  0.00     0.200 A 
ATOM     83  F   UNL A   1      36.296  33.322  30.990  1.00  0.00    -0.200 F 
ATOM     84  F   UNL A   1      35.984  32.323  33.509  1.00  0.00    -0.200 F 
ENDBRANCH  50  74
BRANCH  62  85
ATOM     85  C   UNL A   1      45.580  33.511  29.736  1.00  0.00     0.064 A 
ATOM     86  C   UNL A   1      45.475  34.685  28.977  1.00  0.00     0.173 A 
ATOM     87  C   UNL A   1      46.329  33.561  30.923  1.00  0.00     0.173 A 
ATOM     88  F   UNL A   1      44.782  34.688  27.828  1.00  0.00    -0.203 F 
ATOM     89  C   UNL A   1      46.108  35.857  29.383  1.00  0.00     0.198 A 
ATOM     90  C   UNL A   1      46.930  34.743  31.344  1.00  0.00     0.198 A 
ATOM     91  F   UNL A   1      46.453  32.468  31.691  1.00  0.00    -0.203 F 
ATOM     92  F   UNL A   1      46.029  36.958  28.622  1.00  0.00    -0.200 F 
ATOM     93  C   UNL A   1      46.825  35.889  30.572  1.00  0.00     0.200 A 
ATOM     94  F   UNL A   1      47.603  34.775  32.503  1.00  0.00    -0.200 F 
ATOM     95  F   UNL A   1      47.414  37.023  30.970  1.00  0.00    -0.200 F 
ENDBRANCH  62  85
ENDBRANCH  36  37
ENDBRANCH  29  31
ENDBRANCH  28  29
ENDBRANCH  27  28
ENDBRANCH  26  27
ENDBRANCH  25  26
ENDBRANCH  24  25
ENDBRANCH  23  24
ENDBRANCH  22  23
ENDBRANCH   1  22
TORSDOF 24
ENDMDL
MODEL 2
REMARK VINA RESULT:      -9.4      1.306      7.514
REMARK SMILES CC(C)Cc1ccc([C@H](CF)C(=O)OCCOCCOCCOCCOC(=O)c2ccc(-c3c4nc(c(-c5c(F)c(F)c(F)c(F)c5F)c5ccc([nH]5)c(-c5c(F)c(F)c(F)c(F)c5F)c5nc(c(-c6c(F)c(F)c(F)c(F)c6F)c6ccc3[nH]6)C=C5)C=C4)cc2)cc1
REMARK SMILES IDX 19 1 18 2 17 3 16 4 15 5 14 6 12 7 13 8 9 9 8 10 5 11 6 12
REMARK SMILES IDX 93 13 7 14 92 15 4 16 2 17 1 18 3 19 10 20 11 21 20 22 21 23
REMARK SMILES IDX 22 24 23 25 24 26 25 27 26 28 27 29 28 30 29 31 30 32 91 33
REMARK SMILES IDX 31 34 90 35 32 36 33 37 34 38 84 39 35 40 89 41 83 42 85 43
REMARK SMILES IDX 36 44 88 45 82 46 81 47 37 49 69 50 49 51 68 52 50 53 53 54
REMARK SMILES IDX 67 55 86 56 51 57 52 58 66 60 87 61 54 62 38 63 39 64 47 65
REMARK SMILES IDX 40 66 41 67 45 68 48 69 42 70 43 71 46 72 44 73 70 74 71 75
REMARK SMILES IDX 79 76 72 77 73 78 77 79 80 80 74 81 75 82 78 83 76 84 55 85
REMARK SMILES IDX 56 86 64 87 57 88 58 89 62 90 65 91 59 92 60 93 63 94 61 95
REMARK H PARENT 85 48 53 59
REMARK Flexibility Score: inf
ROOT
ATOM      1  C   UNL A   1      32.383  22.681  23.041  1.00  0.00     0.188 C 
ENDROOT
BRANCH   1   2
ATOM      2  C   UNL A   1      33.628  23.276  22.369  1.00  0.00     0.188 C 
BRANCH   2   3
ATOM      3  O   UNL A   1      34.402  24.066  23.243  1.00  0.00    -0.376 OA
BRANCH   3   4
ATOM      4  C   UNL A   1      33.851  25.253  23.772  1.00  0.00     0.202 C 
BRANCH   4   5
ATOM      5  C   UNL A   1      33.375  25.375  25.237  1.00  0.00     0.261 C 
BRANCH   5   6
ATOM      6  O   UNL A   1      31.989  25.632  25.513  1.00  0.00    -0.463 OA
BRANCH   6   7
ATOM      7  C   UNL A   1      31.697  26.856  26.017  1.00  0.00     0.316 C 
ATOM      8  O   UNL A   1      31.206  27.018  27.134  1.00  0.00    -0.251 OA
BRANCH   7   9
ATOM      9  C   UNL A   1      31.951  28.030  25.063  1.00  0.00     0.160 C 
BRANCH   9  10
ATOM     10  C   UNL A   1      32.554  29.158  25.870  1.00  0.00    -0.031 A 
ATOM     11  C   UNL A   1      33.596  31.109  27.563  1.00  0.00    -0.048 A 
ATOM     12  C   UNL A   1      32.338  31.290  26.979  1.00  0.00     0.004 A 
ATOM     13  C   UNL A   1      34.359  29.979  27.248  1.00  0.00     0.004 A 
ATOM     14  C   UNL A   1      31.805  30.306  26.166  1.00  0.00     0.005 A 
ATOM     15  C   UNL A   1      33.841  29.009  26.401  1.00  0.00     0.005 A 
BRANCH  11  16
ATOM     16  C   UNL A   1      34.030  32.042  28.658  1.00  0.00     0.038 C 
BRANCH  16  17
ATOM     17  C   UNL A   1      34.150  33.484  28.116  1.00  0.00    -0.013 C 
ATOM     18  C   UNL A   1      33.712  34.530  29.149  1.00  0.00     0.008 C 
ATOM     19  C   UNL A   1      35.579  33.747  27.658  1.00  0.00     0.008 C 
ENDBRANCH  16  17
ENDBRANCH  11  16
ENDBRANCH   9  10
BRANCH   9  20
ATOM     20  C   UNL A   1      30.810  28.544  24.182  1.00  0.00     0.234 C 
ATOM     21  F   UNL A   1      30.144  27.484  23.637  1.00  0.00    -0.250 F 
ENDBRANCH   9  20
ENDBRANCH   7   9
ENDBRANCH   6   7
ENDBRANCH   5   6
ENDBRANCH   4   5
ENDBRANCH   3   4
ENDBRANCH   2   3
ENDBRANCH   1   2
BRANCH   1  22
ATOM     22  O   UNL A   1      32.300  21.272  23.234  1.00  0.00    -0.377 OA
BRANCH  22  23
ATOM     23  C   UNL A   1      32.458  20.718  24.539  1.00  0.00     0.188 C 
BRANCH  23  24
ATOM     24  C   UNL A   1      33.487  21.326  25.512  1.00  0.00     0.188 C 
BRANCH  24  25
ATOM     25  O   UNL A   1      34.746  20.684  25.509  1.00  0.00    -0.376 OA
BRANCH  25  26
ATOM     26  C   UNL A   1      35.763  21.180  24.656  1.00  0.00     0.202 C 
BRANCH  26  27
ATOM     27  C   UNL A   1      37.239  20.863  24.945  1.00  0.00     0.261 C 
BRANCH  27  28
ATOM     28  O   UNL A   1      37.998  21.840  25.674  1.00  0.00    -0.460 OA
BRANCH  28  29
ATOM     29  C   UNL A   1      39.213  21.501  26.147  1.00  0.00     0.338 C 
ATOM     30  O   UNL A   1      39.792  20.435  26.026  1.00  0.00    -0.246 OA
BRANCH  29  31
ATOM     31  C   UNL A   1      39.809  22.730  26.709  1.00  0.00     0.060 A 
ATOM     32  C   UNL A   1      39.325  23.988  26.316  1.00  0.00     0.016 A 
ATOM     33  C   UNL A   1      40.844  22.628  27.640  1.00  0.00     0.016 A 
ATOM     34  C   UNL A   1      39.899  25.151  26.835  1.00  0.00     0.010 A 
ATOM     35  C   UNL A   1      41.431  23.791  28.138  1.00  0.00     0.010 A 
ATOM     36  C   UNL A   1      40.984  25.056  27.715  1.00  0.00    -0.014 A 
BRANCH  36  37
ATOM     37  C   UNL A   1      41.802  26.249  28.036  1.00  0.00     0.031 A 
ATOM     38  C   UNL A   1      41.162  27.337  28.852  1.00  0.00     0.074 A 
ATOM     39  C   UNL A   1      43.059  26.386  27.581  1.00  0.00     0.049 A 
ATOM     40  N   UNL A   1      41.590  28.543  29.116  1.00  0.00    -0.248 NA
ATOM     41  C   UNL A   1      39.850  27.020  29.442  1.00  0.00     0.031 C 
ATOM     42  C   UNL A   1      43.801  25.380  26.825  1.00  0.00     0.029 A 
ATOM     43  N   UNL A   1      43.923  27.450  27.665  1.00  0.00    -0.354 N 
ATOM     44  C   UNL A   1      40.590  29.137  29.874  1.00  0.00     0.074 A 
ATOM     45  C   UNL A   1      39.528  28.167  30.021  1.00  0.00     0.031 C 
ATOM     46  C   UNL A   1      44.997  25.888  26.481  1.00  0.00     0.029 A 
ATOM     47  C   UNL A   1      45.084  27.271  26.952  1.00  0.00     0.049 A 
ATOM     48  H   UNL A   1      43.730  28.264  28.185  1.00  0.00     0.167 HD
ATOM     49  C   UNL A   1      40.562  30.386  30.395  1.00  0.00     0.037 A 
ATOM     50  C   UNL A   1      46.075  28.141  26.674  1.00  0.00     0.037 A 
ATOM     51  C   UNL A   1      41.628  31.339  30.251  1.00  0.00     0.049 A 
ATOM     52  C   UNL A   1      45.989  29.551  27.212  1.00  0.00     0.074 A 
ATOM     53  C   UNL A   1      41.715  32.618  30.771  1.00  0.00     0.029 A 
ATOM     54  N   UNL A   1      42.787  31.119  29.524  1.00  0.00    -0.354 N 
ATOM     55  N   UNL A   1      45.055  30.101  27.949  1.00  0.00    -0.248 NA
ATOM     56  C   UNL A   1      47.094  30.462  26.875  1.00  0.00     0.031 C 
ATOM     57  C   UNL A   1      42.896  33.197  30.302  1.00  0.00     0.029 A 
ATOM     58  C   UNL A   1      43.582  32.253  29.554  1.00  0.00     0.049 A 
ATOM     59  H   UNL A   1      43.013  30.283  29.056  1.00  0.00     0.167 HD
ATOM     60  C   UNL A   1      45.477  31.403  28.197  1.00  0.00     0.074 A 
ATOM     61  C   UNL A   1      46.754  31.559  27.536  1.00  0.00     0.031 C 
ATOM     62  C   UNL A   1      44.865  32.380  28.909  1.00  0.00     0.037 A 
BRANCH  49  63
ATOM     63  C   UNL A   1      39.328  30.812  31.135  1.00  0.00     0.064 A 
ATOM     64  C   UNL A   1      39.114  30.480  32.480  1.00  0.00     0.173 A 
ATOM     65  C   UNL A   1      38.372  31.619  30.498  1.00  0.00     0.173 A 
ATOM     66  F   UNL A   1      39.989  29.698  33.131  1.00  0.00    -0.203 F 
ATOM     67  C   UNL A   1      37.982  30.927  33.157  1.00  0.00     0.198 A 
ATOM     68  C   UNL A   1      37.257  32.090  31.186  1.00  0.00     0.198 A 
ATOM     69  F   UNL A   1      38.528  31.966  29.212  1.00  0.00    -0.203 F 
ATOM     70  F   UNL A   1      37.778  30.566  34.431  1.00  0.00    -0.200 F 
ATOM     71  C   UNL A   1      37.061  31.740  32.513  1.00  0.00     0.200 A 
ATOM     72  F   UNL A   1      36.378  32.888  30.565  1.00  0.00    -0.200 F 
ATOM     73  F   UNL A   1      35.982  32.184  33.170  1.00  0.00    -0.200 F 
ENDBRANCH  49  63
BRANCH  50  74
ATOM     74  C   UNL A   1      47.215  27.732  25.807  1.00  0.00     0.064 A 
ATOM     75  C   UNL A   1      47.128  27.803  24.409  1.00  0.00     0.173 A 
ATOM     76  C   UNL A   1      48.400  27.220  26.357  1.00  0.00     0.173 A 
ATOM     77  F   UNL A   1      46.008  28.261  23.832  1.00  0.00    -0.203 F 
ATOM     78  C   UNL A   1      48.166  27.348  23.598  1.00  0.00     0.198 A 
ATOM     79  C   UNL A   1      49.452  26.800  25.545  1.00  0.00     0.198 A 
ATOM     80  F   UNL A   1      48.540  27.128  27.688  1.00  0.00    -0.203 F 
ATOM     81  F   UNL A   1      48.028  27.367  22.264  1.00  0.00    -0.200 F 
ATOM     82  C   UNL A   1      49.328  26.852  24.165  1.00  0.00     0.200 A 
ATOM     83  F   UNL A   1      50.580  26.336  26.100  1.00  0.00    -0.200 F 
ATOM     84  F   UNL A   1      50.324  26.412  23.385  1.00  0.00    -0.200 F 
ENDBRANCH  50  74
BRANCH  62  85
ATOM     85  C   UNL A   1      45.585  33.688  29.071  1.00  0.00     0.064 A 
ATOM     86  C   UNL A   1      46.508  33.903  30.105  1.00  0.00     0.173 A 
ATOM     87  C   UNL A   1      45.403  34.713  28.129  1.00  0.00     0.173 A 
ATOM     88  F   UNL A   1      46.710  32.961  31.038  1.00  0.00    -0.203 F 
ATOM     89  C   UNL A   1      47.209  35.103  30.197  1.00  0.00     0.198 A 
ATOM     90  C   UNL A   1      46.131  35.896  28.205  1.00  0.00     0.198 A 
ATOM     91  F   UNL A   1      44.538  34.554  27.116  1.00  0.00    -0.203 F 
ATOM     92  F   UNL A   1      48.058  35.304  31.216  1.00  0.00    -0.200 F 
ATOM     93  C   UNL A   1      47.029  36.093  29.242  1.00  0.00     0.200 A 
ATOM     94  F   UNL A   1      45.970  36.841  27.268  1.00  0.00    -0.200 F 
ATOM     95  F   UNL A   1      47.721  37.238  29.322  1.00  0.00    -0.200 F 
ENDBRANCH  62  85
ENDBRANCH  36  37
ENDBRANCH  29  31
ENDBRANCH  28  29
ENDBRANCH  27  28
ENDBRANCH  26  27
ENDBRANCH  25  26
ENDBRANCH  24  25
ENDBRANCH  23  24
ENDBRANCH  22  23
ENDBRANCH   1  22
TORSDOF 24
ENDMDL
MODEL 3
REMARK VINA RESULT:      -9.0      1.208      2.510
REMARK SMILES CC(C)Cc1ccc([C@H](CF)C(=O)OCCOCCOCCOCCOC(=O)c2ccc(-c3c4nc(c(-c5c(F)c(F)c(F)c(F)c5F)c5ccc([nH]5)c(-c5c(F)c(F)c(F)c(F)c5F)c5nc(c(-c6c(F)c(F)c(F)c(F)c6F)c6ccc3[nH]6)C=C5)C=C4)cc2)cc1
REMARK SMILES IDX 19 1 18 2 17 3 16 4 15 5 14 6 12 7 13 8 9 9 8 10 5 11 6 12
REMARK SMILES IDX 93 13 7 14 92 15 4 16 2 17 1 18 3 19 10 20 11 21 20 22 21 23
REMARK SMILES IDX 22 24 23 25 24 26 25 27 26 28 27 29 28 30 29 31 30 32 91 33
REMARK SMILES IDX 31 34 90 35 32 36 33 37 34 38 84 39 35 40 89 41 83 42 85 43
REMARK SMILES IDX 36 44 88 45 82 46 81 47 37 49 69 50 49 51 68 52 50 53 53 54
REMARK SMILES IDX 67 55 86 56 51 57 52 58 66 60 87 61 54 62 38 63 39 64 47 65
REMARK SMILES IDX 40 66 41 67 45 68 48 69 42 70 43 71 46 72 44 73 70 74 71 75
REMARK SMILES IDX 79 76 72 77 73 78 77 79 80 80 74 81 75 82 78 83 76 84 55 85
REMARK SMILES IDX 56 86 64 87 57 88 58 89 62 90 65 91 59 92 60 93 63 94 61 95
REMARK H PARENT 85 48 53 59
REMARK Flexibility Score: inf
ROOT
ATOM      1  C   UNL A   1      31.960  23.349  27.155  1.00  0.00     0.188 C 
ENDROOT
BRANCH   1   2
ATOM      2  C   UNL A   1      30.595  22.777  26.751  1.00  0.00     0.188 C 
BRANCH   2   3
ATOM      3  O   UNL A   1      30.483  22.546  25.365  1.00  0.00    -0.376 OA
BRANCH   3   4
ATOM      4  C   UNL A   1      31.472  21.781  24.710  1.00  0.00     0.202 C 
BRANCH   4   5
ATOM      5  C   UNL A   1      31.939  22.073  23.267  1.00  0.00     0.261 C 
BRANCH   5   6
ATOM      6  O   UNL A   1      32.835  23.169  23.019  1.00  0.00    -0.463 OA
BRANCH   6   7
ATOM      7  C   UNL A   1      32.257  24.362  22.738  1.00  0.00     0.316 C 
ATOM      8  O   UNL A   1      31.047  24.560  22.847  1.00  0.00    -0.251 OA
BRANCH   7   9
ATOM      9  C   UNL A   1      33.211  25.436  22.199  1.00  0.00     0.160 C 
BRANCH   9  10
ATOM     10  C   UNL A   1      33.516  26.392  23.331  1.00  0.00    -0.031 A 
ATOM     11  C   UNL A   1      33.828  28.169  25.452  1.00  0.00    -0.048 A 
ATOM     12  C   UNL A   1      33.895  28.635  24.135  1.00  0.00     0.004 A 
ATOM     13  C   UNL A   1      33.668  26.803  25.706  1.00  0.00     0.004 A 
ATOM     14  C   UNL A   1      33.705  27.758  23.082  1.00  0.00     0.005 A 
ATOM     15  C   UNL A   1      33.516  25.917  24.648  1.00  0.00     0.005 A 
BRANCH  11  16
ATOM     16  C   UNL A   1      33.749  29.168  26.573  1.00  0.00     0.038 C 
BRANCH  16  17
ATOM     17  C   UNL A   1      32.275  29.429  26.955  1.00  0.00    -0.013 C 
ATOM     18  C   UNL A   1      31.433  29.868  25.750  1.00  0.00     0.008 C 
ATOM     19  C   UNL A   1      31.681  28.186  27.603  1.00  0.00     0.008 C 
ENDBRANCH  16  17
ENDBRANCH  11  16
ENDBRANCH   9  10
BRANCH   9  20
ATOM     20  C   UNL A   1      32.839  26.202  20.928  1.00  0.00     0.234 C 
ATOM     21  F   UNL A   1      32.945  25.372  19.849  1.00  0.00    -0.250 F 
ENDBRANCH   9  20
ENDBRANCH   7   9
ENDBRANCH   6   7
ENDBRANCH   5   6
ENDBRANCH   4   5
ENDBRANCH   3   4
ENDBRANCH   2   3
ENDBRANCH   1   2
BRANCH   1  22
ATOM     22  O   UNL A   1      32.795  22.607  28.039  1.00  0.00    -0.377 OA
BRANCH  22  23
ATOM     23  C   UNL A   1      34.036  22.078  27.577  1.00  0.00     0.188 C 
BRANCH  23  24
ATOM     24  C   UNL A   1      34.100  21.340  26.225  1.00  0.00     0.188 C 
BRANCH  24  25
ATOM     25  O   UNL A   1      35.142  21.768  25.372  1.00  0.00    -0.376 OA
BRANCH  25  26
ATOM     26  C   UNL A   1      36.436  21.960  25.918  1.00  0.00     0.202 C 
BRANCH  26  27
ATOM     27  C   UNL A   1      37.533  20.907  25.696  1.00  0.00     0.261 C 
BRANCH  27  28
ATOM     28  O   UNL A   1      38.871  21.380  25.472  1.00  0.00    -0.460 OA
BRANCH  28  29
ATOM     29  C   UNL A   1      39.757  21.332  26.485  1.00  0.00     0.338 C 
ATOM     30  O   UNL A   1      40.330  20.352  26.932  1.00  0.00    -0.246 OA
BRANCH  29  31
ATOM     31  C   UNL A   1      40.051  22.730  26.861  1.00  0.00     0.060 A 
ATOM     32  C   UNL A   1      39.468  23.786  26.144  1.00  0.00     0.016 A 
ATOM     33  C   UNL A   1      40.899  22.988  27.939  1.00  0.00     0.016 A 
ATOM     34  C   UNL A   1      39.758  25.109  26.489  1.00  0.00     0.010 A 
ATOM     35  C   UNL A   1      41.206  24.309  28.266  1.00  0.00     0.010 A 
ATOM     36  C   UNL A   1      40.663  25.373  27.524  1.00  0.00    -0.014 A 
BRANCH  36  37
ATOM     37  C   UNL A   1      41.223  26.733  27.708  1.00  0.00     0.031 A 
ATOM     38  C   UNL A   1      42.649  26.965  27.295  1.00  0.00     0.074 A 
ATOM     39  C   UNL A   1      40.503  27.722  28.268  1.00  0.00     0.049 A 
ATOM     40  N   UNL A   1      43.423  27.996  27.512  1.00  0.00    -0.248 NA
ATOM     41  C   UNL A   1      43.293  25.876  26.543  1.00  0.00     0.031 C 
ATOM     42  C   UNL A   1      39.100  27.630  28.661  1.00  0.00     0.029 A 
ATOM     43  N   UNL A   1      40.873  28.994  28.630  1.00  0.00    -0.354 N 
ATOM     44  C   UNL A   1      44.649  27.667  26.951  1.00  0.00     0.074 A 
ATOM     45  C   UNL A   1      44.524  26.339  26.393  1.00  0.00     0.031 C 
ATOM     46  C   UNL A   1      38.735  28.785  29.245  1.00  0.00     0.029 A 
ATOM     47  C   UNL A   1      39.893  29.677  29.308  1.00  0.00     0.049 A 
ATOM     48  H   UNL A   1      41.756  29.379  28.424  1.00  0.00     0.167 HD
ATOM     49  C   UNL A   1      45.780  28.409  26.911  1.00  0.00     0.037 A 
ATOM     50  C   UNL A   1      39.945  30.863  29.948  1.00  0.00     0.037 A 
ATOM     51  C   UNL A   1      45.890  29.733  27.460  1.00  0.00     0.049 A 
ATOM     52  C   UNL A   1      41.239  31.643  29.946  1.00  0.00     0.074 A 
ATOM     53  C   UNL A   1      46.979  30.585  27.440  1.00  0.00     0.029 A 
ATOM     54  N   UNL A   1      44.875  30.391  28.137  1.00  0.00    -0.354 N 
ATOM     55  N   UNL A   1      42.390  31.340  29.393  1.00  0.00    -0.248 NA
ATOM     56  C   UNL A   1      41.244  32.928  30.662  1.00  0.00     0.031 C 
ATOM     57  C   UNL A   1      46.646  31.732  28.166  1.00  0.00     0.029 A 
ATOM     58  C   UNL A   1      45.325  31.627  28.571  1.00  0.00     0.049 A 
ATOM     59  H   UNL A   1      43.970  30.034  28.288  1.00  0.00     0.167 HD
ATOM     60  C   UNL A   1      43.237  32.411  29.659  1.00  0.00     0.074 A 
ATOM     61  C   UNL A   1      42.469  33.373  30.417  1.00  0.00     0.031 C 
ATOM     62  C   UNL A   1      44.534  32.583  29.304  1.00  0.00     0.037 A 
BRANCH  49  63
ATOM     63  C   UNL A   1      47.002  27.797  26.291  1.00  0.00     0.064 A 
ATOM     64  C   UNL A   1      47.943  27.084  27.046  1.00  0.00     0.173 A 
ATOM     65  C   UNL A   1      47.198  27.877  24.903  1.00  0.00     0.173 A 
ATOM     66  F   UNL A   1      47.809  26.991  28.378  1.00  0.00    -0.203 F 
ATOM     67  C   UNL A   1      49.044  26.486  26.439  1.00  0.00     0.198 A 
ATOM     68  C   UNL A   1      48.283  27.252  24.295  1.00  0.00     0.198 A 
ATOM     69  F   UNL A   1      46.328  28.547  24.133  1.00  0.00    -0.203 F 
ATOM     70  F   UNL A   1      49.952  25.842  27.185  1.00  0.00    -0.200 F 
ATOM     71  C   UNL A   1      49.207  26.561  25.063  1.00  0.00     0.200 A 
ATOM     72  F   UNL A   1      48.429  27.314  22.964  1.00  0.00    -0.200 F 
ATOM     73  F   UNL A   1      50.257  25.970  24.478  1.00  0.00    -0.200 F 
ENDBRANCH  49  63
BRANCH  50  74
ATOM     74  C   UNL A   1      38.757  31.373  30.686  1.00  0.00     0.064 A 
ATOM     75  C   UNL A   1      37.801  32.183  30.055  1.00  0.00     0.173 A 
ATOM     76  C   UNL A   1      38.575  31.099  32.050  1.00  0.00     0.173 A 
ATOM     77  F   UNL A   1      37.941  32.497  28.759  1.00  0.00    -0.203 F 
ATOM     78  C   UNL A   1      36.731  32.723  30.766  1.00  0.00     0.198 A 
ATOM     79  C   UNL A   1      37.485  31.610  32.752  1.00  0.00     0.198 A 
ATOM     80  F   UNL A   1      39.458  30.331  32.706  1.00  0.00    -0.203 F 
ATOM     81  F   UNL A   1      35.870  33.547  30.153  1.00  0.00    -0.200 F 
ATOM     82  C   UNL A   1      36.571  32.433  32.112  1.00  0.00     0.200 A 
ATOM     83  F   UNL A   1      37.326  31.312  34.048  1.00  0.00    -0.200 F 
ATOM     84  F   UNL A   1      35.543  32.954  32.795  1.00  0.00    -0.200 F 
ENDBRANCH  50  74
BRANCH  62  85
ATOM     85  C   UNL A   1      45.196  33.880  29.671  1.00  0.00     0.064 A 
ATOM     86  C   UNL A   1      45.919  34.034  30.862  1.00  0.00     0.173 A 
ATOM     87  C   UNL A   1      45.168  34.962  28.775  1.00  0.00     0.173 A 
ATOM     88  F   UNL A   1      45.967  33.036  31.757  1.00  0.00    -0.203 F 
ATOM     89  C   UNL A   1      46.576  35.228  31.150  1.00  0.00     0.198 A 
ATOM     90  C   UNL A   1      45.855  36.140  29.050  1.00  0.00     0.198 A 
ATOM     91  F   UNL A   1      44.498  34.864  27.617  1.00  0.00    -0.203 F 
ATOM     92  F   UNL A   1      47.229  35.367  32.313  1.00  0.00    -0.200 F 
ATOM     93  C   UNL A   1      46.553  36.275  30.239  1.00  0.00     0.200 A 
ATOM     94  F   UNL A   1      45.848  37.141  28.159  1.00  0.00    -0.200 F 
ATOM     95  F   UNL A   1      47.204  37.414  30.510  1.00  0.00    -0.200 F 
ENDBRANCH  62  85
ENDBRANCH  36  37
ENDBRANCH  29  31
ENDBRANCH  28  29
ENDBRANCH  27  28
ENDBRANCH  26  27
ENDBRANCH  25  26
ENDBRANCH  24  25
ENDBRANCH  23  24
ENDBRANCH  22  23
ENDBRANCH   1  22
TORSDOF 24
ENDMDL
