MODEL 1
REMARK VINA RESULT:      -9.9      0.000      0.000
REMARK SMILES Cc1ccc(Nc2c(F)cccc2I)c(CC(=O)OCCOCCOCCOCCOC(=O)c2ccc(-c3c4nc(c(-c5c(F)c(F)c(F)c(F)c5F)c5ccc([nH]5)c(-c5c(F)c(F)c(F)c(F)c5F)c5nc(c(-c6c(F)c(F)c(F)c(F)c6F)c6ccc3[nH]6)C=C5)C=C4)cc2)c1
REMARK SMILES IDX 24 1 23 2 22 3 21 4 20 5 19 6 17 7 18 8 16 9 15 10 1 11 2 12
REMARK SMILES IDX 3 13 97 14 4 15 5 16 6 17 7 19 8 20 13 21 9 22 10 23 12 24
REMARK SMILES IDX 14 25 11 26 25 27 26 28 27 29 28 30 29 31 30 32 31 33 32 34
REMARK SMILES IDX 33 35 34 36 35 37 96 38 36 39 95 40 37 41 38 42 39 43 89 44
REMARK SMILES IDX 40 45 94 46 88 47 90 48 41 49 93 50 87 51 86 52 42 54 74 55
REMARK SMILES IDX 54 56 73 57 55 58 58 59 72 60 91 61 56 62 57 63 71 65 92 66
REMARK SMILES IDX 59 67 43 68 44 69 52 70 45 71 46 72 50 73 53 74 47 75 48 76
REMARK SMILES IDX 51 77 49 78 75 79 76 80 84 81 77 82 78 83 82 84 85 85 79 86
REMARK SMILES IDX 80 87 83 88 81 89 60 90 61 91 69 92 62 93 63 94 67 95 70 96
REMARK SMILES IDX 64 97 65 98 68 99 66 100
REMARK H PARENT 6 18 90 53 58 64
REMARK Flexibility Score: inf
ROOT
ATOM      1  C   UNL A   1      35.936  20.874  25.347  1.00  0.00     0.188 C 
ENDROOT
BRANCH   1   2
ATOM      2  C   UNL A   1      34.439  20.705  25.080  1.00  0.00     0.188 C 
BRANCH   2   3
ATOM      3  O   UNL A   1      33.762  21.660  24.276  1.00  0.00    -0.376 OA
BRANCH   3   4
ATOM      4  C   UNL A   1      32.356  21.615  24.399  1.00  0.00     0.202 C 
BRANCH   4   5
ATOM      5  C   UNL A   1      31.568  22.875  24.043  1.00  0.00     0.261 C 
BRANCH   5   6
ATOM      6  O   UNL A   1      30.862  23.476  25.143  1.00  0.00    -0.463 OA
BRANCH   6   7
ATOM      7  C   UNL A   1      30.635  24.808  25.042  1.00  0.00     0.310 C 
ATOM      8  O   UNL A   1      30.545  25.568  26.000  1.00  0.00    -0.252 OA
BRANCH   7   9
ATOM      9  C   UNL A   1      30.407  25.283  23.628  1.00  0.00     0.160 C 
BRANCH   9  10
ATOM     10  C   UNL A   1      29.952  26.713  23.382  1.00  0.00    -0.013 A 
ATOM     11  C   UNL A   1      26.491  28.433  23.481  1.00  0.00     0.044 C 
ATOM     12  C   UNL A   1      27.964  28.193  23.330  1.00  0.00    -0.051 A 
ATOM     13  C   UNL A   1      28.798  29.256  23.033  1.00  0.00     0.005 A 
ATOM     14  C   UNL A   1      28.544  26.932  23.495  1.00  0.00     0.009 A 
ATOM     15  C   UNL A   1      30.176  29.054  22.896  1.00  0.00     0.026 A 
ATOM     16  C   UNL A   1      30.812  27.809  23.085  1.00  0.00     0.042 A 
BRANCH  16  17
ATOM     17  N   UNL A   1      32.225  27.662  22.888  1.00  0.00    -0.352 N 
ATOM     18  H   UNL A   1      32.575  28.074  22.065  1.00  0.00     0.167 HD
BRANCH  17  19
ATOM     19  C   UNL A   1      33.212  27.004  23.706  1.00  0.00     0.088 A 
ATOM     20  C   UNL A   1      33.862  25.824  23.313  1.00  0.00     0.147 A 
ATOM     21  C   UNL A   1      33.413  27.374  25.058  1.00  0.00     0.040 A 
ATOM     22  F   UNL A   1      33.990  25.527  22.009  1.00  0.00    -0.205 F 
ATOM     23  C   UNL A   1      34.425  24.929  24.225  1.00  0.00     0.041 A 
ATOM     24  C   UNL A   1      33.952  26.467  25.995  1.00  0.00     0.017 A 
ATOM     25  I   UNL A   1      32.964  29.304  25.782  1.00  0.00    -0.042 I 
ATOM     26  C   UNL A   1      34.410  25.219  25.582  1.00  0.00     0.004 A 
ENDBRANCH  17  19
ENDBRANCH  16  17
ENDBRANCH   9  10
ENDBRANCH   7   9
ENDBRANCH   6   7
ENDBRANCH   5   6
ENDBRANCH   4   5
ENDBRANCH   3   4
ENDBRANCH   2   3
ENDBRANCH   1   2
BRANCH   1  27
ATOM     27  O   UNL A   1      36.441  22.068  24.796  1.00  0.00    -0.377 OA
BRANCH  27  28
ATOM     28  C   UNL A   1      37.682  22.446  25.335  1.00  0.00     0.188 C 
BRANCH  28  29
ATOM     29  C   UNL A   1      37.701  23.782  26.094  1.00  0.00     0.188 C 
BRANCH  29  30
ATOM     30  O   UNL A   1      39.014  24.315  26.240  1.00  0.00    -0.376 OA
BRANCH  30  31
ATOM     31  C   UNL A   1      39.516  24.258  27.584  1.00  0.00     0.202 C 
BRANCH  31  32
ATOM     32  C   UNL A   1      39.802  25.622  28.287  1.00  0.00     0.261 C 
BRANCH  32  33
ATOM     33  O   UNL A   1      38.960  26.713  27.801  1.00  0.00    -0.460 OA
BRANCH  33  34
ATOM     34  C   UNL A   1      38.961  27.895  28.506  1.00  0.00     0.338 C 
ATOM     35  O   UNL A   1      38.350  28.123  29.523  1.00  0.00    -0.246 OA
BRANCH  34  36
ATOM     36  C   UNL A   1      40.072  28.756  27.966  1.00  0.00     0.060 A 
ATOM     37  C   UNL A   1      40.579  28.588  26.679  1.00  0.00     0.016 A 
ATOM     38  C   UNL A   1      40.805  29.514  28.886  1.00  0.00     0.016 A 
ATOM     39  C   UNL A   1      41.900  28.995  26.393  1.00  0.00     0.010 A 
ATOM     40  C   UNL A   1      42.160  29.791  28.637  1.00  0.00     0.010 A 
ATOM     41  C   UNL A   1      42.757  29.444  27.413  1.00  0.00    -0.014 A 
BRANCH  41  42
ATOM     42  C   UNL A   1      44.241  29.211  27.364  1.00  0.00     0.031 A 
ATOM     43  C   UNL A   1      45.254  30.245  26.925  1.00  0.00     0.074 A 
ATOM     44  C   UNL A   1      44.729  28.131  28.048  1.00  0.00     0.049 A 
ATOM     45  N   UNL A   1      46.537  30.027  26.881  1.00  0.00    -0.248 NA
ATOM     46  C   UNL A   1      44.947  31.613  26.503  1.00  0.00     0.031 C 
ATOM     47  C   UNL A   1      46.073  27.975  28.622  1.00  0.00     0.029 A 
ATOM     48  N   UNL A   1      44.083  26.954  28.490  1.00  0.00    -0.354 N 
ATOM     49  C   UNL A   1      47.195  31.238  26.845  1.00  0.00     0.074 A 
ATOM     50  C   UNL A   1      46.168  32.175  26.455  1.00  0.00     0.031 C 
ATOM     51  C   UNL A   1      46.194  26.798  29.244  1.00  0.00     0.029 A 
ATOM     52  C   UNL A   1      45.100  26.000  28.777  1.00  0.00     0.049 A 
ATOM     53  H   UNL A   1      43.112  26.818  28.581  1.00  0.00     0.167 HD
ATOM     54  C   UNL A   1      48.487  31.338  27.304  1.00  0.00     0.037 A 
ATOM     55  C   UNL A   1      45.287  24.920  27.957  1.00  0.00     0.037 A 
ATOM     56  C   UNL A   1      49.145  30.036  27.560  1.00  0.00     0.049 A 
ATOM     57  C   UNL A   1      46.554  25.004  27.104  1.00  0.00     0.074 A 
ATOM     58  C   UNL A   1      50.045  29.509  28.479  1.00  0.00     0.029 A 
ATOM     59  N   UNL A   1      48.817  28.965  26.746  1.00  0.00    -0.354 N 
ATOM     60  N   UNL A   1      47.571  25.797  27.344  1.00  0.00    -0.248 NA
ATOM     61  C   UNL A   1      46.739  24.261  25.857  1.00  0.00     0.031 C 
ATOM     62  C   UNL A   1      50.241  28.119  28.185  1.00  0.00     0.029 A 
ATOM     63  C   UNL A   1      49.514  27.823  27.049  1.00  0.00     0.049 A 
ATOM     64  H   UNL A   1      48.153  29.018  26.022  1.00  0.00     0.167 HD
ATOM     65  C   UNL A   1      48.408  25.823  26.259  1.00  0.00     0.074 A 
ATOM     66  C   UNL A   1      47.879  24.793  25.382  1.00  0.00     0.031 C 
ATOM     67  C   UNL A   1      49.413  26.737  26.095  1.00  0.00     0.037 A 
BRANCH  54  68
ATOM     68  C   UNL A   1      49.178  32.652  27.668  1.00  0.00     0.064 A 
ATOM     69  C   UNL A   1      50.292  33.113  26.927  1.00  0.00     0.173 A 
ATOM     70  C   UNL A   1      48.875  33.424  28.810  1.00  0.00     0.173 A 
ATOM     71  F   UNL A   1      50.679  32.490  25.804  1.00  0.00    -0.203 F 
ATOM     72  C   UNL A   1      51.051  34.224  27.314  1.00  0.00     0.198 A 
ATOM     73  C   UNL A   1      49.596  34.576  29.157  1.00  0.00     0.198 A 
ATOM     74  F   UNL A   1      47.906  33.065  29.661  1.00  0.00    -0.203 F 
ATOM     75  F   UNL A   1      52.138  34.569  26.607  1.00  0.00    -0.200 F 
ATOM     76  C   UNL A   1      50.696  34.965  28.422  1.00  0.00     0.200 A 
ATOM     77  F   UNL A   1      49.225  35.295  30.228  1.00  0.00    -0.200 F 
ATOM     78  F   UNL A   1      51.411  36.039  28.783  1.00  0.00    -0.200 F 
ENDBRANCH  54  68
BRANCH  55  79
ATOM     79  C   UNL A   1      43.970  24.291  27.656  1.00  0.00     0.064 A 
ATOM     80  C   UNL A   1      43.543  24.420  26.315  1.00  0.00     0.173 A 
ATOM     81  C   UNL A   1      43.517  23.177  28.374  1.00  0.00     0.173 A 
ATOM     82  F   UNL A   1      43.927  25.483  25.591  1.00  0.00    -0.203 F 
ATOM     83  C   UNL A   1      42.903  23.371  25.658  1.00  0.00     0.198 A 
ATOM     84  C   UNL A   1      42.839  22.145  27.717  1.00  0.00     0.198 A 
ATOM     85  F   UNL A   1      43.888  22.996  29.650  1.00  0.00    -0.203 F 
ATOM     86  F   UNL A   1      42.700  23.434  24.334  1.00  0.00    -0.200 F 
ATOM     87  C   UNL A   1      42.594  22.215  26.351  1.00  0.00     0.200 A 
ATOM     88  F   UNL A   1      42.552  21.012  28.376  1.00  0.00    -0.200 F 
ATOM     89  F   UNL A   1      42.130  21.142  25.695  1.00  0.00    -0.200 F 
ENDBRANCH  55  79
BRANCH  67  90
ATOM     90  C   UNL A   1      50.327  26.787  24.895  1.00  0.00     0.064 A 
ATOM     91  C   UNL A   1      51.686  26.462  24.978  1.00  0.00     0.173 A 
ATOM     92  C   UNL A   1      49.886  27.272  23.638  1.00  0.00     0.173 A 
ATOM     93  F   UNL A   1      52.228  26.088  26.148  1.00  0.00    -0.203 F 
ATOM     94  C   UNL A   1      52.526  26.531  23.864  1.00  0.00     0.198 A 
ATOM     95  C   UNL A   1      50.736  27.389  22.542  1.00  0.00     0.198 A 
ATOM     96  F   UNL A   1      48.614  27.631  23.418  1.00  0.00    -0.203 F 
ATOM     97  F   UNL A   1      53.804  26.147  23.974  1.00  0.00    -0.200 F 
ATOM     98  C   UNL A   1      52.051  26.996  22.649  1.00  0.00     0.200 A 
ATOM     99  F   UNL A   1      50.265  27.872  21.382  1.00  0.00    -0.200 F 
ATOM    100  F   UNL A   1      52.860  27.063  21.583  1.00  0.00    -0.200 F 
ENDBRANCH  67  90
ENDBRANCH  41  42
ENDBRANCH  34  36
ENDBRANCH  33  34
ENDBRANCH  32  33
ENDBRANCH  31  32
ENDBRANCH  30  31
ENDBRANCH  29  30
ENDBRANCH  28  29
ENDBRANCH  27  28
ENDBRANCH   1  27
TORSDOF 23
ENDMDL
MODEL 2
REMARK VINA RESULT:      -9.8      4.760      9.086
REMARK SMILES Cc1ccc(Nc2c(F)cccc2I)c(CC(=O)OCCOCCOCCOCCOC(=O)c2ccc(-c3c4nc(c(-c5c(F)c(F)c(F)c(F)c5F)c5ccc([nH]5)c(-c5c(F)c(F)c(F)c(F)c5F)c5nc(c(-c6c(F)c(F)c(F)c(F)c6F)c6ccc3[nH]6)C=C5)C=C4)cc2)c1
REMARK SMILES IDX 24 1 23 2 22 3 21 4 20 5 19 6 17 7 18 8 16 9 15 10 1 11 2 12
REMARK SMILES IDX 3 13 97 14 4 15 5 16 6 17 7 19 8 20 13 21 9 22 10 23 12 24
REMARK SMILES IDX 14 25 11 26 25 27 26 28 27 29 28 30 29 31 30 32 31 33 32 34
REMARK SMILES IDX 33 35 34 36 35 37 96 38 36 39 95 40 37 41 38 42 39 43 89 44
REMARK SMILES IDX 40 45 94 46 88 47 90 48 41 49 93 50 87 51 86 52 42 54 74 55
REMARK SMILES IDX 54 56 73 57 55 58 58 59 72 60 91 61 56 62 57 63 71 65 92 66
REMARK SMILES IDX 59 67 43 68 44 69 52 70 45 71 46 72 50 73 53 74 47 75 48 76
REMARK SMILES IDX 51 77 49 78 75 79 76 80 84 81 77 82 78 83 82 84 85 85 79 86
REMARK SMILES IDX 80 87 83 88 81 89 60 90 61 91 69 92 62 93 63 94 67 95 70 96
REMARK SMILES IDX 64 97 65 98 68 99 66 100
REMARK H PARENT 6 18 90 53 58 64
REMARK Flexibility Score: inf
ROOT
ATOM      1  C   UNL A   1      31.419  27.441  27.480  1.00  0.00     0.188 C 
ENDROOT
BRANCH   1   2
ATOM      2  C   UNL A   1      30.875  26.856  26.176  1.00  0.00     0.188 C 
BRANCH   2   3
ATOM      3  O   UNL A   1      31.001  25.463  25.929  1.00  0.00    -0.376 OA
BRANCH   3   4
ATOM      4  C   UNL A   1      30.289  25.018  24.795  1.00  0.00     0.202 C 
BRANCH   4   5
ATOM      5  C   UNL A   1      30.408  23.542  24.412  1.00  0.00     0.261 C 
BRANCH   5   6
ATOM      6  O   UNL A   1      31.754  23.037  24.371  1.00  0.00    -0.463 OA
BRANCH   6   7
ATOM      7  C   UNL A   1      32.251  22.781  23.136  1.00  0.00     0.310 C 
ATOM      8  O   UNL A   1      31.811  21.922  22.379  1.00  0.00    -0.252 OA
BRANCH   7   9
ATOM      9  C   UNL A   1      33.475  23.592  22.789  1.00  0.00     0.160 C 
BRANCH   9  10
ATOM     10  C   UNL A   1      33.783  24.857  23.576  1.00  0.00    -0.013 A 
ATOM     11  C   UNL A   1      33.684  28.615  22.676  1.00  0.00     0.044 C 
ATOM     12  C   UNL A   1      33.861  27.330  23.430  1.00  0.00    -0.051 A 
ATOM     13  C   UNL A   1      34.235  27.369  24.761  1.00  0.00     0.005 A 
ATOM     14  C   UNL A   1      33.645  26.078  22.847  1.00  0.00     0.009 A 
ATOM     15  C   UNL A   1      34.397  26.181  25.483  1.00  0.00     0.026 A 
ATOM     16  C   UNL A   1      34.160  24.897  24.950  1.00  0.00     0.042 A 
BRANCH  16  17
ATOM     17  N   UNL A   1      34.386  23.716  25.732  1.00  0.00    -0.352 N 
ATOM     18  H   UNL A   1      33.640  23.459  26.321  1.00  0.00     0.167 HD
BRANCH  17  19
ATOM     19  C   UNL A   1      35.533  22.848  25.792  1.00  0.00     0.088 A 
ATOM     20  C   UNL A   1      36.849  23.330  25.857  1.00  0.00     0.147 A 
ATOM     21  C   UNL A   1      35.418  21.458  25.545  1.00  0.00     0.040 A 
ATOM     22  F   UNL A   1      37.097  24.548  26.364  1.00  0.00    -0.205 F 
ATOM     23  C   UNL A   1      37.952  22.582  25.437  1.00  0.00     0.041 A 
ATOM     24  C   UNL A   1      36.518  20.698  25.092  1.00  0.00     0.017 A 
ATOM     25  I   UNL A   1      33.623  20.397  25.865  1.00  0.00    -0.042 I 
ATOM     26  C   UNL A   1      37.778  21.281  24.988  1.00  0.00     0.004 A 
ENDBRANCH  17  19
ENDBRANCH  16  17
ENDBRANCH   9  10
ENDBRANCH   7   9
ENDBRANCH   6   7
ENDBRANCH   5   6
ENDBRANCH   4   5
ENDBRANCH   3   4
ENDBRANCH   2   3
ENDBRANCH   1   2
BRANCH   1  27
ATOM     27  O   UNL A   1      32.250  28.556  27.255  1.00  0.00    -0.377 OA
BRANCH  27  28
ATOM     28  C   UNL A   1      31.756  29.424  26.266  1.00  0.00     0.188 C 
BRANCH  28  29
ATOM     29  C   UNL A   1      32.568  30.709  26.040  1.00  0.00     0.188 C 
BRANCH  29  30
ATOM     30  O   UNL A   1      32.356  31.682  27.058  1.00  0.00    -0.376 OA
BRANCH  30  31
ATOM     31  C   UNL A   1      33.416  31.748  28.025  1.00  0.00     0.202 C 
BRANCH  31  32
ATOM     32  C   UNL A   1      34.803  31.183  27.587  1.00  0.00     0.261 C 
BRANCH  32  33
ATOM     33  O   UNL A   1      35.911  32.101  27.840  1.00  0.00    -0.460 OA
BRANCH  33  34
ATOM     34  C   UNL A   1      36.707  31.869  28.939  1.00  0.00     0.338 C 
ATOM     35  O   UNL A   1      36.830  32.590  29.900  1.00  0.00    -0.246 OA
BRANCH  34  36
ATOM     36  C   UNL A   1      37.171  30.438  28.879  1.00  0.00     0.060 A 
ATOM     37  C   UNL A   1      37.233  29.631  30.013  1.00  0.00     0.016 A 
ATOM     38  C   UNL A   1      37.844  30.026  27.721  1.00  0.00     0.016 A 
ATOM     39  C   UNL A   1      38.132  28.543  30.045  1.00  0.00     0.010 A 
ATOM     40  C   UNL A   1      38.832  29.031  27.807  1.00  0.00     0.010 A 
ATOM     41  C   UNL A   1      39.059  28.337  29.007  1.00  0.00    -0.014 A 
BRANCH  41  42
ATOM     42  C   UNL A   1      40.413  27.735  29.260  1.00  0.00     0.031 A 
ATOM     43  C   UNL A   1      40.809  26.329  28.867  1.00  0.00     0.074 A 
ATOM     44  C   UNL A   1      41.433  28.594  29.566  1.00  0.00     0.049 A 
ATOM     45  N   UNL A   1      41.984  25.819  29.097  1.00  0.00    -0.248 NA
ATOM     46  C   UNL A   1      39.952  25.363  28.178  1.00  0.00     0.031 C 
ATOM     47  C   UNL A   1      42.868  28.393  29.321  1.00  0.00     0.029 A 
ATOM     48  N   UNL A   1      41.403  29.914  30.072  1.00  0.00    -0.354 N 
ATOM     49  C   UNL A   1      42.162  24.721  28.282  1.00  0.00     0.074 A 
ATOM     50  C   UNL A   1      40.823  24.392  27.853  1.00  0.00     0.031 C 
ATOM     51  C   UNL A   1      43.575  29.452  29.727  1.00  0.00     0.029 A 
ATOM     52  C   UNL A   1      42.701  30.195  30.585  1.00  0.00     0.049 A 
ATOM     53  H   UNL A   1      40.631  30.524  30.071  1.00  0.00     0.167 HD
ATOM     54  C   UNL A   1      43.428  24.315  27.934  1.00  0.00     0.037 A 
ATOM     55  C   UNL A   1      42.909  30.279  31.935  1.00  0.00     0.037 A 
ATOM     56  C   UNL A   1      44.511  24.968  28.704  1.00  0.00     0.049 A 
ATOM     57  C   UNL A   1      43.678  29.092  32.518  1.00  0.00     0.074 A 
ATOM     58  C   UNL A   1      45.802  25.425  28.467  1.00  0.00     0.029 A 
ATOM     59  N   UNL A   1      44.267  25.298  30.027  1.00  0.00    -0.354 N 
ATOM     60  N   UNL A   1      44.403  28.251  31.820  1.00  0.00    -0.248 NA
ATOM     61  C   UNL A   1      43.620  28.704  33.927  1.00  0.00     0.031 C 
ATOM     62  C   UNL A   1      46.308  26.021  29.670  1.00  0.00     0.029 A 
ATOM     63  C   UNL A   1      45.351  25.862  30.651  1.00  0.00     0.049 A 
ATOM     64  H   UNL A   1      43.404  25.143  30.474  1.00  0.00     0.167 HD
ATOM     65  C   UNL A   1      44.729  27.166  32.592  1.00  0.00     0.074 A 
ATOM     66  C   UNL A   1      44.274  27.530  33.921  1.00  0.00     0.031 C 
ATOM     67  C   UNL A   1      45.258  26.008  32.090  1.00  0.00     0.037 A 
BRANCH  54  68
ATOM     68  C   UNL A   1      43.748  23.380  26.768  1.00  0.00     0.064 A 
ATOM     69  C   UNL A   1      43.367  22.018  26.806  1.00  0.00     0.173 A 
ATOM     70  C   UNL A   1      44.541  23.735  25.655  1.00  0.00     0.173 A 
ATOM     71  F   UNL A   1      42.592  21.546  27.793  1.00  0.00    -0.203 F 
ATOM     72  C   UNL A   1      43.771  21.091  25.837  1.00  0.00     0.198 A 
ATOM     73  C   UNL A   1      44.888  22.819  24.651  1.00  0.00     0.198 A 
ATOM     74  F   UNL A   1      45.053  24.965  25.524  1.00  0.00    -0.203 F 
ATOM     75  F   UNL A   1      43.435  19.799  25.967  1.00  0.00    -0.200 F 
ATOM     76  C   UNL A   1      44.520  21.494  24.751  1.00  0.00     0.200 A 
ATOM     77  F   UNL A   1      45.601  23.232  23.592  1.00  0.00    -0.200 F 
ATOM     78  F   UNL A   1      44.893  20.611  23.813  1.00  0.00    -0.200 F 
ENDBRANCH  54  68
BRANCH  55  79
ATOM     79  C   UNL A   1      41.846  31.126  32.549  1.00  0.00     0.064 A 
ATOM     80  C   UNL A   1      40.858  30.412  33.265  1.00  0.00     0.173 A 
ATOM     81  C   UNL A   1      42.107  32.443  32.946  1.00  0.00     0.173 A 
ATOM     82  F   UNL A   1      40.551  29.155  32.907  1.00  0.00    -0.203 F 
ATOM     83  C   UNL A   1      40.340  30.903  34.461  1.00  0.00     0.198 A 
ATOM     84  C   UNL A   1      41.552  32.945  34.127  1.00  0.00     0.198 A 
ATOM     85  F   UNL A   1      43.034  33.172  32.308  1.00  0.00    -0.203 F 
ATOM     86  F   UNL A   1      39.569  30.119  35.229  1.00  0.00    -0.200 F 
ATOM     87  C   UNL A   1      40.725  32.152  34.914  1.00  0.00     0.200 A 
ATOM     88  F   UNL A   1      41.933  34.147  34.585  1.00  0.00    -0.200 F 
ATOM     89  F   UNL A   1      40.362  32.564  36.137  1.00  0.00    -0.200 F 
ENDBRANCH  55  79
BRANCH  67  90
ATOM     90  C   UNL A   1      45.603  24.800  32.928  1.00  0.00     0.064 A 
ATOM     91  C   UNL A   1      44.646  23.844  33.288  1.00  0.00     0.173 A 
ATOM     92  C   UNL A   1      46.893  24.623  33.491  1.00  0.00     0.173 A 
ATOM     93  F   UNL A   1      43.371  23.973  32.892  1.00  0.00    -0.203 F 
ATOM     94  C   UNL A   1      44.975  22.742  34.081  1.00  0.00     0.198 A 
ATOM     95  C   UNL A   1      47.205  23.551  34.322  1.00  0.00     0.198 A 
ATOM     96  F   UNL A   1      47.902  25.468  33.240  1.00  0.00    -0.203 F 
ATOM     97  F   UNL A   1      44.043  21.816  34.345  1.00  0.00    -0.200 F 
ATOM     98  C   UNL A   1      46.252  22.597  34.598  1.00  0.00     0.200 A 
ATOM     99  F   UNL A   1      48.438  23.446  34.839  1.00  0.00    -0.200 F 
ATOM    100  F   UNL A   1      46.561  21.539  35.359  1.00  0.00    -0.200 F 
ENDBRANCH  67  90
ENDBRANCH  41  42
ENDBRANCH  34  36
ENDBRANCH  33  34
ENDBRANCH  32  33
ENDBRANCH  31  32
ENDBRANCH  30  31
ENDBRANCH  29  30
ENDBRANCH  28  29
ENDBRANCH  27  28
ENDBRANCH   1  27
TORSDOF 23
ENDMDL
MODEL 3
REMARK VINA RESULT:      -9.8      6.554     11.174
REMARK SMILES Cc1ccc(Nc2c(F)cccc2I)c(CC(=O)OCCOCCOCCOCCOC(=O)c2ccc(-c3c4nc(c(-c5c(F)c(F)c(F)c(F)c5F)c5ccc([nH]5)c(-c5c(F)c(F)c(F)c(F)c5F)c5nc(c(-c6c(F)c(F)c(F)c(F)c6F)c6ccc3[nH]6)C=C5)C=C4)cc2)c1
REMARK SMILES IDX 24 1 23 2 22 3 21 4 20 5 19 6 17 7 18 8 16 9 15 10 1 11 2 12
REMARK SMILES IDX 3 13 97 14 4 15 5 16 6 17 7 19 8 20 13 21 9 22 10 23 12 24
REMARK SMILES IDX 14 25 11 26 25 27 26 28 27 29 28 30 29 31 30 32 31 33 32 34
REMARK SMILES IDX 33 35 34 36 35 37 96 38 36 39 95 40 37 41 38 42 39 43 89 44
REMARK SMILES IDX 40 45 94 46 88 47 90 48 41 49 93 50 87 51 86 52 42 54 74 55
REMARK SMILES IDX 54 56 73 57 55 58 58 59 72 60 91 61 56 62 57 63 71 65 92 66
REMARK SMILES IDX 59 67 43 68 44 69 52 70 45 71 46 72 50 73 53 74 47 75 48 76
REMARK SMILES IDX 51 77 49 78 75 79 76 80 84 81 77 82 78 83 82 84 85 85 79 86
REMARK SMILES IDX 80 87 83 88 81 89 60 90 61 91 69 92 62 93 63 94 67 95 70 96
REMARK SMILES IDX 64 97 65 98 68 99 66 100
REMARK H PARENT 6 18 90 53 58 64
REMARK Flexibility Score: inf
ROOT
ATOM      1  C   UNL A   1      42.017  20.190  26.119  1.00  0.00     0.188 C 
ENDROOT
BRANCH   1   2
ATOM      2  C   UNL A   1      41.088  20.882  27.118  1.00  0.00     0.188 C 
BRANCH   2   3
ATOM      3  O   UNL A   1      39.688  20.889  26.879  1.00  0.00    -0.376 OA
BRANCH   3   4
ATOM      4  C   UNL A   1      39.299  21.701  25.793  1.00  0.00     0.202 C 
BRANCH   4   5
ATOM      5  C   UNL A   1      37.872  21.550  25.265  1.00  0.00     0.261 C 
BRANCH   5   6
ATOM      6  O   UNL A   1      37.055  22.727  25.392  1.00  0.00    -0.463 OA
BRANCH   6   7
ATOM      7  C   UNL A   1      36.406  23.120  24.269  1.00  0.00     0.310 C 
ATOM      8  O   UNL A   1      36.760  22.833  23.130  1.00  0.00    -0.252 OA
BRANCH   7   9
ATOM      9  C   UNL A   1      35.234  24.034  24.528  1.00  0.00     0.160 C 
BRANCH   9  10
ATOM     10  C   UNL A   1      33.871  23.435  24.837  1.00  0.00    -0.013 A 
ATOM     11  C   UNL A   1      32.529  19.810  24.874  1.00  0.00     0.044 C 
ATOM     12  C   UNL A   1      32.613  21.304  24.980  1.00  0.00    -0.051 A 
ATOM     13  C   UNL A   1      31.500  22.020  25.383  1.00  0.00     0.005 A 
ATOM     14  C   UNL A   1      33.784  22.015  24.704  1.00  0.00     0.009 A 
ATOM     15  C   UNL A   1      31.561  23.414  25.497  1.00  0.00     0.026 A 
ATOM     16  C   UNL A   1      32.727  24.172  25.262  1.00  0.00     0.042 A 
BRANCH  16  17
ATOM     17  N   UNL A   1      32.712  25.603  25.354  1.00  0.00    -0.352 N 
ATOM     18  H   UNL A   1      33.356  25.986  25.993  1.00  0.00     0.167 HD
BRANCH  17  19
ATOM     19  C   UNL A   1      31.900  26.569  24.659  1.00  0.00     0.088 A 
ATOM     20  C   UNL A   1      31.446  26.378  23.346  1.00  0.00     0.147 A 
ATOM     21  C   UNL A   1      31.711  27.876  25.171  1.00  0.00     0.040 A 
ATOM     22  F   UNL A   1      31.303  25.136  22.856  1.00  0.00    -0.205 F 
ATOM     23  C   UNL A   1      31.099  27.436  22.501  1.00  0.00     0.041 A 
ATOM     24  C   UNL A   1      31.390  28.958  24.324  1.00  0.00     0.017 A 
ATOM     25  I   UNL A   1      31.854  28.317  27.230  1.00  0.00    -0.042 I 
ATOM     26  C   UNL A   1      31.136  28.740  22.973  1.00  0.00     0.004 A 
ENDBRANCH  17  19
ENDBRANCH  16  17
ENDBRANCH   9  10
ENDBRANCH   7   9
ENDBRANCH   6   7
ENDBRANCH   5   6
ENDBRANCH   4   5
ENDBRANCH   3   4
ENDBRANCH   2   3
ENDBRANCH   1   2
BRANCH   1  27
ATOM     27  O   UNL A   1      42.976  21.075  25.587  1.00  0.00    -0.377 OA
BRANCH  27  28
ATOM     28  C   UNL A   1      43.231  22.180  26.417  1.00  0.00     0.188 C 
BRANCH  28  29
ATOM     29  C   UNL A   1      42.758  23.540  25.880  1.00  0.00     0.188 C 
BRANCH  29  30
ATOM     30  O   UNL A   1      43.837  24.425  25.592  1.00  0.00    -0.376 OA
BRANCH  30  31
ATOM     31  C   UNL A   1      43.797  25.650  26.340  1.00  0.00     0.202 C 
BRANCH  31  32
ATOM     32  C   UNL A   1      42.806  25.705  27.545  1.00  0.00     0.261 C 
BRANCH  32  33
ATOM     33  O   UNL A   1      41.666  26.592  27.318  1.00  0.00    -0.460 OA
BRANCH  33  34
ATOM     34  C   UNL A   1      40.457  26.249  27.881  1.00  0.00     0.338 C 
ATOM     35  O   UNL A   1      40.116  25.143  28.226  1.00  0.00    -0.246 OA
BRANCH  34  36
ATOM     36  C   UNL A   1      39.748  27.521  28.262  1.00  0.00     0.060 A 
ATOM     37  C   UNL A   1      40.185  28.771  27.830  1.00  0.00     0.016 A 
ATOM     38  C   UNL A   1      38.830  27.455  29.318  1.00  0.00     0.016 A 
ATOM     39  C   UNL A   1      39.871  29.918  28.590  1.00  0.00     0.010 A 
ATOM     40  C   UNL A   1      38.636  28.576  30.143  1.00  0.00     0.010 A 
ATOM     41  C   UNL A   1      39.238  29.809  29.842  1.00  0.00    -0.014 A 
BRANCH  41  42
ATOM     42  C   UNL A   1      39.505  30.784  30.954  1.00  0.00     0.031 A 
ATOM     43  C   UNL A   1      40.589  30.616  31.995  1.00  0.00     0.074 A 
ATOM     44  C   UNL A   1      38.961  32.034  30.836  1.00  0.00     0.049 A 
ATOM     45  N   UNL A   1      40.805  31.466  32.957  1.00  0.00    -0.248 NA
ATOM     46  C   UNL A   1      41.537  29.503  32.066  1.00  0.00     0.031 C 
ATOM     47  C   UNL A   1      39.469  33.284  31.419  1.00  0.00     0.029 A 
ATOM     48  N   UNL A   1      37.872  32.494  30.059  1.00  0.00    -0.354 N 
ATOM     49  C   UNL A   1      42.070  31.256  33.464  1.00  0.00     0.074 A 
ATOM     50  C   UNL A   1      42.415  29.936  32.988  1.00  0.00     0.031 C 
ATOM     51  C   UNL A   1      38.698  34.320  31.076  1.00  0.00     0.029 A 
ATOM     52  C   UNL A   1      37.473  33.749  30.599  1.00  0.00     0.049 A 
ATOM     53  H   UNL A   1      37.466  32.032  29.291  1.00  0.00     0.167 HD
ATOM     54  C   UNL A   1      42.745  32.277  34.089  1.00  0.00     0.037 A 
ATOM     55  C   UNL A   1      36.300  33.862  31.295  1.00  0.00     0.037 A 
ATOM     56  C   UNL A   1      41.911  33.464  34.388  1.00  0.00     0.049 A 
ATOM     57  C   UNL A   1      36.489  34.042  32.802  1.00  0.00     0.074 A 
ATOM     58  C   UNL A   1      42.070  34.845  34.410  1.00  0.00     0.029 A 
ATOM     59  N   UNL A   1      40.578  33.266  34.706  1.00  0.00    -0.354 N 
ATOM     60  N   UNL A   1      37.603  34.424  33.379  1.00  0.00    -0.248 NA
ATOM     61  C   UNL A   1      35.461  33.719  33.790  1.00  0.00     0.031 C 
ATOM     62  C   UNL A   1      40.813  35.447  34.750  1.00  0.00     0.029 A 
ATOM     63  C   UNL A   1      39.914  34.430  35.000  1.00  0.00     0.049 A 
ATOM     64  H   UNL A   1      40.151  32.379  34.720  1.00  0.00     0.167 HD
ATOM     65  C   UNL A   1      37.519  34.225  34.732  1.00  0.00     0.074 A 
ATOM     66  C   UNL A   1      36.135  33.846  34.947  1.00  0.00     0.031 C 
ATOM     67  C   UNL A   1      38.593  34.286  35.579  1.00  0.00     0.037 A 
BRANCH  54  68
ATOM     68  C   UNL A   1      44.251  32.291  34.346  1.00  0.00     0.064 A 
ATOM     69  C   UNL A   1      44.765  32.088  35.649  1.00  0.00     0.173 A 
ATOM     70  C   UNL A   1      45.223  32.631  33.380  1.00  0.00     0.173 A 
ATOM     71  F   UNL A   1      43.959  31.736  36.661  1.00  0.00    -0.203 F 
ATOM     72  C   UNL A   1      46.122  32.246  35.961  1.00  0.00     0.198 A 
ATOM     73  C   UNL A   1      46.590  32.722  33.682  1.00  0.00     0.198 A 
ATOM     74  F   UNL A   1      44.882  32.939  32.123  1.00  0.00    -0.203 F 
ATOM     75  F   UNL A   1      46.535  32.108  37.230  1.00  0.00    -0.200 F 
ATOM     76  C   UNL A   1      47.037  32.549  34.975  1.00  0.00     0.200 A 
ATOM     77  F   UNL A   1      47.469  32.999  32.707  1.00  0.00    -0.200 F 
ATOM     78  F   UNL A   1      48.338  32.682  35.269  1.00  0.00    -0.200 F 
ENDBRANCH  54  68
BRANCH  55  79
ATOM     79  C   UNL A   1      35.209  33.180  30.542  1.00  0.00     0.064 A 
ATOM     80  C   UNL A   1      34.583  33.974  29.553  1.00  0.00     0.173 A 
ATOM     81  C   UNL A   1      35.220  31.794  30.345  1.00  0.00     0.173 A 
ATOM     82  F   UNL A   1      34.522  35.306  29.707  1.00  0.00    -0.203 F 
ATOM     83  C   UNL A   1      34.211  33.434  28.325  1.00  0.00     0.198 A 
ATOM     84  C   UNL A   1      34.806  31.253  29.123  1.00  0.00     0.198 A 
ATOM     85  F   UNL A   1      35.799  30.986  31.245  1.00  0.00    -0.203 F 
ATOM     86  F   UNL A   1      33.819  34.242  27.329  1.00  0.00    -0.200 F 
ATOM     87  C   UNL A   1      34.367  32.079  28.096  1.00  0.00     0.200 A 
ATOM     88  F   UNL A   1      34.971  29.944  28.884  1.00  0.00    -0.200 F 
ATOM     89  F   UNL A   1      34.167  31.578  26.868  1.00  0.00    -0.200 F 
ENDBRANCH  55  79
BRANCH  67  90
ATOM     90  C   UNL A   1      38.515  34.049  37.067  1.00  0.00     0.064 A 
ATOM     91  C   UNL A   1      38.945  35.002  37.998  1.00  0.00     0.173 A 
ATOM     92  C   UNL A   1      38.102  32.804  37.606  1.00  0.00     0.173 A 
ATOM     93  F   UNL A   1      39.449  36.176  37.589  1.00  0.00    -0.203 F 
ATOM     94  C   UNL A   1      38.885  34.762  39.373  1.00  0.00     0.198 A 
ATOM     95  C   UNL A   1      38.092  32.549  38.974  1.00  0.00     0.198 A 
ATOM     96  F   UNL A   1      37.676  31.797  36.832  1.00  0.00    -0.203 F 
ATOM     97  F   UNL A   1      39.245  35.727  40.229  1.00  0.00    -0.200 F 
ATOM     98  C   UNL A   1      38.461  33.537  39.859  1.00  0.00     0.200 A 
ATOM     99  F   UNL A   1      37.709  31.345  39.425  1.00  0.00    -0.200 F 
ATOM    100  F   UNL A   1      38.407  33.311  41.178  1.00  0.00    -0.200 F 
ENDBRANCH  67  90
ENDBRANCH  41  42
ENDBRANCH  34  36
ENDBRANCH  33  34
ENDBRANCH  32  33
ENDBRANCH  31  32
ENDBRANCH  30  31
ENDBRANCH  29  30
ENDBRANCH  28  29
ENDBRANCH  27  28
ENDBRANCH   1  27
TORSDOF 23
ENDMDL
