MODEL 1
REMARK VINA RESULT:     -10.0      0.000      0.000
REMARK SMILES O=C(Cc1ccccc1Nc1c(Cl)cccc1Cl)OCCOCCOCCOCCOC(=O)c1ccc(-c2c3nc(c(-c4c(F)c(F)c(F)c(F)c4F)c4ccc([nH]4)c(-c4c(F)c(F)c(F)c(F)c4F)c4nc(c(-c5c(F)c(F)c(F)c(F)c5F)c5ccc2[nH]5)C=C4)C=C3)cc1
REMARK SMILES IDX 24 1 23 2 22 3 21 4 20 5 19 6 2 7 1 8 3 9 4 10 5 11 9 12
REMARK SMILES IDX 6 13 8 14 7 15 10 16 11 18 12 19 17 20 13 21 14 22 16 23
REMARK SMILES IDX 18 24 15 25 25 26 26 27 27 28 28 29 29 30 30 31 31 32 32 33
REMARK SMILES IDX 33 34 34 35 35 36 96 37 36 38 95 39 37 40 38 41 39 42 89 43
REMARK SMILES IDX 40 44 94 45 88 46 90 47 41 48 93 49 87 50 86 51 42 53 74 54
REMARK SMILES IDX 54 55 73 56 55 57 58 58 72 59 91 60 56 61 57 62 71 64 92 65
REMARK SMILES IDX 59 66 43 67 44 68 52 69 45 70 46 71 50 72 53 73 47 74 48 75
REMARK SMILES IDX 51 76 49 77 75 78 76 79 84 80 77 81 78 82 82 83 85 84 79 85
REMARK SMILES IDX 80 86 83 87 81 88 60 89 61 90 69 91 62 92 63 93 67 94 70 95
REMARK SMILES IDX 64 96 65 97 68 98 66 99
REMARK H PARENT 10 17 90 52 58 63
REMARK Flexibility Score: inf
ROOT
ATOM      1  C   UNL A   1      41.396  21.578  27.078  1.00  0.00     0.188 C 
ENDROOT
BRANCH   1   2
ATOM      2  C   UNL A   1      40.449  21.087  25.994  1.00  0.00     0.188 C 
BRANCH   2   3
ATOM      3  O   UNL A   1      39.062  21.227  26.249  1.00  0.00    -0.376 OA
BRANCH   3   4
ATOM      4  C   UNL A   1      38.135  21.612  25.249  1.00  0.00     0.202 C 
BRANCH   4   5
ATOM      5  C   UNL A   1      37.431  22.959  25.298  1.00  0.00     0.261 C 
BRANCH   5   6
ATOM      6  O   UNL A   1      36.845  23.414  24.080  1.00  0.00    -0.463 OA
BRANCH   6   7
ATOM      7  C   UNL A   1      35.539  23.759  24.005  1.00  0.00     0.310 C 
ATOM      8  O   UNL A   1      34.907  23.511  22.981  1.00  0.00    -0.252 OA
BRANCH   7   9
ATOM      9  C   UNL A   1      34.967  24.626  25.105  1.00  0.00     0.160 C 
BRANCH   9  10
ATOM     10  C   UNL A   1      33.720  24.074  25.741  1.00  0.00    -0.013 A 
ATOM     11  C   UNL A   1      33.897  23.123  26.761  1.00  0.00     0.006 A 
ATOM     12  C   UNL A   1      32.415  24.470  25.368  1.00  0.00     0.042 A 
ATOM     13  C   UNL A   1      32.803  22.536  27.381  1.00  0.00     0.000 A 
ATOM     14  C   UNL A   1      31.325  23.859  26.002  1.00  0.00     0.026 A 
ATOM     15  C   UNL A   1      31.517  22.903  27.001  1.00  0.00     0.002 A 
BRANCH  12  16
ATOM     16  N   UNL A   1      32.193  25.294  24.246  1.00  0.00    -0.353 N 
ATOM     17  H   UNL A   1      31.642  24.873  23.546  1.00  0.00     0.167 HD
BRANCH  16  18
ATOM     18  C   UNL A   1      32.611  26.620  23.929  1.00  0.00     0.076 A 
ATOM     19  C   UNL A   1      33.043  26.891  22.603  1.00  0.00     0.066 A 
ATOM     20  C   UNL A   1      32.746  27.669  24.860  1.00  0.00     0.066 A 
ATOM     21  Cl  UNL A   1      32.966  25.662  21.382  1.00  0.00    -0.082 Cl
ATOM     22  C   UNL A   1      33.565  28.133  22.224  1.00  0.00     0.023 A 
ATOM     23  C   UNL A   1      33.267  28.917  24.473  1.00  0.00     0.023 A 
ATOM     24  Cl  UNL A   1      32.403  27.491  26.547  1.00  0.00    -0.082 Cl
ATOM     25  C   UNL A   1      33.676  29.150  23.162  1.00  0.00     0.003 A 
ENDBRANCH  16  18
ENDBRANCH  12  16
ENDBRANCH   9  10
ENDBRANCH   7   9
ENDBRANCH   6   7
ENDBRANCH   5   6
ENDBRANCH   4   5
ENDBRANCH   3   4
ENDBRANCH   2   3
ENDBRANCH   1   2
BRANCH   1  26
ATOM     26  O   UNL A   1      42.670  20.956  27.014  1.00  0.00    -0.377 OA
BRANCH  26  27
ATOM     27  C   UNL A   1      42.859  20.065  25.930  1.00  0.00     0.188 C 
BRANCH  27  28
ATOM     28  C   UNL A   1      44.187  20.172  25.136  1.00  0.00     0.188 C 
BRANCH  28  29
ATOM     29  O   UNL A   1      44.304  20.892  23.918  1.00  0.00    -0.376 OA
BRANCH  29  30
ATOM     30  C   UNL A   1      44.190  22.301  23.905  1.00  0.00     0.202 C 
BRANCH  30  31
ATOM     31  C   UNL A   1      45.443  23.100  24.281  1.00  0.00     0.261 C 
BRANCH  31  32
ATOM     32  O   UNL A   1      45.194  24.188  25.183  1.00  0.00    -0.460 OA
BRANCH  32  33
ATOM     33  C   UNL A   1      45.110  23.866  26.497  1.00  0.00     0.338 C 
ATOM     34  O   UNL A   1      45.717  22.988  27.086  1.00  0.00    -0.246 OA
BRANCH  33  35
ATOM     35  C   UNL A   1      44.296  24.892  27.193  1.00  0.00     0.060 A 
ATOM     36  C   UNL A   1      44.630  26.244  27.008  1.00  0.00     0.016 A 
ATOM     37  C   UNL A   1      43.184  24.543  27.964  1.00  0.00     0.016 A 
ATOM     38  C   UNL A   1      43.879  27.248  27.621  1.00  0.00     0.010 A 
ATOM     39  C   UNL A   1      42.448  25.545  28.601  1.00  0.00     0.010 A 
ATOM     40  C   UNL A   1      42.820  26.896  28.466  1.00  0.00    -0.014 A 
BRANCH  40  41
ATOM     41  C   UNL A   1      42.309  27.867  29.460  1.00  0.00     0.031 A 
ATOM     42  C   UNL A   1      43.017  27.918  30.785  1.00  0.00     0.074 A 
ATOM     43  C   UNL A   1      41.227  28.631  29.236  1.00  0.00     0.049 A 
ATOM     44  N   UNL A   1      42.680  28.524  31.892  1.00  0.00    -0.248 NA
ATOM     45  C   UNL A   1      44.275  27.157  30.870  1.00  0.00     0.031 C 
ATOM     46  C   UNL A   1      40.483  28.703  27.984  1.00  0.00     0.029 A 
ATOM     47  N   UNL A   1      40.548  29.468  30.087  1.00  0.00    -0.354 N 
ATOM     48  C   UNL A   1      43.667  28.192  32.810  1.00  0.00     0.074 A 
ATOM     49  C   UNL A   1      44.608  27.326  32.138  1.00  0.00     0.031 C 
ATOM     50  C   UNL A   1      39.420  29.511  28.158  1.00  0.00     0.029 A 
ATOM     51  C   UNL A   1      39.391  29.973  29.547  1.00  0.00     0.049 A 
ATOM     52  H   UNL A   1      40.859  29.684  30.996  1.00  0.00     0.167 HD
ATOM     53  C   UNL A   1      43.775  28.569  34.105  1.00  0.00     0.037 A 
ATOM     54  C   UNL A   1      38.405  30.687  30.125  1.00  0.00     0.037 A 
ATOM     55  C   UNL A   1      42.830  29.419  34.773  1.00  0.00     0.049 A 
ATOM     56  C   UNL A   1      38.509  31.051  31.585  1.00  0.00     0.074 A 
ATOM     57  C   UNL A   1      42.855  29.881  36.075  1.00  0.00     0.029 A 
ATOM     58  N   UNL A   1      41.677  29.921  34.187  1.00  0.00    -0.354 N 
ATOM     59  N   UNL A   1      39.454  30.757  32.447  1.00  0.00    -0.248 NA
ATOM     60  C   UNL A   1      37.408  31.843  32.155  1.00  0.00     0.031 C 
ATOM     61  C   UNL A   1      41.689  30.621  36.293  1.00  0.00     0.029 A 
ATOM     62  C   UNL A   1      40.967  30.668  35.110  1.00  0.00     0.049 A 
ATOM     63  H   UNL A   1      41.404  29.767  33.254  1.00  0.00     0.167 HD
ATOM     64  C   UNL A   1      39.077  31.348  33.648  1.00  0.00     0.074 A 
ATOM     65  C   UNL A   1      37.817  32.020  33.405  1.00  0.00     0.031 C 
ATOM     66  C   UNL A   1      39.720  31.340  34.843  1.00  0.00     0.037 A 
BRANCH  53  67
ATOM     67  C   UNL A   1      44.928  28.007  34.882  1.00  0.00     0.064 A 
ATOM     68  C   UNL A   1      46.175  28.648  34.926  1.00  0.00     0.173 A 
ATOM     69  C   UNL A   1      44.791  26.789  35.563  1.00  0.00     0.173 A 
ATOM     70  F   UNL A   1      46.364  29.802  34.268  1.00  0.00    -0.203 F 
ATOM     71  C   UNL A   1      47.253  28.070  35.589  1.00  0.00     0.198 A 
ATOM     72  C   UNL A   1      45.862  26.230  36.254  1.00  0.00     0.198 A 
ATOM     73  F   UNL A   1      43.620  26.133  35.549  1.00  0.00    -0.203 F 
ATOM     74  F   UNL A   1      48.454  28.665  35.558  1.00  0.00    -0.200 F 
ATOM     75  C   UNL A   1      47.095  26.865  36.256  1.00  0.00     0.200 A 
ATOM     76  F   UNL A   1      45.705  25.069  36.903  1.00  0.00    -0.200 F 
ATOM     77  F   UNL A   1      48.136  26.305  36.889  1.00  0.00    -0.200 F 
ENDBRANCH  53  67
BRANCH  54  78
ATOM     78  C   UNL A   1      37.213  31.074  29.325  1.00  0.00     0.064 A 
ATOM     79  C   UNL A   1      37.064  32.376  28.832  1.00  0.00     0.173 A 
ATOM     80  C   UNL A   1      36.206  30.144  29.028  1.00  0.00     0.173 A 
ATOM     81  F   UNL A   1      37.987  33.308  29.112  1.00  0.00    -0.203 F 
ATOM     82  C   UNL A   1      35.951  32.736  28.073  1.00  0.00     0.198 A 
ATOM     83  C   UNL A   1      35.105  30.497  28.249  1.00  0.00     0.198 A 
ATOM     84  F   UNL A   1      36.300  28.884  29.480  1.00  0.00    -0.203 F 
ATOM     85  F   UNL A   1      35.819  33.995  27.636  1.00  0.00    -0.200 F 
ATOM     86  C   UNL A   1      34.977  31.793  27.775  1.00  0.00     0.200 A 
ATOM     87  F   UNL A   1      34.175  29.580  27.953  1.00  0.00    -0.200 F 
ATOM     88  F   UNL A   1      33.916  32.135  27.032  1.00  0.00    -0.200 F 
ENDBRANCH  54  78
BRANCH  66  89
ATOM     89  C   UNL A   1      39.107  32.114  35.973  1.00  0.00     0.064 A 
ATOM     90  C   UNL A   1      38.228  31.515  36.887  1.00  0.00     0.173 A 
ATOM     91  C   UNL A   1      39.478  33.449  36.194  1.00  0.00     0.173 A 
ATOM     92  F   UNL A   1      37.835  30.245  36.713  1.00  0.00    -0.203 F 
ATOM     93  C   UNL A   1      37.734  32.231  37.976  1.00  0.00     0.198 A 
ATOM     94  C   UNL A   1      39.004  34.152  37.297  1.00  0.00     0.198 A 
ATOM     95  F   UNL A   1      40.324  34.063  35.353  1.00  0.00    -0.203 F 
ATOM     96  F   UNL A   1      36.873  31.649  38.822  1.00  0.00    -0.200 F 
ATOM     97  C   UNL A   1      38.131  33.544  38.185  1.00  0.00     0.200 A 
ATOM     98  F   UNL A   1      39.402  35.415  37.507  1.00  0.00    -0.200 F 
ATOM     99  F   UNL A   1      37.669  34.224  39.244  1.00  0.00    -0.200 F 
ENDBRANCH  66  89
ENDBRANCH  40  41
ENDBRANCH  33  35
ENDBRANCH  32  33
ENDBRANCH  31  32
ENDBRANCH  30  31
ENDBRANCH  29  30
ENDBRANCH  28  29
ENDBRANCH  27  28
ENDBRANCH  26  27
ENDBRANCH   1  26
TORSDOF 23
ENDMDL
MODEL 2
REMARK VINA RESULT:      -9.7      5.443     11.019
REMARK SMILES O=C(Cc1ccccc1Nc1c(Cl)cccc1Cl)OCCOCCOCCOCCOC(=O)c1ccc(-c2c3nc(c(-c4c(F)c(F)c(F)c(F)c4F)c4ccc([nH]4)c(-c4c(F)c(F)c(F)c(F)c4F)c4nc(c(-c5c(F)c(F)c(F)c(F)c5F)c5ccc2[nH]5)C=C4)C=C3)cc1
REMARK SMILES IDX 24 1 23 2 22 3 21 4 20 5 19 6 2 7 1 8 3 9 4 10 5 11 9 12
REMARK SMILES IDX 6 13 8 14 7 15 10 16 11 18 12 19 17 20 13 21 14 22 16 23
REMARK SMILES IDX 18 24 15 25 25 26 26 27 27 28 28 29 29 30 30 31 31 32 32 33
REMARK SMILES IDX 33 34 34 35 35 36 96 37 36 38 95 39 37 40 38 41 39 42 89 43
REMARK SMILES IDX 40 44 94 45 88 46 90 47 41 48 93 49 87 50 86 51 42 53 74 54
REMARK SMILES IDX 54 55 73 56 55 57 58 58 72 59 91 60 56 61 57 62 71 64 92 65
REMARK SMILES IDX 59 66 43 67 44 68 52 69 45 70 46 71 50 72 53 73 47 74 48 75
REMARK SMILES IDX 51 76 49 77 75 78 76 79 84 80 77 81 78 82 82 83 85 84 79 85
REMARK SMILES IDX 80 86 83 87 81 88 60 89 61 90 69 91 62 92 63 93 67 94 70 95
REMARK SMILES IDX 64 96 65 97 68 98 66 99
REMARK H PARENT 10 17 90 52 58 63
REMARK Flexibility Score: inf
ROOT
ATOM      1  C   UNL A   1      33.469  31.624  27.508  1.00  0.00     0.188 C 
ENDROOT
BRANCH   1   2
ATOM      2  C   UNL A   1      33.992  30.199  27.580  1.00  0.00     0.188 C 
BRANCH   2   3
ATOM      3  O   UNL A   1      34.305  29.572  26.349  1.00  0.00    -0.376 OA
BRANCH   3   4
ATOM      4  C   UNL A   1      33.396  28.724  25.669  1.00  0.00     0.202 C 
BRANCH   4   5
ATOM      5  C   UNL A   1      32.730  29.155  24.371  1.00  0.00     0.261 C 
BRANCH   5   6
ATOM      6  O   UNL A   1      31.318  29.355  24.418  1.00  0.00    -0.463 OA
BRANCH   6   7
ATOM      7  C   UNL A   1      30.458  28.485  23.840  1.00  0.00     0.310 C 
ATOM      8  O   UNL A   1      29.501  28.917  23.201  1.00  0.00    -0.252 OA
BRANCH   7   9
ATOM      9  C   UNL A   1      30.592  27.017  24.183  1.00  0.00     0.160 C 
BRANCH   9  10
ATOM     10  C   UNL A   1      31.541  26.260  23.294  1.00  0.00    -0.013 A 
ATOM     11  C   UNL A   1      31.311  26.338  21.909  1.00  0.00     0.006 A 
ATOM     12  C   UNL A   1      32.629  25.501  23.784  1.00  0.00     0.042 A 
ATOM     13  C   UNL A   1      32.117  25.645  21.017  1.00  0.00     0.000 A 
ATOM     14  C   UNL A   1      33.424  24.805  22.866  1.00  0.00     0.026 A 
ATOM     15  C   UNL A   1      33.172  24.878  21.494  1.00  0.00     0.002 A 
BRANCH  12  16
ATOM     16  N   UNL A   1      32.795  25.268  25.165  1.00  0.00    -0.353 N 
ATOM     17  H   UNL A   1      32.673  26.072  25.721  1.00  0.00     0.167 HD
BRANCH  16  18
ATOM     18  C   UNL A   1      33.104  24.094  25.912  1.00  0.00     0.076 A 
ATOM     19  C   UNL A   1      32.057  23.455  26.628  1.00  0.00     0.066 A 
ATOM     20  C   UNL A   1      34.401  23.574  26.099  1.00  0.00     0.066 A 
ATOM     21  Cl  UNL A   1      30.426  24.035  26.510  1.00  0.00    -0.082 Cl
ATOM     22  C   UNL A   1      32.283  22.358  27.467  1.00  0.00     0.023 A 
ATOM     23  C   UNL A   1      34.623  22.469  26.941  1.00  0.00     0.023 A 
ATOM     24  Cl  UNL A   1      35.820  24.296  25.423  1.00  0.00    -0.082 Cl
ATOM     25  C   UNL A   1      33.570  21.862  27.623  1.00  0.00     0.003 A 
ENDBRANCH  16  18
ENDBRANCH  12  16
ENDBRANCH   9  10
ENDBRANCH   7   9
ENDBRANCH   6   7
ENDBRANCH   5   6
ENDBRANCH   4   5
ENDBRANCH   3   4
ENDBRANCH   2   3
ENDBRANCH   1   2
BRANCH   1  26
ATOM     26  O   UNL A   1      34.462  32.589  27.825  1.00  0.00    -0.377 OA
BRANCH  26  27
ATOM     27  C   UNL A   1      34.914  32.578  29.167  1.00  0.00     0.188 C 
BRANCH  27  28
ATOM     28  C   UNL A   1      34.644  33.841  30.025  1.00  0.00     0.188 C 
BRANCH  28  29
ATOM     29  O   UNL A   1      33.914  33.807  31.243  1.00  0.00    -0.376 OA
BRANCH  29  30
ATOM     30  C   UNL A   1      34.536  34.165  32.461  1.00  0.00     0.202 C 
BRANCH  30  31
ATOM     31  C   UNL A   1      34.847  33.028  33.440  1.00  0.00     0.261 C 
BRANCH  31  32
ATOM     32  O   UNL A   1      35.666  31.988  32.887  1.00  0.00    -0.460 OA
BRANCH  32  33
ATOM     33  C   UNL A   1      36.863  31.787  33.492  1.00  0.00     0.338 C 
ATOM     34  O   UNL A   1      37.127  31.911  34.675  1.00  0.00    -0.246 OA
BRANCH  33  35
ATOM     35  C   UNL A   1      37.800  31.180  32.514  1.00  0.00     0.060 A 
ATOM     36  C   UNL A   1      38.910  30.474  33.007  1.00  0.00     0.016 A 
ATOM     37  C   UNL A   1      37.564  31.246  31.138  1.00  0.00     0.016 A 
ATOM     38  C   UNL A   1      39.807  29.863  32.128  1.00  0.00     0.010 A 
ATOM     39  C   UNL A   1      38.476  30.660  30.257  1.00  0.00     0.010 A 
ATOM     40  C   UNL A   1      39.621  30.006  30.748  1.00  0.00    -0.014 A 
BRANCH  40  41
ATOM     41  C   UNL A   1      40.752  29.778  29.820  1.00  0.00     0.031 A 
ATOM     42  C   UNL A   1      40.843  28.420  29.182  1.00  0.00     0.074 A 
ATOM     43  C   UNL A   1      41.699  30.703  29.592  1.00  0.00     0.049 A 
ATOM     44  N   UNL A   1      41.811  27.884  28.488  1.00  0.00    -0.248 NA
ATOM     45  C   UNL A   1      39.679  27.539  29.377  1.00  0.00     0.031 C 
ATOM     46  C   UNL A   1      41.700  32.064  30.114  1.00  0.00     0.029 A 
ATOM     47  N   UNL A   1      42.871  30.608  28.881  1.00  0.00    -0.354 N 
ATOM     48  C   UNL A   1      41.384  26.596  28.192  1.00  0.00     0.074 A 
ATOM     49  C   UNL A   1      40.079  26.426  28.787  1.00  0.00     0.031 C 
ATOM     50  C   UNL A   1      42.842  32.670  29.740  1.00  0.00     0.029 A 
ATOM     51  C   UNL A   1      43.667  31.721  28.991  1.00  0.00     0.049 A 
ATOM     52  H   UNL A   1      43.116  29.819  28.346  1.00  0.00     0.167 HD
ATOM     53  C   UNL A   1      42.029  25.635  27.492  1.00  0.00     0.037 A 
ATOM     54  C   UNL A   1      44.931  31.926  28.572  1.00  0.00     0.037 A 
ATOM     55  C   UNL A   1      43.332  25.803  26.913  1.00  0.00     0.049 A 
ATOM     56  C   UNL A   1      45.660  30.824  27.843  1.00  0.00     0.074 A 
ATOM     57  C   UNL A   1      44.067  24.902  26.166  1.00  0.00     0.029 A 
ATOM     58  N   UNL A   1      44.102  26.951  27.036  1.00  0.00    -0.354 N 
ATOM     59  N   UNL A   1      45.248  29.615  27.543  1.00  0.00    -0.248 NA
ATOM     60  C   UNL A   1      47.032  31.113  27.399  1.00  0.00     0.031 C 
ATOM     61  C   UNL A   1      45.305  25.488  25.880  1.00  0.00     0.029 A 
ATOM     62  C   UNL A   1      45.317  26.773  26.400  1.00  0.00     0.049 A 
ATOM     63  H   UNL A   1      43.824  27.770  27.507  1.00  0.00     0.167 HD
ATOM     64  C   UNL A   1      46.294  29.012  26.853  1.00  0.00     0.074 A 
ATOM     65  C   UNL A   1      47.361  29.987  26.778  1.00  0.00     0.031 C 
ATOM     66  C   UNL A   1      46.362  27.764  26.326  1.00  0.00     0.037 A 
BRANCH  53  67
ATOM     67  C   UNL A   1      41.344  24.306  27.375  1.00  0.00     0.064 A 
ATOM     68  C   UNL A   1      41.846  23.155  28.001  1.00  0.00     0.173 A 
ATOM     69  C   UNL A   1      40.187  24.177  26.594  1.00  0.00     0.173 A 
ATOM     70  F   UNL A   1      42.966  23.221  28.737  1.00  0.00    -0.203 F 
ATOM     71  C   UNL A   1      41.238  21.917  27.815  1.00  0.00     0.198 A 
ATOM     72  C   UNL A   1      39.562  22.943  26.438  1.00  0.00     0.198 A 
ATOM     73  F   UNL A   1      39.668  25.246  25.970  1.00  0.00    -0.203 F 
ATOM     74  F   UNL A   1      41.776  20.819  28.365  1.00  0.00    -0.200 F 
ATOM     75  C   UNL A   1      40.095  21.813  27.038  1.00  0.00     0.200 A 
ATOM     76  F   UNL A   1      38.453  22.846  25.692  1.00  0.00    -0.200 F 
ATOM     77  F   UNL A   1      39.514  20.618  26.854  1.00  0.00    -0.200 F 
ENDBRANCH  53  67
BRANCH  54  78
ATOM     78  C   UNL A   1      45.601  33.220  28.865  1.00  0.00     0.064 A 
ATOM     79  C   UNL A   1      46.283  33.425  30.071  1.00  0.00     0.173 A 
ATOM     80  C   UNL A   1      45.583  34.272  27.938  1.00  0.00     0.173 A 
ATOM     81  F   UNL A   1      46.306  32.459  31.000  1.00  0.00    -0.203 F 
ATOM     82  C   UNL A   1      46.920  34.635  30.341  1.00  0.00     0.198 A 
ATOM     83  C   UNL A   1      46.240  35.474  28.197  1.00  0.00     0.198 A 
ATOM     84  F   UNL A   1      44.940  34.127  26.770  1.00  0.00    -0.203 F 
ATOM     85  F   UNL A   1      47.542  34.816  31.513  1.00  0.00    -0.200 F 
ATOM     86  C   UNL A   1      46.906  35.655  29.400  1.00  0.00     0.200 A 
ATOM     87  F   UNL A   1      46.234  36.450  27.281  1.00  0.00    -0.200 F 
ATOM     88  F   UNL A   1      47.531  36.812  29.654  1.00  0.00    -0.200 F 
ENDBRANCH  54  78
BRANCH  66  89
ATOM     89  C   UNL A   1      47.606  27.386  25.577  1.00  0.00     0.064 A 
ATOM     90  C   UNL A   1      47.751  27.644  24.207  1.00  0.00     0.173 A 
ATOM     91  C   UNL A   1      48.703  26.842  26.265  1.00  0.00     0.173 A 
ATOM     92  F   UNL A   1      46.728  28.153  23.504  1.00  0.00    -0.203 F 
ATOM     93  C   UNL A   1      48.946  27.359  23.549  1.00  0.00     0.198 A 
ATOM     94  C   UNL A   1      49.903  26.584  25.610  1.00  0.00     0.198 A 
ATOM     95  F   UNL A   1      48.617  26.587  27.578  1.00  0.00    -0.203 F 
ATOM     96  F   UNL A   1      49.054  27.586  22.233  1.00  0.00    -0.200 F 
ATOM     97  C   UNL A   1      50.023  26.839  24.253  1.00  0.00     0.200 A 
ATOM     98  F   UNL A   1      50.948  26.098  26.295  1.00  0.00    -0.200 F 
ATOM     99  F   UNL A   1      51.177  26.585  23.621  1.00  0.00    -0.200 F 
ENDBRANCH  66  89
ENDBRANCH  40  41
ENDBRANCH  33  35
ENDBRANCH  32  33
ENDBRANCH  31  32
ENDBRANCH  30  31
ENDBRANCH  29  30
ENDBRANCH  28  29
ENDBRANCH  27  28
ENDBRANCH  26  27
ENDBRANCH   1  26
TORSDOF 23
ENDMDL
MODEL 3
REMARK VINA RESULT:      -9.5      1.224      2.278
REMARK SMILES O=C(Cc1ccccc1Nc1c(Cl)cccc1Cl)OCCOCCOCCOCCOC(=O)c1ccc(-c2c3nc(c(-c4c(F)c(F)c(F)c(F)c4F)c4ccc([nH]4)c(-c4c(F)c(F)c(F)c(F)c4F)c4nc(c(-c5c(F)c(F)c(F)c(F)c5F)c5ccc2[nH]5)C=C4)C=C3)cc1
REMARK SMILES IDX 24 1 23 2 22 3 21 4 20 5 19 6 2 7 1 8 3 9 4 10 5 11 9 12
REMARK SMILES IDX 6 13 8 14 7 15 10 16 11 18 12 19 17 20 13 21 14 22 16 23
REMARK SMILES IDX 18 24 15 25 25 26 26 27 27 28 28 29 29 30 30 31 31 32 32 33
REMARK SMILES IDX 33 34 34 35 35 36 96 37 36 38 95 39 37 40 38 41 39 42 89 43
REMARK SMILES IDX 40 44 94 45 88 46 90 47 41 48 93 49 87 50 86 51 42 53 74 54
REMARK SMILES IDX 54 55 73 56 55 57 58 58 72 59 91 60 56 61 57 62 71 64 92 65
REMARK SMILES IDX 59 66 43 67 44 68 52 69 45 70 46 71 50 72 53 73 47 74 48 75
REMARK SMILES IDX 51 76 49 77 75 78 76 79 84 80 77 81 78 82 82 83 85 84 79 85
REMARK SMILES IDX 80 86 83 87 81 88 60 89 61 90 69 91 62 92 63 93 67 94 70 95
REMARK SMILES IDX 64 96 65 97 68 98 66 99
REMARK H PARENT 10 17 90 52 58 63
REMARK Flexibility Score: inf
ROOT
ATOM      1  C   UNL A   1      40.620  22.965  27.200  1.00  0.00     0.188 C 
ENDROOT
BRANCH   1   2
ATOM      2  C   UNL A   1      39.740  22.122  26.292  1.00  0.00     0.188 C 
BRANCH   2   3
ATOM      3  O   UNL A   1      38.339  22.295  26.422  1.00  0.00    -0.376 OA
BRANCH   3   4
ATOM      4  C   UNL A   1      37.454  22.231  25.318  1.00  0.00     0.202 C 
BRANCH   4   5
ATOM      5  C   UNL A   1      36.633  23.439  24.891  1.00  0.00     0.261 C 
BRANCH   5   6
ATOM      6  O   UNL A   1      35.937  23.327  23.651  1.00  0.00    -0.463 OA
BRANCH   6   7
ATOM      7  C   UNL A   1      34.719  23.887  23.467  1.00  0.00     0.310 C 
ATOM      8  O   UNL A   1      34.128  23.708  22.404  1.00  0.00    -0.252 OA
BRANCH   7   9
ATOM      9  C   UNL A   1      34.231  24.884  24.495  1.00  0.00     0.160 C 
BRANCH   9  10
ATOM     10  C   UNL A   1      32.978  24.463  25.215  1.00  0.00    -0.013 A 
ATOM     11  C   UNL A   1      33.144  23.683  26.373  1.00  0.00     0.006 A 
ATOM     12  C   UNL A   1      31.678  24.819  24.788  1.00  0.00     0.042 A 
ATOM     13  C   UNL A   1      32.043  23.223  27.082  1.00  0.00     0.000 A 
ATOM     14  C   UNL A   1      30.581  24.338  25.515  1.00  0.00     0.026 A 
ATOM     15  C   UNL A   1      30.762  23.549  26.653  1.00  0.00     0.002 A 
BRANCH  12  16
ATOM     16  N   UNL A   1      31.464  25.459  23.550  1.00  0.00    -0.353 N 
ATOM     17  H   UNL A   1      31.653  24.888  22.770  1.00  0.00     0.167 HD
BRANCH  16  18
ATOM     18  C   UNL A   1      31.026  26.772  23.208  1.00  0.00     0.076 A 
ATOM     19  C   UNL A   1      31.990  27.704  22.741  1.00  0.00     0.066 A 
ATOM     20  C   UNL A   1      29.721  27.266  23.409  1.00  0.00     0.066 A 
ATOM     21  Cl  UNL A   1      33.639  27.220  22.499  1.00  0.00    -0.082 Cl
ATOM     22  C   UNL A   1      31.675  29.042  22.478  1.00  0.00     0.023 A 
ATOM     23  C   UNL A   1      29.408  28.611  23.139  1.00  0.00     0.023 A 
ATOM     24  Cl  UNL A   1      28.445  26.323  24.099  1.00  0.00    -0.082 Cl
ATOM     25  C   UNL A   1      30.378  29.496  22.676  1.00  0.00     0.003 A 
ENDBRANCH  16  18
ENDBRANCH  12  16
ENDBRANCH   9  10
ENDBRANCH   7   9
ENDBRANCH   6   7
ENDBRANCH   5   6
ENDBRANCH   4   5
ENDBRANCH   3   4
ENDBRANCH   2   3
ENDBRANCH   1   2
BRANCH   1  26
ATOM     26  O   UNL A   1      41.983  22.572  27.160  1.00  0.00    -0.377 OA
BRANCH  26  27
ATOM     27  C   UNL A   1      42.233  21.295  26.602  1.00  0.00     0.188 C 
BRANCH  27  28
ATOM     28  C   UNL A   1      43.585  21.081  25.874  1.00  0.00     0.188 C 
BRANCH  28  29
ATOM     29  O   UNL A   1      43.771  21.351  24.492  1.00  0.00    -0.376 OA
BRANCH  29  30
ATOM     30  C   UNL A   1      44.104  22.653  24.055  1.00  0.00     0.202 C 
BRANCH  30  31
ATOM     31  C   UNL A   1      45.553  23.105  24.268  1.00  0.00     0.261 C 
BRANCH  31  32
ATOM     32  O   UNL A   1      45.683  24.465  24.706  1.00  0.00    -0.460 OA
BRANCH  32  33
ATOM     33  C   UNL A   1      46.159  24.643  25.963  1.00  0.00     0.338 C 
ATOM     34  O   UNL A   1      47.232  24.275  26.410  1.00  0.00    -0.246 OA
BRANCH  33  35
ATOM     35  C   UNL A   1      45.248  25.555  26.698  1.00  0.00     0.060 A 
ATOM     36  C   UNL A   1      45.381  26.938  26.490  1.00  0.00     0.016 A 
ATOM     37  C   UNL A   1      44.238  25.064  27.529  1.00  0.00     0.016 A 
ATOM     38  C   UNL A   1      44.530  27.835  27.138  1.00  0.00     0.010 A 
ATOM     39  C   UNL A   1      43.405  25.961  28.201  1.00  0.00     0.010 A 
ATOM     40  C   UNL A   1      43.577  27.349  28.040  1.00  0.00    -0.014 A 
BRANCH  40  41
ATOM     41  C   UNL A   1      42.989  28.251  29.057  1.00  0.00     0.031 A 
ATOM     42  C   UNL A   1      43.736  28.390  30.354  1.00  0.00     0.074 A 
ATOM     43  C   UNL A   1      41.813  28.876  28.877  1.00  0.00     0.049 A 
ATOM     44  N   UNL A   1      43.370  28.952  31.475  1.00  0.00    -0.248 NA
ATOM     45  C   UNL A   1      45.080  27.790  30.389  1.00  0.00     0.031 C 
ATOM     46  C   UNL A   1      41.019  28.855  27.654  1.00  0.00     0.029 A 
ATOM     47  N   UNL A   1      41.070  29.625  29.756  1.00  0.00    -0.354 N 
ATOM     48  C   UNL A   1      44.425  28.745  32.354  1.00  0.00     0.074 A 
ATOM     49  C   UNL A   1      45.438  28.000  31.643  1.00  0.00     0.031 C 
ATOM     50  C   UNL A   1      39.873  29.526  27.872  1.00  0.00     0.029 A 
ATOM     51  C   UNL A   1      39.840  29.983  29.262  1.00  0.00     0.049 A 
ATOM     52  H   UNL A   1      41.387  29.878  30.653  1.00  0.00     0.167 HD
ATOM     53  C   UNL A   1      44.535  29.133  33.645  1.00  0.00     0.037 A 
ATOM     54  C   UNL A   1      38.797  30.571  29.880  1.00  0.00     0.037 A 
ATOM     55  C   UNL A   1      43.520  29.861  34.351  1.00  0.00     0.049 A 
ATOM     56  C   UNL A   1      38.911  30.947  31.337  1.00  0.00     0.074 A 
ATOM     57  C   UNL A   1      43.538  30.325  35.653  1.00  0.00     0.029 A 
ATOM     58  N   UNL A   1      42.291  30.217  33.811  1.00  0.00    -0.354 N 
ATOM     59  N   UNL A   1      39.917  30.772  32.161  1.00  0.00    -0.248 NA
ATOM     60  C   UNL A   1      37.745  31.598  31.951  1.00  0.00     0.031 C 
ATOM     61  C   UNL A   1      42.298  30.917  35.919  1.00  0.00     0.029 A 
ATOM     62  C   UNL A   1      41.532  30.873  34.764  1.00  0.00     0.049 A 
ATOM     63  H   UNL A   1      42.004  30.030  32.889  1.00  0.00     0.167 HD
ATOM     64  C   UNL A   1      39.517  31.314  33.378  1.00  0.00     0.074 A 
ATOM     65  C   UNL A   1      38.176  31.825  33.185  1.00  0.00     0.031 C 
ATOM     66  C   UNL A   1      40.202  31.386  34.547  1.00  0.00     0.037 A 
BRANCH  53  67
ATOM     67  C   UNL A   1      45.777  28.719  34.375  1.00  0.00     0.064 A 
ATOM     68  C   UNL A   1      45.830  27.545  35.142  1.00  0.00     0.173 A 
ATOM     69  C   UNL A   1      46.921  29.529  34.334  1.00  0.00     0.173 A 
ATOM     70  F   UNL A   1      44.753  26.750  35.235  1.00  0.00    -0.203 F 
ATOM     71  C   UNL A   1      46.969  27.219  35.874  1.00  0.00     0.198 A 
ATOM     72  C   UNL A   1      48.070  29.183  35.039  1.00  0.00     0.198 A 
ATOM     73  F   UNL A   1      46.921  30.664  33.618  1.00  0.00    -0.203 F 
ATOM     74  F   UNL A   1      46.972  26.131  36.656  1.00  0.00    -0.200 F 
ATOM     75  C   UNL A   1      48.088  28.036  35.818  1.00  0.00     0.200 A 
ATOM     76  F   UNL A   1      49.153  29.970  34.980  1.00  0.00    -0.200 F 
ATOM     77  F   UNL A   1      49.182  27.725  36.529  1.00  0.00    -0.200 F 
ENDBRANCH  53  67
BRANCH  54  78
ATOM     78  C   UNL A   1      37.537  30.807  29.128  1.00  0.00     0.064 A 
ATOM     79  C   UNL A   1      36.645  29.761  28.862  1.00  0.00     0.173 A 
ATOM     80  C   UNL A   1      37.194  32.089  28.673  1.00  0.00     0.173 A 
ATOM     81  F   UNL A   1      36.941  28.513  29.254  1.00  0.00    -0.203 F 
ATOM     82  C   UNL A   1      35.458  29.986  28.166  1.00  0.00     0.198 A 
ATOM     83  C   UNL A   1      35.996  32.319  27.999  1.00  0.00     0.198 A 
ATOM     84  F   UNL A   1      38.016  33.125  28.900  1.00  0.00    -0.203 F 
ATOM     85  F   UNL A   1      34.635  28.963  27.900  1.00  0.00    -0.200 F 
ATOM     86  C   UNL A   1      35.130  31.266  27.743  1.00  0.00     0.200 A 
ATOM     87  F   UNL A   1      35.679  33.558  27.603  1.00  0.00    -0.200 F 
ATOM     88  F   UNL A   1      33.982  31.484  27.088  1.00  0.00    -0.200 F 
ENDBRANCH  54  78
BRANCH  66  89
ATOM     89  C   UNL A   1      39.542  32.080  35.703  1.00  0.00     0.064 A 
ATOM     90  C   UNL A   1      39.734  33.447  35.950  1.00  0.00     0.173 A 
ATOM     91  C   UNL A   1      38.636  31.384  36.518  1.00  0.00     0.173 A 
ATOM     92  F   UNL A   1      40.598  34.153  35.205  1.00  0.00    -0.203 F 
ATOM     93  C   UNL A   1      39.049  34.089  36.980  1.00  0.00     0.198 A 
ATOM     94  C   UNL A   1      37.934  32.034  37.527  1.00  0.00     0.198 A 
ATOM     95  F   UNL A   1      38.412  30.077  36.314  1.00  0.00    -0.203 F 
ATOM     96  F   UNL A   1      39.267  35.389  37.217  1.00  0.00    -0.200 F 
ATOM     97  C   UNL A   1      38.143  33.385  37.760  1.00  0.00     0.200 A 
ATOM     98  F   UNL A   1      37.047  31.357  38.269  1.00  0.00    -0.200 F 
ATOM     99  F   UNL A   1      37.471  34.009  38.737  1.00  0.00    -0.200 F 
ENDBRANCH  66  89
ENDBRANCH  40  41
ENDBRANCH  33  35
ENDBRANCH  32  33
ENDBRANCH  31  32
ENDBRANCH  30  31
ENDBRANCH  29  30
ENDBRANCH  28  29
ENDBRANCH  27  28
ENDBRANCH  26  27
ENDBRANCH   1  26
TORSDOF 23
ENDMDL
