MODEL 1
REMARK VINA RESULT:     -11.3      0.000      0.000
REMARK SMILES Cc1nc(-c2ccccc2Cl)nc2sc(C(=O)OCCOCCOCCOCCOC(=O)c3ccc(-c4c5nc(c(-c6c(F)c(F)c(F)c(F)c6F)c6ccc([nH]6)c(-c6c(F)c(F)c(F)c(F)c6F)c6nc(c(-c7c(F)c(F)c(F)c(F)c7F)c7ccc4[nH]7)C=C6)C=C5)cc3)c(N)c12
REMARK SMILES IDX 25 1 24 2 23 3 22 4 21 5 20 6 19 7 18 8 16 9 17 10 15 11
REMARK SMILES IDX 1 12 2 13 3 14 98 15 4 16 13 17 96 18 12 19 14 20 5 21 6 22
REMARK SMILES IDX 10 23 7 24 9 25 11 26 8 27 97 28 26 31 27 32 28 33 29 34
REMARK SMILES IDX 30 35 31 36 32 37 33 38 34 39 95 40 35 41 94 42 36 43 37 44
REMARK SMILES IDX 38 45 88 46 39 47 93 48 87 49 89 50 40 51 92 52 86 53 85 54
REMARK SMILES IDX 41 56 73 57 53 58 72 59 54 60 57 61 71 62 90 63 55 64 56 65
REMARK SMILES IDX 70 67 91 68 58 69 42 70 43 71 51 72 44 73 45 74 49 75 52 76
REMARK SMILES IDX 46 77 47 78 50 79 48 80 74 81 75 82 83 83 76 84 77 85 81 86
REMARK SMILES IDX 84 87 78 88 79 89 82 90 80 91 59 92 60 93 68 94 61 95 62 96
REMARK SMILES IDX 66 97 69 98 63 99 64 100 67 101 65 102
REMARK H PARENT 97 29 97 30 89 55 57 66
REMARK Flexibility Score: inf
ROOT
ATOM      1  C   UNL A   1      33.096  36.844  31.389  1.00  0.00     0.188 C 
ENDROOT
BRANCH   1   2
ATOM      2  O   UNL A   1      32.949  36.730  29.979  1.00  0.00    -0.377 OA
BRANCH   2   3
ATOM      3  C   UNL A   1      33.244  35.517  29.304  1.00  0.00     0.188 C 
BRANCH   3   4
ATOM      4  C   UNL A   1      34.336  35.476  28.213  1.00  0.00     0.188 C 
BRANCH   4   5
ATOM      5  O   UNL A   1      34.515  34.212  27.613  1.00  0.00    -0.376 OA
BRANCH   5   6
ATOM      6  C   UNL A   1      35.121  33.127  28.269  1.00  0.00     0.202 C 
BRANCH   6   7
ATOM      7  C   UNL A   1      34.439  31.767  28.429  1.00  0.00     0.261 C 
BRANCH   7   8
ATOM      8  O   UNL A   1      34.011  31.102  27.246  1.00  0.00    -0.459 OA
BRANCH   8   9
ATOM      9  C   UNL A   1      32.688  31.100  26.948  1.00  0.00     0.350 C 
ATOM     10  O   UNL A   1      31.939  32.070  27.102  1.00  0.00    -0.245 OA
BRANCH   9  11
ATOM     11  C   UNL A   1      32.355  29.869  26.272  1.00  0.00     0.138 A 
ATOM     12  C   UNL A   1      29.532  27.897  23.074  1.00  0.00     0.067 C 
ATOM     13  C   UNL A   1      30.663  27.444  23.947  1.00  0.00     0.052 A 
ATOM     14  N   UNL A   1      30.916  26.100  23.884  1.00  0.00    -0.233 NA
ATOM     15  C   UNL A   1      31.419  28.235  24.847  1.00  0.00     0.057 A 
ATOM     16  C   UNL A   1      31.883  25.562  24.644  1.00  0.00     0.162 A 
ATOM     17  C   UNL A   1      32.364  27.530  25.578  1.00  0.00     0.130 A 
ATOM     18  C   UNL A   1      31.464  29.630  25.235  1.00  0.00     0.069 A 
ATOM     19  N   UNL A   1      32.645  26.229  25.506  1.00  0.00    -0.217 NA
ATOM     20  S   UNL A   1      33.201  28.457  26.715  1.00  0.00    -0.106 S 
BRANCH  16  21
ATOM     21  C   UNL A   1      32.040  24.105  24.696  1.00  0.00     0.038 A 
ATOM     22  C   UNL A   1      31.096  23.363  25.446  1.00  0.00     0.013 A 
ATOM     23  C   UNL A   1      33.098  23.400  24.105  1.00  0.00     0.052 A 
ATOM     24  C   UNL A   1      31.204  21.983  25.612  1.00  0.00     0.001 A 
ATOM     25  C   UNL A   1      33.205  22.010  24.271  1.00  0.00     0.021 A 
ATOM     26  Cl  UNL A   1      34.359  24.180  23.214  1.00  0.00    -0.084 Cl
ATOM     27  C   UNL A   1      32.264  21.306  25.024  1.00  0.00     0.002 A 
ENDBRANCH  16  21
BRANCH  18  28
ATOM     28  N   UNL A   1      30.759  30.628  24.654  1.00  0.00    -0.397 N 
ATOM     29  H   UNL A   1      29.824  30.789  24.919  1.00  0.00     0.156 HD
ATOM     30  H   UNL A   1      31.180  31.192  23.966  1.00  0.00     0.156 HD
ENDBRANCH  18  28
ENDBRANCH   9  11
ENDBRANCH   8   9
ENDBRANCH   7   8
ENDBRANCH   6   7
ENDBRANCH   5   6
ENDBRANCH   4   5
ENDBRANCH   3   4
ENDBRANCH   2   3
ENDBRANCH   1   2
BRANCH   1  31
ATOM     31  C   UNL A   1      33.676  35.715  32.284  1.00  0.00     0.188 C 
BRANCH  31  32
ATOM     32  O   UNL A   1      34.929  35.988  32.885  1.00  0.00    -0.376 OA
BRANCH  32  33
ATOM     33  C   UNL A   1      35.786  34.988  33.391  1.00  0.00     0.202 C 
BRANCH  33  34
ATOM     34  C   UNL A   1      36.801  34.378  32.435  1.00  0.00     0.261 C 
BRANCH  34  35
ATOM     35  O   UNL A   1      36.248  33.372  31.616  1.00  0.00    -0.460 OA
BRANCH  35  36
ATOM     36  C   UNL A   1      36.443  32.126  32.064  1.00  0.00     0.338 C 
ATOM     37  O   UNL A   1      36.215  31.684  33.189  1.00  0.00    -0.246 OA
BRANCH  36  38
ATOM     38  C   UNL A   1      37.066  31.363  30.995  1.00  0.00     0.060 A 
ATOM     39  C   UNL A   1      36.926  29.975  31.055  1.00  0.00     0.016 A 
ATOM     40  C   UNL A   1      38.087  32.006  30.284  1.00  0.00     0.016 A 
ATOM     41  C   UNL A   1      38.001  29.222  30.668  1.00  0.00     0.010 A 
ATOM     42  C   UNL A   1      39.174  31.261  29.946  1.00  0.00     0.010 A 
ATOM     43  C   UNL A   1      39.146  29.903  30.251  1.00  0.00    -0.014 A 
BRANCH  43  44
ATOM     44  C   UNL A   1      40.381  29.175  30.180  1.00  0.00     0.031 A 
ATOM     45  C   UNL A   1      41.034  29.030  31.491  1.00  0.00     0.074 A 
ATOM     46  C   UNL A   1      40.760  28.595  29.028  1.00  0.00     0.049 A 
ATOM     47  N   UNL A   1      42.149  29.551  31.876  1.00  0.00    -0.248 NA
ATOM     48  C   UNL A   1      40.256  28.391  32.564  1.00  0.00     0.031 C 
ATOM     49  C   UNL A   1      40.007  28.467  27.776  1.00  0.00     0.029 A 
ATOM     50  N   UNL A   1      41.890  27.890  28.780  1.00  0.00    -0.354 N 
ATOM     51  C   UNL A   1      42.302  29.129  33.188  1.00  0.00     0.074 A 
ATOM     52  C   UNL A   1      41.024  28.634  33.622  1.00  0.00     0.031 C 
ATOM     53  C   UNL A   1      40.608  27.545  26.989  1.00  0.00     0.029 A 
ATOM     54  C   UNL A   1      41.835  27.112  27.633  1.00  0.00     0.049 A 
ATOM     55  H   UNL A   1      42.683  27.927  29.363  1.00  0.00     0.167 HD
ATOM     56  C   UNL A   1      43.536  28.935  33.721  1.00  0.00     0.037 A 
ATOM     57  C   UNL A   1      42.692  26.100  27.351  1.00  0.00     0.037 A 
ATOM     58  C   UNL A   1      44.550  29.632  32.976  1.00  0.00     0.049 A 
ATOM     59  C   UNL A   1      43.911  26.324  28.185  1.00  0.00     0.074 A 
ATOM     60  C   UNL A   1      44.756  30.963  32.665  1.00  0.00     0.029 A 
ATOM     61  N   UNL A   1      45.309  28.918  32.080  1.00  0.00    -0.354 N 
ATOM     62  N   UNL A   1      44.718  27.342  28.027  1.00  0.00    -0.248 NA
ATOM     63  C   UNL A   1      43.946  25.707  29.506  1.00  0.00     0.031 C 
ATOM     64  C   UNL A   1      45.226  30.962  31.321  1.00  0.00     0.029 A 
ATOM     65  C   UNL A   1      45.343  29.634  30.908  1.00  0.00     0.049 A 
ATOM     66  H   UNL A   1      45.748  28.052  32.248  1.00  0.00     0.167 HD
ATOM     67  C   UNL A   1      45.055  27.741  29.315  1.00  0.00     0.074 A 
ATOM     68  C   UNL A   1      44.595  26.659  30.182  1.00  0.00     0.031 C 
ATOM     69  C   UNL A   1      45.401  29.032  29.594  1.00  0.00     0.037 A 
BRANCH  56  70
ATOM     70  C   UNL A   1      43.827  27.834  34.700  1.00  0.00     0.064 A 
ATOM     71  C   UNL A   1      43.648  26.499  34.310  1.00  0.00     0.173 A 
ATOM     72  C   UNL A   1      44.044  28.046  36.082  1.00  0.00     0.173 A 
ATOM     73  F   UNL A   1      43.384  26.193  33.030  1.00  0.00    -0.203 F 
ATOM     74  C   UNL A   1      43.658  25.457  35.239  1.00  0.00     0.198 A 
ATOM     75  C   UNL A   1      44.123  27.001  36.995  1.00  0.00     0.198 A 
ATOM     76  F   UNL A   1      44.075  29.271  36.622  1.00  0.00    -0.203 F 
ATOM     77  F   UNL A   1      43.373  24.210  34.841  1.00  0.00    -0.200 F 
ATOM     78  C   UNL A   1      43.903  25.707  36.579  1.00  0.00     0.200 A 
ATOM     79  F   UNL A   1      44.337  27.273  38.290  1.00  0.00    -0.200 F 
ATOM     80  F   UNL A   1      43.875  24.713  37.475  1.00  0.00    -0.200 F 
ENDBRANCH  56  70
BRANCH  57  81
ATOM     81  C   UNL A   1      42.340  24.790  26.748  1.00  0.00     0.064 A 
ATOM     82  C   UNL A   1      43.104  24.236  25.710  1.00  0.00     0.173 A 
ATOM     83  C   UNL A   1      41.385  23.935  27.339  1.00  0.00     0.173 A 
ATOM     84  F   UNL A   1      44.075  24.957  25.131  1.00  0.00    -0.203 F 
ATOM     85  C   UNL A   1      42.924  22.910  25.291  1.00  0.00     0.198 A 
ATOM     86  C   UNL A   1      41.198  22.620  26.913  1.00  0.00     0.198 A 
ATOM     87  F   UNL A   1      40.671  24.324  28.404  1.00  0.00    -0.203 F 
ATOM     88  F   UNL A   1      43.708  22.400  24.329  1.00  0.00    -0.200 F 
ATOM     89  C   UNL A   1      41.974  22.103  25.895  1.00  0.00     0.200 A 
ATOM     90  F   UNL A   1      40.300  21.841  27.535  1.00  0.00    -0.200 F 
ATOM     91  F   UNL A   1      41.833  20.823  25.526  1.00  0.00    -0.200 F 
ENDBRANCH  57  81
BRANCH  69  92
ATOM     92  C   UNL A   1      45.604  29.982  28.442  1.00  0.00     0.064 A 
ATOM     93  C   UNL A   1      44.564  30.731  27.863  1.00  0.00     0.173 A 
ATOM     94  C   UNL A   1      46.913  30.307  28.064  1.00  0.00     0.173 A 
ATOM     95  F   UNL A   1      43.294  30.552  28.245  1.00  0.00    -0.203 F 
ATOM     96  C   UNL A   1      44.822  31.740  26.937  1.00  0.00     0.198 A 
ATOM     97  C   UNL A   1      47.172  31.341  27.166  1.00  0.00     0.198 A 
ATOM     98  F   UNL A   1      47.952  29.668  28.626  1.00  0.00    -0.203 F 
ATOM     99  F   UNL A   1      43.810  32.446  26.411  1.00  0.00    -0.200 F 
ATOM    100  C   UNL A   1      46.128  32.053  26.600  1.00  0.00     0.200 A 
ATOM    101  F   UNL A   1      48.439  31.674  26.884  1.00  0.00    -0.200 F 
ATOM    102  F   UNL A   1      46.381  33.066  25.758  1.00  0.00    -0.200 F 
ENDBRANCH  69  92
ENDBRANCH  43  44
ENDBRANCH  36  38
ENDBRANCH  35  36
ENDBRANCH  34  35
ENDBRANCH  33  34
ENDBRANCH  32  33
ENDBRANCH  31  32
ENDBRANCH   1  31
TORSDOF 22
ENDMDL
MODEL 2
REMARK VINA RESULT:     -11.2      4.636      9.921
REMARK SMILES Cc1nc(-c2ccccc2Cl)nc2sc(C(=O)OCCOCCOCCOCCOC(=O)c3ccc(-c4c5nc(c(-c6c(F)c(F)c(F)c(F)c6F)c6ccc([nH]6)c(-c6c(F)c(F)c(F)c(F)c6F)c6nc(c(-c7c(F)c(F)c(F)c(F)c7F)c7ccc4[nH]7)C=C6)C=C5)cc3)c(N)c12
REMARK SMILES IDX 25 1 24 2 23 3 22 4 21 5 20 6 19 7 18 8 16 9 17 10 15 11
REMARK SMILES IDX 1 12 2 13 3 14 98 15 4 16 13 17 96 18 12 19 14 20 5 21 6 22
REMARK SMILES IDX 10 23 7 24 9 25 11 26 8 27 97 28 26 31 27 32 28 33 29 34
REMARK SMILES IDX 30 35 31 36 32 37 33 38 34 39 95 40 35 41 94 42 36 43 37 44
REMARK SMILES IDX 38 45 88 46 39 47 93 48 87 49 89 50 40 51 92 52 86 53 85 54
REMARK SMILES IDX 41 56 73 57 53 58 72 59 54 60 57 61 71 62 90 63 55 64 56 65
REMARK SMILES IDX 70 67 91 68 58 69 42 70 43 71 51 72 44 73 45 74 49 75 52 76
REMARK SMILES IDX 46 77 47 78 50 79 48 80 74 81 75 82 83 83 76 84 77 85 81 86
REMARK SMILES IDX 84 87 78 88 79 89 82 90 80 91 59 92 60 93 68 94 61 95 62 96
REMARK SMILES IDX 66 97 69 98 63 99 64 100 67 101 65 102
REMARK H PARENT 97 29 97 30 89 55 57 66
REMARK Flexibility Score: inf
ROOT
ATOM      1  C   UNL A   1      42.066  20.031  26.455  1.00  0.00     0.188 C 
ENDROOT
BRANCH   1   2
ATOM      2  O   UNL A   1      40.737  20.399  26.110  1.00  0.00    -0.377 OA
BRANCH   2   3
ATOM      3  C   UNL A   1      40.022  21.367  26.864  1.00  0.00     0.188 C 
BRANCH   3   4
ATOM      4  C   UNL A   1      38.843  22.137  26.230  1.00  0.00     0.188 C 
BRANCH   4   5
ATOM      5  O   UNL A   1      38.440  21.652  24.969  1.00  0.00    -0.376 OA
BRANCH   5   6
ATOM      6  C   UNL A   1      37.099  21.609  24.552  1.00  0.00     0.202 C 
BRANCH   6   7
ATOM      7  C   UNL A   1      35.936  21.363  25.515  1.00  0.00     0.261 C 
BRANCH   7   8
ATOM      8  O   UNL A   1      34.891  20.503  25.079  1.00  0.00    -0.459 OA
BRANCH   8   9
ATOM      9  C   UNL A   1      33.611  20.837  25.380  1.00  0.00     0.350 C 
ATOM     10  O   UNL A   1      32.808  20.083  25.938  1.00  0.00    -0.245 OA
BRANCH   9  11
ATOM     11  C   UNL A   1      33.411  22.241  25.111  1.00  0.00     0.138 A 
ATOM     12  C   UNL A   1      33.008  25.473  21.722  1.00  0.00     0.067 C 
ATOM     13  C   UNL A   1      32.954  25.461  23.220  1.00  0.00     0.052 A 
ATOM     14  N   UNL A   1      32.840  26.702  23.787  1.00  0.00    -0.233 NA
ATOM     15  C   UNL A   1      33.077  24.335  24.071  1.00  0.00     0.057 A 
ATOM     16  C   UNL A   1      32.817  26.832  25.122  1.00  0.00     0.162 A 
ATOM     17  C   UNL A   1      33.058  24.635  25.426  1.00  0.00     0.130 A 
ATOM     18  C   UNL A   1      33.235  22.905  23.905  1.00  0.00     0.069 A 
ATOM     19  N   UNL A   1      32.916  25.832  25.994  1.00  0.00    -0.217 NA
ATOM     20  S   UNL A   1      33.294  23.304  26.439  1.00  0.00    -0.106 S 
BRANCH  16  21
ATOM     21  C   UNL A   1      32.860  28.168  25.724  1.00  0.00     0.038 A 
ATOM     22  C   UNL A   1      33.836  28.415  26.719  1.00  0.00     0.013 A 
ATOM     23  C   UNL A   1      31.960  29.201  25.427  1.00  0.00     0.052 A 
ATOM     24  C   UNL A   1      33.909  29.631  27.398  1.00  0.00     0.001 A 
ATOM     25  C   UNL A   1      32.035  30.426  26.110  1.00  0.00     0.021 A 
ATOM     26  Cl  UNL A   1      30.677  29.022  24.281  1.00  0.00    -0.084 Cl
ATOM     27  C   UNL A   1      33.003  30.637  27.094  1.00  0.00     0.002 A 
ENDBRANCH  16  21
BRANCH  18  28
ATOM     28  N   UNL A   1      33.188  22.244  22.724  1.00  0.00    -0.397 N 
ATOM     29  H   UNL A   1      33.945  21.679  22.446  1.00  0.00     0.156 HD
ATOM     30  H   UNL A   1      32.397  22.329  22.145  1.00  0.00     0.156 HD
ENDBRANCH  18  28
ENDBRANCH   9  11
ENDBRANCH   8   9
ENDBRANCH   7   8
ENDBRANCH   6   7
ENDBRANCH   5   6
ENDBRANCH   4   5
ENDBRANCH   3   4
ENDBRANCH   2   3
ENDBRANCH   1   2
BRANCH   1  31
ATOM     31  C   UNL A   1      43.046  19.338  25.469  1.00  0.00     0.188 C 
BRANCH  31  32
ATOM     32  O   UNL A   1      44.401  19.737  25.565  1.00  0.00    -0.376 OA
BRANCH  32  33
ATOM     33  C   UNL A   1      44.942  20.837  24.869  1.00  0.00     0.202 C 
BRANCH  33  34
ATOM     34  C   UNL A   1      45.246  22.098  25.667  1.00  0.00     0.261 C 
BRANCH  34  35
ATOM     35  O   UNL A   1      44.132  22.570  26.392  1.00  0.00    -0.460 OA
BRANCH  35  36
ATOM     36  C   UNL A   1      43.404  23.490  25.748  1.00  0.00     0.338 C 
ATOM     37  O   UNL A   1      43.516  23.861  24.580  1.00  0.00    -0.246 OA
BRANCH  36  38
ATOM     38  C   UNL A   1      42.471  24.065  26.703  1.00  0.00     0.060 A 
ATOM     39  C   UNL A   1      41.496  24.920  26.186  1.00  0.00     0.016 A 
ATOM     40  C   UNL A   1      42.882  24.082  28.042  1.00  0.00     0.016 A 
ATOM     41  C   UNL A   1      41.162  26.014  26.939  1.00  0.00     0.010 A 
ATOM     42  C   UNL A   1      42.589  25.195  28.769  1.00  0.00     0.010 A 
ATOM     43  C   UNL A   1      41.826  26.184  28.154  1.00  0.00    -0.014 A 
BRANCH  43  44
ATOM     44  C   UNL A   1      41.766  27.472  28.786  1.00  0.00     0.031 A 
ATOM     45  C   UNL A   1      42.888  28.346  28.409  1.00  0.00     0.074 A 
ATOM     46  C   UNL A   1      40.692  27.818  29.516  1.00  0.00     0.049 A 
ATOM     47  N   UNL A   1      43.840  28.773  29.167  1.00  0.00    -0.248 NA
ATOM     48  C   UNL A   1      43.080  28.615  26.975  1.00  0.00     0.031 C 
ATOM     49  C   UNL A   1      39.425  27.095  29.682  1.00  0.00     0.029 A 
ATOM     50  N   UNL A   1      40.475  28.974  30.189  1.00  0.00    -0.354 N 
ATOM     51  C   UNL A   1      44.642  29.536  28.330  1.00  0.00     0.074 A 
ATOM     52  C   UNL A   1      44.270  29.210  26.980  1.00  0.00     0.031 C 
ATOM     53  C   UNL A   1      38.506  27.929  30.219  1.00  0.00     0.029 A 
ATOM     54  C   UNL A   1      39.149  29.192  30.533  1.00  0.00     0.049 A 
ATOM     55  H   UNL A   1      41.196  29.605  30.414  1.00  0.00     0.167 HD
ATOM     56  C   UNL A   1      45.340  30.598  28.807  1.00  0.00     0.037 A 
ATOM     57  C   UNL A   1      38.644  30.391  30.915  1.00  0.00     0.037 A 
ATOM     58  C   UNL A   1      45.506  30.526  30.234  1.00  0.00     0.049 A 
ATOM     59  C   UNL A   1      39.801  31.222  31.364  1.00  0.00     0.074 A 
ATOM     60  C   UNL A   1      46.094  29.601  31.077  1.00  0.00     0.029 A 
ATOM     61  N   UNL A   1      44.673  31.278  31.028  1.00  0.00    -0.354 N 
ATOM     62  N   UNL A   1      40.524  30.946  32.419  1.00  0.00    -0.248 NA
ATOM     63  C   UNL A   1      40.460  32.053  30.363  1.00  0.00     0.031 C 
ATOM     64  C   UNL A   1      45.232  29.530  32.209  1.00  0.00     0.029 A 
ATOM     65  C   UNL A   1      44.205  30.458  32.025  1.00  0.00     0.049 A 
ATOM     66  H   UNL A   1      44.453  32.229  30.903  1.00  0.00     0.167 HD
ATOM     67  C   UNL A   1      41.834  31.219  32.043  1.00  0.00     0.074 A 
ATOM     68  C   UNL A   1      41.724  31.954  30.785  1.00  0.00     0.031 C 
ATOM     69  C   UNL A   1      42.890  30.573  32.617  1.00  0.00     0.037 A 
BRANCH  56  70
ATOM     70  C   UNL A   1      45.550  31.850  28.005  1.00  0.00     0.064 A 
ATOM     71  C   UNL A   1      44.439  32.601  27.594  1.00  0.00     0.173 A 
ATOM     72  C   UNL A   1      46.786  32.211  27.419  1.00  0.00     0.173 A 
ATOM     73  F   UNL A   1      43.212  32.306  28.049  1.00  0.00    -0.203 F 
ATOM     74  C   UNL A   1      44.554  33.619  26.645  1.00  0.00     0.198 A 
ATOM     75  C   UNL A   1      46.910  33.271  26.527  1.00  0.00     0.198 A 
ATOM     76  F   UNL A   1      47.900  31.489  27.594  1.00  0.00    -0.203 F 
ATOM     77  F   UNL A   1      43.453  34.236  26.198  1.00  0.00    -0.200 F 
ATOM     78  C   UNL A   1      45.789  33.959  26.119  1.00  0.00     0.200 A 
ATOM     79  F   UNL A   1      48.113  33.564  26.014  1.00  0.00    -0.200 F 
ATOM     80  F   UNL A   1      45.894  34.909  25.182  1.00  0.00    -0.200 F 
ENDBRANCH  56  70
BRANCH  57  81
ATOM     81  C   UNL A   1      37.329  30.958  30.522  1.00  0.00     0.064 A 
ATOM     82  C   UNL A   1      36.374  31.321  31.483  1.00  0.00     0.173 A 
ATOM     83  C   UNL A   1      37.071  31.382  29.200  1.00  0.00     0.173 A 
ATOM     84  F   UNL A   1      36.567  31.011  32.773  1.00  0.00    -0.203 F 
ATOM     85  C   UNL A   1      35.234  32.063  31.144  1.00  0.00     0.198 A 
ATOM     86  C   UNL A   1      35.930  32.109  28.861  1.00  0.00     0.198 A 
ATOM     87  F   UNL A   1      37.963  31.180  28.221  1.00  0.00    -0.203 F 
ATOM     88  F   UNL A   1      34.369  32.434  32.099  1.00  0.00    -0.200 F 
ATOM     89  C   UNL A   1      35.015  32.459  29.834  1.00  0.00     0.200 A 
ATOM     90  F   UNL A   1      35.755  32.518  27.596  1.00  0.00    -0.200 F 
ATOM     91  F   UNL A   1      33.950  33.206  29.518  1.00  0.00    -0.200 F 
ENDBRANCH  57  81
BRANCH  69  92
ATOM     92  C   UNL A   1      42.626  29.695  33.813  1.00  0.00     0.064 A 
ATOM     93  C   UNL A   1      42.273  28.337  33.713  1.00  0.00     0.173 A 
ATOM     94  C   UNL A   1      42.954  30.179  35.086  1.00  0.00     0.173 A 
ATOM     95  F   UNL A   1      42.045  27.773  32.523  1.00  0.00    -0.203 F 
ATOM     96  C   UNL A   1      42.232  27.512  34.836  1.00  0.00     0.198 A 
ATOM     97  C   UNL A   1      42.946  29.344  36.202  1.00  0.00     0.198 A 
ATOM     98  F   UNL A   1      43.355  31.452  35.236  1.00  0.00    -0.203 F 
ATOM     99  F   UNL A   1      41.904  26.218  34.708  1.00  0.00    -0.200 F 
ATOM    100  C   UNL A   1      42.582  28.014  36.078  1.00  0.00     0.200 A 
ATOM    101  F   UNL A   1      43.338  29.822  37.391  1.00  0.00    -0.200 F 
ATOM    102  F   UNL A   1      42.604  27.207  37.149  1.00  0.00    -0.200 F 
ENDBRANCH  69  92
ENDBRANCH  43  44
ENDBRANCH  36  38
ENDBRANCH  35  36
ENDBRANCH  34  35
ENDBRANCH  33  34
ENDBRANCH  32  33
ENDBRANCH  31  32
ENDBRANCH   1  31
TORSDOF 22
ENDMDL
MODEL 3
REMARK VINA RESULT:     -10.7      5.781     12.914
REMARK SMILES Cc1nc(-c2ccccc2Cl)nc2sc(C(=O)OCCOCCOCCOCCOC(=O)c3ccc(-c4c5nc(c(-c6c(F)c(F)c(F)c(F)c6F)c6ccc([nH]6)c(-c6c(F)c(F)c(F)c(F)c6F)c6nc(c(-c7c(F)c(F)c(F)c(F)c7F)c7ccc4[nH]7)C=C6)C=C5)cc3)c(N)c12
REMARK SMILES IDX 25 1 24 2 23 3 22 4 21 5 20 6 19 7 18 8 16 9 17 10 15 11
REMARK SMILES IDX 1 12 2 13 3 14 98 15 4 16 13 17 96 18 12 19 14 20 5 21 6 22
REMARK SMILES IDX 10 23 7 24 9 25 11 26 8 27 97 28 26 31 27 32 28 33 29 34
REMARK SMILES IDX 30 35 31 36 32 37 33 38 34 39 95 40 35 41 94 42 36 43 37 44
REMARK SMILES IDX 38 45 88 46 39 47 93 48 87 49 89 50 40 51 92 52 86 53 85 54
REMARK SMILES IDX 41 56 73 57 53 58 72 59 54 60 57 61 71 62 90 63 55 64 56 65
REMARK SMILES IDX 70 67 91 68 58 69 42 70 43 71 51 72 44 73 45 74 49 75 52 76
REMARK SMILES IDX 46 77 47 78 50 79 48 80 74 81 75 82 83 83 76 84 77 85 81 86
REMARK SMILES IDX 84 87 78 88 79 89 82 90 80 91 59 92 60 93 68 94 61 95 62 96
REMARK SMILES IDX 66 97 69 98 63 99 64 100 67 101 65 102
REMARK H PARENT 97 29 97 30 89 55 57 66
REMARK Flexibility Score: inf
ROOT
ATOM      1  C   UNL A   1      44.651  19.932  24.784  1.00  0.00     0.188 C 
ENDROOT
BRANCH   1   2
ATOM      2  O   UNL A   1      44.768  21.299  25.158  1.00  0.00    -0.377 OA
BRANCH   2   3
ATOM      3  C   UNL A   1      45.077  22.301  24.201  1.00  0.00     0.188 C 
BRANCH   3   4
ATOM      4  C   UNL A   1      45.376  23.747  24.652  1.00  0.00     0.188 C 
BRANCH   4   5
ATOM      5  O   UNL A   1      44.235  24.500  24.992  1.00  0.00    -0.376 OA
BRANCH   5   6
ATOM      6  C   UNL A   1      44.291  25.696  25.728  1.00  0.00     0.202 C 
BRANCH   6   7
ATOM      7  C   UNL A   1      44.798  25.761  27.170  1.00  0.00     0.261 C 
BRANCH   7   8
ATOM      8  O   UNL A   1      45.862  26.662  27.453  1.00  0.00    -0.459 OA
BRANCH   8   9
ATOM      9  C   UNL A   1      47.040  26.153  27.894  1.00  0.00     0.350 C 
ATOM     10  O   UNL A   1      47.162  25.464  28.912  1.00  0.00    -0.245 OA
BRANCH   9  11
ATOM     11  C   UNL A   1      48.061  26.392  26.902  1.00  0.00     0.138 A 
ATOM     12  C   UNL A   1      52.428  25.293  25.558  1.00  0.00     0.067 C 
ATOM     13  C   UNL A   1      51.323  26.164  25.043  1.00  0.00     0.052 A 
ATOM     14  N   UNL A   1      51.662  26.909  23.945  1.00  0.00    -0.233 NA
ATOM     15  C   UNL A   1      50.034  26.334  25.606  1.00  0.00     0.057 A 
ATOM     16  C   UNL A   1      50.772  27.758  23.407  1.00  0.00     0.162 A 
ATOM     17  C   UNL A   1      49.238  27.262  24.950  1.00  0.00     0.130 A 
ATOM     18  C   UNL A   1      49.300  25.791  26.730  1.00  0.00     0.069 A 
ATOM     19  N   UNL A   1      49.540  27.972  23.863  1.00  0.00    -0.217 NA
ATOM     20  S   UNL A   1      47.736  27.530  25.674  1.00  0.00    -0.106 S 
BRANCH  16  21
ATOM     21  C   UNL A   1      51.190  28.669  22.338  1.00  0.00     0.038 A 
ATOM     22  C   UNL A   1      52.032  29.754  22.684  1.00  0.00     0.013 A 
ATOM     23  C   UNL A   1      50.764  28.578  21.005  1.00  0.00     0.052 A 
ATOM     24  C   UNL A   1      52.424  30.713  21.751  1.00  0.00     0.001 A 
ATOM     25  C   UNL A   1      51.161  29.544  20.066  1.00  0.00     0.021 A 
ATOM     26  Cl  UNL A   1      49.684  27.346  20.452  1.00  0.00    -0.084 Cl
ATOM     27  C   UNL A   1      51.984  30.607  20.439  1.00  0.00     0.002 A 
ENDBRANCH  16  21
BRANCH  18  28
ATOM     28  N   UNL A   1      49.724  24.783  27.529  1.00  0.00    -0.397 N 
ATOM     29  H   UNL A   1      50.518  24.907  28.097  1.00  0.00     0.156 HD
ATOM     30  H   UNL A   1      49.237  23.928  27.542  1.00  0.00     0.156 HD
ENDBRANCH  18  28
ENDBRANCH   9  11
ENDBRANCH   8   9
ENDBRANCH   7   8
ENDBRANCH   6   7
ENDBRANCH   5   6
ENDBRANCH   4   5
ENDBRANCH   3   4
ENDBRANCH   2   3
ENDBRANCH   1   2
BRANCH   1  31
ATOM     31  C   UNL A   1      43.588  18.968  25.379  1.00  0.00     0.188 C 
BRANCH  31  32
ATOM     32  O   UNL A   1      42.252  19.436  25.356  1.00  0.00    -0.376 OA
BRANCH  32  33
ATOM     33  C   UNL A   1      41.655  20.144  26.420  1.00  0.00     0.202 C 
BRANCH  33  34
ATOM     34  C   UNL A   1      41.064  21.514  26.114  1.00  0.00     0.261 C 
BRANCH  34  35
ATOM     35  O   UNL A   1      40.275  22.018  27.169  1.00  0.00    -0.460 OA
BRANCH  35  36
ATOM     36  C   UNL A   1      39.676  23.184  26.902  1.00  0.00     0.338 C 
ATOM     37  O   UNL A   1      38.510  23.374  26.560  1.00  0.00    -0.246 OA
BRANCH  36  38
ATOM     38  C   UNL A   1      40.679  24.232  27.007  1.00  0.00     0.060 A 
ATOM     39  C   UNL A   1      41.452  24.243  28.169  1.00  0.00     0.016 A 
ATOM     40  C   UNL A   1      40.490  25.357  26.194  1.00  0.00     0.016 A 
ATOM     41  C   UNL A   1      41.774  25.466  28.693  1.00  0.00     0.010 A 
ATOM     42  C   UNL A   1      40.766  26.572  26.739  1.00  0.00     0.010 A 
ATOM     43  C   UNL A   1      41.299  26.596  28.026  1.00  0.00    -0.014 A 
BRANCH  43  44
ATOM     44  C   UNL A   1      41.312  27.851  28.722  1.00  0.00     0.031 A 
ATOM     45  C   UNL A   1      42.468  28.689  28.369  1.00  0.00     0.074 A 
ATOM     46  C   UNL A   1      40.268  28.210  29.489  1.00  0.00     0.049 A 
ATOM     47  N   UNL A   1      43.453  29.032  29.129  1.00  0.00    -0.248 NA
ATOM     48  C   UNL A   1      42.650  29.021  26.946  1.00  0.00     0.031 C 
ATOM     49  C   UNL A   1      38.971  27.541  29.643  1.00  0.00     0.029 A 
ATOM     50  N   UNL A   1      40.118  29.339  30.223  1.00  0.00    -0.354 N 
ATOM     51  C   UNL A   1      44.276  29.797  28.315  1.00  0.00     0.074 A 
ATOM     52  C   UNL A   1      43.867  29.558  26.959  1.00  0.00     0.031 C 
ATOM     53  C   UNL A   1      38.101  28.389  30.238  1.00  0.00     0.029 A 
ATOM     54  C   UNL A   1      38.810  29.602  30.602  1.00  0.00     0.049 A 
ATOM     55  H   UNL A   1      40.872  29.923  30.465  1.00  0.00     0.167 HD
ATOM     56  C   UNL A   1      45.032  30.799  28.832  1.00  0.00     0.037 A 
ATOM     57  C   UNL A   1      38.370  30.803  31.053  1.00  0.00     0.037 A 
ATOM     58  C   UNL A   1      45.218  30.647  30.250  1.00  0.00     0.049 A 
ATOM     59  C   UNL A   1      39.573  31.554  31.521  1.00  0.00     0.074 A 
ATOM     60  C   UNL A   1      45.774  29.653  31.035  1.00  0.00     0.029 A 
ATOM     61  N   UNL A   1      44.436  31.396  31.096  1.00  0.00    -0.354 N 
ATOM     62  N   UNL A   1      40.298  31.191  32.547  1.00  0.00    -0.248 NA
ATOM     63  C   UNL A   1      40.254  32.403  30.551  1.00  0.00     0.031 C 
ATOM     64  C   UNL A   1      44.929  29.566  32.178  1.00  0.00     0.029 A 
ATOM     65  C   UNL A   1      43.945  30.550  32.060  1.00  0.00     0.049 A 
ATOM     66  H   UNL A   1      44.259  32.362  31.023  1.00  0.00     0.167 HD
ATOM     67  C   UNL A   1      41.614  31.421  32.160  1.00  0.00     0.074 A 
ATOM     68  C   UNL A   1      41.519  32.223  30.943  1.00  0.00     0.031 C 
ATOM     69  C   UNL A   1      42.647  30.697  32.682  1.00  0.00     0.037 A 
BRANCH  56  70
ATOM     70  C   UNL A   1      45.290  32.079  28.090  1.00  0.00     0.064 A 
ATOM     71  C   UNL A   1      44.233  32.975  27.873  1.00  0.00     0.173 A 
ATOM     72  C   UNL A   1      46.479  32.348  27.373  1.00  0.00     0.173 A 
ATOM     73  F   UNL A   1      43.044  32.781  28.463  1.00  0.00    -0.203 F 
ATOM     74  C   UNL A   1      44.351  34.045  26.983  1.00  0.00     0.198 A 
ATOM     75  C   UNL A   1      46.618  33.453  26.541  1.00  0.00     0.198 A 
ATOM     76  F   UNL A   1      47.513  31.498  27.357  1.00  0.00    -0.203 F 
ATOM     77  F   UNL A   1      43.284  34.811  26.722  1.00  0.00    -0.200 F 
ATOM     78  C   UNL A   1      45.544  34.288  26.325  1.00  0.00     0.200 A 
ATOM     79  F   UNL A   1      47.776  33.652  25.897  1.00  0.00    -0.200 F 
ATOM     80  F   UNL A   1      45.647  35.291  25.444  1.00  0.00    -0.200 F 
ENDBRANCH  56  70
BRANCH  57  81
ATOM     81  C   UNL A   1      37.078  31.451  30.713  1.00  0.00     0.064 A 
ATOM     82  C   UNL A   1      36.121  31.733  31.700  1.00  0.00     0.173 A 
ATOM     83  C   UNL A   1      36.850  32.029  29.445  1.00  0.00     0.173 A 
ATOM     84  F   UNL A   1      36.288  31.274  32.949  1.00  0.00    -0.203 F 
ATOM     85  C   UNL A   1      35.008  32.543  31.436  1.00  0.00     0.198 A 
ATOM     86  C   UNL A   1      35.735  32.824  29.180  1.00  0.00     0.198 A 
ATOM     87  F   UNL A   1      37.748  31.911  28.458  1.00  0.00    -0.203 F 
ATOM     88  F   UNL A   1      34.142  32.831  32.418  1.00  0.00    -0.200 F 
ATOM     89  C   UNL A   1      34.818  33.090  30.177  1.00  0.00     0.200 A 
ATOM     90  F   UNL A   1      35.589  33.378  27.967  1.00  0.00    -0.200 F 
ATOM     91  F   UNL A   1      33.780  33.901  29.937  1.00  0.00    -0.200 F 
ENDBRANCH  57  81
BRANCH  69  92
ATOM     92  C   UNL A   1      42.361  29.772  33.837  1.00  0.00     0.064 A 
ATOM     93  C   UNL A   1      41.956  28.435  33.676  1.00  0.00     0.173 A 
ATOM     94  C   UNL A   1      42.717  30.182  35.128  1.00  0.00     0.173 A 
ATOM     95  F   UNL A   1      41.697  27.937  32.462  1.00  0.00    -0.203 F 
ATOM     96  C   UNL A   1      41.894  27.559  34.759  1.00  0.00     0.198 A 
ATOM     97  C   UNL A   1      42.688  29.296  36.203  1.00  0.00     0.198 A 
ATOM     98  F   UNL A   1      43.167  31.431  35.335  1.00  0.00    -0.203 F 
ATOM     99  F   UNL A   1      41.516  26.286  34.573  1.00  0.00    -0.200 F 
ATOM    100  C   UNL A   1      42.273  27.987  36.020  1.00  0.00     0.200 A 
ATOM    101  F   UNL A   1      43.107  29.701  37.410  1.00  0.00    -0.200 F 
ATOM    102  F   UNL A   1      42.274  27.129  37.050  1.00  0.00    -0.200 F 
ENDBRANCH  69  92
ENDBRANCH  43  44
ENDBRANCH  36  38
ENDBRANCH  35  36
ENDBRANCH  34  35
ENDBRANCH  33  34
ENDBRANCH  32  33
ENDBRANCH  31  32
ENDBRANCH   1  31
TORSDOF 22
ENDMDL
