MODEL 1
REMARK VINA RESULT:     -11.1      0.000      0.000
REMARK SMILES Cc1c(Cl)cccc1-c1cccc(Cl)c1C(=O)OCCOCCOCCOCCOC(=O)c1ccc(-c2c3nc(c(-c4c(F)c(F)c(F)c(F)c4F)c4ccc([nH]4)c(-c4c(F)c(F)c(F)c(F)c4F)c4nc(c(-c5c(F)c(F)c(F)c(F)c5F)c5ccc2[nH]5)C=C4)C=C3)cc1
REMARK SMILES IDX 25 1 24 2 23 3 22 4 21 5 20 6 19 7 18 8 16 9 17 10 15 11
REMARK SMILES IDX 9 12 10 13 11 14 13 15 12 16 14 17 8 18 1 19 2 20 3 21 4 22
REMARK SMILES IDX 5 23 7 24 6 25 26 26 27 27 28 28 29 29 30 30 31 31 32 32
REMARK SMILES IDX 33 33 34 34 95 35 35 36 94 37 36 38 37 39 38 40 88 41 39 42
REMARK SMILES IDX 93 43 87 44 89 45 40 46 92 47 86 48 85 49 41 51 73 52 53 53
REMARK SMILES IDX 72 54 54 55 57 56 71 57 90 58 55 59 56 60 70 62 91 63 58 64
REMARK SMILES IDX 42 65 43 66 51 67 44 68 45 69 49 70 52 71 46 72 47 73 50 74
REMARK SMILES IDX 48 75 74 76 75 77 83 78 76 79 77 80 81 81 84 82 78 83 79 84
REMARK SMILES IDX 82 85 80 86 59 87 60 88 68 89 61 90 62 91 66 92 69 93 63 94
REMARK SMILES IDX 64 95 67 96 65 97
REMARK H PARENT 89 50 57 61
REMARK Flexibility Score: inf
ROOT
ATOM      1  C   UNL A   1      41.667  19.574  27.574  1.00  0.00     0.188 C 
ENDROOT
BRANCH   1   2
ATOM      2  O   UNL A   1      40.713  20.621  27.683  1.00  0.00    -0.377 OA
BRANCH   2   3
ATOM      3  C   UNL A   1      40.134  21.172  26.507  1.00  0.00     0.188 C 
BRANCH   3   4
ATOM      4  C   UNL A   1      39.723  22.661  26.425  1.00  0.00     0.188 C 
BRANCH   4   5
ATOM      5  O   UNL A   1      38.456  22.917  25.827  1.00  0.00    -0.376 OA
BRANCH   5   6
ATOM      6  C   UNL A   1      37.776  24.078  26.280  1.00  0.00     0.202 C 
BRANCH   6   7
ATOM      7  C   UNL A   1      36.340  24.176  25.775  1.00  0.00     0.261 C 
BRANCH   7   8
ATOM      8  O   UNL A   1      35.906  22.966  25.143  1.00  0.00    -0.460 OA
BRANCH   8   9
ATOM      9  C   UNL A   1      35.075  23.079  24.089  1.00  0.00     0.340 C 
ATOM     10  O   UNL A   1      35.397  23.337  22.942  1.00  0.00    -0.246 OA
BRANCH   9  11
ATOM     11  C   UNL A   1      33.688  22.815  24.547  1.00  0.00     0.086 A 
ATOM     12  C   UNL A   1      32.756  23.870  24.747  1.00  0.00    -0.002 A 
ATOM     13  C   UNL A   1      31.449  23.516  25.154  1.00  0.00     0.010 A 
ATOM     14  C   UNL A   1      31.086  22.194  25.409  1.00  0.00     0.002 A 
ATOM     15  C   UNL A   1      33.316  21.482  24.815  1.00  0.00     0.056 A 
ATOM     16  C   UNL A   1      32.023  21.182  25.255  1.00  0.00     0.021 A 
ATOM     17  Cl  UNL A   1      34.418  20.150  24.728  1.00  0.00    -0.083 Cl
BRANCH  12  18
ATOM     18  C   UNL A   1      33.087  25.322  24.673  1.00  0.00    -0.013 A 
ATOM     19  C   UNL A   1      32.889  25.487  22.122  1.00  0.00     0.046 C 
ATOM     20  C   UNL A   1      33.191  26.078  23.477  1.00  0.00    -0.025 A 
ATOM     21  C   UNL A   1      33.636  27.418  23.557  1.00  0.00     0.044 A 
ATOM     22  Cl  UNL A   1      33.931  28.368  22.138  1.00  0.00    -0.084 Cl
ATOM     23  C   UNL A   1      33.889  28.035  24.785  1.00  0.00     0.021 A 
ATOM     24  C   UNL A   1      33.359  25.980  25.899  1.00  0.00     0.009 A 
ATOM     25  C   UNL A   1      33.733  27.320  25.961  1.00  0.00     0.002 A 
ENDBRANCH  12  18
ENDBRANCH   9  11
ENDBRANCH   8   9
ENDBRANCH   7   8
ENDBRANCH   6   7
ENDBRANCH   5   6
ENDBRANCH   4   5
ENDBRANCH   3   4
ENDBRANCH   2   3
ENDBRANCH   1   2
BRANCH   1  26
ATOM     26  C   UNL A   1      42.709  19.622  26.438  1.00  0.00     0.188 C 
BRANCH  26  27
ATOM     27  O   UNL A   1      43.116  20.932  26.072  1.00  0.00    -0.376 OA
BRANCH  27  28
ATOM     28  C   UNL A   1      44.142  21.028  25.094  1.00  0.00     0.202 C 
BRANCH  28  29
ATOM     29  C   UNL A   1      44.118  22.299  24.234  1.00  0.00     0.261 C 
BRANCH  29  30
ATOM     30  O   UNL A   1      43.488  23.443  24.836  1.00  0.00    -0.460 OA
BRANCH  30  31
ATOM     31  C   UNL A   1      44.264  24.517  25.097  1.00  0.00     0.338 C 
ATOM     32  O   UNL A   1      45.313  24.827  24.564  1.00  0.00    -0.246 OA
BRANCH  31  33
ATOM     33  C   UNL A   1      43.524  25.373  26.044  1.00  0.00     0.060 A 
ATOM     34  C   UNL A   1      43.746  26.755  26.033  1.00  0.00     0.016 A 
ATOM     35  C   UNL A   1      42.610  24.805  26.933  1.00  0.00     0.016 A 
ATOM     36  C   UNL A   1      43.070  27.575  26.938  1.00  0.00     0.010 A 
ATOM     37  C   UNL A   1      41.950  25.622  27.852  1.00  0.00     0.010 A 
ATOM     38  C   UNL A   1      42.201  27.005  27.878  1.00  0.00    -0.014 A 
BRANCH  38  39
ATOM     39  C   UNL A   1      41.707  27.820  29.012  1.00  0.00     0.031 A 
ATOM     40  C   UNL A   1      42.434  27.725  30.324  1.00  0.00     0.074 A 
ATOM     41  C   UNL A   1      40.639  28.627  28.881  1.00  0.00     0.049 A 
ATOM     42  N   UNL A   1      42.165  28.296  31.469  1.00  0.00    -0.248 NA
ATOM     43  C   UNL A   1      43.628  26.861  30.348  1.00  0.00     0.031 C 
ATOM     44  C   UNL A   1      39.872  28.825  27.654  1.00  0.00     0.029 A 
ATOM     45  N   UNL A   1      40.012  29.425  29.806  1.00  0.00    -0.354 N 
ATOM     46  C   UNL A   1      43.150  27.860  32.346  1.00  0.00     0.074 A 
ATOM     47  C   UNL A   1      44.007  26.955  31.613  1.00  0.00     0.031 C 
ATOM     48  C   UNL A   1      38.863  29.678  27.905  1.00  0.00     0.029 A 
ATOM     49  C   UNL A   1      38.898  30.060  29.317  1.00  0.00     0.049 A 
ATOM     50  H   UNL A   1      40.330  29.530  30.731  1.00  0.00     0.167 HD
ATOM     51  C   UNL A   1      43.327  28.191  33.646  1.00  0.00     0.037 A 
ATOM     52  C   UNL A   1      37.999  30.842  29.949  1.00  0.00     0.037 A 
ATOM     53  C   UNL A   1      42.475  29.093  34.374  1.00  0.00     0.049 A 
ATOM     54  C   UNL A   1      38.186  31.146  31.415  1.00  0.00     0.074 A 
ATOM     55  C   UNL A   1      42.588  29.515  35.686  1.00  0.00     0.029 A 
ATOM     56  N   UNL A   1      41.346  29.705  33.851  1.00  0.00    -0.354 N 
ATOM     57  N   UNL A   1      39.142  30.764  32.228  1.00  0.00    -0.248 NA
ATOM     58  C   UNL A   1      37.169  31.998  32.051  1.00  0.00     0.031 C 
ATOM     59  C   UNL A   1      41.496  30.340  35.974  1.00  0.00     0.029 A 
ATOM     60  C   UNL A   1      40.736  30.478  34.824  1.00  0.00     0.049 A 
ATOM     61  H   UNL A   1      41.026  29.604  32.925  1.00  0.00     0.167 HD
ATOM     62  C   UNL A   1      38.859  31.350  33.456  1.00  0.00     0.074 A 
ATOM     63  C   UNL A   1      37.650  32.126  33.280  1.00  0.00     0.031 C 
ATOM     64  C   UNL A   1      39.538  31.254  34.626  1.00  0.00     0.037 A 
BRANCH  51  65
ATOM     65  C   UNL A   1      44.473  27.556  34.377  1.00  0.00     0.064 A 
ATOM     66  C   UNL A   1      44.373  26.271  34.928  1.00  0.00     0.173 A 
ATOM     67  C   UNL A   1      45.701  28.225  34.484  1.00  0.00     0.173 A 
ATOM     68  F   UNL A   1      43.214  25.597  34.867  1.00  0.00    -0.203 F 
ATOM     69  C   UNL A   1      45.458  25.685  35.576  1.00  0.00     0.198 A 
ATOM     70  C   UNL A   1      46.791  27.626  35.108  1.00  0.00     0.198 A 
ATOM     71  F   UNL A   1      45.847  29.457  33.973  1.00  0.00    -0.203 F 
ATOM     72  F   UNL A   1      45.330  24.471  36.129  1.00  0.00    -0.200 F 
ATOM     73  C   UNL A   1      46.668  26.358  35.657  1.00  0.00     0.200 A 
ATOM     74  F   UNL A   1      47.962  28.274  35.175  1.00  0.00    -0.200 F 
ATOM     75  F   UNL A   1      47.715  25.788  36.268  1.00  0.00    -0.200 F 
ENDBRANCH  51  65
BRANCH  52  76
ATOM     76  C   UNL A   1      36.823  31.376  29.210  1.00  0.00     0.064 A 
ATOM     77  C   UNL A   1      36.730  32.736  28.880  1.00  0.00     0.173 A 
ATOM     78  C   UNL A   1      35.748  30.547  28.861  1.00  0.00     0.173 A 
ATOM     79  F   UNL A   1      37.719  33.577  29.218  1.00  0.00    -0.203 F 
ATOM     80  C   UNL A   1      35.595  33.249  28.252  1.00  0.00     0.198 A 
ATOM     81  C   UNL A   1      34.627  31.054  28.206  1.00  0.00     0.198 A 
ATOM     82  F   UNL A   1      35.784  29.239  29.157  1.00  0.00    -0.203 F 
ATOM     83  F   UNL A   1      35.508  34.563  28.003  1.00  0.00    -0.200 F 
ATOM     84  C   UNL A   1      34.548  32.406  27.912  1.00  0.00     0.200 A 
ATOM     85  F   UNL A   1      33.621  30.235  27.873  1.00  0.00    -0.200 F 
ATOM     86  F   UNL A   1      33.455  32.901  27.316  1.00  0.00    -0.200 F 
ENDBRANCH  52  76
BRANCH  64  87
ATOM     87  C   UNL A   1      39.016  32.037  35.798  1.00  0.00     0.064 A 
ATOM     88  C   UNL A   1      38.192  31.449  36.769  1.00  0.00     0.173 A 
ATOM     89  C   UNL A   1      39.385  33.378  35.976  1.00  0.00     0.173 A 
ATOM     90  F   UNL A   1      37.800  30.172  36.639  1.00  0.00    -0.203 F 
ATOM     91  C   UNL A   1      37.734  32.185  37.859  1.00  0.00     0.198 A 
ATOM     92  C   UNL A   1      38.953  34.102  37.084  1.00  0.00     0.198 A 
ATOM     93  F   UNL A   1      40.182  33.984  35.082  1.00  0.00    -0.203 F 
ATOM     94  F   UNL A   1      36.908  31.616  38.749  1.00  0.00    -0.200 F 
ATOM     95  C   UNL A   1      38.121  33.506  38.020  1.00  0.00     0.200 A 
ATOM     96  F   UNL A   1      39.343  35.374  37.246  1.00  0.00    -0.200 F 
ATOM     97  F   UNL A   1      37.688  34.209  39.075  1.00  0.00    -0.200 F 
ENDBRANCH  64  87
ENDBRANCH  38  39
ENDBRANCH  31  33
ENDBRANCH  30  31
ENDBRANCH  29  30
ENDBRANCH  28  29
ENDBRANCH  27  28
ENDBRANCH  26  27
ENDBRANCH   1  26
TORSDOF 21
ENDMDL
MODEL 2
REMARK VINA RESULT:     -10.7      5.378     10.568
REMARK SMILES Cc1c(Cl)cccc1-c1cccc(Cl)c1C(=O)OCCOCCOCCOCCOC(=O)c1ccc(-c2c3nc(c(-c4c(F)c(F)c(F)c(F)c4F)c4ccc([nH]4)c(-c4c(F)c(F)c(F)c(F)c4F)c4nc(c(-c5c(F)c(F)c(F)c(F)c5F)c5ccc2[nH]5)C=C4)C=C3)cc1
REMARK SMILES IDX 25 1 24 2 23 3 22 4 21 5 20 6 19 7 18 8 16 9 17 10 15 11
REMARK SMILES IDX 9 12 10 13 11 14 13 15 12 16 14 17 8 18 1 19 2 20 3 21 4 22
REMARK SMILES IDX 5 23 7 24 6 25 26 26 27 27 28 28 29 29 30 30 31 31 32 32
REMARK SMILES IDX 33 33 34 34 95 35 35 36 94 37 36 38 37 39 38 40 88 41 39 42
REMARK SMILES IDX 93 43 87 44 89 45 40 46 92 47 86 48 85 49 41 51 73 52 53 53
REMARK SMILES IDX 72 54 54 55 57 56 71 57 90 58 55 59 56 60 70 62 91 63 58 64
REMARK SMILES IDX 42 65 43 66 51 67 44 68 45 69 49 70 52 71 46 72 47 73 50 74
REMARK SMILES IDX 48 75 74 76 75 77 83 78 76 79 77 80 81 81 84 82 78 83 79 84
REMARK SMILES IDX 82 85 80 86 59 87 60 88 68 89 61 90 62 91 66 92 69 93 63 94
REMARK SMILES IDX 64 95 67 96 65 97
REMARK H PARENT 89 50 57 61
REMARK Flexibility Score: inf
ROOT
ATOM      1  C   UNL A   1      33.917  34.309  28.261  1.00  0.00     0.188 C 
ENDROOT
BRANCH   1   2
ATOM      2  O   UNL A   1      33.312  33.025  28.277  1.00  0.00    -0.377 OA
BRANCH   2   3
ATOM      3  C   UNL A   1      33.756  32.026  27.368  1.00  0.00     0.188 C 
BRANCH   3   4
ATOM      4  C   UNL A   1      34.942  31.092  27.704  1.00  0.00     0.188 C 
BRANCH   4   5
ATOM      5  O   UNL A   1      34.597  29.744  28.008  1.00  0.00    -0.376 OA
BRANCH   5   6
ATOM      6  C   UNL A   1      34.497  28.861  26.900  1.00  0.00     0.202 C 
BRANCH   6   7
ATOM      7  C   UNL A   1      33.299  27.919  26.981  1.00  0.00     0.261 C 
BRANCH   7   8
ATOM      8  O   UNL A   1      33.551  26.670  26.327  1.00  0.00    -0.460 OA
BRANCH   8   9
ATOM      9  C   UNL A   1      32.486  25.906  26.017  1.00  0.00     0.340 C 
ATOM     10  O   UNL A   1      31.444  25.835  26.646  1.00  0.00    -0.246 OA
BRANCH   9  11
ATOM     11  C   UNL A   1      32.775  25.172  24.760  1.00  0.00     0.086 A 
ATOM     12  C   UNL A   1      32.056  25.434  23.562  1.00  0.00    -0.002 A 
ATOM     13  C   UNL A   1      32.425  24.705  22.408  1.00  0.00     0.010 A 
ATOM     14  C   UNL A   1      33.416  23.724  22.438  1.00  0.00     0.002 A 
ATOM     15  C   UNL A   1      33.770  24.173  24.784  1.00  0.00     0.056 A 
ATOM     16  C   UNL A   1      34.075  23.448  23.628  1.00  0.00     0.021 A 
ATOM     17  Cl  UNL A   1      34.604  23.695  26.224  1.00  0.00    -0.083 Cl
BRANCH  12  18
ATOM     18  C   UNL A   1      30.868  26.330  23.462  1.00  0.00    -0.013 A 
ATOM     19  C   UNL A   1      32.190  28.407  22.749  1.00  0.00     0.046 C 
ATOM     20  C   UNL A   1      30.908  27.707  23.128  1.00  0.00    -0.025 A 
ATOM     21  C   UNL A   1      29.711  28.459  23.196  1.00  0.00     0.044 A 
ATOM     22  Cl  UNL A   1      29.694  30.173  22.946  1.00  0.00    -0.084 Cl
ATOM     23  C   UNL A   1      28.486  27.859  23.496  1.00  0.00     0.021 A 
ATOM     24  C   UNL A   1      29.607  25.759  23.770  1.00  0.00     0.009 A 
ATOM     25  C   UNL A   1      28.430  26.502  23.767  1.00  0.00     0.002 A 
ENDBRANCH  12  18
ENDBRANCH   9  11
ENDBRANCH   8   9
ENDBRANCH   7   8
ENDBRANCH   6   7
ENDBRANCH   5   6
ENDBRANCH   4   5
ENDBRANCH   3   4
ENDBRANCH   2   3
ENDBRANCH   1   2
BRANCH   1  26
ATOM     26  C   UNL A   1      33.278  35.453  29.074  1.00  0.00     0.188 C 
BRANCH  26  27
ATOM     27  O   UNL A   1      33.366  35.289  30.483  1.00  0.00    -0.376 OA
BRANCH  27  28
ATOM     28  C   UNL A   1      34.496  34.579  30.969  1.00  0.00     0.202 C 
BRANCH  28  29
ATOM     29  C   UNL A   1      34.223  33.628  32.142  1.00  0.00     0.261 C 
BRANCH  29  30
ATOM     30  O   UNL A   1      34.937  32.381  32.109  1.00  0.00    -0.460 OA
BRANCH  30  31
ATOM     31  C   UNL A   1      36.022  32.262  32.904  1.00  0.00     0.338 C 
ATOM     32  O   UNL A   1      36.123  32.565  34.078  1.00  0.00    -0.246 OA
BRANCH  31  33
ATOM     33  C   UNL A   1      37.045  31.521  32.142  1.00  0.00     0.060 A 
ATOM     34  C   UNL A   1      37.973  30.731  32.832  1.00  0.00     0.016 A 
ATOM     35  C   UNL A   1      37.079  31.608  30.749  1.00  0.00     0.016 A 
ATOM     36  C   UNL A   1      38.960  30.043  32.126  1.00  0.00     0.010 A 
ATOM     37  C   UNL A   1      38.080  30.937  30.045  1.00  0.00     0.010 A 
ATOM     38  C   UNL A   1      39.042  30.177  30.733  1.00  0.00    -0.014 A 
BRANCH  38  39
ATOM     39  C   UNL A   1      40.243  29.690  30.016  1.00  0.00     0.031 A 
ATOM     40  C   UNL A   1      41.369  30.656  29.779  1.00  0.00     0.074 A 
ATOM     41  C   UNL A   1      40.334  28.419  29.587  1.00  0.00     0.049 A 
ATOM     42  N   UNL A   1      42.495  30.483  29.135  1.00  0.00    -0.248 NA
ATOM     43  C   UNL A   1      41.200  32.007  30.342  1.00  0.00     0.031 C 
ATOM     44  C   UNL A   1      39.322  27.384  29.783  1.00  0.00     0.029 A 
ATOM     45  N   UNL A   1      41.331  27.789  28.883  1.00  0.00    -0.354 N 
ATOM     46  C   UNL A   1      43.162  31.699  29.213  1.00  0.00     0.074 A 
ATOM     47  C   UNL A   1      42.308  32.611  29.941  1.00  0.00     0.031 C 
ATOM     48  C   UNL A   1      39.742  26.249  29.197  1.00  0.00     0.029 A 
ATOM     49  C   UNL A   1      41.037  26.488  28.560  1.00  0.00     0.049 A 
ATOM     50  H   UNL A   1      42.175  28.229  28.633  1.00  0.00     0.167 HD
ATOM     51  C   UNL A   1      44.382  32.023  28.728  1.00  0.00     0.037 A 
ATOM     52  C   UNL A   1      41.730  25.603  27.815  1.00  0.00     0.037 A 
ATOM     53  C   UNL A   1      45.233  31.114  28.006  1.00  0.00     0.049 A 
ATOM     54  C   UNL A   1      43.061  26.009  27.232  1.00  0.00     0.074 A 
ATOM     55  C   UNL A   1      46.499  31.338  27.497  1.00  0.00     0.029 A 
ATOM     56  N   UNL A   1      44.895  29.808  27.683  1.00  0.00    -0.354 N 
ATOM     57  N   UNL A   1      43.705  27.146  27.344  1.00  0.00    -0.248 NA
ATOM     58  C   UNL A   1      43.766  25.004  26.422  1.00  0.00     0.031 C 
ATOM     59  C   UNL A   1      46.906  30.185  26.819  1.00  0.00     0.029 A 
ATOM     60  C   UNL A   1      45.918  29.223  26.955  1.00  0.00     0.049 A 
ATOM     61  H   UNL A   1      44.053  29.363  27.933  1.00  0.00     0.167 HD
ATOM     62  C   UNL A   1      44.897  26.984  26.649  1.00  0.00     0.074 A 
ATOM     63  C   UNL A   1      44.896  25.633  26.130  1.00  0.00     0.031 C 
ATOM     64  C   UNL A   1      45.904  27.873  26.456  1.00  0.00     0.037 A 
BRANCH  51  65
ATOM     65  C   UNL A   1      44.866  33.427  28.937  1.00  0.00     0.064 A 
ATOM     66  C   UNL A   1      45.641  33.781  30.051  1.00  0.00     0.173 A 
ATOM     67  C   UNL A   1      44.589  34.419  27.985  1.00  0.00     0.173 A 
ATOM     68  F   UNL A   1      45.919  32.872  30.998  1.00  0.00    -0.203 F 
ATOM     69  C   UNL A   1      46.107  35.083  30.211  1.00  0.00     0.198 A 
ATOM     70  C   UNL A   1      45.080  35.713  28.136  1.00  0.00     0.198 A 
ATOM     71  F   UNL A   1      43.851  34.130  26.902  1.00  0.00    -0.203 F 
ATOM     72  F   UNL A   1      46.815  35.410  31.303  1.00  0.00    -0.200 F 
ATOM     73  C   UNL A   1      45.835  36.045  29.250  1.00  0.00     0.200 A 
ATOM     74  F   UNL A   1      44.824  36.638  27.200  1.00  0.00    -0.200 F 
ATOM     75  F   UNL A   1      46.296  37.294  29.400  1.00  0.00    -0.200 F 
ENDBRANCH  51  65
BRANCH  52  76
ATOM     76  C   UNL A   1      41.172  24.249  27.552  1.00  0.00     0.064 A 
ATOM     77  C   UNL A   1      41.731  23.106  28.141  1.00  0.00     0.173 A 
ATOM     78  C   UNL A   1      40.097  24.066  26.670  1.00  0.00     0.173 A 
ATOM     79  F   UNL A   1      42.779  23.224  28.969  1.00  0.00    -0.203 F 
ATOM     80  C   UNL A   1      41.253  21.832  27.837  1.00  0.00     0.198 A 
ATOM     81  C   UNL A   1      39.600  22.795  26.390  1.00  0.00     0.198 A 
ATOM     82  F   UNL A   1      39.528  25.126  26.075  1.00  0.00    -0.203 F 
ATOM     83  F   UNL A   1      41.846  20.753  28.368  1.00  0.00    -0.200 F 
ATOM     84  C   UNL A   1      40.186  21.678  26.965  1.00  0.00     0.200 A 
ATOM     85  F   UNL A   1      38.564  22.653  25.553  1.00  0.00    -0.200 F 
ATOM     86  F   UNL A   1      39.732  20.453  26.668  1.00  0.00    -0.200 F 
ENDBRANCH  52  76
BRANCH  64  87
ATOM     87  C   UNL A   1      47.105  27.403  25.685  1.00  0.00     0.064 A 
ATOM     88  C   UNL A   1      47.246  27.657  24.313  1.00  0.00     0.173 A 
ATOM     89  C   UNL A   1      48.150  26.735  26.339  1.00  0.00     0.173 A 
ATOM     90  F   UNL A   1      46.269  28.282  23.638  1.00  0.00    -0.203 F 
ATOM     91  C   UNL A   1      48.376  27.233  23.619  1.00  0.00     0.198 A 
ATOM     92  C   UNL A   1      49.294  26.341  25.650  1.00  0.00     0.198 A 
ATOM     93  F   UNL A   1      48.071  26.478  27.654  1.00  0.00    -0.203 F 
ATOM     94  F   UNL A   1      48.467  27.443  22.298  1.00  0.00    -0.200 F 
ATOM     95  C   UNL A   1      49.402  26.583  24.289  1.00  0.00     0.200 A 
ATOM     96  F   UNL A   1      50.292  25.729  26.303  1.00  0.00    -0.200 F 
ATOM     97  F   UNL A   1      50.493  26.185  23.621  1.00  0.00    -0.200 F 
ENDBRANCH  64  87
ENDBRANCH  38  39
ENDBRANCH  31  33
ENDBRANCH  30  31
ENDBRANCH  29  30
ENDBRANCH  28  29
ENDBRANCH  27  28
ENDBRANCH  26  27
ENDBRANCH   1  26
TORSDOF 21
ENDMDL
MODEL 3
REMARK VINA RESULT:     -10.5      3.198      8.411
REMARK SMILES Cc1c(Cl)cccc1-c1cccc(Cl)c1C(=O)OCCOCCOCCOCCOC(=O)c1ccc(-c2c3nc(c(-c4c(F)c(F)c(F)c(F)c4F)c4ccc([nH]4)c(-c4c(F)c(F)c(F)c(F)c4F)c4nc(c(-c5c(F)c(F)c(F)c(F)c5F)c5ccc2[nH]5)C=C4)C=C3)cc1
REMARK SMILES IDX 25 1 24 2 23 3 22 4 21 5 20 6 19 7 18 8 16 9 17 10 15 11
REMARK SMILES IDX 9 12 10 13 11 14 13 15 12 16 14 17 8 18 1 19 2 20 3 21 4 22
REMARK SMILES IDX 5 23 7 24 6 25 26 26 27 27 28 28 29 29 30 30 31 31 32 32
REMARK SMILES IDX 33 33 34 34 95 35 35 36 94 37 36 38 37 39 38 40 88 41 39 42
REMARK SMILES IDX 93 43 87 44 89 45 40 46 92 47 86 48 85 49 41 51 73 52 53 53
REMARK SMILES IDX 72 54 54 55 57 56 71 57 90 58 55 59 56 60 70 62 91 63 58 64
REMARK SMILES IDX 42 65 43 66 51 67 44 68 45 69 49 70 52 71 46 72 47 73 50 74
REMARK SMILES IDX 48 75 74 76 75 77 83 78 76 79 77 80 81 81 84 82 78 83 79 84
REMARK SMILES IDX 82 85 80 86 59 87 60 88 68 89 61 90 62 91 66 92 69 93 63 94
REMARK SMILES IDX 64 95 67 96 65 97
REMARK H PARENT 89 50 57 61
REMARK Flexibility Score: inf
ROOT
ATOM      1  C   UNL A   1      31.580  26.792  25.123  1.00  0.00     0.188 C 
ENDROOT
BRANCH   1   2
ATOM      2  O   UNL A   1      31.707  25.387  24.954  1.00  0.00    -0.377 OA
BRANCH   2   3
ATOM      3  C   UNL A   1      30.598  24.541  25.233  1.00  0.00     0.188 C 
BRANCH   3   4
ATOM      4  C   UNL A   1      30.534  23.683  26.518  1.00  0.00     0.188 C 
BRANCH   4   5
ATOM      5  O   UNL A   1      31.626  23.842  27.418  1.00  0.00    -0.376 OA
BRANCH   5   6
ATOM      6  C   UNL A   1      32.480  22.717  27.568  1.00  0.00     0.202 C 
BRANCH   6   7
ATOM      7  C   UNL A   1      33.867  22.923  26.968  1.00  0.00     0.261 C 
BRANCH   7   8
ATOM      8  O   UNL A   1      34.629  21.710  26.943  1.00  0.00    -0.460 OA
BRANCH   8   9
ATOM      9  C   UNL A   1      34.555  20.953  25.832  1.00  0.00     0.340 C 
ATOM     10  O   UNL A   1      34.507  19.735  25.792  1.00  0.00    -0.246 OA
BRANCH   9  11
ATOM     11  C   UNL A   1      34.517  21.847  24.648  1.00  0.00     0.086 A 
ATOM     12  C   UNL A   1      35.653  22.604  24.249  1.00  0.00    -0.002 A 
ATOM     13  C   UNL A   1      35.529  23.403  23.090  1.00  0.00     0.010 A 
ATOM     14  C   UNL A   1      34.330  23.503  22.385  1.00  0.00     0.002 A 
ATOM     15  C   UNL A   1      33.306  21.959  23.935  1.00  0.00     0.056 A 
ATOM     16  C   UNL A   1      33.217  22.794  22.817  1.00  0.00     0.021 A 
ATOM     17  Cl  UNL A   1      31.839  21.181  24.422  1.00  0.00    -0.083 Cl
BRANCH  12  18
ATOM     18  C   UNL A   1      36.921  22.706  25.026  1.00  0.00    -0.013 A 
ATOM     19  C   UNL A   1      37.715  20.323  24.514  1.00  0.00     0.046 C 
ATOM     20  C   UNL A   1      37.866  21.662  25.194  1.00  0.00    -0.025 A 
ATOM     21  C   UNL A   1      38.962  21.869  26.064  1.00  0.00     0.044 A 
ATOM     22  Cl  UNL A   1      40.081  20.600  26.440  1.00  0.00    -0.084 Cl
ATOM     23  C   UNL A   1      39.181  23.100  26.687  1.00  0.00     0.021 A 
ATOM     24  C   UNL A   1      37.173  23.939  25.682  1.00  0.00     0.009 A 
ATOM     25  C   UNL A   1      38.293  24.143  26.483  1.00  0.00     0.002 A 
ENDBRANCH  12  18
ENDBRANCH   9  11
ENDBRANCH   8   9
ENDBRANCH   7   8
ENDBRANCH   6   7
ENDBRANCH   5   6
ENDBRANCH   4   5
ENDBRANCH   3   4
ENDBRANCH   2   3
ENDBRANCH   1   2
BRANCH   1  26
ATOM     26  C   UNL A   1      30.579  27.568  24.243  1.00  0.00     0.188 C 
BRANCH  26  27
ATOM     27  O   UNL A   1      30.766  28.976  24.248  1.00  0.00    -0.376 OA
BRANCH  27  28
ATOM     28  C   UNL A   1      31.988  29.452  24.793  1.00  0.00     0.202 C 
BRANCH  28  29
ATOM     29  C   UNL A   1      31.851  30.418  25.978  1.00  0.00     0.261 C 
BRANCH  29  30
ATOM     30  O   UNL A   1      32.884  30.330  26.974  1.00  0.00    -0.460 OA
BRANCH  30  31
ATOM     31  C   UNL A   1      33.487  31.477  27.351  1.00  0.00     0.338 C 
ATOM     32  O   UNL A   1      33.012  32.596  27.377  1.00  0.00    -0.246 OA
BRANCH  31  33
ATOM     33  C   UNL A   1      34.805  31.117  27.909  1.00  0.00     0.060 A 
ATOM     34  C   UNL A   1      35.046  29.791  28.290  1.00  0.00     0.016 A 
ATOM     35  C   UNL A   1      35.796  32.090  28.048  1.00  0.00     0.016 A 
ATOM     36  C   UNL A   1      36.279  29.440  28.840  1.00  0.00     0.010 A 
ATOM     37  C   UNL A   1      37.021  31.744  28.618  1.00  0.00     0.010 A 
ATOM     38  C   UNL A   1      37.256  30.424  29.045  1.00  0.00    -0.014 A 
BRANCH  38  39
ATOM     39  C   UNL A   1      38.442  30.123  29.879  1.00  0.00     0.031 A 
ATOM     40  C   UNL A   1      39.482  29.191  29.325  1.00  0.00     0.074 A 
ATOM     41  C   UNL A   1      38.594  30.666  31.100  1.00  0.00     0.049 A 
ATOM     42  N   UNL A   1      40.576  28.737  29.880  1.00  0.00    -0.248 NA
ATOM     43  C   UNL A   1      39.254  28.699  27.955  1.00  0.00     0.031 C 
ATOM     44  C   UNL A   1      37.670  31.605  31.731  1.00  0.00     0.029 A 
ATOM     45  N   UNL A   1      39.588  30.490  32.032  1.00  0.00    -0.354 N 
ATOM     46  C   UNL A   1      41.161  27.907  28.933  1.00  0.00     0.074 A 
ATOM     47  C   UNL A   1      40.292  27.895  27.777  1.00  0.00     0.031 C 
ATOM     48  C   UNL A   1      38.131  31.911  32.957  1.00  0.00     0.029 A 
ATOM     49  C   UNL A   1      39.366  31.166  33.205  1.00  0.00     0.049 A 
ATOM     50  H   UNL A   1      40.383  29.932  31.873  1.00  0.00     0.167 HD
ATOM     51  C   UNL A   1      42.325  27.222  29.017  1.00  0.00     0.037 A 
ATOM     52  C   UNL A   1      40.071  31.161  34.354  1.00  0.00     0.037 A 
ATOM     53  C   UNL A   1      43.190  27.236  30.166  1.00  0.00     0.049 A 
ATOM     54  C   UNL A   1      41.334  30.339  34.443  1.00  0.00     0.074 A 
ATOM     55  C   UNL A   1      44.405  26.598  30.338  1.00  0.00     0.029 A 
ATOM     56  N   UNL A   1      42.925  27.919  31.343  1.00  0.00    -0.354 N 
ATOM     57  N   UNL A   1      41.903  29.589  33.530  1.00  0.00    -0.248 NA
ATOM     58  C   UNL A   1      42.056  30.368  35.724  1.00  0.00     0.031 C 
ATOM     59  C   UNL A   1      44.849  26.850  31.640  1.00  0.00     0.029 A 
ATOM     60  C   UNL A   1      43.940  27.693  32.258  1.00  0.00     0.049 A 
ATOM     61  H   UNL A   1      42.132  28.481  31.505  1.00  0.00     0.167 HD
ATOM     62  C   UNL A   1      43.059  29.085  34.113  1.00  0.00     0.074 A 
ATOM     63  C   UNL A   1      43.120  29.624  35.455  1.00  0.00     0.031 C 
ATOM     64  C   UNL A   1      43.988  28.249  33.586  1.00  0.00     0.037 A 
BRANCH  51  65
ATOM     65  C   UNL A   1      42.722  26.376  27.844  1.00  0.00     0.064 A 
ATOM     66  C   UNL A   1      43.519  26.882  26.807  1.00  0.00     0.173 A 
ATOM     67  C   UNL A   1      42.339  25.029  27.782  1.00  0.00     0.173 A 
ATOM     68  F   UNL A   1      43.897  28.170  26.811  1.00  0.00    -0.203 F 
ATOM     69  C   UNL A   1      43.904  26.073  25.741  1.00  0.00     0.198 A 
ATOM     70  C   UNL A   1      42.748  24.215  26.730  1.00  0.00     0.198 A 
ATOM     71  F   UNL A   1      41.577  24.497  28.750  1.00  0.00    -0.203 F 
ATOM     72  F   UNL A   1      44.634  26.587  24.741  1.00  0.00    -0.200 F 
ATOM     73  C   UNL A   1      43.527  24.739  25.708  1.00  0.00     0.200 A 
ATOM     74  F   UNL A   1      42.392  22.923  26.705  1.00  0.00    -0.200 F 
ATOM     75  F   UNL A   1      43.909  23.957  24.689  1.00  0.00    -0.200 F 
ENDBRANCH  51  65
BRANCH  52  76
ATOM     76  C   UNL A   1      39.593  31.940  35.528  1.00  0.00     0.064 A 
ATOM     77  C   UNL A   1      38.597  31.437  36.378  1.00  0.00     0.173 A 
ATOM     78  C   UNL A   1      40.091  33.223  35.798  1.00  0.00     0.173 A 
ATOM     79  F   UNL A   1      38.068  30.227  36.145  1.00  0.00    -0.203 F 
ATOM     80  C   UNL A   1      38.099  32.199  37.434  1.00  0.00     0.198 A 
ATOM     81  C   UNL A   1      39.614  33.972  36.873  1.00  0.00     0.198 A 
ATOM     82  F   UNL A   1      41.041  33.754  35.014  1.00  0.00    -0.203 F 
ATOM     83  F   UNL A   1      37.105  31.717  38.193  1.00  0.00    -0.200 F 
ATOM     84  C   UNL A   1      38.611  33.463  37.683  1.00  0.00     0.200 A 
ATOM     85  F   UNL A   1      40.118  35.189  37.113  1.00  0.00    -0.200 F 
ATOM     86  F   UNL A   1      38.127  34.196  38.694  1.00  0.00    -0.200 F 
ENDBRANCH  52  76
BRANCH  64  87
ATOM     87  C   UNL A   1      45.170  27.896  34.444  1.00  0.00     0.064 A 
ATOM     88  C   UNL A   1      45.167  26.767  35.277  1.00  0.00     0.173 A 
ATOM     89  C   UNL A   1      46.339  28.671  34.395  1.00  0.00     0.173 A 
ATOM     90  F   UNL A   1      44.070  26.000  35.370  1.00  0.00    -0.203 F 
ATOM     91  C   UNL A   1      46.279  26.444  36.049  1.00  0.00     0.198 A 
ATOM     92  C   UNL A   1      47.461  28.327  35.143  1.00  0.00     0.198 A 
ATOM     93  F   UNL A   1      46.398  29.754  33.605  1.00  0.00    -0.203 F 
ATOM     94  F   UNL A   1      46.236  25.389  36.874  1.00  0.00    -0.200 F 
ATOM     95  C   UNL A   1      47.427  27.219  35.976  1.00  0.00     0.200 A 
ATOM     96  F   UNL A   1      48.575  29.067  35.057  1.00  0.00    -0.200 F 
ATOM     97  F   UNL A   1      48.500  26.901  36.713  1.00  0.00    -0.200 F 
ENDBRANCH  64  87
ENDBRANCH  38  39
ENDBRANCH  31  33
ENDBRANCH  30  31
ENDBRANCH  29  30
ENDBRANCH  28  29
ENDBRANCH  27  28
ENDBRANCH  26  27
ENDBRANCH   1  26
TORSDOF 21
ENDMDL
