MODEL 1
REMARK VINA RESULT:     -10.3      0.000      0.000
REMARK SMILES C[C@@H](C(=O)OCCOCCOCCOCCOC(=O)c1ccc(-c2c3nc(c(-c4c(F)c(F)c(F)c(F)c4F)c4ccc([nH]4)c(-c4c(F)c(F)c(F)c(F)c4F)c4nc(c(-c5c(F)c(F)c(F)c(F)c5F)c5ccc2[nH]5)C=C4)C=C3)cc1)c1ccc(C[C@H]2CCC[C@@H]2O)cc1F
REMARK SMILES IDX 10 1 9 2 8 3 7 4 6 5 5 6 3 7 4 8 2 9 1 10 83 11 84 12 95 13
REMARK SMILES IDX 85 14 94 15 96 16 86 17 87 18 88 19 89 20 92 21 90 22 91 23
REMARK SMILES IDX 93 24 11 26 12 27 13 28 14 29 15 30 16 31 17 32 18 33 19 34
REMARK SMILES IDX 20 35 21 36 82 37 22 38 81 39 23 40 24 41 25 42 75 43 26 44
REMARK SMILES IDX 80 45 74 46 76 47 27 48 79 49 73 50 72 51 28 53 60 54 40 55
REMARK SMILES IDX 59 56 41 57 44 58 58 59 77 60 42 61 43 62 57 64 78 65 45 66
REMARK SMILES IDX 29 67 30 68 38 69 31 70 32 71 36 72 39 73 33 74 34 75 37 76
REMARK SMILES IDX 35 77 61 78 62 79 70 80 63 81 64 82 68 83 71 84 65 85 66 86
REMARK SMILES IDX 69 87 67 88 46 89 47 90 55 91 48 92 49 93 53 94 56 95 50 96
REMARK SMILES IDX 51 97 54 98 52 99
REMARK H PARENT 93 25 76 52 44 63
REMARK Flexibility Score: inf
ROOT
ATOM      1  C   UNL A   1      33.869  28.416  24.681  1.00  0.00     0.188 C 
ENDROOT
BRANCH   1   2
ATOM      2  C   UNL A   1      32.579  29.081  24.169  1.00  0.00     0.188 C 
BRANCH   2   3
ATOM      3  O   UNL A   1      31.953  28.603  22.991  1.00  0.00    -0.376 OA
BRANCH   3   4
ATOM      4  C   UNL A   1      30.555  28.364  22.950  1.00  0.00     0.202 C 
BRANCH   4   5
ATOM      5  C   UNL A   1      29.871  27.145  23.604  1.00  0.00     0.261 C 
BRANCH   5   6
ATOM      6  O   UNL A   1      30.443  25.848  23.365  1.00  0.00    -0.463 OA
BRANCH   6   7
ATOM      7  C   UNL A   1      31.484  25.502  24.163  1.00  0.00     0.313 C 
ATOM      8  O   UNL A   1      31.402  25.478  25.387  1.00  0.00    -0.252 OA
BRANCH   7   9
ATOM      9  C   UNL A   1      32.761  25.093  23.392  1.00  0.00     0.129 C 
ATOM     10  C   UNL A   1      32.742  25.281  21.866  1.00  0.00     0.025 C 
BRANCH   9  11
ATOM     11  C   UNL A   1      33.266  23.740  23.896  1.00  0.00     0.002 A 
ATOM     12  C   UNL A   1      34.496  23.524  24.536  1.00  0.00     0.008 A 
ATOM     13  C   UNL A   1      32.490  22.608  23.609  1.00  0.00     0.127 A 
ATOM     14  C   UNL A   1      34.943  22.223  24.820  1.00  0.00     0.004 A 
ATOM     15  C   UNL A   1      32.940  21.315  23.864  1.00  0.00     0.043 A 
ATOM     16  F   UNL A   1      31.279  22.757  23.055  1.00  0.00    -0.207 F 
ATOM     17  C   UNL A   1      34.189  21.102  24.453  1.00  0.00    -0.045 A 
BRANCH  17  18
ATOM     18  C   UNL A   1      34.676  19.695  24.702  1.00  0.00     0.041 C 
BRANCH  18  19
ATOM     19  C   UNL A   1      33.673  18.549  24.492  1.00  0.00     0.022 C 
ATOM     20  C   UNL A   1      34.032  17.506  23.423  1.00  0.00     0.007 C 
ATOM     21  C   UNL A   1      33.341  17.718  25.733  1.00  0.00     0.117 C 
ATOM     22  C   UNL A   1      33.475  16.169  23.932  1.00  0.00     0.003 C 
ATOM     23  C   UNL A   1      32.622  16.513  25.144  1.00  0.00     0.032 C 
BRANCH  21  24
ATOM     24  O   UNL A   1      32.528  18.429  26.647  1.00  0.00    -0.393 OA
ATOM     25  H   UNL A   1      32.585  18.014  27.521  1.00  0.00     0.210 HD
ENDBRANCH  21  24
ENDBRANCH  18  19
ENDBRANCH  17  18
ENDBRANCH   9  11
ENDBRANCH   7   9
ENDBRANCH   6   7
ENDBRANCH   5   6
ENDBRANCH   4   5
ENDBRANCH   3   4
ENDBRANCH   2   3
ENDBRANCH   1   2
BRANCH   1  26
ATOM     26  O   UNL A   1      33.755  27.786  25.941  1.00  0.00    -0.377 OA
BRANCH  26  27
ATOM     27  C   UNL A   1      33.591  28.629  27.070  1.00  0.00     0.188 C 
BRANCH  27  28
ATOM     28  C   UNL A   1      34.655  29.711  27.344  1.00  0.00     0.188 C 
BRANCH  28  29
ATOM     29  O   UNL A   1      34.130  31.026  27.468  1.00  0.00    -0.376 OA
BRANCH  29  30
ATOM     30  C   UNL A   1      32.773  31.255  27.117  1.00  0.00     0.202 C 
BRANCH  30  31
ATOM     31  C   UNL A   1      32.192  32.648  27.412  1.00  0.00     0.261 C 
BRANCH  31  32
ATOM     32  O   UNL A   1      33.111  33.749  27.361  1.00  0.00    -0.460 OA
BRANCH  32  33
ATOM     33  C   UNL A   1      33.252  34.507  28.468  1.00  0.00     0.338 C 
ATOM     34  O   UNL A   1      32.495  35.376  28.867  1.00  0.00    -0.246 OA
BRANCH  33  35
ATOM     35  C   UNL A   1      34.392  33.972  29.241  1.00  0.00     0.060 A 
ATOM     36  C   UNL A   1      35.694  34.238  28.797  1.00  0.00     0.016 A 
ATOM     37  C   UNL A   1      34.181  33.222  30.401  1.00  0.00     0.016 A 
ATOM     38  C   UNL A   1      36.789  33.721  29.489  1.00  0.00     0.010 A 
ATOM     39  C   UNL A   1      35.278  32.684  31.080  1.00  0.00     0.010 A 
ATOM     40  C   UNL A   1      36.585  32.900  30.605  1.00  0.00    -0.014 A 
BRANCH  40  41
ATOM     41  C   UNL A   1      37.713  32.101  31.145  1.00  0.00     0.031 A 
ATOM     42  C   UNL A   1      38.193  32.403  32.538  1.00  0.00     0.074 A 
ATOM     43  C   UNL A   1      38.285  31.115  30.432  1.00  0.00     0.049 A 
ATOM     44  N   UNL A   1      39.190  31.886  33.210  1.00  0.00    -0.248 NA
ATOM     45  C   UNL A   1      37.444  33.435  33.274  1.00  0.00     0.031 C 
ATOM     46  C   UNL A   1      37.878  30.694  29.095  1.00  0.00     0.029 A 
ATOM     47  N   UNL A   1      39.342  30.294  30.739  1.00  0.00    -0.354 N 
ATOM     48  C   UNL A   1      39.193  32.535  34.438  1.00  0.00     0.074 A 
ATOM     49  C   UNL A   1      38.122  33.505  34.409  1.00  0.00     0.031 C 
ATOM     50  C   UNL A   1      38.685  29.698  28.688  1.00  0.00     0.029 A 
ATOM     51  C   UNL A   1      39.687  29.439  29.722  1.00  0.00     0.049 A 
ATOM     52  H   UNL A   1      39.807  30.317  31.606  1.00  0.00     0.167 HD
ATOM     53  C   UNL A   1      40.011  32.332  35.497  1.00  0.00     0.037 A 
ATOM     54  C   UNL A   1      40.712  28.568  29.632  1.00  0.00     0.037 A 
ATOM     55  C   UNL A   1      41.078  31.367  35.521  1.00  0.00     0.049 A 
ATOM     56  C   UNL A   1      41.665  28.423  30.793  1.00  0.00     0.074 A 
ATOM     57  C   UNL A   1      41.954  31.074  36.551  1.00  0.00     0.029 A 
ATOM     58  N   UNL A   1      41.422  30.545  34.457  1.00  0.00    -0.354 N 
ATOM     59  N   UNL A   1      41.648  29.020  31.960  1.00  0.00    -0.248 NA
ATOM     60  C   UNL A   1      42.778  27.478  30.624  1.00  0.00     0.031 C 
ATOM     61  C   UNL A   1      42.869  30.124  36.088  1.00  0.00     0.029 A 
ATOM     62  C   UNL A   1      42.519  29.770  34.795  1.00  0.00     0.049 A 
ATOM     63  H   UNL A   1      40.956  30.519  33.590  1.00  0.00     0.167 HD
ATOM     64  C   UNL A   1      42.721  28.499  32.675  1.00  0.00     0.074 A 
ATOM     65  C   UNL A   1      43.361  27.528  31.813  1.00  0.00     0.031 C 
ATOM     66  C   UNL A   1      43.138  28.796  33.931  1.00  0.00     0.037 A 
BRANCH  53  67
ATOM     67  C   UNL A   1      39.807  33.198  36.708  1.00  0.00     0.064 A 
ATOM     68  C   UNL A   1      40.528  34.387  36.900  1.00  0.00     0.173 A 
ATOM     69  C   UNL A   1      38.855  32.846  37.676  1.00  0.00     0.173 A 
ATOM     70  F   UNL A   1      41.462  34.761  36.013  1.00  0.00    -0.203 F 
ATOM     71  C   UNL A   1      40.323  35.174  38.030  1.00  0.00     0.198 A 
ATOM     72  C   UNL A   1      38.628  33.654  38.788  1.00  0.00     0.198 A 
ATOM     73  F   UNL A   1      38.136  31.721  37.541  1.00  0.00    -0.203 F 
ATOM     74  F   UNL A   1      41.061  36.277  38.220  1.00  0.00    -0.200 F 
ATOM     75  C   UNL A   1      39.368  34.812  38.968  1.00  0.00     0.200 A 
ATOM     76  F   UNL A   1      37.694  33.308  39.684  1.00  0.00    -0.200 F 
ATOM     77  F   UNL A   1      39.166  35.576  40.051  1.00  0.00    -0.200 F 
ENDBRANCH  53  67
BRANCH  54  78
ATOM     78  C   UNL A   1      40.909  27.771  28.390  1.00  0.00     0.064 A 
ATOM     79  C   UNL A   1      41.611  28.295  27.295  1.00  0.00     0.173 A 
ATOM     80  C   UNL A   1      40.369  26.482  28.258  1.00  0.00     0.173 A 
ATOM     81  F   UNL A   1      42.121  29.534  27.358  1.00  0.00    -0.203 F 
ATOM     82  C   UNL A   1      41.745  27.571  26.111  1.00  0.00     0.198 A 
ATOM     83  C   UNL A   1      40.533  25.746  27.087  1.00  0.00     0.198 A 
ATOM     84  F   UNL A   1      39.683  25.934  29.273  1.00  0.00    -0.203 F 
ATOM     85  F   UNL A   1      42.372  28.120  25.061  1.00  0.00    -0.200 F 
ATOM     86  C   UNL A   1      41.212  26.296  26.010  1.00  0.00     0.200 A 
ATOM     87  F   UNL A   1      40.026  24.509  26.998  1.00  0.00    -0.200 F 
ATOM     88  F   UNL A   1      41.343  25.600  24.872  1.00  0.00    -0.200 F 
ENDBRANCH  54  78
BRANCH  66  89
ATOM     89  C   UNL A   1      44.312  28.029  34.474  1.00  0.00     0.064 A 
ATOM     90  C   UNL A   1      44.160  26.788  35.108  1.00  0.00     0.173 A 
ATOM     91  C   UNL A   1      45.617  28.525  34.313  1.00  0.00     0.173 A 
ATOM     92  F   UNL A   1      42.936  26.272  35.298  1.00  0.00    -0.203 F 
ATOM     93  C   UNL A   1      45.265  26.088  35.589  1.00  0.00     0.198 A 
ATOM     94  C   UNL A   1      46.721  27.806  34.762  1.00  0.00     0.198 A 
ATOM     95  F   UNL A   1      45.822  29.704  33.704  1.00  0.00    -0.203 F 
ATOM     96  F   UNL A   1      45.089  24.929  36.240  1.00  0.00    -0.200 F 
ATOM     97  C   UNL A   1      46.544  26.593  35.408  1.00  0.00     0.200 A 
ATOM     98  F   UNL A   1      47.956  28.287  34.567  1.00  0.00    -0.200 F 
ATOM     99  F   UNL A   1      47.605  25.912  35.861  1.00  0.00    -0.200 F 
ENDBRANCH  66  89
ENDBRANCH  40  41
ENDBRANCH  33  35
ENDBRANCH  32  33
ENDBRANCH  31  32
ENDBRANCH  30  31
ENDBRANCH  29  30
ENDBRANCH  28  29
ENDBRANCH  27  28
ENDBRANCH  26  27
ENDBRANCH   1  26
TORSDOF 24
ENDMDL
MODEL 2
REMARK VINA RESULT:     -10.3      0.893      2.140
REMARK SMILES C[C@@H](C(=O)OCCOCCOCCOCCOC(=O)c1ccc(-c2c3nc(c(-c4c(F)c(F)c(F)c(F)c4F)c4ccc([nH]4)c(-c4c(F)c(F)c(F)c(F)c4F)c4nc(c(-c5c(F)c(F)c(F)c(F)c5F)c5ccc2[nH]5)C=C4)C=C3)cc1)c1ccc(C[C@H]2CCC[C@@H]2O)cc1F
REMARK SMILES IDX 10 1 9 2 8 3 7 4 6 5 5 6 3 7 4 8 2 9 1 10 83 11 84 12 95 13
REMARK SMILES IDX 85 14 94 15 96 16 86 17 87 18 88 19 89 20 92 21 90 22 91 23
REMARK SMILES IDX 93 24 11 26 12 27 13 28 14 29 15 30 16 31 17 32 18 33 19 34
REMARK SMILES IDX 20 35 21 36 82 37 22 38 81 39 23 40 24 41 25 42 75 43 26 44
REMARK SMILES IDX 80 45 74 46 76 47 27 48 79 49 73 50 72 51 28 53 60 54 40 55
REMARK SMILES IDX 59 56 41 57 44 58 58 59 77 60 42 61 43 62 57 64 78 65 45 66
REMARK SMILES IDX 29 67 30 68 38 69 31 70 32 71 36 72 39 73 33 74 34 75 37 76
REMARK SMILES IDX 35 77 61 78 62 79 70 80 63 81 64 82 68 83 71 84 65 85 66 86
REMARK SMILES IDX 69 87 67 88 46 89 47 90 55 91 48 92 49 93 53 94 56 95 50 96
REMARK SMILES IDX 51 97 54 98 52 99
REMARK H PARENT 93 25 76 52 44 63
REMARK Flexibility Score: inf
ROOT
ATOM      1  C   UNL A   1      33.815  28.228  24.996  1.00  0.00     0.188 C 
ENDROOT
BRANCH   1   2
ATOM      2  C   UNL A   1      32.810  29.317  24.580  1.00  0.00     0.188 C 
BRANCH   2   3
ATOM      3  O   UNL A   1      31.950  29.103  23.474  1.00  0.00    -0.376 OA
BRANCH   3   4
ATOM      4  C   UNL A   1      30.554  28.927  23.657  1.00  0.00     0.202 C 
BRANCH   4   5
ATOM      5  C   UNL A   1      29.764  27.713  23.124  1.00  0.00     0.261 C 
BRANCH   5   6
ATOM      6  O   UNL A   1      30.508  26.544  22.744  1.00  0.00    -0.463 OA
BRANCH   6   7
ATOM      7  C   UNL A   1      31.109  25.868  23.755  1.00  0.00     0.313 C 
ATOM      8  O   UNL A   1      30.545  25.621  24.816  1.00  0.00    -0.252 OA
BRANCH   7   9
ATOM      9  C   UNL A   1      32.546  25.395  23.429  1.00  0.00     0.129 C 
ATOM     10  C   UNL A   1      33.194  25.963  22.156  1.00  0.00     0.025 C 
BRANCH   9  11
ATOM     11  C   UNL A   1      32.653  23.880  23.619  1.00  0.00     0.002 A 
ATOM     12  C   UNL A   1      32.408  22.922  22.623  1.00  0.00     0.008 A 
ATOM     13  C   UNL A   1      32.916  23.403  24.910  1.00  0.00     0.127 A 
ATOM     14  C   UNL A   1      32.375  21.552  22.932  1.00  0.00     0.004 A 
ATOM     15  C   UNL A   1      32.859  22.048  25.227  1.00  0.00     0.043 A 
ATOM     16  F   UNL A   1      33.220  24.267  25.888  1.00  0.00    -0.207 F 
ATOM     17  C   UNL A   1      32.562  21.102  24.244  1.00  0.00    -0.045 A 
BRANCH  17  18
ATOM     18  C   UNL A   1      32.478  19.638  24.604  1.00  0.00     0.041 C 
BRANCH  18  19
ATOM     19  C   UNL A   1      33.434  18.673  23.882  1.00  0.00     0.022 C 
ATOM     20  C   UNL A   1      34.559  18.056  24.727  1.00  0.00     0.007 C 
ATOM     21  C   UNL A   1      32.777  17.475  23.195  1.00  0.00     0.117 C 
ATOM     22  C   UNL A   1      34.786  16.647  24.162  1.00  0.00     0.003 C 
ATOM     23  C   UNL A   1      33.966  16.578  22.883  1.00  0.00     0.032 C 
BRANCH  21  24
ATOM     24  O   UNL A   1      32.074  17.853  22.025  1.00  0.00    -0.393 OA
ATOM     25  H   UNL A   1      32.093  18.817  21.935  1.00  0.00     0.210 HD
ENDBRANCH  21  24
ENDBRANCH  18  19
ENDBRANCH  17  18
ENDBRANCH   9  11
ENDBRANCH   7   9
ENDBRANCH   6   7
ENDBRANCH   5   6
ENDBRANCH   4   5
ENDBRANCH   3   4
ENDBRANCH   2   3
ENDBRANCH   1   2
BRANCH   1  26
ATOM     26  O   UNL A   1      33.895  27.992  26.387  1.00  0.00    -0.377 OA
BRANCH  26  27
ATOM     27  C   UNL A   1      33.526  29.060  27.244  1.00  0.00     0.188 C 
BRANCH  27  28
ATOM     28  C   UNL A   1      34.599  30.095  27.639  1.00  0.00     0.188 C 
BRANCH  28  29
ATOM     29  O   UNL A   1      34.101  31.416  27.802  1.00  0.00    -0.376 OA
BRANCH  29  30
ATOM     30  C   UNL A   1      32.849  31.751  27.220  1.00  0.00     0.202 C 
BRANCH  30  31
ATOM     31  C   UNL A   1      32.217  33.092  27.628  1.00  0.00     0.261 C 
BRANCH  31  32
ATOM     32  O   UNL A   1      33.057  34.252  27.533  1.00  0.00    -0.460 OA
BRANCH  32  33
ATOM     33  C   UNL A   1      33.246  34.988  28.647  1.00  0.00     0.338 C 
ATOM     34  O   UNL A   1      32.528  35.877  29.074  1.00  0.00    -0.246 OA
BRANCH  33  35
ATOM     35  C   UNL A   1      34.383  34.404  29.389  1.00  0.00     0.060 A 
ATOM     36  C   UNL A   1      35.666  34.485  28.832  1.00  0.00     0.016 A 
ATOM     37  C   UNL A   1      34.188  33.788  30.628  1.00  0.00     0.016 A 
ATOM     38  C   UNL A   1      36.754  33.915  29.495  1.00  0.00     0.010 A 
ATOM     39  C   UNL A   1      35.275  33.197  31.279  1.00  0.00     0.010 A 
ATOM     40  C   UNL A   1      36.555  33.226  30.698  1.00  0.00    -0.014 A 
BRANCH  40  41
ATOM     41  C   UNL A   1      37.635  32.360  31.234  1.00  0.00     0.031 A 
ATOM     42  C   UNL A   1      38.128  32.624  32.631  1.00  0.00     0.074 A 
ATOM     43  C   UNL A   1      38.151  31.348  30.515  1.00  0.00     0.049 A 
ATOM     44  N   UNL A   1      39.091  32.046  33.300  1.00  0.00    -0.248 NA
ATOM     45  C   UNL A   1      37.437  33.692  33.371  1.00  0.00     0.031 C 
ATOM     46  C   UNL A   1      37.724  30.959  29.174  1.00  0.00     0.029 A 
ATOM     47  N   UNL A   1      39.159  30.465  30.819  1.00  0.00    -0.354 N 
ATOM     48  C   UNL A   1      39.128  32.686  34.533  1.00  0.00     0.074 A 
ATOM     49  C   UNL A   1      38.114  33.715  34.509  1.00  0.00     0.031 C 
ATOM     50  C   UNL A   1      38.474  29.921  28.763  1.00  0.00     0.029 A 
ATOM     51  C   UNL A   1      39.457  29.599  29.797  1.00  0.00     0.049 A 
ATOM     52  H   UNL A   1      39.622  30.455  31.687  1.00  0.00     0.167 HD
ATOM     53  C   UNL A   1      39.931  32.430  35.593  1.00  0.00     0.037 A 
ATOM     54  C   UNL A   1      40.431  28.671  29.703  1.00  0.00     0.037 A 
ATOM     55  C   UNL A   1      40.941  31.405  35.612  1.00  0.00     0.049 A 
ATOM     56  C   UNL A   1      41.371  28.464  30.865  1.00  0.00     0.074 A 
ATOM     57  C   UNL A   1      41.796  31.055  36.641  1.00  0.00     0.029 A 
ATOM     58  N   UNL A   1      41.241  30.572  34.543  1.00  0.00    -0.354 N 
ATOM     59  N   UNL A   1      41.385  29.054  32.036  1.00  0.00    -0.248 NA
ATOM     60  C   UNL A   1      42.429  27.459  30.692  1.00  0.00     0.031 C 
ATOM     61  C   UNL A   1      42.657  30.058  36.174  1.00  0.00     0.029 A 
ATOM     62  C   UNL A   1      42.290  29.733  34.878  1.00  0.00     0.049 A 
ATOM     63  H   UNL A   1      40.776  30.578  33.675  1.00  0.00     0.167 HD
ATOM     64  C   UNL A   1      42.425  28.467  32.750  1.00  0.00     0.074 A 
ATOM     65  C   UNL A   1      43.010  27.467  31.882  1.00  0.00     0.031 C 
ATOM     66  C   UNL A   1      42.855  28.732  34.008  1.00  0.00     0.037 A 
BRANCH  53  67
ATOM     67  C   UNL A   1      39.774  33.298  36.809  1.00  0.00     0.064 A 
ATOM     68  C   UNL A   1      38.843  33.002  37.817  1.00  0.00     0.173 A 
ATOM     69  C   UNL A   1      40.587  34.428  36.980  1.00  0.00     0.173 A 
ATOM     70  F   UNL A   1      38.029  31.942  37.695  1.00  0.00    -0.203 F 
ATOM     71  C   UNL A   1      38.714  33.821  38.935  1.00  0.00     0.198 A 
ATOM     72  C   UNL A   1      40.480  35.225  38.116  1.00  0.00     0.198 A 
ATOM     73  F   UNL A   1      41.495  34.756  36.048  1.00  0.00    -0.203 F 
ATOM     74  F   UNL A   1      37.782  33.549  39.859  1.00  0.00    -0.200 F 
ATOM     75  C   UNL A   1      39.537  34.926  39.089  1.00  0.00     0.200 A 
ATOM     76  F   UNL A   1      41.287  36.284  38.268  1.00  0.00    -0.200 F 
ATOM     77  F   UNL A   1      39.418  35.708  40.170  1.00  0.00    -0.200 F 
ENDBRANCH  53  67
BRANCH  54  78
ATOM     78  C   UNL A   1      40.585  27.873  28.456  1.00  0.00     0.064 A 
ATOM     79  C   UNL A   1      39.977  26.616  28.319  1.00  0.00     0.173 A 
ATOM     80  C   UNL A   1      41.371  28.333  27.388  1.00  0.00     0.173 A 
ATOM     81  F   UNL A   1      39.239  26.117  29.322  1.00  0.00    -0.203 F 
ATOM     82  C   UNL A   1      40.169  25.843  27.175  1.00  0.00     0.198 A 
ATOM     83  C   UNL A   1      41.534  27.575  26.231  1.00  0.00     0.198 A 
ATOM     84  F   UNL A   1      41.980  29.526  27.468  1.00  0.00    -0.203 F 
ATOM     85  F   UNL A   1      39.622  24.622  27.095  1.00  0.00    -0.200 F 
ATOM     86  C   UNL A   1      40.941  26.326  26.129  1.00  0.00     0.200 A 
ATOM     87  F   UNL A   1      42.272  28.051  25.219  1.00  0.00    -0.200 F 
ATOM     88  F   UNL A   1      41.124  25.583  25.029  1.00  0.00    -0.200 F 
ENDBRANCH  54  78
BRANCH  66  89
ATOM     89  C   UNL A   1      43.982  27.895  34.549  1.00  0.00     0.064 A 
ATOM     90  C   UNL A   1      45.322  28.295  34.444  1.00  0.00     0.173 A 
ATOM     91  C   UNL A   1      43.710  26.694  35.225  1.00  0.00     0.173 A 
ATOM     92  F   UNL A   1      45.640  29.428  33.800  1.00  0.00    -0.203 F 
ATOM     93  C   UNL A   1      46.348  27.511  34.968  1.00  0.00     0.198 A 
ATOM     94  C   UNL A   1      44.734  25.932  35.779  1.00  0.00     0.198 A 
ATOM     95  F   UNL A   1      42.444  26.268  35.363  1.00  0.00    -0.203 F 
ATOM     96  F   UNL A   1      47.624  27.887  34.807  1.00  0.00    -0.200 F 
ATOM     97  C   UNL A   1      46.053  26.335  35.641  1.00  0.00     0.200 A 
ATOM     98  F   UNL A   1      44.444  24.806  36.446  1.00  0.00    -0.200 F 
ATOM     99  F   UNL A   1      47.040  25.588  36.153  1.00  0.00    -0.200 F 
ENDBRANCH  66  89
ENDBRANCH  40  41
ENDBRANCH  33  35
ENDBRANCH  32  33
ENDBRANCH  31  32
ENDBRANCH  30  31
ENDBRANCH  29  30
ENDBRANCH  28  29
ENDBRANCH  27  28
ENDBRANCH  26  27
ENDBRANCH   1  26
TORSDOF 24
ENDMDL
MODEL 3
REMARK VINA RESULT:     -10.0      3.503      9.119
REMARK SMILES C[C@@H](C(=O)OCCOCCOCCOCCOC(=O)c1ccc(-c2c3nc(c(-c4c(F)c(F)c(F)c(F)c4F)c4ccc([nH]4)c(-c4c(F)c(F)c(F)c(F)c4F)c4nc(c(-c5c(F)c(F)c(F)c(F)c5F)c5ccc2[nH]5)C=C4)C=C3)cc1)c1ccc(C[C@H]2CCC[C@@H]2O)cc1F
REMARK SMILES IDX 10 1 9 2 8 3 7 4 6 5 5 6 3 7 4 8 2 9 1 10 83 11 84 12 95 13
REMARK SMILES IDX 85 14 94 15 96 16 86 17 87 18 88 19 89 20 92 21 90 22 91 23
REMARK SMILES IDX 93 24 11 26 12 27 13 28 14 29 15 30 16 31 17 32 18 33 19 34
REMARK SMILES IDX 20 35 21 36 82 37 22 38 81 39 23 40 24 41 25 42 75 43 26 44
REMARK SMILES IDX 80 45 74 46 76 47 27 48 79 49 73 50 72 51 28 53 60 54 40 55
REMARK SMILES IDX 59 56 41 57 44 58 58 59 77 60 42 61 43 62 57 64 78 65 45 66
REMARK SMILES IDX 29 67 30 68 38 69 31 70 32 71 36 72 39 73 33 74 34 75 37 76
REMARK SMILES IDX 35 77 61 78 62 79 70 80 63 81 64 82 68 83 71 84 65 85 66 86
REMARK SMILES IDX 69 87 67 88 46 89 47 90 55 91 48 92 49 93 53 94 56 95 50 96
REMARK SMILES IDX 51 97 54 98 52 99
REMARK H PARENT 93 25 76 52 44 63
REMARK Flexibility Score: inf
ROOT
ATOM      1  C   UNL A   1      39.792  22.426  26.377  1.00  0.00     0.188 C 
ENDROOT
BRANCH   1   2
ATOM      2  C   UNL A   1      38.725  21.400  25.957  1.00  0.00     0.188 C 
BRANCH   2   3
ATOM      3  O   UNL A   1      37.990  21.589  24.761  1.00  0.00    -0.376 OA
BRANCH   3   4
ATOM      4  C   UNL A   1      36.687  22.152  24.783  1.00  0.00     0.202 C 
BRANCH   4   5
ATOM      5  C   UNL A   1      36.036  22.860  23.577  1.00  0.00     0.261 C 
BRANCH   5   6
ATOM      6  O   UNL A   1      34.648  22.594  23.315  1.00  0.00    -0.463 OA
BRANCH   6   7
ATOM      7  C   UNL A   1      33.758  23.315  24.041  1.00  0.00     0.313 C 
ATOM      8  O   UNL A   1      34.096  24.061  24.955  1.00  0.00    -0.252 OA
BRANCH   7   9
ATOM      9  C   UNL A   1      32.289  23.151  23.583  1.00  0.00     0.129 C 
ATOM     10  C   UNL A   1      32.033  22.208  22.395  1.00  0.00     0.025 C 
BRANCH   9  11
ATOM     11  C   UNL A   1      31.606  24.518  23.514  1.00  0.00     0.002 A 
ATOM     12  C   UNL A   1      31.887  25.515  22.566  1.00  0.00     0.008 A 
ATOM     13  C   UNL A   1      30.703  24.847  24.534  1.00  0.00     0.127 A 
ATOM     14  C   UNL A   1      31.325  26.797  22.679  1.00  0.00     0.004 A 
ATOM     15  C   UNL A   1      30.164  26.124  24.666  1.00  0.00     0.043 A 
ATOM     16  F   UNL A   1      30.349  23.917  25.432  1.00  0.00    -0.207 F 
ATOM     17  C   UNL A   1      30.488  27.128  23.751  1.00  0.00    -0.045 A 
BRANCH  17  18
ATOM     18  C   UNL A   1      29.916  28.516  23.918  1.00  0.00     0.041 C 
BRANCH  18  19
ATOM     19  C   UNL A   1      29.130  29.107  22.735  1.00  0.00     0.022 C 
ATOM     20  C   UNL A   1      27.681  29.532  23.015  1.00  0.00     0.007 C 
ATOM     21  C   UNL A   1      29.759  30.327  22.061  1.00  0.00     0.117 C 
ATOM     22  C   UNL A   1      27.419  30.752  22.120  1.00  0.00     0.003 C 
ATOM     23  C   UNL A   1      28.622  30.850  21.194  1.00  0.00     0.032 C 
BRANCH  21  24
ATOM     24  O   UNL A   1      30.898  29.983  21.294  1.00  0.00    -0.393 OA
ATOM     25  H   UNL A   1      30.788  29.089  20.936  1.00  0.00     0.210 HD
ENDBRANCH  21  24
ENDBRANCH  18  19
ENDBRANCH  17  18
ENDBRANCH   9  11
ENDBRANCH   7   9
ENDBRANCH   6   7
ENDBRANCH   5   6
ENDBRANCH   4   5
ENDBRANCH   3   4
ENDBRANCH   2   3
ENDBRANCH   1   2
BRANCH   1  26
ATOM     26  O   UNL A   1      40.629  22.015  27.438  1.00  0.00    -0.377 OA
BRANCH  26  27
ATOM     27  C   UNL A   1      41.424  20.860  27.221  1.00  0.00     0.188 C 
BRANCH  27  28
ATOM     28  C   UNL A   1      42.885  21.045  26.762  1.00  0.00     0.188 C 
BRANCH  28  29
ATOM     29  O   UNL A   1      43.070  20.949  25.356  1.00  0.00    -0.376 OA
BRANCH  29  30
ATOM     30  C   UNL A   1      44.380  21.089  24.828  1.00  0.00     0.202 C 
BRANCH  30  31
ATOM     31  C   UNL A   1      44.706  22.394  24.082  1.00  0.00     0.261 C 
BRANCH  31  32
ATOM     32  O   UNL A   1      44.077  23.587  24.574  1.00  0.00    -0.460 OA
BRANCH  32  33
ATOM     33  C   UNL A   1      44.870  24.619  24.928  1.00  0.00     0.338 C 
ATOM     34  O   UNL A   1      45.971  24.892  24.478  1.00  0.00    -0.246 OA
BRANCH  33  35
ATOM     35  C   UNL A   1      44.094  25.499  25.828  1.00  0.00     0.060 A 
ATOM     36  C   UNL A   1      44.473  26.842  25.951  1.00  0.00     0.016 A 
ATOM     37  C   UNL A   1      42.996  25.007  26.538  1.00  0.00     0.016 A 
ATOM     38  C   UNL A   1      43.779  27.688  26.816  1.00  0.00     0.010 A 
ATOM     39  C   UNL A   1      42.317  25.850  27.422  1.00  0.00     0.010 A 
ATOM     40  C   UNL A   1      42.729  27.184  27.592  1.00  0.00    -0.014 A 
BRANCH  40  41
ATOM     41  C   UNL A   1      42.205  27.984  28.727  1.00  0.00     0.031 A 
ATOM     42  C   UNL A   1      42.997  28.006  30.005  1.00  0.00     0.074 A 
ATOM     43  C   UNL A   1      41.069  28.696  28.624  1.00  0.00     0.049 A 
ATOM     44  N   UNL A   1      42.725  28.582  31.148  1.00  0.00    -0.248 NA
ATOM     45  C   UNL A   1      44.274  27.273  29.990  1.00  0.00     0.031 C 
ATOM     46  C   UNL A   1      40.240  28.797  27.426  1.00  0.00     0.029 A 
ATOM     47  N   UNL A   1      40.414  29.465  29.555  1.00  0.00    -0.354 N 
ATOM     48  C   UNL A   1      43.788  28.273  31.987  1.00  0.00     0.074 A 
ATOM     49  C   UNL A   1      44.693  27.433  31.236  1.00  0.00     0.031 C 
ATOM     50  C   UNL A   1      39.177  29.574  27.697  1.00  0.00     0.029 A 
ATOM     51  C   UNL A   1      39.233  29.994  29.098  1.00  0.00     0.049 A 
ATOM     52  H   UNL A   1      40.759  29.622  30.463  1.00  0.00     0.167 HD
ATOM     53  C   UNL A   1      43.994  28.662  33.267  1.00  0.00     0.037 A 
ATOM     54  C   UNL A   1      38.295  30.712  29.747  1.00  0.00     0.037 A 
ATOM     55  C   UNL A   1      43.088  29.495  34.013  1.00  0.00     0.049 A 
ATOM     56  C   UNL A   1      38.504  31.059  31.201  1.00  0.00     0.074 A 
ATOM     57  C   UNL A   1      43.212  29.959  35.311  1.00  0.00     0.029 A 
ATOM     58  N   UNL A   1      41.881  29.980  33.529  1.00  0.00    -0.354 N 
ATOM     59  N   UNL A   1      39.522  30.786  31.982  1.00  0.00    -0.248 NA
ATOM     60  C   UNL A   1      37.434  31.820  31.863  1.00  0.00     0.031 C 
ATOM     61  C   UNL A   1      42.051  30.668  35.634  1.00  0.00     0.029 A 
ATOM     62  C   UNL A   1      41.237  30.710  34.514  1.00  0.00     0.049 A 
ATOM     63  H   UNL A   1      41.536  29.827  32.620  1.00  0.00     0.167 HD
ATOM     64  C   UNL A   1      39.232  31.369  33.211  1.00  0.00     0.074 A 
ATOM     65  C   UNL A   1      37.948  32.022  33.067  1.00  0.00     0.031 C 
ATOM     66  C   UNL A   1      39.963  31.366  34.353  1.00  0.00     0.037 A 
BRANCH  53  67
ATOM     67  C   UNL A   1      45.230  28.158  33.957  1.00  0.00     0.064 A 
ATOM     68  C   UNL A   1      46.435  28.878  33.939  1.00  0.00     0.173 A 
ATOM     69  C   UNL A   1      45.199  26.950  34.669  1.00  0.00     0.173 A 
ATOM     70  F   UNL A   1      46.523  30.031  33.259  1.00  0.00    -0.203 F 
ATOM     71  C   UNL A   1      47.569  28.392  34.585  1.00  0.00     0.198 A 
ATOM     72  C   UNL A   1      46.325  26.484  35.343  1.00  0.00     0.198 A 
ATOM     73  F   UNL A   1      44.073  26.223  34.720  1.00  0.00    -0.203 F 
ATOM     74  F   UNL A   1      48.723  29.069  34.509  1.00  0.00    -0.200 F 
ATOM     75  C   UNL A   1      47.511  27.201  35.292  1.00  0.00     0.200 A 
ATOM     76  F   UNL A   1      46.262  25.341  36.038  1.00  0.00    -0.200 F 
ATOM     77  F   UNL A   1      48.601  26.739  35.921  1.00  0.00    -0.200 F 
ENDBRANCH  53  67
BRANCH  54  78
ATOM     78  C   UNL A   1      37.058  31.141  29.039  1.00  0.00     0.064 A 
ATOM     79  C   UNL A   1      36.872  32.475  28.648  1.00  0.00     0.173 A 
ATOM     80  C   UNL A   1      36.020  30.235  28.771  1.00  0.00     0.173 A 
ATOM     81  F   UNL A   1      37.820  33.387  28.907  1.00  0.00    -0.203 F 
ATOM     82  C   UNL A   1      35.689  32.889  28.036  1.00  0.00     0.198 A 
ATOM     83  C   UNL A   1      34.853  30.643  28.129  1.00  0.00     0.198 A 
ATOM     84  F   UNL A   1      36.143  28.948  29.129  1.00  0.00    -0.203 F 
ATOM     85  F   UNL A   1      35.516  34.181  27.724  1.00  0.00    -0.200 F 
ATOM     86  C   UNL A   1      34.684  31.972  27.772  1.00  0.00     0.200 A 
ATOM     87  F   UNL A   1      33.889  29.750  27.865  1.00  0.00    -0.200 F 
ATOM     88  F   UNL A   1      33.547  32.370  27.183  1.00  0.00    -0.200 F 
ENDBRANCH  54  78
BRANCH  66  89
ATOM     89  C   UNL A   1      39.421  32.132  35.528  1.00  0.00     0.064 A 
ATOM     90  C   UNL A   1      39.729  33.483  35.741  1.00  0.00     0.173 A 
ATOM     91  C   UNL A   1      38.539  31.514  36.430  1.00  0.00     0.173 A 
ATOM     92  F   UNL A   1      40.574  34.121  34.917  1.00  0.00    -0.203 F 
ATOM     93  C   UNL A   1      39.201  34.177  36.828  1.00  0.00     0.198 A 
ATOM     94  C   UNL A   1      37.985  32.220  37.494  1.00  0.00     0.198 A 
ATOM     95  F   UNL A   1      38.201  30.225  36.269  1.00  0.00    -0.203 F 
ATOM     96  F   UNL A   1      39.554  35.453  37.040  1.00  0.00    -0.200 F 
ATOM     97  C   UNL A   1      38.324  33.548  37.697  1.00  0.00     0.200 A 
ATOM     98  F   UNL A   1      37.121  31.614  38.321  1.00  0.00    -0.200 F 
ATOM     99  F   UNL A   1      37.809  34.221  38.736  1.00  0.00    -0.200 F 
ENDBRANCH  66  89
ENDBRANCH  40  41
ENDBRANCH  33  35
ENDBRANCH  32  33
ENDBRANCH  31  32
ENDBRANCH  30  31
ENDBRANCH  29  30
ENDBRANCH  28  29
ENDBRANCH  27  28
ENDBRANCH  26  27
ENDBRANCH   1  26
TORSDOF 24
ENDMDL
