MODEL 1
REMARK VINA RESULT:     -10.3      0.000      0.000
REMARK SMILES CC(C)CCc1cc2c(cc1Cl)C=C(C(=O)OCCOCCOCCOCCOC(=O)c1ccc(-c3c4nc(c(-c5c(F)c(F)c(F)c(F)c5F)c5ccc([nH]5)c(-c5c(F)c(F)c(F)c(F)c5F)c5nc(c(-c6c(F)c(F)c(F)c(F)c6F)c6ccc3[nH]6)C=C5)C=C4)cc1)[C@@H](C(F)(F)F)O2
REMARK SMILES IDX 22 1 21 2 20 3 19 4 18 5 17 6 15 7 16 8 14 9 6 10 7 11 11 12
REMARK SMILES IDX 8 13 10 14 12 15 9 16 100 17 13 18 95 19 5 20 4 21 2 22 1 23
REMARK SMILES IDX 3 24 96 25 97 26 98 27 99 28 23 29 24 30 25 31 26 32 27 33
REMARK SMILES IDX 28 34 29 35 30 36 31 37 32 38 33 39 94 40 34 41 93 42 35 43
REMARK SMILES IDX 36 44 37 45 87 46 38 47 92 48 86 49 88 50 39 51 91 52 85 53
REMARK SMILES IDX 84 54 40 56 72 57 52 58 71 59 53 60 56 61 70 62 89 63 54 64
REMARK SMILES IDX 55 65 69 67 90 68 57 69 41 70 42 71 50 72 43 73 44 74 48 75
REMARK SMILES IDX 51 76 45 77 46 78 49 79 47 80 73 81 74 82 82 83 75 84 76 85
REMARK SMILES IDX 80 86 83 87 77 88 78 89 81 90 79 91 58 92 59 93 67 94 60 95
REMARK SMILES IDX 61 96 65 97 68 98 62 99 63 100 66 101 64 102
REMARK H PARENT 88 55 56 66
REMARK Flexibility Score: inf
ROOT
ATOM      1  C   UNL A   1      31.559  22.575  25.372  1.00  0.00     0.188 C 
ENDROOT
BRANCH   1   2
ATOM      2  C   UNL A   1      32.381  22.440  26.666  1.00  0.00     0.188 C 
BRANCH   2   3
ATOM      3  O   UNL A   1      33.186  21.263  26.709  1.00  0.00    -0.376 OA
BRANCH   3   4
ATOM      4  C   UNL A   1      33.037  20.353  25.625  1.00  0.00     0.202 C 
BRANCH   4   5
ATOM      5  C   UNL A   1      34.349  19.874  24.988  1.00  0.00     0.261 C 
BRANCH   5   6
ATOM      6  O   UNL A   1      35.532  20.446  25.570  1.00  0.00    -0.460 OA
BRANCH   6   7
ATOM      7  C   UNL A   1      36.291  21.210  24.761  1.00  0.00     0.338 C 
ATOM      8  O   UNL A   1      37.269  20.854  24.128  1.00  0.00    -0.246 OA
BRANCH   7   9
ATOM      9  C   UNL A   1      35.648  22.534  24.633  1.00  0.00     0.087 C 
ATOM     10  C   UNL A   1      33.359  26.641  22.851  1.00  0.00    -0.026 A 
ATOM     11  C   UNL A   1      34.053  26.330  24.040  1.00  0.00     0.052 A 
ATOM     12  C   UNL A   1      33.061  25.587  21.973  1.00  0.00     0.045 A 
ATOM     13  C   UNL A   1      34.504  25.033  24.301  1.00  0.00     0.128 A 
ATOM     14  C   UNL A   1      33.482  24.282  22.255  1.00  0.00     0.032 A 
ATOM     15  Cl  UNL A   1      32.264  25.818  20.459  1.00  0.00    -0.084 Cl
ATOM     16  C   UNL A   1      34.245  24.013  23.392  1.00  0.00     0.019 A 
ATOM     17  O   UNL A   1      35.221  24.859  25.451  1.00  0.00    -0.475 OA
ATOM     18  C   UNL A   1      34.848  22.706  23.574  1.00  0.00     0.027 C 
ATOM     19  C   UNL A   1      35.880  23.582  25.690  1.00  0.00     0.316 C 
BRANCH  10  20
ATOM     20  C   UNL A   1      33.102  28.103  22.538  1.00  0.00     0.037 C 
BRANCH  20  21
ATOM     21  C   UNL A   1      31.869  28.775  23.154  1.00  0.00     0.008 C 
BRANCH  21  22
ATOM     22  C   UNL A   1      30.522  28.403  22.513  1.00  0.00    -0.017 C 
ATOM     23  C   UNL A   1      29.740  27.413  23.376  1.00  0.00     0.007 C 
ATOM     24  C   UNL A   1      29.693  29.673  22.298  1.00  0.00     0.007 C 
ENDBRANCH  21  22
ENDBRANCH  20  21
ENDBRANCH  10  20
BRANCH  19  25
ATOM     25  C   UNL A   1      37.375  23.845  25.927  1.00  0.00     0.430 C 
ATOM     26  F   UNL A   1      38.042  23.991  24.757  1.00  0.00    -0.167 F 
ATOM     27  F   UNL A   1      37.587  24.980  26.634  1.00  0.00    -0.167 F 
ATOM     28  F   UNL A   1      37.963  22.834  26.607  1.00  0.00    -0.167 F 
ENDBRANCH  19  25
ENDBRANCH   7   9
ENDBRANCH   6   7
ENDBRANCH   5   6
ENDBRANCH   4   5
ENDBRANCH   3   4
ENDBRANCH   2   3
ENDBRANCH   1   2
BRANCH   1  29
ATOM     29  O   UNL A   1      31.150  23.899  25.080  1.00  0.00    -0.377 OA
BRANCH  29  30
ATOM     30  C   UNL A   1      30.876  24.778  26.171  1.00  0.00     0.188 C 
BRANCH  30  31
ATOM     31  C   UNL A   1      31.748  26.015  26.490  1.00  0.00     0.188 C 
BRANCH  31  32
ATOM     32  O   UNL A   1      31.005  27.191  26.795  1.00  0.00    -0.376 OA
BRANCH  32  33
ATOM     33  C   UNL A   1      31.689  28.203  27.522  1.00  0.00     0.202 C 
BRANCH  33  34
ATOM     34  C   UNL A   1      31.680  29.561  26.816  1.00  0.00     0.261 C 
BRANCH  34  35
ATOM     35  O   UNL A   1      32.977  30.080  26.487  1.00  0.00    -0.460 OA
BRANCH  35  36
ATOM     36  C   UNL A   1      33.375  31.219  27.094  1.00  0.00     0.338 C 
ATOM     37  O   UNL A   1      32.751  32.257  27.213  1.00  0.00    -0.246 OA
BRANCH  36  38
ATOM     38  C   UNL A   1      34.652  30.915  27.772  1.00  0.00     0.060 A 
ATOM     39  C   UNL A   1      35.569  31.939  28.022  1.00  0.00     0.016 A 
ATOM     40  C   UNL A   1      34.961  29.588  28.094  1.00  0.00     0.016 A 
ATOM     41  C   UNL A   1      36.796  31.637  28.608  1.00  0.00     0.010 A 
ATOM     42  C   UNL A   1      36.197  29.285  28.673  1.00  0.00     0.010 A 
ATOM     43  C   UNL A   1      37.114  30.311  28.947  1.00  0.00    -0.014 A 
BRANCH  43  44
ATOM     44  C   UNL A   1      38.337  30.042  29.736  1.00  0.00     0.031 A 
ATOM     45  C   UNL A   1      38.538  30.605  31.108  1.00  0.00     0.074 A 
ATOM     46  C   UNL A   1      39.265  29.237  29.187  1.00  0.00     0.049 A 
ATOM     47  N   UNL A   1      39.510  30.370  31.954  1.00  0.00    -0.248 NA
ATOM     48  C   UNL A   1      37.525  31.550  31.596  1.00  0.00     0.031 C 
ATOM     49  C   UNL A   1      39.172  28.643  27.854  1.00  0.00     0.029 A 
ATOM     50  N   UNL A   1      40.455  28.769  29.682  1.00  0.00    -0.354 N 
ATOM     51  C   UNL A   1      39.216  31.116  33.086  1.00  0.00     0.074 A 
ATOM     52  C   UNL A   1      37.996  31.847  32.801  1.00  0.00     0.031 C 
ATOM     53  C   UNL A   1      40.248  27.872  27.643  1.00  0.00     0.029 A 
ATOM     54  C   UNL A   1      41.112  27.931  28.818  1.00  0.00     0.049 A 
ATOM     55  H   UNL A   1      40.803  29.010  30.571  1.00  0.00     0.167 HD
ATOM     56  C   UNL A   1      39.896  31.165  34.258  1.00  0.00     0.037 A 
ATOM     57  C   UNL A   1      42.280  27.277  28.957  1.00  0.00     0.037 A 
ATOM     58  C   UNL A   1      41.119  30.447  34.524  1.00  0.00     0.049 A 
ATOM     59  C   UNL A   1      43.039  27.395  30.247  1.00  0.00     0.074 A 
ATOM     60  C   UNL A   1      41.861  30.411  35.693  1.00  0.00     0.029 A 
ATOM     61  N   UNL A   1      41.788  29.649  33.606  1.00  0.00    -0.354 N 
ATOM     62  N   UNL A   1      42.718  28.051  31.336  1.00  0.00    -0.248 NA
ATOM     63  C   UNL A   1      44.316  26.675  30.332  1.00  0.00     0.031 C 
ATOM     64  C   UNL A   1      43.002  29.635  35.468  1.00  0.00     0.029 A 
ATOM     65  C   UNL A   1      42.948  29.142  34.174  1.00  0.00     0.049 A 
ATOM     66  H   UNL A   1      41.483  29.468  32.688  1.00  0.00     0.167 HD
ATOM     67  C   UNL A   1      43.742  27.809  32.240  1.00  0.00     0.074 A 
ATOM     68  C   UNL A   1      44.685  26.930  31.579  1.00  0.00     0.031 C 
ATOM     69  C   UNL A   1      43.887  28.277  33.504  1.00  0.00     0.037 A 
BRANCH  56  70
ATOM     70  C   UNL A   1      39.335  32.016  35.361  1.00  0.00     0.064 A 
ATOM     71  C   UNL A   1      38.512  31.468  36.356  1.00  0.00     0.173 A 
ATOM     72  C   UNL A   1      39.704  33.364  35.483  1.00  0.00     0.173 A 
ATOM     73  F   UNL A   1      38.130  30.183  36.283  1.00  0.00    -0.203 F 
ATOM     74  C   UNL A   1      38.071  32.240  37.428  1.00  0.00     0.198 A 
ATOM     75  C   UNL A   1      39.279  34.127  36.569  1.00  0.00     0.198 A 
ATOM     76  F   UNL A   1      40.499  33.934  34.566  1.00  0.00    -0.203 F 
ATOM     77  F   UNL A   1      37.269  31.699  38.356  1.00  0.00    -0.200 F 
ATOM     78  C   UNL A   1      38.463  33.565  37.538  1.00  0.00     0.200 A 
ATOM     79  F   UNL A   1      39.673  35.403  36.684  1.00  0.00    -0.200 F 
ATOM     80  F   UNL A   1      38.055  34.301  38.581  1.00  0.00    -0.200 F 
ENDBRANCH  56  70
BRANCH  57  81
ATOM     81  C   UNL A   1      42.772  26.422  27.849  1.00  0.00     0.064 A 
ATOM     82  C   UNL A   1      42.398  25.075  27.763  1.00  0.00     0.173 A 
ATOM     83  C   UNL A   1      43.590  26.942  26.836  1.00  0.00     0.173 A 
ATOM     84  F   UNL A   1      41.629  24.531  28.717  1.00  0.00    -0.203 F 
ATOM     85  C   UNL A   1      42.832  24.275  26.708  1.00  0.00     0.198 A 
ATOM     86  C   UNL A   1      44.003  26.150  25.768  1.00  0.00     0.198 A 
ATOM     87  F   UNL A   1      43.967  28.229  26.872  1.00  0.00    -0.203 F 
ATOM     88  F   UNL A   1      42.486  22.983  26.664  1.00  0.00    -0.200 F 
ATOM     89  C   UNL A   1      43.627  24.816  25.708  1.00  0.00     0.200 A 
ATOM     90  F   UNL A   1      44.756  26.679  24.796  1.00  0.00    -0.200 F 
ATOM     91  F   UNL A   1      44.033  24.050  24.686  1.00  0.00    -0.200 F 
ENDBRANCH  57  81
BRANCH  69  92
ATOM     92  C   UNL A   1      45.109  27.846  34.261  1.00  0.00     0.064 A 
ATOM     93  C   UNL A   1      45.096  26.712  35.088  1.00  0.00     0.173 A 
ATOM     94  C   UNL A   1      46.319  28.545  34.124  1.00  0.00     0.173 A 
ATOM     95  F   UNL A   1      43.962  26.019  35.265  1.00  0.00    -0.203 F 
ATOM     96  C   UNL A   1      46.243  26.308  35.767  1.00  0.00     0.198 A 
ATOM     97  C   UNL A   1      47.470  28.120  34.781  1.00  0.00     0.198 A 
ATOM     98  F   UNL A   1      46.386  29.632  33.341  1.00  0.00    -0.203 F 
ATOM     99  F   UNL A   1      46.195  25.248  36.586  1.00  0.00    -0.200 F 
ATOM    100  C   UNL A   1      47.431  27.007  35.606  1.00  0.00     0.200 A 
ATOM    101  F   UNL A   1      48.620  28.789  34.615  1.00  0.00    -0.200 F 
ATOM    102  F   UNL A   1      48.535  26.610  36.253  1.00  0.00    -0.200 F 
ENDBRANCH  69  92
ENDBRANCH  43  44
ENDBRANCH  36  38
ENDBRANCH  35  36
ENDBRANCH  34  35
ENDBRANCH  33  34
ENDBRANCH  32  33
ENDBRANCH  31  32
ENDBRANCH  30  31
ENDBRANCH  29  30
ENDBRANCH   1  29
TORSDOF 24
ENDMDL
MODEL 2
REMARK VINA RESULT:     -10.1      2.770      7.281
REMARK SMILES CC(C)CCc1cc2c(cc1Cl)C=C(C(=O)OCCOCCOCCOCCOC(=O)c1ccc(-c3c4nc(c(-c5c(F)c(F)c(F)c(F)c5F)c5ccc([nH]5)c(-c5c(F)c(F)c(F)c(F)c5F)c5nc(c(-c6c(F)c(F)c(F)c(F)c6F)c6ccc3[nH]6)C=C5)C=C4)cc1)[C@@H](C(F)(F)F)O2
REMARK SMILES IDX 22 1 21 2 20 3 19 4 18 5 17 6 15 7 16 8 14 9 6 10 7 11 11 12
REMARK SMILES IDX 8 13 10 14 12 15 9 16 100 17 13 18 95 19 5 20 4 21 2 22 1 23
REMARK SMILES IDX 3 24 96 25 97 26 98 27 99 28 23 29 24 30 25 31 26 32 27 33
REMARK SMILES IDX 28 34 29 35 30 36 31 37 32 38 33 39 94 40 34 41 93 42 35 43
REMARK SMILES IDX 36 44 37 45 87 46 38 47 92 48 86 49 88 50 39 51 91 52 85 53
REMARK SMILES IDX 84 54 40 56 72 57 52 58 71 59 53 60 56 61 70 62 89 63 54 64
REMARK SMILES IDX 55 65 69 67 90 68 57 69 41 70 42 71 50 72 43 73 44 74 48 75
REMARK SMILES IDX 51 76 45 77 46 78 49 79 47 80 73 81 74 82 82 83 75 84 76 85
REMARK SMILES IDX 80 86 83 87 77 88 78 89 81 90 79 91 58 92 59 93 67 94 60 95
REMARK SMILES IDX 61 96 65 97 68 98 62 99 63 100 66 101 64 102
REMARK H PARENT 88 55 56 66
REMARK Flexibility Score: inf
ROOT
ATOM      1  C   UNL A   1      31.790  22.332  25.343  1.00  0.00     0.188 C 
ENDROOT
BRANCH   1   2
ATOM      2  C   UNL A   1      32.573  22.092  26.646  1.00  0.00     0.188 C 
BRANCH   2   3
ATOM      3  O   UNL A   1      33.287  20.857  26.661  1.00  0.00    -0.376 OA
BRANCH   3   4
ATOM      4  C   UNL A   1      33.172  20.043  25.499  1.00  0.00     0.202 C 
BRANCH   4   5
ATOM      5  C   UNL A   1      34.495  19.737  24.783  1.00  0.00     0.261 C 
BRANCH   5   6
ATOM      6  O   UNL A   1      35.654  20.308  25.411  1.00  0.00    -0.460 OA
BRANCH   6   7
ATOM      7  C   UNL A   1      36.393  21.147  24.660  1.00  0.00     0.338 C 
ATOM      8  O   UNL A   1      37.387  20.864  24.014  1.00  0.00    -0.246 OA
BRANCH   7   9
ATOM      9  C   UNL A   1      35.709  22.455  24.612  1.00  0.00     0.087 C 
ATOM     10  C   UNL A   1      33.312  26.601  23.078  1.00  0.00    -0.026 A 
ATOM     11  C   UNL A   1      33.998  26.231  24.254  1.00  0.00     0.052 A 
ATOM     12  C   UNL A   1      33.063  25.601  22.123  1.00  0.00     0.045 A 
ATOM     13  C   UNL A   1      34.488  24.933  24.434  1.00  0.00     0.128 A 
ATOM     14  C   UNL A   1      33.523  24.294  22.323  1.00  0.00     0.032 A 
ATOM     15  Cl  UNL A   1      32.282  25.912  20.616  1.00  0.00    -0.084 Cl
ATOM     16  C   UNL A   1      34.277  23.972  23.451  1.00  0.00     0.019 A 
ATOM     17  O   UNL A   1      35.193  24.703  25.581  1.00  0.00    -0.475 OA
ATOM     18  C   UNL A   1      34.919  22.675  23.554  1.00  0.00     0.027 C 
ATOM     19  C   UNL A   1      35.889  23.434  25.743  1.00  0.00     0.316 C 
BRANCH  10  20
ATOM     20  C   UNL A   1      33.012  28.072  22.861  1.00  0.00     0.037 C 
BRANCH  20  21
ATOM     21  C   UNL A   1      31.692  28.634  23.403  1.00  0.00     0.008 C 
BRANCH  21  22
ATOM     22  C   UNL A   1      30.452  28.370  22.532  1.00  0.00    -0.017 C 
ATOM     23  C   UNL A   1      29.359  27.638  23.311  1.00  0.00     0.007 C 
ATOM     24  C   UNL A   1      29.911  29.701  22.003  1.00  0.00     0.007 C 
ENDBRANCH  21  22
ENDBRANCH  20  21
ENDBRANCH  10  20
BRANCH  19  25
ATOM     25  C   UNL A   1      37.371  23.728  26.024  1.00  0.00     0.430 C 
ATOM     26  F   UNL A   1      38.025  24.091  24.894  1.00  0.00    -0.167 F 
ATOM     27  F   UNL A   1      37.531  24.745  26.904  1.00  0.00    -0.167 F 
ATOM     28  F   UNL A   1      38.010  22.651  26.535  1.00  0.00    -0.167 F 
ENDBRANCH  19  25
ENDBRANCH   7   9
ENDBRANCH   6   7
ENDBRANCH   5   6
ENDBRANCH   4   5
ENDBRANCH   3   4
ENDBRANCH   2   3
ENDBRANCH   1   2
BRANCH   1  29
ATOM     29  O   UNL A   1      31.119  23.579  25.291  1.00  0.00    -0.377 OA
BRANCH  29  30
ATOM     30  C   UNL A   1      31.339  24.510  26.351  1.00  0.00     0.188 C 
BRANCH  30  31
ATOM     31  C   UNL A   1      31.042  26.021  26.212  1.00  0.00     0.188 C 
BRANCH  31  32
ATOM     32  O   UNL A   1      31.867  26.855  27.020  1.00  0.00    -0.376 OA
BRANCH  32  33
ATOM     33  C   UNL A   1      31.379  28.163  27.286  1.00  0.00     0.202 C 
BRANCH  33  34
ATOM     34  C   UNL A   1      32.388  29.262  26.942  1.00  0.00     0.261 C 
BRANCH  34  35
ATOM     35  O   UNL A   1      33.591  29.246  27.726  1.00  0.00    -0.460 OA
BRANCH  35  36
ATOM     36  C   UNL A   1      34.239  30.417  27.913  1.00  0.00     0.338 C 
ATOM     37  O   UNL A   1      33.755  31.530  28.001  1.00  0.00    -0.246 OA
BRANCH  36  38
ATOM     38  C   UNL A   1      35.650  30.081  28.191  1.00  0.00     0.060 A 
ATOM     39  C   UNL A   1      36.597  30.144  27.165  1.00  0.00     0.016 A 
ATOM     40  C   UNL A   1      36.012  29.636  29.468  1.00  0.00     0.016 A 
ATOM     41  C   UNL A   1      37.914  29.769  27.421  1.00  0.00     0.010 A 
ATOM     42  C   UNL A   1      37.333  29.251  29.720  1.00  0.00     0.010 A 
ATOM     43  C   UNL A   1      38.293  29.331  28.701  1.00  0.00    -0.014 A 
BRANCH  43  44
ATOM     44  C   UNL A   1      39.728  29.120  28.995  1.00  0.00     0.031 A 
ATOM     45  C   UNL A   1      40.455  27.885  28.564  1.00  0.00     0.074 A 
ATOM     46  C   UNL A   1      40.380  30.101  29.645  1.00  0.00     0.049 A 
ATOM     47  N   UNL A   1      41.732  27.611  28.661  1.00  0.00    -0.248 NA
ATOM     48  C   UNL A   1      39.652  26.821  27.946  1.00  0.00     0.031 C 
ATOM     49  C   UNL A   1      39.764  31.341  30.118  1.00  0.00     0.029 A 
ATOM     50  N   UNL A   1      41.697  30.219  30.007  1.00  0.00    -0.354 N 
ATOM     51  C   UNL A   1      41.895  26.356  28.094  1.00  0.00     0.074 A 
ATOM     52  C   UNL A   1      40.577  25.901  27.695  1.00  0.00     0.031 C 
ATOM     53  C   UNL A   1      40.706  32.107  30.688  1.00  0.00     0.029 A 
ATOM     54  C   UNL A   1      41.985  31.404  30.637  1.00  0.00     0.049 A 
ATOM     55  H   UNL A   1      42.371  29.523  29.831  1.00  0.00     0.167 HD
ATOM     56  C   UNL A   1      43.046  25.661  27.910  1.00  0.00     0.037 A 
ATOM     57  C   UNL A   1      43.151  31.876  31.115  1.00  0.00     0.037 A 
ATOM     58  C   UNL A   1      44.350  26.116  28.328  1.00  0.00     0.049 A 
ATOM     59  C   UNL A   1      44.399  31.059  30.945  1.00  0.00     0.074 A 
ATOM     60  C   UNL A   1      45.575  25.494  28.155  1.00  0.00     0.029 A 
ATOM     61  N   UNL A   1      44.598  27.297  29.013  1.00  0.00    -0.354 N 
ATOM     62  N   UNL A   1      44.553  29.902  30.349  1.00  0.00    -0.248 NA
ATOM     63  C   UNL A   1      45.636  31.617  31.506  1.00  0.00     0.031 C 
ATOM     64  C   UNL A   1      46.556  26.271  28.778  1.00  0.00     0.029 A 
ATOM     65  C   UNL A   1      45.952  27.406  29.296  1.00  0.00     0.049 A 
ATOM     66  H   UNL A   1      43.914  27.960  29.260  1.00  0.00     0.167 HD
ATOM     67  C   UNL A   1      45.904  29.602  30.446  1.00  0.00     0.074 A 
ATOM     68  C   UNL A   1      46.529  30.708  31.142  1.00  0.00     0.031 C 
ATOM     69  C   UNL A   1      46.564  28.505  29.999  1.00  0.00     0.037 A 
BRANCH  56  70
ATOM     70  C   UNL A   1      42.962  24.333  27.214  1.00  0.00     0.064 A 
ATOM     71  C   UNL A   1      43.306  24.198  25.862  1.00  0.00     0.173 A 
ATOM     72  C   UNL A   1      42.632  23.171  27.928  1.00  0.00     0.173 A 
ATOM     73  F   UNL A   1      43.627  25.280  25.135  1.00  0.00    -0.203 F 
ATOM     74  C   UNL A   1      43.316  22.948  25.246  1.00  0.00     0.198 A 
ATOM     75  C   UNL A   1      42.665  21.921  27.314  1.00  0.00     0.198 A 
ATOM     76  F   UNL A   1      42.306  23.243  29.227  1.00  0.00    -0.203 F 
ATOM     77  F   UNL A   1      43.631  22.846  23.947  1.00  0.00    -0.200 F 
ATOM     78  C   UNL A   1      43.005  21.811  25.975  1.00  0.00     0.200 A 
ATOM     79  F   UNL A   1      42.382  20.820  28.025  1.00  0.00    -0.200 F 
ATOM     80  F   UNL A   1      43.036  20.607  25.387  1.00  0.00    -0.200 F 
ENDBRANCH  56  70
BRANCH  57  81
ATOM     81  C   UNL A   1      43.184  33.209  31.763  1.00  0.00     0.064 A 
ATOM     82  C   UNL A   1      43.079  33.334  33.154  1.00  0.00     0.173 A 
ATOM     83  C   UNL A   1      43.361  34.380  31.011  1.00  0.00     0.173 A 
ATOM     84  F   UNL A   1      42.895  32.242  33.911  1.00  0.00    -0.203 F 
ATOM     85  C   UNL A   1      43.140  34.581  33.771  1.00  0.00     0.198 A 
ATOM     86  C   UNL A   1      43.447  35.625  31.630  1.00  0.00     0.198 A 
ATOM     87  F   UNL A   1      43.473  34.311  29.676  1.00  0.00    -0.203 F 
ATOM     88  F   UNL A   1      43.007  34.676  35.100  1.00  0.00    -0.200 F 
ATOM     89  C   UNL A   1      43.333  35.724  33.008  1.00  0.00     0.200 A 
ATOM     90  F   UNL A   1      43.650  36.724  30.892  1.00  0.00    -0.200 F 
ATOM     91  F   UNL A   1      43.405  36.923  33.603  1.00  0.00    -0.200 F 
ENDBRANCH  57  81
BRANCH  69  92
ATOM     92  C   UNL A   1      48.043  28.446  30.246  1.00  0.00     0.064 A 
ATOM     93  C   UNL A   1      48.960  28.985  29.330  1.00  0.00     0.173 A 
ATOM     94  C   UNL A   1      48.550  27.886  31.429  1.00  0.00     0.173 A 
ATOM     95  F   UNL A   1      48.529  29.517  28.178  1.00  0.00    -0.203 F 
ATOM     96  C   UNL A   1      50.330  28.946  29.581  1.00  0.00     0.198 A 
ATOM     97  C   UNL A   1      49.917  27.876  31.690  1.00  0.00     0.198 A 
ATOM     98  F   UNL A   1      47.715  27.363  32.340  1.00  0.00    -0.203 F 
ATOM     99  F   UNL A   1      51.189  29.427  28.672  1.00  0.00    -0.200 F 
ATOM    100  C   UNL A   1      50.806  28.399  30.764  1.00  0.00     0.200 A 
ATOM    101  F   UNL A   1      50.375  27.358  32.839  1.00  0.00    -0.200 F 
ATOM    102  F   UNL A   1      52.123  28.371  31.007  1.00  0.00    -0.200 F 
ENDBRANCH  69  92
ENDBRANCH  43  44
ENDBRANCH  36  38
ENDBRANCH  35  36
ENDBRANCH  34  35
ENDBRANCH  33  34
ENDBRANCH  32  33
ENDBRANCH  31  32
ENDBRANCH  30  31
ENDBRANCH  29  30
ENDBRANCH   1  29
TORSDOF 24
ENDMDL
MODEL 3
REMARK VINA RESULT:     -10.1      2.524      3.445
REMARK SMILES CC(C)CCc1cc2c(cc1Cl)C=C(C(=O)OCCOCCOCCOCCOC(=O)c1ccc(-c3c4nc(c(-c5c(F)c(F)c(F)c(F)c5F)c5ccc([nH]5)c(-c5c(F)c(F)c(F)c(F)c5F)c5nc(c(-c6c(F)c(F)c(F)c(F)c6F)c6ccc3[nH]6)C=C5)C=C4)cc1)[C@@H](C(F)(F)F)O2
REMARK SMILES IDX 22 1 21 2 20 3 19 4 18 5 17 6 15 7 16 8 14 9 6 10 7 11 11 12
REMARK SMILES IDX 8 13 10 14 12 15 9 16 100 17 13 18 95 19 5 20 4 21 2 22 1 23
REMARK SMILES IDX 3 24 96 25 97 26 98 27 99 28 23 29 24 30 25 31 26 32 27 33
REMARK SMILES IDX 28 34 29 35 30 36 31 37 32 38 33 39 94 40 34 41 93 42 35 43
REMARK SMILES IDX 36 44 37 45 87 46 38 47 92 48 86 49 88 50 39 51 91 52 85 53
REMARK SMILES IDX 84 54 40 56 72 57 52 58 71 59 53 60 56 61 70 62 89 63 54 64
REMARK SMILES IDX 55 65 69 67 90 68 57 69 41 70 42 71 50 72 43 73 44 74 48 75
REMARK SMILES IDX 51 76 45 77 46 78 49 79 47 80 73 81 74 82 82 83 75 84 76 85
REMARK SMILES IDX 80 86 83 87 77 88 78 89 81 90 79 91 58 92 59 93 67 94 60 95
REMARK SMILES IDX 61 96 65 97 68 98 62 99 63 100 66 101 64 102
REMARK H PARENT 88 55 56 66
REMARK Flexibility Score: inf
ROOT
ATOM      1  C   UNL A   1      31.762  22.438  25.388  1.00  0.00     0.188 C 
ENDROOT
BRANCH   1   2
ATOM      2  C   UNL A   1      32.636  22.182  26.629  1.00  0.00     0.188 C 
BRANCH   2   3
ATOM      3  O   UNL A   1      33.234  20.886  26.645  1.00  0.00    -0.376 OA
BRANCH   3   4
ATOM      4  C   UNL A   1      33.132  20.125  25.447  1.00  0.00     0.202 C 
BRANCH   4   5
ATOM      5  C   UNL A   1      34.470  19.776  24.779  1.00  0.00     0.261 C 
BRANCH   5   6
ATOM      6  O   UNL A   1      35.620  20.350  25.422  1.00  0.00    -0.460 OA
BRANCH   6   7
ATOM      7  C   UNL A   1      36.368  21.189  24.680  1.00  0.00     0.338 C 
ATOM      8  O   UNL A   1      37.369  20.905  24.046  1.00  0.00    -0.246 OA
BRANCH   7   9
ATOM      9  C   UNL A   1      35.684  22.497  24.624  1.00  0.00     0.087 C 
ATOM     10  C   UNL A   1      33.266  26.622  23.066  1.00  0.00    -0.026 A 
ATOM     11  C   UNL A   1      33.972  26.269  24.236  1.00  0.00     0.052 A 
ATOM     12  C   UNL A   1      32.999  25.607  22.132  1.00  0.00     0.045 A 
ATOM     13  C   UNL A   1      34.463  24.973  24.427  1.00  0.00     0.128 A 
ATOM     14  C   UNL A   1      33.461  24.303  22.344  1.00  0.00     0.032 A 
ATOM     15  Cl  UNL A   1      32.193  25.896  20.633  1.00  0.00    -0.084 Cl
ATOM     16  C   UNL A   1      34.234  23.997  23.464  1.00  0.00     0.019 A 
ATOM     17  O   UNL A   1      35.187  24.760  25.566  1.00  0.00    -0.475 OA
ATOM     18  C   UNL A   1      34.877  22.701  23.575  1.00  0.00     0.027 C 
ATOM     19  C   UNL A   1      35.885  23.493  25.736  1.00  0.00     0.316 C 
BRANCH  10  20
ATOM     20  C   UNL A   1      32.964  28.089  22.832  1.00  0.00     0.037 C 
BRANCH  20  21
ATOM     21  C   UNL A   1      31.655  28.662  23.390  1.00  0.00     0.008 C 
BRANCH  21  22
ATOM     22  C   UNL A   1      30.411  28.449  22.511  1.00  0.00    -0.017 C 
ATOM     23  C   UNL A   1      29.258  27.833  23.303  1.00  0.00     0.007 C 
ATOM     24  C   UNL A   1      29.974  29.791  21.915  1.00  0.00     0.007 C 
ENDBRANCH  21  22
ENDBRANCH  20  21
ENDBRANCH  10  20
BRANCH  19  25
ATOM     25  C   UNL A   1      37.372  23.789  25.987  1.00  0.00     0.430 C 
ATOM     26  F   UNL A   1      37.531  24.885  26.766  1.00  0.00    -0.167 F 
ATOM     27  F   UNL A   1      37.995  22.770  26.624  1.00  0.00    -0.167 F 
ATOM     28  F   UNL A   1      38.043  24.010  24.833  1.00  0.00    -0.167 F 
ENDBRANCH  19  25
ENDBRANCH   7   9
ENDBRANCH   6   7
ENDBRANCH   5   6
ENDBRANCH   4   5
ENDBRANCH   3   4
ENDBRANCH   2   3
ENDBRANCH   1   2
BRANCH   1  29
ATOM     29  O   UNL A   1      31.031  23.650  25.435  1.00  0.00    -0.377 OA
BRANCH  29  30
ATOM     30  C   UNL A   1      31.371  24.608  26.438  1.00  0.00     0.188 C 
BRANCH  30  31
ATOM     31  C   UNL A   1      31.169  26.129  26.246  1.00  0.00     0.188 C 
BRANCH  31  32
ATOM     32  O   UNL A   1      32.088  26.936  26.975  1.00  0.00    -0.376 OA
BRANCH  32  33
ATOM     33  C   UNL A   1      31.683  28.272  27.247  1.00  0.00     0.202 C 
BRANCH  33  34
ATOM     34  C   UNL A   1      32.755  29.308  26.900  1.00  0.00     0.261 C 
BRANCH  34  35
ATOM     35  O   UNL A   1      33.961  29.211  27.672  1.00  0.00    -0.460 OA
BRANCH  35  36
ATOM     36  C   UNL A   1      34.621  30.355  27.961  1.00  0.00     0.338 C 
ATOM     37  O   UNL A   1      34.149  31.466  28.121  1.00  0.00    -0.246 OA
BRANCH  36  38
ATOM     38  C   UNL A   1      36.021  29.979  28.244  1.00  0.00     0.060 A 
ATOM     39  C   UNL A   1      36.997  30.134  27.256  1.00  0.00     0.016 A 
ATOM     40  C   UNL A   1      36.342  29.405  29.479  1.00  0.00     0.016 A 
ATOM     41  C   UNL A   1      38.303  29.723  27.510  1.00  0.00     0.010 A 
ATOM     42  C   UNL A   1      37.652  28.984  29.729  1.00  0.00     0.010 A 
ATOM     43  C   UNL A   1      38.642  29.155  28.750  1.00  0.00    -0.014 A 
BRANCH  43  44
ATOM     44  C   UNL A   1      40.066  28.902  29.062  1.00  0.00     0.031 A 
ATOM     45  C   UNL A   1      40.878  29.844  29.895  1.00  0.00     0.074 A 
ATOM     46  C   UNL A   1      40.612  27.765  28.593  1.00  0.00     0.049 A 
ATOM     47  N   UNL A   1      42.103  29.700  30.334  1.00  0.00    -0.248 NA
ATOM     48  C   UNL A   1      40.238  31.107  30.287  1.00  0.00     0.031 C 
ATOM     49  C   UNL A   1      39.912  26.783  27.765  1.00  0.00     0.029 A 
ATOM     50  N   UNL A   1      41.867  27.236  28.756  1.00  0.00    -0.354 N 
ATOM     51  C   UNL A   1      42.377  30.839  31.077  1.00  0.00     0.074 A 
ATOM     52  C   UNL A   1      41.203  31.687  30.991  1.00  0.00     0.031 C 
ATOM     53  C   UNL A   1      40.739  25.759  27.508  1.00  0.00     0.029 A 
ATOM     54  C   UNL A   1      42.030  26.022  28.139  1.00  0.00     0.049 A 
ATOM     55  H   UNL A   1      42.580  27.684  29.266  1.00  0.00     0.167 HD
ATOM     56  C   UNL A   1      43.499  31.134  31.778  1.00  0.00     0.037 A 
ATOM     57  C   UNL A   1      43.098  25.205  28.091  1.00  0.00     0.037 A 
ATOM     58  C   UNL A   1      44.669  30.290  31.841  1.00  0.00     0.049 A 
ATOM     59  C   UNL A   1      44.347  25.585  28.833  1.00  0.00     0.074 A 
ATOM     60  C   UNL A   1      45.840  30.493  32.552  1.00  0.00     0.029 A 
ATOM     61  N   UNL A   1      44.821  29.091  31.159  1.00  0.00    -0.354 N 
ATOM     62  N   UNL A   1      44.572  26.634  29.586  1.00  0.00    -0.248 NA
ATOM     63  C   UNL A   1      45.486  24.665  28.726  1.00  0.00     0.031 C 
ATOM     64  C   UNL A   1      46.719  29.445  32.261  1.00  0.00     0.029 A 
ATOM     65  C   UNL A   1      46.078  28.560  31.409  1.00  0.00     0.049 A 
ATOM     66  H   UNL A   1      44.138  28.679  30.584  1.00  0.00     0.167 HD
ATOM     67  C   UNL A   1      45.869  26.492  30.057  1.00  0.00     0.074 A 
ATOM     68  C   UNL A   1      46.375  25.245  29.520  1.00  0.00     0.031 C 
ATOM     69  C   UNL A   1      46.577  27.324  30.861  1.00  0.00     0.037 A 
BRANCH  56  70
ATOM     70  C   UNL A   1      43.527  32.421  32.552  1.00  0.00     0.064 A 
ATOM     71  C   UNL A   1      43.243  32.450  33.924  1.00  0.00     0.173 A 
ATOM     72  C   UNL A   1      43.939  33.615  31.941  1.00  0.00     0.173 A 
ATOM     73  F   UNL A   1      42.844  31.334  34.555  1.00  0.00    -0.203 F 
ATOM     74  C   UNL A   1      43.361  33.629  34.657  1.00  0.00     0.198 A 
ATOM     75  C   UNL A   1      44.078  34.787  32.680  1.00  0.00     0.198 A 
ATOM     76  F   UNL A   1      44.234  33.639  30.632  1.00  0.00    -0.203 F 
ATOM     77  F   UNL A   1      43.066  33.637  35.964  1.00  0.00    -0.200 F 
ATOM     78  C   UNL A   1      43.787  34.793  34.036  1.00  0.00     0.200 A 
ATOM     79  F   UNL A   1      44.507  35.908  32.083  1.00  0.00    -0.200 F 
ATOM     80  F   UNL A   1      43.921  35.922  34.746  1.00  0.00    -0.200 F 
ENDBRANCH  56  70
BRANCH  57  81
ATOM     81  C   UNL A   1      43.006  23.929  27.341  1.00  0.00     0.064 A 
ATOM     82  C   UNL A   1      43.435  23.847  26.010  1.00  0.00     0.173 A 
ATOM     83  C   UNL A   1      42.524  22.760  27.948  1.00  0.00     0.173 A 
ATOM     84  F   UNL A   1      43.889  24.944  25.384  1.00  0.00    -0.203 F 
ATOM     85  C   UNL A   1      43.378  22.645  25.310  1.00  0.00     0.198 A 
ATOM     86  C   UNL A   1      42.492  21.553  27.256  1.00  0.00     0.198 A 
ATOM     87  F   UNL A   1      42.108  22.788  29.223  1.00  0.00    -0.203 F 
ATOM     88  F   UNL A   1      43.767  22.599  24.029  1.00  0.00    -0.200 F 
ATOM     89  C   UNL A   1      42.915  21.497  25.936  1.00  0.00     0.200 A 
ATOM     90  F   UNL A   1      42.059  20.444  27.869  1.00  0.00    -0.200 F 
ATOM     91  F   UNL A   1      42.873  20.337  25.266  1.00  0.00    -0.200 F 
ENDBRANCH  57  81
BRANCH  69  92
ATOM     92  C   UNL A   1      47.976  26.912  31.214  1.00  0.00     0.064 A 
ATOM     93  C   UNL A   1      48.231  25.989  32.240  1.00  0.00     0.173 A 
ATOM     94  C   UNL A   1      49.072  27.408  30.491  1.00  0.00     0.173 A 
ATOM     95  F   UNL A   1      47.220  25.497  32.971  1.00  0.00    -0.203 F 
ATOM     96  C   UNL A   1      49.533  25.596  32.543  1.00  0.00     0.198 A 
ATOM     97  C   UNL A   1      50.369  26.990  30.777  1.00  0.00     0.198 A 
ATOM     98  F   UNL A   1      48.883  28.288  29.496  1.00  0.00    -0.203 F 
ATOM     99  F   UNL A   1      49.755  24.747  33.556  1.00  0.00    -0.200 F 
ATOM    100  C   UNL A   1      50.599  26.091  31.806  1.00  0.00     0.200 A 
ATOM    101  F   UNL A   1      51.397  27.460  30.056  1.00  0.00    -0.200 F 
ATOM    102  F   UNL A   1      51.849  25.704  32.094  1.00  0.00    -0.200 F 
ENDBRANCH  69  92
ENDBRANCH  43  44
ENDBRANCH  36  38
ENDBRANCH  35  36
ENDBRANCH  34  35
ENDBRANCH  33  34
ENDBRANCH  32  33
ENDBRANCH  31  32
ENDBRANCH  30  31
ENDBRANCH  29  30
ENDBRANCH   1  29
TORSDOF 24
ENDMDL
