MODEL 1
REMARK VINA RESULT:      -9.4      0.000      0.000
REMARK SMILES Cc1nn(C)cc1-c1ccnc2nc(CCC(=O)OCCOCCOCCOCCOC(=O)c3ccc(-c4c5nc(c(-c6c(F)c(F)c(F)c(F)c6F)c6ccc([nH]6)c(-c6c(F)c(F)c(F)c(F)c6F)c6nc(c(-c7c(F)c(F)c(F)c(F)c7F)c7ccc4[nH]7)C=C6)C=C5)cc3)nn12
REMARK SMILES IDX 24 1 23 2 22 3 21 4 20 5 19 6 17 7 18 8 16 9 15 10 14 11
REMARK SMILES IDX 8 12 9 13 98 14 10 15 12 16 97 17 11 18 13 19 7 20 1 21 2 22
REMARK SMILES IDX 3 23 4 24 6 25 5 26 25 27 26 28 27 29 28 30 29 31 30 32
REMARK SMILES IDX 31 33 32 34 33 35 34 36 35 37 96 38 36 39 95 40 37 41 38 42
REMARK SMILES IDX 39 43 89 44 40 45 94 46 88 47 90 48 41 49 93 50 87 51 86 52
REMARK SMILES IDX 42 54 74 55 54 56 73 57 55 58 58 59 72 60 91 61 56 62 57 63
REMARK SMILES IDX 71 65 92 66 59 67 43 68 44 69 52 70 45 71 46 72 50 73 53 74
REMARK SMILES IDX 47 75 48 76 51 77 49 78 75 79 76 80 84 81 77 82 78 83 82 84
REMARK SMILES IDX 85 85 79 86 80 87 83 88 81 89 60 90 61 91 69 92 62 93 63 94
REMARK SMILES IDX 67 95 70 96 64 97 65 98 68 99 66 100
REMARK H PARENT 90 53 58 64
REMARK Flexibility Score: inf
ROOT
ATOM      1  C   UNL A   1      33.267  36.678  28.751  1.00  0.00     0.188 C 
ENDROOT
BRANCH   1   2
ATOM      2  C   UNL A   1      34.566  35.874  28.550  1.00  0.00     0.188 C 
BRANCH   2   3
ATOM      3  O   UNL A   1      34.350  34.691  27.790  1.00  0.00    -0.376 OA
BRANCH   3   4
ATOM      4  C   UNL A   1      35.171  33.559  28.007  1.00  0.00     0.202 C 
BRANCH   4   5
ATOM      5  C   UNL A   1      34.534  32.240  28.454  1.00  0.00     0.261 C 
BRANCH   5   6
ATOM      6  O   UNL A   1      34.137  31.377  27.379  1.00  0.00    -0.463 OA
BRANCH   6   7
ATOM      7  C   UNL A   1      34.179  30.047  27.555  1.00  0.00     0.306 C 
ATOM      8  O   UNL A   1      35.201  29.428  27.828  1.00  0.00    -0.252 OA
BRANCH   7   9
ATOM      9  C   UNL A   1      32.825  29.368  27.436  1.00  0.00     0.131 C 
BRANCH   9  10
ATOM     10  C   UNL A   1      32.721  27.859  27.209  1.00  0.00     0.091 C 
BRANCH  10  11
ATOM     11  C   UNL A   1      32.581  27.411  25.795  1.00  0.00     0.154 A 
ATOM     12  C   UNL A   1      31.180  27.350  22.607  1.00  0.00     0.081 A 
ATOM     13  C   UNL A   1      31.404  26.423  21.658  1.00  0.00     0.049 A 
ATOM     14  N   UNL A   1      31.878  27.247  23.822  1.00  0.00    -0.196 N 
ATOM     15  C   UNL A   1      32.354  25.339  22.020  1.00  0.00     0.117 A 
ATOM     16  C   UNL A   1      32.731  26.170  24.086  1.00  0.00     0.252 A 
ATOM     17  N   UNL A   1      31.812  28.046  24.913  1.00  0.00    -0.149 NA
ATOM     18  N   UNL A   1      32.970  25.201  23.153  1.00  0.00    -0.220 NA
ATOM     19  N   UNL A   1      33.159  26.263  25.329  1.00  0.00    -0.194 NA
BRANCH  12  20
ATOM     20  C   UNL A   1      30.063  28.231  22.535  1.00  0.00     0.041 A 
ATOM     21  C   UNL A   1      28.472  26.707  23.871  1.00  0.00     0.069 C 
ATOM     22  C   UNL A   1      28.825  27.947  23.145  1.00  0.00     0.069 A 
ATOM     23  N   UNL A   1      27.947  28.941  22.974  1.00  0.00    -0.178 NA
ATOM     24  N   UNL A   1      28.650  29.879  22.313  1.00  0.00    -0.275 N 
ATOM     25  C   UNL A   1      29.928  29.489  22.001  1.00  0.00     0.119 A 
ATOM     26  C   UNL A   1      28.028  31.155  22.048  1.00  0.00     0.173 C 
ENDBRANCH  12  20
ENDBRANCH  10  11
ENDBRANCH   9  10
ENDBRANCH   7   9
ENDBRANCH   6   7
ENDBRANCH   5   6
ENDBRANCH   4   5
ENDBRANCH   3   4
ENDBRANCH   2   3
ENDBRANCH   1   2
BRANCH   1  27
ATOM     27  O   UNL A   1      32.456  36.364  29.874  1.00  0.00    -0.377 OA
BRANCH  27  28
ATOM     28  C   UNL A   1      33.044  36.667  31.137  1.00  0.00     0.188 C 
BRANCH  28  29
ATOM     29  C   UNL A   1      32.557  35.719  32.235  1.00  0.00     0.188 C 
BRANCH  29  30
ATOM     30  O   UNL A   1      33.626  34.970  32.803  1.00  0.00    -0.376 OA
BRANCH  30  31
ATOM     31  C   UNL A   1      34.422  34.213  31.896  1.00  0.00     0.202 C 
BRANCH  31  32
ATOM     32  C   UNL A   1      34.649  32.707  32.147  1.00  0.00     0.261 C 
BRANCH  32  33
ATOM     33  O   UNL A   1      35.976  32.291  32.542  1.00  0.00    -0.460 OA
BRANCH  33  34
ATOM     34  C   UNL A   1      36.471  31.134  32.061  1.00  0.00     0.338 C 
ATOM     35  O   UNL A   1      35.901  30.058  31.991  1.00  0.00    -0.246 OA
BRANCH  34  36
ATOM     36  C   UNL A   1      37.811  31.407  31.487  1.00  0.00     0.060 A 
ATOM     37  C   UNL A   1      38.887  31.683  32.344  1.00  0.00     0.016 A 
ATOM     38  C   UNL A   1      38.015  31.368  30.105  1.00  0.00     0.016 A 
ATOM     39  C   UNL A   1      40.170  31.917  31.820  1.00  0.00     0.010 A 
ATOM     40  C   UNL A   1      39.294  31.611  29.583  1.00  0.00     0.010 A 
ATOM     41  C   UNL A   1      40.383  31.893  30.434  1.00  0.00    -0.014 A 
BRANCH  41  42
ATOM     42  C   UNL A   1      41.674  32.326  29.828  1.00  0.00     0.031 A 
ATOM     43  C   UNL A   1      42.684  31.264  29.516  1.00  0.00     0.074 A 
ATOM     44  C   UNL A   1      41.994  33.613  29.593  1.00  0.00     0.049 A 
ATOM     45  N   UNL A   1      43.895  31.387  29.039  1.00  0.00    -0.248 NA
ATOM     46  C   UNL A   1      42.258  29.876  29.750  1.00  0.00     0.031 C 
ATOM     47  C   UNL A   1      41.089  34.742  29.717  1.00  0.00     0.029 A 
ATOM     48  N   UNL A   1      43.187  34.193  29.225  1.00  0.00    -0.354 N 
ATOM     49  C   UNL A   1      44.352  30.092  28.859  1.00  0.00     0.074 A 
ATOM     50  C   UNL A   1      43.330  29.202  29.370  1.00  0.00     0.031 C 
ATOM     51  C   UNL A   1      41.768  35.889  29.543  1.00  0.00     0.029 A 
ATOM     52  C   UNL A   1      43.163  35.569  29.254  1.00  0.00     0.049 A 
ATOM     53  H   UNL A   1      43.982  33.674  28.964  1.00  0.00     0.167 HD
ATOM     54  C   UNL A   1      45.497  29.677  28.273  1.00  0.00     0.037 A 
ATOM     55  C   UNL A   1      44.149  36.467  29.063  1.00  0.00     0.037 A 
ATOM     56  C   UNL A   1      46.539  30.553  27.814  1.00  0.00     0.049 A 
ATOM     57  C   UNL A   1      45.506  35.982  28.621  1.00  0.00     0.074 A 
ATOM     58  C   UNL A   1      47.741  30.225  27.214  1.00  0.00     0.029 A 
ATOM     59  N   UNL A   1      46.514  31.935  27.934  1.00  0.00    -0.354 N 
ATOM     60  N   UNL A   1      45.902  34.757  28.379  1.00  0.00    -0.248 NA
ATOM     61  C   UNL A   1      46.536  37.003  28.380  1.00  0.00     0.031 C 
ATOM     62  C   UNL A   1      48.471  31.406  27.027  1.00  0.00     0.029 A 
ATOM     63  C   UNL A   1      47.700  32.473  27.461  1.00  0.00     0.049 A 
ATOM     64  H   UNL A   1      45.765  32.456  28.303  1.00  0.00     0.167 HD
ATOM     65  C   UNL A   1      47.197  34.864  27.889  1.00  0.00     0.074 A 
ATOM     66  C   UNL A   1      47.528  36.273  27.889  1.00  0.00     0.031 C 
ATOM     67  C   UNL A   1      48.021  33.879  27.454  1.00  0.00     0.037 A 
BRANCH  54  68
ATOM     68  C   UNL A   1      45.660  28.196  28.119  1.00  0.00     0.064 A 
ATOM     69  C   UNL A   1      46.359  27.440  29.075  1.00  0.00     0.173 A 
ATOM     70  C   UNL A   1      45.166  27.537  26.987  1.00  0.00     0.173 A 
ATOM     71  F   UNL A   1      46.872  28.035  30.163  1.00  0.00    -0.203 F 
ATOM     72  C   UNL A   1      46.597  26.084  28.877  1.00  0.00     0.198 A 
ATOM     73  C   UNL A   1      45.379  26.173  26.809  1.00  0.00     0.198 A 
ATOM     74  F   UNL A   1      44.497  28.218  26.046  1.00  0.00    -0.203 F 
ATOM     75  F   UNL A   1      47.330  25.398  29.765  1.00  0.00    -0.200 F 
ATOM     76  C   UNL A   1      46.106  25.452  27.746  1.00  0.00     0.200 A 
ATOM     77  F   UNL A   1      44.903  25.561  25.716  1.00  0.00    -0.200 F 
ATOM     78  F   UNL A   1      46.348  24.148  27.548  1.00  0.00    -0.200 F 
ENDBRANCH  54  68
BRANCH  55  79
ATOM     79  C   UNL A   1      43.890  37.922  29.242  1.00  0.00     0.064 A 
ATOM     80  C   UNL A   1      44.088  38.546  30.482  1.00  0.00     0.173 A 
ATOM     81  C   UNL A   1      43.403  38.710  28.189  1.00  0.00     0.173 A 
ATOM     82  F   UNL A   1      44.533  37.832  31.526  1.00  0.00    -0.203 F 
ATOM     83  C   UNL A   1      43.787  39.896  30.667  1.00  0.00     0.198 A 
ATOM     84  C   UNL A   1      43.121  40.063  28.370  1.00  0.00     0.198 A 
ATOM     85  F   UNL A   1      43.207  38.170  26.975  1.00  0.00    -0.203 F 
ATOM     86  F   UNL A   1      43.950  40.456  31.874  1.00  0.00    -0.200 F 
ATOM     87  C   UNL A   1      43.305  40.653  29.611  1.00  0.00     0.200 A 
ATOM     88  F   UNL A   1      42.670  40.794  27.341  1.00  0.00    -0.200 F 
ATOM     89  F   UNL A   1      43.015  41.949  29.790  1.00  0.00    -0.200 F 
ENDBRANCH  55  79
BRANCH  67  90
ATOM     90  C   UNL A   1      49.351  34.287  26.890  1.00  0.00     0.064 A 
ATOM     91  C   UNL A   1      49.476  34.835  25.606  1.00  0.00     0.173 A 
ATOM     92  C   UNL A   1      50.513  34.173  27.671  1.00  0.00     0.173 A 
ATOM     93  F   UNL A   1      48.400  34.948  24.813  1.00  0.00    -0.203 F 
ATOM     94  C   UNL A   1      50.716  35.240  25.119  1.00  0.00     0.198 A 
ATOM     95  C   UNL A   1      51.746  34.606  27.192  1.00  0.00     0.198 A 
ATOM     96  F   UNL A   1      50.450  33.656  28.907  1.00  0.00    -0.203 F 
ATOM     97  F   UNL A   1      50.818  35.722  23.872  1.00  0.00    -0.200 F 
ATOM     98  C   UNL A   1      51.848  35.134  25.914  1.00  0.00     0.200 A 
ATOM     99  F   UNL A   1      52.835  34.516  27.968  1.00  0.00    -0.200 F 
ATOM    100  F   UNL A   1      53.037  35.536  25.446  1.00  0.00    -0.200 F 
ENDBRANCH  67  90
ENDBRANCH  41  42
ENDBRANCH  34  36
ENDBRANCH  33  34
ENDBRANCH  32  33
ENDBRANCH  31  32
ENDBRANCH  30  31
ENDBRANCH  29  30
ENDBRANCH  28  29
ENDBRANCH  27  28
ENDBRANCH   1  27
TORSDOF 23
ENDMDL
MODEL 2
REMARK VINA RESULT:      -9.0      3.969      8.864
REMARK SMILES Cc1nn(C)cc1-c1ccnc2nc(CCC(=O)OCCOCCOCCOCCOC(=O)c3ccc(-c4c5nc(c(-c6c(F)c(F)c(F)c(F)c6F)c6ccc([nH]6)c(-c6c(F)c(F)c(F)c(F)c6F)c6nc(c(-c7c(F)c(F)c(F)c(F)c7F)c7ccc4[nH]7)C=C6)C=C5)cc3)nn12
REMARK SMILES IDX 24 1 23 2 22 3 21 4 20 5 19 6 17 7 18 8 16 9 15 10 14 11
REMARK SMILES IDX 8 12 9 13 98 14 10 15 12 16 97 17 11 18 13 19 7 20 1 21 2 22
REMARK SMILES IDX 3 23 4 24 6 25 5 26 25 27 26 28 27 29 28 30 29 31 30 32
REMARK SMILES IDX 31 33 32 34 33 35 34 36 35 37 96 38 36 39 95 40 37 41 38 42
REMARK SMILES IDX 39 43 89 44 40 45 94 46 88 47 90 48 41 49 93 50 87 51 86 52
REMARK SMILES IDX 42 54 74 55 54 56 73 57 55 58 58 59 72 60 91 61 56 62 57 63
REMARK SMILES IDX 71 65 92 66 59 67 43 68 44 69 52 70 45 71 46 72 50 73 53 74
REMARK SMILES IDX 47 75 48 76 51 77 49 78 75 79 76 80 84 81 77 82 78 83 82 84
REMARK SMILES IDX 85 85 79 86 80 87 83 88 81 89 60 90 61 91 69 92 62 93 63 94
REMARK SMILES IDX 67 95 70 96 64 97 65 98 68 99 66 100
REMARK H PARENT 90 53 58 64
REMARK Flexibility Score: inf
ROOT
ATOM      1  C   UNL A   1      39.173  21.625  26.047  1.00  0.00     0.188 C 
ENDROOT
BRANCH   1   2
ATOM      2  C   UNL A   1      38.067  22.389  25.295  1.00  0.00     0.188 C 
BRANCH   2   3
ATOM      3  O   UNL A   1      36.880  22.512  26.070  1.00  0.00    -0.376 OA
BRANCH   3   4
ATOM      4  C   UNL A   1      35.753  21.713  25.758  1.00  0.00     0.202 C 
BRANCH   4   5
ATOM      5  C   UNL A   1      34.367  22.359  25.685  1.00  0.00     0.261 C 
BRANCH   5   6
ATOM      6  O   UNL A   1      33.330  21.618  26.344  1.00  0.00    -0.463 OA
BRANCH   6   7
ATOM      7  C   UNL A   1      32.525  22.246  27.214  1.00  0.00     0.306 C 
ATOM      8  O   UNL A   1      32.868  22.576  28.343  1.00  0.00    -0.252 OA
BRANCH   7   9
ATOM      9  C   UNL A   1      31.148  22.565  26.657  1.00  0.00     0.131 C 
BRANCH   9  10
ATOM     10  C   UNL A   1      30.723  24.011  26.397  1.00  0.00     0.091 C 
BRANCH  10  11
ATOM     11  C   UNL A   1      31.507  24.758  25.375  1.00  0.00     0.154 A 
ATOM     12  C   UNL A   1      33.189  27.501  24.043  1.00  0.00     0.081 A 
ATOM     13  C   UNL A   1      33.582  27.649  22.764  1.00  0.00     0.049 A 
ATOM     14  N   UNL A   1      32.569  26.298  24.418  1.00  0.00    -0.196 N 
ATOM     15  C   UNL A   1      33.272  26.515  21.854  1.00  0.00     0.117 A 
ATOM     16  C   UNL A   1      32.289  25.296  23.482  1.00  0.00     0.252 A 
ATOM     17  N   UNL A   1      32.087  25.929  25.629  1.00  0.00    -0.149 NA
ATOM     18  N   UNL A   1      32.659  25.417  22.172  1.00  0.00    -0.220 NA
ATOM     19  N   UNL A   1      31.608  24.337  24.077  1.00  0.00    -0.194 NA
BRANCH  12  20
ATOM     20  C   UNL A   1      33.109  28.615  24.927  1.00  0.00     0.041 A 
ATOM     21  C   UNL A   1      30.745  29.331  24.192  1.00  0.00     0.069 C 
ATOM     22  C   UNL A   1      31.969  29.439  25.017  1.00  0.00     0.069 A 
ATOM     23  N   UNL A   1      32.115  30.390  25.945  1.00  0.00    -0.178 NA
ATOM     24  N   UNL A   1      33.320  30.128  26.485  1.00  0.00    -0.275 N 
ATOM     25  C   UNL A   1      33.973  29.079  25.888  1.00  0.00     0.119 A 
ATOM     26  C   UNL A   1      33.763  30.915  27.612  1.00  0.00     0.173 C 
ENDBRANCH  12  20
ENDBRANCH  10  11
ENDBRANCH   9  10
ENDBRANCH   7   9
ENDBRANCH   6   7
ENDBRANCH   5   6
ENDBRANCH   4   5
ENDBRANCH   3   4
ENDBRANCH   2   3
ENDBRANCH   1   2
BRANCH   1  27
ATOM     27  O   UNL A   1      39.846  22.295  27.103  1.00  0.00    -0.377 OA
BRANCH  27  28
ATOM     28  C   UNL A   1      40.983  21.605  27.618  1.00  0.00     0.188 C 
BRANCH  28  29
ATOM     29  C   UNL A   1      42.041  21.364  26.540  1.00  0.00     0.188 C 
BRANCH  29  30
ATOM     30  O   UNL A   1      42.941  22.460  26.423  1.00  0.00    -0.376 OA
BRANCH  30  31
ATOM     31  C   UNL A   1      43.942  22.355  25.414  1.00  0.00     0.202 C 
BRANCH  31  32
ATOM     32  C   UNL A   1      45.406  22.076  25.814  1.00  0.00     0.261 C 
BRANCH  32  33
ATOM     33  O   UNL A   1      46.239  23.214  26.127  1.00  0.00    -0.460 OA
BRANCH  33  34
ATOM     34  C   UNL A   1      46.436  24.160  25.188  1.00  0.00     0.338 C 
ATOM     35  O   UNL A   1      46.704  23.990  24.010  1.00  0.00    -0.246 OA
BRANCH  34  36
ATOM     36  C   UNL A   1      46.138  25.482  25.793  1.00  0.00     0.060 A 
ATOM     37  C   UNL A   1      45.515  26.472  25.017  1.00  0.00     0.016 A 
ATOM     38  C   UNL A   1      46.450  25.740  27.130  1.00  0.00     0.016 A 
ATOM     39  C   UNL A   1      45.200  27.720  25.580  1.00  0.00     0.010 A 
ATOM     40  C   UNL A   1      46.144  26.990  27.687  1.00  0.00     0.010 A 
ATOM     41  C   UNL A   1      45.520  27.994  26.917  1.00  0.00    -0.014 A 
BRANCH  41  42
ATOM     42  C   UNL A   1      45.384  29.361  27.496  1.00  0.00     0.031 A 
ATOM     43  C   UNL A   1      44.078  29.715  28.140  1.00  0.00     0.074 A 
ATOM     44  C   UNL A   1      46.348  30.300  27.428  1.00  0.00     0.049 A 
ATOM     45  N   UNL A   1      43.694  30.849  28.664  1.00  0.00    -0.248 NA
ATOM     46  C   UNL A   1      43.084  28.634  28.226  1.00  0.00     0.031 C 
ATOM     47  C   UNL A   1      47.704  30.082  26.957  1.00  0.00     0.029 A 
ATOM     48  N   UNL A   1      46.323  31.642  27.733  1.00  0.00    -0.354 N 
ATOM     49  C   UNL A   1      42.439  30.600  29.196  1.00  0.00     0.074 A 
ATOM     50  C   UNL A   1      42.086  29.241  28.844  1.00  0.00     0.031 C 
ATOM     51  C   UNL A   1      48.356  31.255  26.894  1.00  0.00     0.029 A 
ATOM     52  C   UNL A   1      47.465  32.313  27.361  1.00  0.00     0.049 A 
ATOM     53  H   UNL A   1      45.561  32.081  28.176  1.00  0.00     0.167 HD
ATOM     54  C   UNL A   1      41.670  31.413  29.955  1.00  0.00     0.037 A 
ATOM     55  C   UNL A   1      47.763  33.627  27.400  1.00  0.00     0.037 A 
ATOM     56  C   UNL A   1      41.988  32.779  30.261  1.00  0.00     0.049 A 
ATOM     57  C   UNL A   1      46.792  34.578  28.053  1.00  0.00     0.074 A 
ATOM     58  C   UNL A   1      41.266  33.686  31.016  1.00  0.00     0.029 A 
ATOM     59  N   UNL A   1      43.113  33.448  29.800  1.00  0.00    -0.354 N 
ATOM     60  N   UNL A   1      45.642  34.316  28.622  1.00  0.00    -0.248 NA
ATOM     61  C   UNL A   1      47.181  35.995  28.112  1.00  0.00     0.031 C 
ATOM     62  C   UNL A   1      41.924  34.921  30.960  1.00  0.00     0.029 A 
ATOM     63  C   UNL A   1      43.084  34.769  30.216  1.00  0.00     0.049 A 
ATOM     64  H   UNL A   1      43.827  33.043  29.256  1.00  0.00     0.167 HD
ATOM     65  C   UNL A   1      45.205  35.515  29.169  1.00  0.00     0.074 A 
ATOM     66  C   UNL A   1      46.204  36.511  28.845  1.00  0.00     0.031 C 
ATOM     67  C   UNL A   1      44.087  35.755  29.899  1.00  0.00     0.037 A 
BRANCH  54  68
ATOM     68  C   UNL A   1      40.403  30.816  30.484  1.00  0.00     0.064 A 
ATOM     69  C   UNL A   1      40.420  29.913  31.560  1.00  0.00     0.173 A 
ATOM     70  C   UNL A   1      39.172  31.101  29.880  1.00  0.00     0.173 A 
ATOM     71  F   UNL A   1      41.580  29.591  32.152  1.00  0.00    -0.203 F 
ATOM     72  C   UNL A   1      39.254  29.282  31.982  1.00  0.00     0.198 A 
ATOM     73  C   UNL A   1      38.003  30.490  30.326  1.00  0.00     0.198 A 
ATOM     74  F   UNL A   1      39.106  31.952  28.847  1.00  0.00    -0.203 F 
ATOM     75  F   UNL A   1      39.306  28.368  32.961  1.00  0.00    -0.200 F 
ATOM     76  C   UNL A   1      38.047  29.572  31.365  1.00  0.00     0.200 A 
ATOM     77  F   UNL A   1      36.835  30.772  29.731  1.00  0.00    -0.200 F 
ATOM     78  F   UNL A   1      36.927  28.952  31.761  1.00  0.00    -0.200 F 
ENDBRANCH  54  68
BRANCH  55  79
ATOM     79  C   UNL A   1      49.050  34.126  26.844  1.00  0.00     0.064 A 
ATOM     80  C   UNL A   1      50.242  34.026  27.575  1.00  0.00     0.173 A 
ATOM     81  C   UNL A   1      49.109  34.745  25.587  1.00  0.00     0.173 A 
ATOM     82  F   UNL A   1      50.235  33.460  28.791  1.00  0.00    -0.203 F 
ATOM     83  C   UNL A   1      51.438  34.548  27.082  1.00  0.00     0.198 A 
ATOM     84  C   UNL A   1      50.308  35.250  25.087  1.00  0.00     0.198 A 
ATOM     85  F   UNL A   1      48.002  34.857  24.836  1.00  0.00    -0.203 F 
ATOM     86  F   UNL A   1      52.554  34.473  27.820  1.00  0.00    -0.200 F 
ATOM     87  C   UNL A   1      51.470  35.159  25.837  1.00  0.00     0.200 A 
ATOM     88  F   UNL A   1      50.336  35.825  23.876  1.00  0.00    -0.200 F 
ATOM     89  F   UNL A   1      52.619  35.661  25.364  1.00  0.00    -0.200 F 
ENDBRANCH  55  79
BRANCH  67  90
ATOM     90  C   UNL A   1      43.900  37.140  30.446  1.00  0.00     0.064 A 
ATOM     91  C   UNL A   1      43.381  38.182  29.665  1.00  0.00     0.173 A 
ATOM     92  C   UNL A   1      44.198  37.414  31.790  1.00  0.00     0.173 A 
ATOM     93  F   UNL A   1      43.098  37.978  28.370  1.00  0.00    -0.203 F 
ATOM     94  C   UNL A   1      43.183  39.450  30.205  1.00  0.00     0.198 A 
ATOM     95  C   UNL A   1      43.970  38.674  32.335  1.00  0.00     0.198 A 
ATOM     96  F   UNL A   1      44.696  36.452  32.582  1.00  0.00    -0.203 F 
ATOM     97  F   UNL A   1      42.726  40.442  29.428  1.00  0.00    -0.200 F 
ATOM     98  C   UNL A   1      43.468  39.694  31.540  1.00  0.00     0.200 A 
ATOM     99  F   UNL A   1      44.234  38.902  33.629  1.00  0.00    -0.200 F 
ATOM    100  F   UNL A   1      43.264  40.911  32.059  1.00  0.00    -0.200 F 
ENDBRANCH  67  90
ENDBRANCH  41  42
ENDBRANCH  34  36
ENDBRANCH  33  34
ENDBRANCH  32  33
ENDBRANCH  31  32
ENDBRANCH  30  31
ENDBRANCH  29  30
ENDBRANCH  28  29
ENDBRANCH  27  28
ENDBRANCH   1  27
TORSDOF 23
ENDMDL
MODEL 3
REMARK VINA RESULT:      -8.9      3.349      5.707
REMARK SMILES Cc1nn(C)cc1-c1ccnc2nc(CCC(=O)OCCOCCOCCOCCOC(=O)c3ccc(-c4c5nc(c(-c6c(F)c(F)c(F)c(F)c6F)c6ccc([nH]6)c(-c6c(F)c(F)c(F)c(F)c6F)c6nc(c(-c7c(F)c(F)c(F)c(F)c7F)c7ccc4[nH]7)C=C6)C=C5)cc3)nn12
REMARK SMILES IDX 24 1 23 2 22 3 21 4 20 5 19 6 17 7 18 8 16 9 15 10 14 11
REMARK SMILES IDX 8 12 9 13 98 14 10 15 12 16 97 17 11 18 13 19 7 20 1 21 2 22
REMARK SMILES IDX 3 23 4 24 6 25 5 26 25 27 26 28 27 29 28 30 29 31 30 32
REMARK SMILES IDX 31 33 32 34 33 35 34 36 35 37 96 38 36 39 95 40 37 41 38 42
REMARK SMILES IDX 39 43 89 44 40 45 94 46 88 47 90 48 41 49 93 50 87 51 86 52
REMARK SMILES IDX 42 54 74 55 54 56 73 57 55 58 58 59 72 60 91 61 56 62 57 63
REMARK SMILES IDX 71 65 92 66 59 67 43 68 44 69 52 70 45 71 46 72 50 73 53 74
REMARK SMILES IDX 47 75 48 76 51 77 49 78 75 79 76 80 84 81 77 82 78 83 82 84
REMARK SMILES IDX 85 85 79 86 80 87 83 88 81 89 60 90 61 91 69 92 62 93 63 94
REMARK SMILES IDX 67 95 70 96 64 97 65 98 68 99 66 100
REMARK H PARENT 90 53 58 64
REMARK Flexibility Score: inf
ROOT
ATOM      1  C   UNL A   1      33.188  34.908  29.115  1.00  0.00     0.188 C 
ENDROOT
BRANCH   1   2
ATOM      2  C   UNL A   1      34.379  35.089  28.154  1.00  0.00     0.188 C 
BRANCH   2   3
ATOM      3  O   UNL A   1      34.822  33.850  27.613  1.00  0.00    -0.376 OA
BRANCH   3   4
ATOM      4  C   UNL A   1      36.006  33.252  28.108  1.00  0.00     0.202 C 
BRANCH   4   5
ATOM      5  C   UNL A   1      36.118  31.725  28.155  1.00  0.00     0.261 C 
BRANCH   5   6
ATOM      6  O   UNL A   1      34.939  31.058  28.626  1.00  0.00    -0.463 OA
BRANCH   6   7
ATOM      7  C   UNL A   1      34.017  30.648  27.740  1.00  0.00     0.306 C 
ATOM      8  O   UNL A   1      33.009  31.286  27.463  1.00  0.00    -0.252 OA
BRANCH   7   9
ATOM      9  C   UNL A   1      34.360  29.333  27.060  1.00  0.00     0.131 C 
BRANCH   9  10
ATOM     10  C   UNL A   1      34.084  29.125  25.570  1.00  0.00     0.091 C 
BRANCH  10  11
ATOM     11  C   UNL A   1      33.161  28.011  25.218  1.00  0.00     0.154 A 
ATOM     12  C   UNL A   1      32.225  24.689  24.752  1.00  0.00     0.081 A 
ATOM     13  C   UNL A   1      31.123  24.255  24.112  1.00  0.00     0.049 A 
ATOM     14  N   UNL A   1      32.415  26.073  24.895  1.00  0.00    -0.196 N 
ATOM     15  C   UNL A   1      30.228  25.312  23.572  1.00  0.00     0.117 A 
ATOM     16  C   UNL A   1      31.532  26.996  24.323  1.00  0.00     0.252 A 
ATOM     17  N   UNL A   1      33.438  26.736  25.485  1.00  0.00    -0.149 NA
ATOM     18  N   UNL A   1      30.412  26.593  23.652  1.00  0.00    -0.220 NA
ATOM     19  N   UNL A   1      32.007  28.211  24.511  1.00  0.00    -0.194 NA
BRANCH  12  20
ATOM     20  C   UNL A   1      33.322  23.819  25.013  1.00  0.00     0.041 A 
ATOM     21  C   UNL A   1      32.549  23.165  27.383  1.00  0.00     0.069 C 
ATOM     22  C   UNL A   1      33.453  23.093  26.213  1.00  0.00     0.069 A 
ATOM     23  N   UNL A   1      34.540  22.313  26.207  1.00  0.00    -0.178 NA
ATOM     24  N   UNL A   1      35.059  22.498  24.980  1.00  0.00    -0.275 N 
ATOM     25  C   UNL A   1      34.374  23.418  24.227  1.00  0.00     0.119 A 
ATOM     26  C   UNL A   1      36.207  21.715  24.585  1.00  0.00     0.173 C 
ENDBRANCH  12  20
ENDBRANCH  10  11
ENDBRANCH   9  10
ENDBRANCH   7   9
ENDBRANCH   6   7
ENDBRANCH   5   6
ENDBRANCH   4   5
ENDBRANCH   3   4
ENDBRANCH   2   3
ENDBRANCH   1   2
BRANCH   1  27
ATOM     27  O   UNL A   1      33.418  34.229  30.341  1.00  0.00    -0.377 OA
BRANCH  27  28
ATOM     28  C   UNL A   1      34.278  34.915  31.250  1.00  0.00     0.188 C 
BRANCH  28  29
ATOM     29  C   UNL A   1      35.623  34.204  31.409  1.00  0.00     0.188 C 
BRANCH  29  30
ATOM     30  O   UNL A   1      35.511  33.025  32.198  1.00  0.00    -0.376 OA
BRANCH  30  31
ATOM     31  C   UNL A   1      35.418  33.209  33.608  1.00  0.00     0.202 C 
BRANCH  31  32
ATOM     32  C   UNL A   1      36.483  32.587  34.534  1.00  0.00     0.261 C 
BRANCH  32  33
ATOM     33  O   UNL A   1      37.863  32.942  34.294  1.00  0.00    -0.460 OA
BRANCH  33  34
ATOM     34  C   UNL A   1      38.838  32.214  34.874  1.00  0.00     0.338 C 
ATOM     35  O   UNL A   1      38.936  31.913  36.052  1.00  0.00    -0.246 OA
BRANCH  34  36
ATOM     36  C   UNL A   1      39.734  31.705  33.806  1.00  0.00     0.060 A 
ATOM     37  C   UNL A   1      40.815  30.878  34.147  1.00  0.00     0.016 A 
ATOM     38  C   UNL A   1      39.495  32.022  32.466  1.00  0.00     0.016 A 
ATOM     39  C   UNL A   1      41.657  30.364  33.146  1.00  0.00     0.010 A 
ATOM     40  C   UNL A   1      40.343  31.516  31.470  1.00  0.00     0.010 A 
ATOM     41  C   UNL A   1      41.435  30.687  31.800  1.00  0.00    -0.014 A 
BRANCH  41  42
ATOM     42  C   UNL A   1      42.411  30.328  30.732  1.00  0.00     0.031 A 
ATOM     43  C   UNL A   1      42.237  29.005  30.049  1.00  0.00     0.074 A 
ATOM     44  C   UNL A   1      43.458  31.102  30.387  1.00  0.00     0.049 A 
ATOM     45  N   UNL A   1      42.980  28.442  29.134  1.00  0.00    -0.248 NA
ATOM     46  C   UNL A   1      41.050  28.228  30.436  1.00  0.00     0.031 C 
ATOM     47  C   UNL A   1      43.695  32.456  30.856  1.00  0.00     0.029 A 
ATOM     48  N   UNL A   1      44.541  30.846  29.577  1.00  0.00    -0.354 N 
ATOM     49  C   UNL A   1      42.318  27.275  28.790  1.00  0.00     0.074 A 
ATOM     50  C   UNL A   1      41.170  27.161  29.665  1.00  0.00     0.031 C 
ATOM     51  C   UNL A   1      44.895  32.881  30.424  1.00  0.00     0.029 A 
ATOM     52  C   UNL A   1      45.500  31.832  29.609  1.00  0.00     0.049 A 
ATOM     53  H   UNL A   1      44.622  30.034  29.025  1.00  0.00     0.167 HD
ATOM     54  C   UNL A   1      42.609  26.401  27.801  1.00  0.00     0.037 A 
ATOM     55  C   UNL A   1      46.722  31.887  29.042  1.00  0.00     0.037 A 
ATOM     56  C   UNL A   1      43.776  26.478  26.967  1.00  0.00     0.049 A 
ATOM     57  C   UNL A   1      47.142  30.787  28.103  1.00  0.00     0.074 A 
ATOM     58  C   UNL A   1      44.161  25.633  25.942  1.00  0.00     0.029 A 
ATOM     59  N   UNL A   1      44.764  27.444  27.083  1.00  0.00    -0.354 N 
ATOM     60  N   UNL A   1      46.472  29.726  27.727  1.00  0.00    -0.248 NA
ATOM     61  C   UNL A   1      48.464  30.914  27.472  1.00  0.00     0.031 C 
ATOM     62  C   UNL A   1      45.415  26.053  25.479  1.00  0.00     0.029 A 
ATOM     63  C   UNL A   1      45.783  27.191  26.179  1.00  0.00     0.049 A 
ATOM     64  H   UNL A   1      44.745  28.198  27.717  1.00  0.00     0.167 HD
ATOM     65  C   UNL A   1      47.255  29.100  26.766  1.00  0.00     0.074 A 
ATOM     66  C   UNL A   1      48.461  29.889  26.631  1.00  0.00     0.031 C 
ATOM     67  C   UNL A   1      46.979  27.986  26.043  1.00  0.00     0.037 A 
BRANCH  54  68
ATOM     68  C   UNL A   1      41.632  25.284  27.600  1.00  0.00     0.064 A 
ATOM     69  C   UNL A   1      41.847  24.020  28.172  1.00  0.00     0.173 A 
ATOM     70  C   UNL A   1      40.506  25.458  26.786  1.00  0.00     0.173 A 
ATOM     71  F   UNL A   1      42.927  23.800  28.938  1.00  0.00    -0.203 F 
ATOM     72  C   UNL A   1      40.992  22.957  27.898  1.00  0.00     0.198 A 
ATOM     73  C   UNL A   1      39.636  24.400  26.540  1.00  0.00     0.198 A 
ATOM     74  F   UNL A   1      40.262  26.646  26.214  1.00  0.00    -0.203 F 
ATOM     75  F   UNL A   1      41.258  21.740  28.395  1.00  0.00    -0.200 F 
ATOM     76  C   UNL A   1      39.887  23.149  27.084  1.00  0.00     0.200 A 
ATOM     77  F   UNL A   1      38.566  24.586  25.754  1.00  0.00    -0.200 F 
ATOM     78  F   UNL A   1      39.072  22.121  26.808  1.00  0.00    -0.200 F 
ENDBRANCH  54  68
BRANCH  55  79
ATOM     79  C   UNL A   1      47.625  33.041  29.306  1.00  0.00     0.064 A 
ATOM     80  C   UNL A   1      47.615  34.173  28.480  1.00  0.00     0.173 A 
ATOM     81  C   UNL A   1      48.540  33.019  30.369  1.00  0.00     0.173 A 
ATOM     82  F   UNL A   1      46.771  34.234  27.440  1.00  0.00    -0.203 F 
ATOM     83  C   UNL A   1      48.503  35.228  28.690  1.00  0.00     0.198 A 
ATOM     84  C   UNL A   1      49.415  34.082  30.589  1.00  0.00     0.198 A 
ATOM     85  F   UNL A   1      48.586  31.967  31.201  1.00  0.00    -0.203 F 
ATOM     86  F   UNL A   1      48.498  36.280  27.860  1.00  0.00    -0.200 F 
ATOM     87  C   UNL A   1      49.402  35.183  29.746  1.00  0.00     0.200 A 
ATOM     88  F   UNL A   1      50.270  34.039  31.620  1.00  0.00    -0.200 F 
ATOM     89  F   UNL A   1      50.255  36.196  29.946  1.00  0.00    -0.200 F 
ENDBRANCH  55  79
BRANCH  67  90
ATOM     90  C   UNL A   1      47.975  27.572  24.999  1.00  0.00     0.064 A 
ATOM     91  C   UNL A   1      47.783  27.850  23.638  1.00  0.00     0.173 A 
ATOM     92  C   UNL A   1      49.167  26.932  25.376  1.00  0.00     0.173 A 
ATOM     93  F   UNL A   1      46.653  28.443  23.224  1.00  0.00    -0.203 F 
ATOM     94  C   UNL A   1      48.738  27.489  22.692  1.00  0.00     0.198 A 
ATOM     95  C   UNL A   1      50.133  26.599  24.431  1.00  0.00     0.198 A 
ATOM     96  F   UNL A   1      49.402  26.644  26.664  1.00  0.00    -0.203 F 
ATOM     97  F   UNL A   1      48.514  27.726  21.392  1.00  0.00    -0.200 F 
ATOM     98  C   UNL A   1      49.916  26.872  23.089  1.00  0.00     0.200 A 
ATOM     99  F   UNL A   1      51.276  26.017  24.819  1.00  0.00    -0.200 F 
ATOM    100  F   UNL A   1      50.839  26.538  22.178  1.00  0.00    -0.200 F 
ENDBRANCH  67  90
ENDBRANCH  41  42
ENDBRANCH  34  36
ENDBRANCH  33  34
ENDBRANCH  32  33
ENDBRANCH  31  32
ENDBRANCH  30  31
ENDBRANCH  29  30
ENDBRANCH  28  29
ENDBRANCH  27  28
ENDBRANCH   1  27
TORSDOF 23
ENDMDL
