MODEL 1
REMARK VINA RESULT:      -8.6      0.000      0.000
REMARK SMILES O=C(CCC(=O)N1CCC(c2nnc3ccccn23)CC1)OCCOCCOCCOCCOC(=O)c1ccc(-c2c3nc(c(-c4c(F)c(F)c(F)c(F)c4F)c4ccc([nH]4)c(-c4c(F)c(F)c(F)c(F)c4F)c4nc(c(-c5c(F)c(F)c(F)c(F)c5F)c5ccc2[nH]5)C=C4)C=C3)cc1
REMARK SMILES IDX 27 1 26 2 25 3 24 4 23 5 22 6 2 7 1 8 3 9 4 10 5 11 6 12
REMARK SMILES IDX 7 13 8 14 21 15 9 16 20 17 10 18 11 19 12 20 19 21 13 22
REMARK SMILES IDX 14 23 18 24 15 25 17 26 16 27 28 28 29 29 30 30 31 31 32 32
REMARK SMILES IDX 33 33 34 34 35 35 36 36 37 37 38 38 99 39 39 40 98 41 40 42
REMARK SMILES IDX 41 43 42 44 92 45 43 46 97 47 91 48 93 49 44 50 96 51 90 52
REMARK SMILES IDX 89 53 45 55 77 56 57 57 76 58 58 59 61 60 75 61 94 62 59 63
REMARK SMILES IDX 60 64 74 66 95 67 62 68 46 69 47 70 55 71 48 72 49 73 53 74
REMARK SMILES IDX 56 75 50 76 51 77 54 78 52 79 78 80 79 81 87 82 80 83 81 84
REMARK SMILES IDX 85 85 88 86 82 87 83 88 86 89 84 90 63 91 64 92 72 93 65 94
REMARK SMILES IDX 66 95 70 96 73 97 67 98 68 99 71 100 69 101
REMARK H PARENT 93 54 61 65
REMARK Flexibility Score: inf
ROOT
ATOM      1  C   UNL A   1      32.785  36.430  31.885  1.00  0.00     0.188 C 
ENDROOT
BRANCH   1   2
ATOM      2  C   UNL A   1      33.933  36.527  32.920  1.00  0.00     0.188 C 
BRANCH   2   3
ATOM      3  O   UNL A   1      34.941  35.536  32.758  1.00  0.00    -0.376 OA
BRANCH   3   4
ATOM      4  C   UNL A   1      35.598  34.986  33.883  1.00  0.00     0.202 C 
BRANCH   4   5
ATOM      5  C   UNL A   1      35.147  33.591  34.296  1.00  0.00     0.261 C 
BRANCH   5   6
ATOM      6  O   UNL A   1      36.243  32.663  34.373  1.00  0.00    -0.463 OA
BRANCH   6   7
ATOM      7  C   UNL A   1      36.966  32.225  33.324  1.00  0.00     0.306 C 
ATOM      8  O   UNL A   1      36.424  31.944  32.257  1.00  0.00    -0.252 OA
BRANCH   7   9
ATOM      9  C   UNL A   1      38.440  32.241  33.470  1.00  0.00     0.132 C 
BRANCH   9  10
ATOM     10  C   UNL A   1      38.927  30.816  33.615  1.00  0.00     0.112 C 
BRANCH  10  11
ATOM     11  C   UNL A   1      40.031  30.611  34.632  1.00  0.00     0.223 C 
ATOM     12  O   UNL A   1      40.202  31.500  35.474  1.00  0.00    -0.275 OA
ATOM     13  N   UNL A   1      40.791  29.449  34.655  1.00  0.00    -0.343 N 
ATOM     14  C   UNL A   1      41.447  29.137  35.911  1.00  0.00     0.120 C 
ATOM     15  C   UNL A   1      41.094  28.483  33.576  1.00  0.00     0.120 C 
ATOM     16  C   UNL A   1      42.943  29.095  35.725  1.00  0.00     0.033 C 
ATOM     17  C   UNL A   1      42.628  28.322  33.364  1.00  0.00     0.033 C 
ATOM     18  C   UNL A   1      43.313  28.005  34.702  1.00  0.00     0.062 C 
BRANCH  18  19
ATOM     19  C   UNL A   1      44.808  27.920  34.692  1.00  0.00     0.140 A 
ATOM     20  N   UNL A   1      45.677  28.911  34.659  1.00  0.00    -0.134 NA
ATOM     21  N   UNL A   1      45.456  26.765  35.096  1.00  0.00    -0.286 N 
ATOM     22  N   UNL A   1      46.865  28.450  35.190  1.00  0.00    -0.130 NA
ATOM     23  C   UNL A   1      46.709  27.183  35.506  1.00  0.00     0.160 A 
ATOM     24  C   UNL A   1      44.993  25.457  35.250  1.00  0.00     0.095 A 
ATOM     25  C   UNL A   1      47.521  26.235  36.192  1.00  0.00     0.050 A 
ATOM     26  C   UNL A   1      45.768  24.556  35.876  1.00  0.00     0.019 A 
ATOM     27  C   UNL A   1      47.058  24.984  36.391  1.00  0.00     0.005 A 
ENDBRANCH  18  19
ENDBRANCH  10  11
ENDBRANCH   9  10
ENDBRANCH   7   9
ENDBRANCH   6   7
ENDBRANCH   5   6
ENDBRANCH   4   5
ENDBRANCH   3   4
ENDBRANCH   2   3
ENDBRANCH   1   2
BRANCH   1  28
ATOM     28  O   UNL A   1      32.901  37.299  30.757  1.00  0.00    -0.377 OA
BRANCH  28  29
ATOM     29  C   UNL A   1      33.233  36.639  29.541  1.00  0.00     0.188 C 
BRANCH  29  30
ATOM     30  C   UNL A   1      33.057  35.101  29.527  1.00  0.00     0.188 C 
BRANCH  30  31
ATOM     31  O   UNL A   1      33.440  34.277  28.431  1.00  0.00    -0.376 OA
BRANCH  31  32
ATOM     32  C   UNL A   1      34.798  34.184  28.042  1.00  0.00     0.202 C 
BRANCH  32  33
ATOM     33  C   UNL A   1      35.735  33.260  28.826  1.00  0.00     0.261 C 
BRANCH  33  34
ATOM     34  O   UNL A   1      35.114  32.111  29.417  1.00  0.00    -0.460 OA
BRANCH  34  35
ATOM     35  C   UNL A   1      34.887  31.093  28.564  1.00  0.00     0.338 C 
ATOM     36  O   UNL A   1      33.911  30.934  27.832  1.00  0.00    -0.246 OA
BRANCH  35  37
ATOM     37  C   UNL A   1      36.056  30.201  28.516  1.00  0.00     0.060 A 
ATOM     38  C   UNL A   1      36.477  29.590  29.706  1.00  0.00     0.016 A 
ATOM     39  C   UNL A   1      36.801  30.064  27.342  1.00  0.00     0.016 A 
ATOM     40  C   UNL A   1      37.682  28.902  29.748  1.00  0.00     0.010 A 
ATOM     41  C   UNL A   1      38.037  29.416  27.396  1.00  0.00     0.010 A 
ATOM     42  C   UNL A   1      38.505  28.896  28.616  1.00  0.00    -0.014 A 
BRANCH  42  43
ATOM     43  C   UNL A   1      39.950  28.648  28.816  1.00  0.00     0.031 A 
ATOM     44  C   UNL A   1      40.712  29.624  29.663  1.00  0.00     0.074 A 
ATOM     45  C   UNL A   1      40.566  27.587  28.274  1.00  0.00     0.049 A 
ATOM     46  N   UNL A   1      41.972  29.612  30.014  1.00  0.00    -0.248 NA
ATOM     47  C   UNL A   1      39.966  30.803  30.133  1.00  0.00     0.031 C 
ATOM     48  C   UNL A   1      39.938  26.638  27.367  1.00  0.00     0.029 A 
ATOM     49  N   UNL A   1      41.850  27.125  28.418  1.00  0.00    -0.354 N 
ATOM     50  C   UNL A   1      42.183  30.813  30.678  1.00  0.00     0.074 A 
ATOM     51  C   UNL A   1      40.923  31.522  30.694  1.00  0.00     0.031 C 
ATOM     52  C   UNL A   1      40.821  25.670  27.078  1.00  0.00     0.029 A 
ATOM     53  C   UNL A   1      42.068  25.922  27.789  1.00  0.00     0.049 A 
ATOM     54  H   UNL A   1      42.545  27.607  28.920  1.00  0.00     0.167 HD
ATOM     55  C   UNL A   1      43.337  31.289  31.199  1.00  0.00     0.037 A 
ATOM     56  C   UNL A   1      43.144  25.113  27.827  1.00  0.00     0.037 A 
ATOM     57  C   UNL A   1      44.580  30.565  31.179  1.00  0.00     0.049 A 
ATOM     58  C   UNL A   1      44.374  25.596  28.555  1.00  0.00     0.074 A 
ATOM     59  C   UNL A   1      45.809  30.941  31.688  1.00  0.00     0.029 A 
ATOM     60  N   UNL A   1      44.748  29.309  30.611  1.00  0.00    -0.354 N 
ATOM     61  N   UNL A   1      44.559  26.707  29.225  1.00  0.00    -0.248 NA
ATOM     62  C   UNL A   1      45.554  24.724  28.506  1.00  0.00     0.031 C 
ATOM     63  C   UNL A   1      46.733  29.934  31.386  1.00  0.00     0.029 A 
ATOM     64  C   UNL A   1      46.064  28.899  30.751  1.00  0.00     0.049 A 
ATOM     65  H   UNL A   1      44.037  28.786  30.175  1.00  0.00     0.167 HD
ATOM     66  C   UNL A   1      45.873  26.674  29.666  1.00  0.00     0.074 A 
ATOM     67  C   UNL A   1      46.419  25.399  29.249  1.00  0.00     0.031 C 
ATOM     68  C   UNL A   1      46.582  27.624  30.324  1.00  0.00     0.037 A 
BRANCH  55  69
ATOM     69  C   UNL A   1      43.312  32.682  31.757  1.00  0.00     0.064 A 
ATOM     70  C   UNL A   1      43.181  32.938  33.130  1.00  0.00     0.173 A 
ATOM     71  C   UNL A   1      43.398  33.784  30.891  1.00  0.00     0.173 A 
ATOM     72  F   UNL A   1      43.074  31.923  33.999  1.00  0.00    -0.203 F 
ATOM     73  C   UNL A   1      43.096  34.243  33.610  1.00  0.00     0.198 A 
ATOM     74  C   UNL A   1      43.350  35.087  31.378  1.00  0.00     0.198 A 
ATOM     75  F   UNL A   1      43.521  33.599  29.567  1.00  0.00    -0.203 F 
ATOM     76  F   UNL A   1      42.899  34.462  34.918  1.00  0.00    -0.200 F 
ATOM     77  C   UNL A   1      43.186  35.315  32.736  1.00  0.00     0.200 A 
ATOM     78  F   UNL A   1      43.449  36.121  30.532  1.00  0.00    -0.200 F 
ATOM     79  F   UNL A   1      43.103  36.570  33.200  1.00  0.00    -0.200 F 
ENDBRANCH  55  69
BRANCH  56  80
ATOM     80  C   UNL A   1      43.114  23.751  27.222  1.00  0.00     0.064 A 
ATOM     81  C   UNL A   1      43.689  23.528  25.959  1.00  0.00     0.173 A 
ATOM     82  C   UNL A   1      42.499  22.659  27.848  1.00  0.00     0.173 A 
ATOM     83  F   UNL A   1      44.301  24.532  25.313  1.00  0.00    -0.203 F 
ATOM     84  C   UNL A   1      43.611  22.286  25.333  1.00  0.00     0.198 A 
ATOM     85  C   UNL A   1      42.470  21.402  27.245  1.00  0.00     0.198 A 
ATOM     86  F   UNL A   1      41.932  22.805  29.054  1.00  0.00    -0.203 F 
ATOM     87  F   UNL A   1      44.137  22.118  24.111  1.00  0.00    -0.200 F 
ATOM     88  C   UNL A   1      43.012  21.219  25.981  1.00  0.00     0.200 A 
ATOM     89  F   UNL A   1      41.918  20.364  27.888  1.00  0.00    -0.200 F 
ATOM     90  F   UNL A   1      42.972  20.014  25.397  1.00  0.00    -0.200 F 
ENDBRANCH  56  80
BRANCH  68  91
ATOM     91  C   UNL A   1      48.014  27.303  30.641  1.00  0.00     0.064 A 
ATOM     92  C   UNL A   1      48.368  26.548  31.771  1.00  0.00     0.173 A 
ATOM     93  C   UNL A   1      49.044  27.755  29.804  1.00  0.00     0.173 A 
ATOM     94  F   UNL A   1      47.422  26.104  32.612  1.00  0.00    -0.203 F 
ATOM     95  C   UNL A   1      49.704  26.300  32.075  1.00  0.00     0.198 A 
ATOM     96  C   UNL A   1      50.375  27.472  30.090  1.00  0.00     0.198 A 
ATOM     97  F   UNL A   1      48.759  28.474  28.708  1.00  0.00    -0.203 F 
ATOM     98  F   UNL A   1      50.021  25.641  33.197  1.00  0.00    -0.200 F 
ATOM     99  C   UNL A   1      50.705  26.757  31.232  1.00  0.00     0.200 A 
ATOM    100  F   UNL A   1      51.342  27.901  29.267  1.00  0.00    -0.200 F 
ATOM    101  F   UNL A   1      51.991  26.521  31.528  1.00  0.00    -0.200 F 
ENDBRANCH  68  91
ENDBRANCH  42  43
ENDBRANCH  35  37
ENDBRANCH  34  35
ENDBRANCH  33  34
ENDBRANCH  32  33
ENDBRANCH  31  32
ENDBRANCH  30  31
ENDBRANCH  29  30
ENDBRANCH  28  29
ENDBRANCH   1  28
TORSDOF 23
ENDMDL
MODEL 2
REMARK VINA RESULT:      -8.5      1.464      7.299
REMARK SMILES O=C(CCC(=O)N1CCC(c2nnc3ccccn23)CC1)OCCOCCOCCOCCOC(=O)c1ccc(-c2c3nc(c(-c4c(F)c(F)c(F)c(F)c4F)c4ccc([nH]4)c(-c4c(F)c(F)c(F)c(F)c4F)c4nc(c(-c5c(F)c(F)c(F)c(F)c5F)c5ccc2[nH]5)C=C4)C=C3)cc1
REMARK SMILES IDX 27 1 26 2 25 3 24 4 23 5 22 6 2 7 1 8 3 9 4 10 5 11 6 12
REMARK SMILES IDX 7 13 8 14 21 15 9 16 20 17 10 18 11 19 12 20 19 21 13 22
REMARK SMILES IDX 14 23 18 24 15 25 17 26 16 27 28 28 29 29 30 30 31 31 32 32
REMARK SMILES IDX 33 33 34 34 35 35 36 36 37 37 38 38 99 39 39 40 98 41 40 42
REMARK SMILES IDX 41 43 42 44 92 45 43 46 97 47 91 48 93 49 44 50 96 51 90 52
REMARK SMILES IDX 89 53 45 55 77 56 57 57 76 58 58 59 61 60 75 61 94 62 59 63
REMARK SMILES IDX 60 64 74 66 95 67 62 68 46 69 47 70 55 71 48 72 49 73 53 74
REMARK SMILES IDX 56 75 50 76 51 77 54 78 52 79 78 80 79 81 87 82 80 83 81 84
REMARK SMILES IDX 85 85 88 86 82 87 83 88 86 89 84 90 63 91 64 92 72 93 65 94
REMARK SMILES IDX 66 95 70 96 73 97 67 98 68 99 71 100 69 101
REMARK H PARENT 93 54 61 65
REMARK Flexibility Score: inf
ROOT
ATOM      1  C   UNL A   1      32.774  36.102  32.541  1.00  0.00     0.188 C 
ENDROOT
BRANCH   1   2
ATOM      2  C   UNL A   1      34.069  36.659  33.183  1.00  0.00     0.188 C 
BRANCH   2   3
ATOM      3  O   UNL A   1      35.102  35.693  33.332  1.00  0.00    -0.376 OA
BRANCH   3   4
ATOM      4  C   UNL A   1      34.864  34.484  34.025  1.00  0.00     0.202 C 
BRANCH   4   5
ATOM      5  C   UNL A   1      34.518  33.281  33.158  1.00  0.00     0.261 C 
BRANCH   5   6
ATOM      6  O   UNL A   1      35.683  32.528  32.779  1.00  0.00    -0.463 OA
BRANCH   6   7
ATOM      7  C   UNL A   1      36.934  32.757  33.222  1.00  0.00     0.306 C 
ATOM      8  O   UNL A   1      37.613  33.668  32.755  1.00  0.00    -0.252 OA
BRANCH   7   9
ATOM      9  C   UNL A   1      37.391  31.962  34.387  1.00  0.00     0.132 C 
BRANCH   9  10
ATOM     10  C   UNL A   1      38.845  31.600  34.185  1.00  0.00     0.112 C 
BRANCH  10  11
ATOM     11  C   UNL A   1      39.111  30.139  33.877  1.00  0.00     0.223 C 
ATOM     12  O   UNL A   1      38.133  29.422  33.637  1.00  0.00    -0.275 OA
ATOM     13  N   UNL A   1      40.401  29.633  33.817  1.00  0.00    -0.343 N 
ATOM     14  C   UNL A   1      40.575  28.408  33.057  1.00  0.00     0.120 C 
ATOM     15  C   UNL A   1      41.648  30.112  34.454  1.00  0.00     0.120 C 
ATOM     16  C   UNL A   1      41.100  27.309  33.946  1.00  0.00     0.033 C 
ATOM     17  C   UNL A   1      42.301  29.009  35.339  1.00  0.00     0.033 C 
ATOM     18  C   UNL A   1      42.467  27.715  34.528  1.00  0.00     0.062 C 
BRANCH  18  19
ATOM     19  C   UNL A   1      42.988  26.519  35.264  1.00  0.00     0.140 A 
ATOM     20  N   UNL A   1      42.674  26.113  36.478  1.00  0.00    -0.134 NA
ATOM     21  N   UNL A   1      43.602  25.480  34.585  1.00  0.00    -0.286 N 
ATOM     22  N   UNL A   1      42.937  24.759  36.553  1.00  0.00    -0.130 NA
ATOM     23  C   UNL A   1      43.435  24.374  35.399  1.00  0.00     0.160 A 
ATOM     24  C   UNL A   1      44.147  25.415  33.301  1.00  0.00     0.095 A 
ATOM     25  C   UNL A   1      43.767  23.103  34.848  1.00  0.00     0.050 A 
ATOM     26  C   UNL A   1      44.483  24.220  32.791  1.00  0.00     0.019 A 
ATOM     27  C   UNL A   1      44.245  23.028  33.589  1.00  0.00     0.005 A 
ENDBRANCH  18  19
ENDBRANCH  10  11
ENDBRANCH   9  10
ENDBRANCH   7   9
ENDBRANCH   6   7
ENDBRANCH   5   6
ENDBRANCH   4   5
ENDBRANCH   3   4
ENDBRANCH   2   3
ENDBRANCH   1   2
BRANCH   1  28
ATOM     28  O   UNL A   1      32.588  36.419  31.161  1.00  0.00    -0.377 OA
BRANCH  28  29
ATOM     29  C   UNL A   1      32.820  35.332  30.273  1.00  0.00     0.188 C 
BRANCH  29  30
ATOM     30  C   UNL A   1      33.638  35.653  28.998  1.00  0.00     0.188 C 
BRANCH  30  31
ATOM     31  O   UNL A   1      33.892  34.704  27.969  1.00  0.00    -0.376 OA
BRANCH  31  32
ATOM     32  C   UNL A   1      35.061  33.905  28.001  1.00  0.00     0.202 C 
BRANCH  32  33
ATOM     33  C   UNL A   1      35.354  33.066  29.249  1.00  0.00     0.261 C 
BRANCH  33  34
ATOM     34  O   UNL A   1      34.527  31.907  29.419  1.00  0.00    -0.460 OA
BRANCH  34  35
ATOM     35  C   UNL A   1      34.584  31.022  28.406  1.00  0.00     0.338 C 
ATOM     36  O   UNL A   1      33.773  30.878  27.491  1.00  0.00    -0.246 OA
BRANCH  35  37
ATOM     37  C   UNL A   1      35.854  30.280  28.450  1.00  0.00     0.060 A 
ATOM     38  C   UNL A   1      36.287  29.773  29.684  1.00  0.00     0.016 A 
ATOM     39  C   UNL A   1      36.668  30.192  27.318  1.00  0.00     0.016 A 
ATOM     40  C   UNL A   1      37.564  29.243  29.811  1.00  0.00     0.010 A 
ATOM     41  C   UNL A   1      37.969  29.704  27.456  1.00  0.00     0.010 A 
ATOM     42  C   UNL A   1      38.436  29.295  28.717  1.00  0.00    -0.014 A 
BRANCH  42  43
ATOM     43  C   UNL A   1      39.889  29.236  28.993  1.00  0.00     0.031 A 
ATOM     44  C   UNL A   1      40.661  28.092  28.405  1.00  0.00     0.074 A 
ATOM     45  C   UNL A   1      40.507  30.170  29.731  1.00  0.00     0.049 A 
ATOM     46  N   UNL A   1      41.941  27.832  28.472  1.00  0.00    -0.248 NA
ATOM     47  C   UNL A   1      39.876  27.072  27.691  1.00  0.00     0.031 C 
ATOM     48  C   UNL A   1      39.834  31.261  30.417  1.00  0.00     0.029 A 
ATOM     49  N   UNL A   1      41.836  30.354  30.014  1.00  0.00    -0.354 N 
ATOM     50  C   UNL A   1      42.099  26.588  27.876  1.00  0.00     0.074 A 
ATOM     51  C   UNL A   1      40.791  26.150  27.443  1.00  0.00     0.031 C 
ATOM     52  C   UNL A   1      40.761  32.041  30.998  1.00  0.00     0.029 A 
ATOM     53  C   UNL A   1      42.088  31.511  30.712  1.00  0.00     0.049 A 
ATOM     54  H   UNL A   1      42.540  29.720  29.746  1.00  0.00     0.167 HD
ATOM     55  C   UNL A   1      43.234  25.866  27.735  1.00  0.00     0.037 A 
ATOM     56  C   UNL A   1      43.263  32.082  31.040  1.00  0.00     0.037 A 
ATOM     57  C   UNL A   1      44.529  26.322  28.168  1.00  0.00     0.049 A 
ATOM     58  C   UNL A   1      44.532  31.329  30.726  1.00  0.00     0.074 A 
ATOM     59  C   UNL A   1      45.751  25.684  28.065  1.00  0.00     0.029 A 
ATOM     60  N   UNL A   1      44.764  27.539  28.794  1.00  0.00    -0.354 N 
ATOM     61  N   UNL A   1      44.687  30.178  30.119  1.00  0.00    -0.248 NA
ATOM     62  C   UNL A   1      45.790  31.944  31.171  1.00  0.00     0.031 C 
ATOM     63  C   UNL A   1      46.718  26.492  28.672  1.00  0.00     0.029 A 
ATOM     64  C   UNL A   1      46.111  27.666  29.089  1.00  0.00     0.049 A 
ATOM     65  H   UNL A   1      44.075  28.213  28.997  1.00  0.00     0.167 HD
ATOM     66  C   UNL A   1      46.050  29.925  30.119  1.00  0.00     0.074 A 
ATOM     67  C   UNL A   1      46.686  31.078  30.722  1.00  0.00     0.031 C 
ATOM     68  C   UNL A   1      46.719  28.824  29.694  1.00  0.00     0.037 A 
BRANCH  55  69
ATOM     69  C   UNL A   1      43.101  24.486  27.161  1.00  0.00     0.064 A 
ATOM     70  C   UNL A   1      43.395  24.201  25.819  1.00  0.00     0.173 A 
ATOM     71  C   UNL A   1      42.645  23.433  27.969  1.00  0.00     0.173 A 
ATOM     72  F   UNL A   1      43.813  25.174  24.997  1.00  0.00    -0.203 F 
ATOM     73  C   UNL A   1      43.198  22.923  25.299  1.00  0.00     0.198 A 
ATOM     74  C   UNL A   1      42.485  22.149  27.455  1.00  0.00     0.198 A 
ATOM     75  F   UNL A   1      42.346  23.649  29.259  1.00  0.00    -0.203 F 
ATOM     76  F   UNL A   1      43.417  22.691  23.996  1.00  0.00    -0.200 F 
ATOM     77  C   UNL A   1      42.750  21.899  26.118  1.00  0.00     0.200 A 
ATOM     78  F   UNL A   1      42.064  21.158  28.253  1.00  0.00    -0.200 F 
ATOM     79  F   UNL A   1      42.561  20.671  25.615  1.00  0.00    -0.200 F 
ENDBRANCH  55  69
BRANCH  56  80
ATOM     80  C   UNL A   1      43.325  33.445  31.641  1.00  0.00     0.064 A 
ATOM     81  C   UNL A   1      43.354  33.598  33.038  1.00  0.00     0.173 A 
ATOM     82  C   UNL A   1      43.323  34.613  30.867  1.00  0.00     0.173 A 
ATOM     83  F   UNL A   1      43.367  32.517  33.832  1.00  0.00    -0.203 F 
ATOM     84  C   UNL A   1      43.335  34.858  33.632  1.00  0.00     0.198 A 
ATOM     85  C   UNL A   1      43.360  35.874  31.462  1.00  0.00     0.198 A 
ATOM     86  F   UNL A   1      43.297  34.535  29.530  1.00  0.00    -0.203 F 
ATOM     87  F   UNL A   1      43.325  34.967  34.968  1.00  0.00    -0.200 F 
ATOM     88  C   UNL A   1      43.351  35.996  32.844  1.00  0.00     0.200 A 
ATOM     89  F   UNL A   1      43.408  36.973  30.698  1.00  0.00    -0.200 F 
ATOM     90  F   UNL A   1      43.373  37.208  33.414  1.00  0.00    -0.200 F 
ENDBRANCH  56  80
BRANCH  68  91
ATOM     91  C   UNL A   1      48.211  28.834  29.855  1.00  0.00     0.064 A 
ATOM     92  C   UNL A   1      49.064  29.241  28.817  1.00  0.00     0.173 A 
ATOM     93  C   UNL A   1      48.795  28.432  31.066  1.00  0.00     0.173 A 
ATOM     94  F   UNL A   1      48.556  29.622  27.635  1.00  0.00    -0.203 F 
ATOM     95  C   UNL A   1      50.447  29.200  28.969  1.00  0.00     0.198 A 
ATOM     96  C   UNL A   1      50.177  28.429  31.227  1.00  0.00     0.198 A 
ATOM     97  F   UNL A   1      48.025  28.041  32.092  1.00  0.00    -0.203 F 
ATOM     98  F   UNL A   1      51.242  29.521  27.940  1.00  0.00    -0.200 F 
ATOM     99  C   UNL A   1      51.001  28.799  30.175  1.00  0.00     0.200 A 
ATOM    100  F   UNL A   1      50.712  28.055  32.397  1.00  0.00    -0.200 F 
ATOM    101  F   UNL A   1      52.334  28.754  30.319  1.00  0.00    -0.200 F 
ENDBRANCH  68  91
ENDBRANCH  42  43
ENDBRANCH  35  37
ENDBRANCH  34  35
ENDBRANCH  33  34
ENDBRANCH  32  33
ENDBRANCH  31  32
ENDBRANCH  30  31
ENDBRANCH  29  30
ENDBRANCH  28  29
ENDBRANCH   1  28
TORSDOF 23
ENDMDL
MODEL 3
REMARK VINA RESULT:      -8.1      0.819      6.921
REMARK SMILES O=C(CCC(=O)N1CCC(c2nnc3ccccn23)CC1)OCCOCCOCCOCCOC(=O)c1ccc(-c2c3nc(c(-c4c(F)c(F)c(F)c(F)c4F)c4ccc([nH]4)c(-c4c(F)c(F)c(F)c(F)c4F)c4nc(c(-c5c(F)c(F)c(F)c(F)c5F)c5ccc2[nH]5)C=C4)C=C3)cc1
REMARK SMILES IDX 27 1 26 2 25 3 24 4 23 5 22 6 2 7 1 8 3 9 4 10 5 11 6 12
REMARK SMILES IDX 7 13 8 14 21 15 9 16 20 17 10 18 11 19 12 20 19 21 13 22
REMARK SMILES IDX 14 23 18 24 15 25 17 26 16 27 28 28 29 29 30 30 31 31 32 32
REMARK SMILES IDX 33 33 34 34 35 35 36 36 37 37 38 38 99 39 39 40 98 41 40 42
REMARK SMILES IDX 41 43 42 44 92 45 43 46 97 47 91 48 93 49 44 50 96 51 90 52
REMARK SMILES IDX 89 53 45 55 77 56 57 57 76 58 58 59 61 60 75 61 94 62 59 63
REMARK SMILES IDX 60 64 74 66 95 67 62 68 46 69 47 70 55 71 48 72 49 73 53 74
REMARK SMILES IDX 56 75 50 76 51 77 54 78 52 79 78 80 79 81 87 82 80 83 81 84
REMARK SMILES IDX 85 85 88 86 82 87 83 88 86 89 84 90 63 91 64 92 72 93 65 94
REMARK SMILES IDX 66 95 70 96 73 97 67 98 68 99 71 100 69 101
REMARK H PARENT 93 54 61 65
REMARK Flexibility Score: inf
ROOT
ATOM      1  C   UNL A   1      32.442  36.176  31.551  1.00  0.00     0.188 C 
ENDROOT
BRANCH   1   2
ATOM      2  C   UNL A   1      33.328  36.269  32.819  1.00  0.00     0.188 C 
BRANCH   2   3
ATOM      3  O   UNL A   1      34.620  35.697  32.663  1.00  0.00    -0.376 OA
BRANCH   3   4
ATOM      4  C   UNL A   1      35.162  34.856  33.663  1.00  0.00     0.202 C 
BRANCH   4   5
ATOM      5  C   UNL A   1      35.250  33.378  33.309  1.00  0.00     0.261 C 
BRANCH   5   6
ATOM      6  O   UNL A   1      36.521  33.029  32.733  1.00  0.00    -0.463 OA
BRANCH   6   7
ATOM      7  C   UNL A   1      37.668  33.714  32.908  1.00  0.00     0.306 C 
ATOM      8  O   UNL A   1      37.935  34.687  32.207  1.00  0.00    -0.252 OA
BRANCH   7   9
ATOM      9  C   UNL A   1      38.508  33.333  34.067  1.00  0.00     0.132 C 
BRANCH   9  10
ATOM     10  C   UNL A   1      38.947  31.896  33.894  1.00  0.00     0.112 C 
BRANCH  10  11
ATOM     11  C   UNL A   1      40.140  31.478  34.730  1.00  0.00     0.223 C 
ATOM     12  O   UNL A   1      40.685  32.349  35.418  1.00  0.00    -0.275 OA
ATOM     13  N   UNL A   1      40.577  30.161  34.766  1.00  0.00    -0.343 N 
ATOM     14  C   UNL A   1      41.364  29.778  35.924  1.00  0.00     0.120 C 
ATOM     15  C   UNL A   1      40.416  29.073  33.777  1.00  0.00     0.120 C 
ATOM     16  C   UNL A   1      42.737  29.325  35.498  1.00  0.00     0.033 C 
ATOM     17  C   UNL A   1      41.792  28.493  33.333  1.00  0.00     0.033 C 
ATOM     18  C   UNL A   1      42.621  28.104  34.566  1.00  0.00     0.062 C 
BRANCH  18  19
ATOM     19  C   UNL A   1      44.017  27.623  34.318  1.00  0.00     0.140 A 
ATOM     20  N   UNL A   1      45.143  28.294  34.457  1.00  0.00    -0.134 NA
ATOM     21  N   UNL A   1      44.302  26.270  34.264  1.00  0.00    -0.286 N 
ATOM     22  N   UNL A   1      46.160  27.380  34.652  1.00  0.00    -0.130 NA
ATOM     23  C   UNL A   1      45.641  26.173  34.596  1.00  0.00     0.160 A 
ATOM     24  C   UNL A   1      43.471  25.161  34.087  1.00  0.00     0.095 A 
ATOM     25  C   UNL A   1      46.159  24.870  34.846  1.00  0.00     0.050 A 
ATOM     26  C   UNL A   1      43.966  23.931  34.299  1.00  0.00     0.019 A 
ATOM     27  C   UNL A   1      45.348  23.798  34.728  1.00  0.00     0.005 A 
ENDBRANCH  18  19
ENDBRANCH  10  11
ENDBRANCH   9  10
ENDBRANCH   7   9
ENDBRANCH   6   7
ENDBRANCH   5   6
ENDBRANCH   4   5
ENDBRANCH   3   4
ENDBRANCH   2   3
ENDBRANCH   1   2
BRANCH   1  28
ATOM     28  O   UNL A   1      32.755  37.109  30.515  1.00  0.00    -0.377 OA
BRANCH  28  29
ATOM     29  C   UNL A   1      33.136  36.510  29.283  1.00  0.00     0.188 C 
BRANCH  29  30
ATOM     30  C   UNL A   1      32.878  34.989  29.152  1.00  0.00     0.188 C 
BRANCH  30  31
ATOM     31  O   UNL A   1      33.534  34.160  28.200  1.00  0.00    -0.376 OA
BRANCH  31  32
ATOM     32  C   UNL A   1      34.947  34.080  28.169  1.00  0.00     0.202 C 
BRANCH  32  33
ATOM     33  C   UNL A   1      35.655  33.075  29.083  1.00  0.00     0.261 C 
BRANCH  33  34
ATOM     34  O   UNL A   1      34.940  31.857  29.329  1.00  0.00    -0.460 OA
BRANCH  34  35
ATOM     35  C   UNL A   1      34.946  30.984  28.304  1.00  0.00     0.338 C 
ATOM     36  O   UNL A   1      34.134  30.905  27.383  1.00  0.00    -0.246 OA
BRANCH  35  37
ATOM     37  C   UNL A   1      36.166  30.162  28.343  1.00  0.00     0.060 A 
ATOM     38  C   UNL A   1      36.519  29.553  29.556  1.00  0.00     0.016 A 
ATOM     39  C   UNL A   1      37.015  30.092  27.237  1.00  0.00     0.016 A 
ATOM     40  C   UNL A   1      37.755  28.936  29.693  1.00  0.00     0.010 A 
ATOM     41  C   UNL A   1      38.278  29.515  27.388  1.00  0.00     0.010 A 
ATOM     42  C   UNL A   1      38.670  29.000  28.636  1.00  0.00    -0.014 A 
BRANCH  42  43
ATOM     43  C   UNL A   1      40.105  28.831  28.956  1.00  0.00     0.031 A 
ATOM     44  C   UNL A   1      40.814  27.647  28.369  1.00  0.00     0.074 A 
ATOM     45  C   UNL A   1      40.762  29.704  29.734  1.00  0.00     0.049 A 
ATOM     46  N   UNL A   1      42.069  27.295  28.471  1.00  0.00    -0.248 NA
ATOM     47  C   UNL A   1      39.983  26.699  27.608  1.00  0.00     0.031 C 
ATOM     48  C   UNL A   1      40.147  30.828  30.422  1.00  0.00     0.029 A 
ATOM     49  N   UNL A   1      42.092  29.787  30.064  1.00  0.00    -0.354 N 
ATOM     50  C   UNL A   1      42.158  26.054  27.854  1.00  0.00     0.074 A 
ATOM     51  C   UNL A   1      40.838  25.719  27.370  1.00  0.00     0.031 C 
ATOM     52  C   UNL A   1      41.106  31.527  31.049  1.00  0.00     0.029 A 
ATOM     53  C   UNL A   1      42.401  30.909  30.794  1.00  0.00     0.049 A 
ATOM     54  H   UNL A   1      42.757  29.110  29.804  1.00  0.00     0.167 HD
ATOM     55  C   UNL A   1      43.244  25.255  27.734  1.00  0.00     0.037 A 
ATOM     56  C   UNL A   1      43.602  31.388  31.172  1.00  0.00     0.037 A 
ATOM     57  C   UNL A   1      44.552  25.609  28.218  1.00  0.00     0.049 A 
ATOM     58  C   UNL A   1      44.824  30.553  30.883  1.00  0.00     0.074 A 
ATOM     59  C   UNL A   1      45.728  24.887  28.140  1.00  0.00     0.029 A 
ATOM     60  N   UNL A   1      44.851  26.794  28.877  1.00  0.00    -0.354 N 
ATOM     61  N   UNL A   1      44.917  29.406  30.256  1.00  0.00    -0.248 NA
ATOM     62  C   UNL A   1      46.107  31.067  31.381  1.00  0.00     0.031 C 
ATOM     63  C   UNL A   1      46.730  25.612  28.796  1.00  0.00     0.029 A 
ATOM     64  C   UNL A   1      46.194  26.818  29.219  1.00  0.00     0.049 A 
ATOM     65  H   UNL A   1      44.206  27.511  29.073  1.00  0.00     0.167 HD
ATOM     66  C   UNL A   1      46.258  29.056  30.295  1.00  0.00     0.074 A 
ATOM     67  C   UNL A   1      46.954  30.148  30.943  1.00  0.00     0.031 C 
ATOM     68  C   UNL A   1      46.861  27.918  29.868  1.00  0.00     0.037 A 
BRANCH  55  69
ATOM     69  C   UNL A   1      43.032  23.900  27.126  1.00  0.00     0.064 A 
ATOM     70  C   UNL A   1      42.533  22.816  27.865  1.00  0.00     0.173 A 
ATOM     71  C   UNL A   1      43.358  23.679  25.779  1.00  0.00     0.173 A 
ATOM     72  F   UNL A   1      42.225  22.967  29.161  1.00  0.00    -0.203 F 
ATOM     73  C   UNL A   1      42.409  21.554  27.289  1.00  0.00     0.198 A 
ATOM     74  C   UNL A   1      43.197  22.425  25.197  1.00  0.00     0.198 A 
ATOM     75  F   UNL A   1      43.842  24.678  25.025  1.00  0.00    -0.203 F 
ATOM     76  F   UNL A   1      41.998  20.517  28.033  1.00  0.00    -0.200 F 
ATOM     77  C   UNL A   1      42.735  21.361  25.955  1.00  0.00     0.200 A 
ATOM     78  F   UNL A   1      43.502  22.245  23.904  1.00  0.00    -0.200 F 
ATOM     79  F   UNL A   1      42.615  20.145  25.403  1.00  0.00    -0.200 F 
ENDBRANCH  55  69
BRANCH  56  80
ATOM     80  C   UNL A   1      43.741  32.731  31.804  1.00  0.00     0.064 A 
ATOM     81  C   UNL A   1      43.974  33.865  31.006  1.00  0.00     0.173 A 
ATOM     82  C   UNL A   1      43.682  32.924  33.190  1.00  0.00     0.173 A 
ATOM     83  F   UNL A   1      44.031  33.747  29.671  1.00  0.00    -0.203 F 
ATOM     84  C   UNL A   1      44.183  35.122  31.570  1.00  0.00     0.198 A 
ATOM     85  C   UNL A   1      43.837  34.191  33.751  1.00  0.00     0.198 A 
ATOM     86  F   UNL A   1      43.463  31.884  34.007  1.00  0.00    -0.203 F 
ATOM     87  F   UNL A   1      44.440  36.174  30.782  1.00  0.00    -0.200 F 
ATOM     88  C   UNL A   1      44.102  35.287  32.943  1.00  0.00     0.200 A 
ATOM     89  F   UNL A   1      43.726  34.355  35.077  1.00  0.00    -0.200 F 
ATOM     90  F   UNL A   1      44.264  36.502  33.483  1.00  0.00    -0.200 F 
ENDBRANCH  56  80
BRANCH  68  91
ATOM     91  C   UNL A   1      48.344  27.818  30.077  1.00  0.00     0.064 A 
ATOM     92  C   UNL A   1      48.889  27.256  31.243  1.00  0.00     0.173 A 
ATOM     93  C   UNL A   1      49.232  28.288  29.098  1.00  0.00     0.173 A 
ATOM     94  F   UNL A   1      48.083  26.804  32.216  1.00  0.00    -0.203 F 
ATOM     95  C   UNL A   1      50.266  27.214  31.440  1.00  0.00     0.198 A 
ATOM     96  C   UNL A   1      50.608  28.209  29.282  1.00  0.00     0.198 A 
ATOM     97  F   UNL A   1      48.763  28.827  27.963  1.00  0.00    -0.203 F 
ATOM     98  F   UNL A   1      50.761  26.742  32.592  1.00  0.00    -0.200 F 
ATOM     99  C   UNL A   1      51.124  27.685  30.458  1.00  0.00     0.200 A 
ATOM    100  F   UNL A   1      51.437  28.651  28.326  1.00  0.00    -0.200 F 
ATOM    101  F   UNL A   1      52.450  27.648  30.651  1.00  0.00    -0.200 F 
ENDBRANCH  68  91
ENDBRANCH  42  43
ENDBRANCH  35  37
ENDBRANCH  34  35
ENDBRANCH  33  34
ENDBRANCH  32  33
ENDBRANCH  31  32
ENDBRANCH  30  31
ENDBRANCH  29  30
ENDBRANCH  28  29
ENDBRANCH   1  28
TORSDOF 23
ENDMDL
