MODEL 1
REMARK VINA RESULT:     -10.1      0.000      0.000
REMARK SMILES CC(=O)Oc1ccc(Br)cc1C(=O)NCC(=O)OCCOCCOCCOCCOC(=O)c1ccc(-c2c3nc(c(-c4c(F)c(F)c(F)c(F)c4F)c4ccc([nH]4)c(-c4c(F)c(F)c(F)c(F)c4F)c4nc(c(-c5c(F)c(F)c(F)c(F)c5F)c5ccc2[nH]5)C=C4)C=C3)cc1
REMARK SMILES IDX 23 1 22 2 21 3 20 4 19 5 18 6 16 7 17 8 15 9 14 10 12 11
REMARK SMILES IDX 13 12 11 14 5 15 6 16 7 17 10 18 8 19 9 20 4 21 2 22 1 23
REMARK SMILES IDX 3 24 24 25 25 26 26 27 27 28 28 29 29 30 30 31 31 32 32 33
REMARK SMILES IDX 33 34 34 35 95 36 35 37 94 38 36 39 37 40 38 41 88 42 39 43
REMARK SMILES IDX 93 44 87 45 89 46 40 47 92 48 86 49 85 50 41 52 73 53 53 54
REMARK SMILES IDX 72 55 54 56 57 57 71 58 90 59 55 60 56 61 70 63 91 64 58 65
REMARK SMILES IDX 42 66 43 67 51 68 44 69 45 70 49 71 52 72 46 73 47 74 50 75
REMARK SMILES IDX 48 76 74 77 75 78 83 79 76 80 77 81 81 82 84 83 78 84 79 85
REMARK SMILES IDX 82 86 80 87 59 88 60 89 68 90 61 91 62 92 66 93 69 94 63 95
REMARK SMILES IDX 64 96 67 97 65 98
REMARK H PARENT 14 13 89 51 57 62
REMARK Flexibility Score: inf
ROOT
ATOM      1  C   UNL A   1      39.231  21.343  26.061  1.00  0.00     0.188 C 
ENDROOT
BRANCH   1   2
ATOM      2  C   UNL A   1      38.309  22.528  25.737  1.00  0.00     0.188 C 
BRANCH   2   3
ATOM      3  O   UNL A   1      36.986  22.307  25.284  1.00  0.00    -0.376 OA
BRANCH   3   4
ATOM      4  C   UNL A   1      36.233  23.281  24.586  1.00  0.00     0.202 C 
BRANCH   4   5
ATOM      5  C   UNL A   1      34.973  23.002  23.747  1.00  0.00     0.261 C 
BRANCH   5   6
ATOM      6  O   UNL A   1      34.455  24.014  22.879  1.00  0.00    -0.462 OA
BRANCH   6   7
ATOM      7  C   UNL A   1      33.362  23.739  22.126  1.00  0.00     0.325 C 
ATOM      8  O   UNL A   1      33.074  22.629  21.696  1.00  0.00    -0.250 OA
BRANCH   7   9
ATOM      9  C   UNL A   1      32.494  24.986  21.891  1.00  0.00     0.239 C 
BRANCH   9  10
ATOM     10  N   UNL A   1      33.018  26.217  22.461  1.00  0.00    -0.341 N 
ATOM     11  C   UNL A   1      32.472  27.386  22.884  1.00  0.00     0.255 C 
ATOM     12  O   UNL A   1      33.286  28.238  23.255  1.00  0.00    -0.269 OA
ATOM     13  H   UNL A   1      33.997  26.199  22.564  1.00  0.00     0.164 HD
BRANCH  11  14
ATOM     14  C   UNL A   1      31.020  27.681  23.023  1.00  0.00     0.083 A 
ATOM     15  C   UNL A   1      30.012  26.944  23.658  1.00  0.00     0.143 A 
ATOM     16  C   UNL A   1      28.696  27.439  23.716  1.00  0.00     0.049 A 
ATOM     17  C   UNL A   1      28.351  28.630  23.085  1.00  0.00     0.019 A 
ATOM     18  C   UNL A   1      30.640  28.883  22.378  1.00  0.00     0.033 A 
ATOM     19  C   UNL A   1      29.326  29.343  22.406  1.00  0.00     0.019 A 
ATOM     20  Br  UNL A   1      28.872  30.953  21.528  1.00  0.00    -0.051 Br
BRANCH  15  21
ATOM     21  O   UNL A   1      30.241  25.749  24.358  1.00  0.00    -0.426 OA
BRANCH  21  22
ATOM     22  C   UNL A   1      30.241  25.815  25.754  1.00  0.00     0.308 C 
ATOM     23  C   UNL A   1      31.202  26.875  26.222  1.00  0.00     0.139 C 
ATOM     24  O   UNL A   1      29.564  25.125  26.503  1.00  0.00    -0.252 OA
ENDBRANCH  21  22
ENDBRANCH  15  21
ENDBRANCH  11  14
ENDBRANCH   9  10
ENDBRANCH   7   9
ENDBRANCH   6   7
ENDBRANCH   5   6
ENDBRANCH   4   5
ENDBRANCH   3   4
ENDBRANCH   2   3
ENDBRANCH   1   2
BRANCH   1  25
ATOM     25  O   UNL A   1      39.993  21.500  27.241  1.00  0.00    -0.377 OA
BRANCH  25  26
ATOM     26  C   UNL A   1      41.367  21.151  27.165  1.00  0.00     0.188 C 
BRANCH  26  27
ATOM     27  C   UNL A   1      41.793  20.096  26.124  1.00  0.00     0.188 C 
BRANCH  27  28
ATOM     28  O   UNL A   1      42.944  20.443  25.368  1.00  0.00    -0.376 OA
BRANCH  28  29
ATOM     29  C   UNL A   1      43.693  21.606  25.679  1.00  0.00     0.202 C 
BRANCH  29  30
ATOM     30  C   UNL A   1      44.038  22.599  24.555  1.00  0.00     0.261 C 
BRANCH  30  31
ATOM     31  O   UNL A   1      43.462  23.908  24.659  1.00  0.00    -0.460 OA
BRANCH  31  32
ATOM     32  C   UNL A   1      44.255  24.909  25.087  1.00  0.00     0.338 C 
ATOM     33  O   UNL A   1      45.331  25.250  24.624  1.00  0.00    -0.246 OA
BRANCH  32  34
ATOM     34  C   UNL A   1      43.497  25.677  26.096  1.00  0.00     0.060 A 
ATOM     35  C   UNL A   1      43.788  27.037  26.265  1.00  0.00     0.016 A 
ATOM     36  C   UNL A   1      42.502  25.064  26.861  1.00  0.00     0.016 A 
ATOM     37  C   UNL A   1      43.115  27.780  27.231  1.00  0.00     0.010 A 
ATOM     38  C   UNL A   1      41.849  25.801  27.851  1.00  0.00     0.010 A 
ATOM     39  C   UNL A   1      42.186  27.150  28.066  1.00  0.00    -0.014 A 
BRANCH  39  40
ATOM     40  C   UNL A   1      41.750  27.836  29.304  1.00  0.00     0.031 A 
ATOM     41  C   UNL A   1      40.480  28.638  29.255  1.00  0.00     0.074 A 
ATOM     42  C   UNL A   1      42.436  27.718  30.453  1.00  0.00     0.049 A 
ATOM     43  N   UNL A   1      39.911  29.361  30.185  1.00  0.00    -0.248 NA
ATOM     44  C   UNL A   1      39.751  28.624  27.974  1.00  0.00     0.031 C 
ATOM     45  C   UNL A   1      43.648  26.924  30.636  1.00  0.00     0.029 A 
ATOM     46  N   UNL A   1      42.207  28.277  31.685  1.00  0.00    -0.354 N 
ATOM     47  C   UNL A   1      38.767  29.890  29.600  1.00  0.00     0.074 A 
ATOM     48  C   UNL A   1      38.738  29.435  28.229  1.00  0.00     0.031 C 
ATOM     49  C   UNL A   1      44.067  27.058  31.907  1.00  0.00     0.029 A 
ATOM     50  C   UNL A   1      43.173  27.976  32.612  1.00  0.00     0.049 A 
ATOM     51  H   UNL A   1      41.425  28.840  31.884  1.00  0.00     0.167 HD
ATOM     52  C   UNL A   1      37.823  30.679  30.162  1.00  0.00     0.037 A 
ATOM     53  C   UNL A   1      43.327  28.417  33.877  1.00  0.00     0.037 A 
ATOM     54  C   UNL A   1      37.861  31.132  31.527  1.00  0.00     0.049 A 
ATOM     55  C   UNL A   1      42.307  29.369  34.452  1.00  0.00     0.074 A 
ATOM     56  C   UNL A   1      36.948  31.925  32.199  1.00  0.00     0.029 A 
ATOM     57  N   UNL A   1      38.877  30.841  32.426  1.00  0.00    -0.354 N 
ATOM     58  N   UNL A   1      41.215  29.850  33.906  1.00  0.00    -0.248 NA
ATOM     59  C   UNL A   1      42.541  29.838  35.825  1.00  0.00     0.031 C 
ATOM     60  C   UNL A   1      37.444  32.168  33.484  1.00  0.00     0.029 A 
ATOM     61  C   UNL A   1      38.629  31.466  33.637  1.00  0.00     0.049 A 
ATOM     62  H   UNL A   1      39.658  30.274  32.231  1.00  0.00     0.167 HD
ATOM     63  C   UNL A   1      40.618  30.647  34.875  1.00  0.00     0.074 A 
ATOM     64  C   UNL A   1      41.461  30.573  36.050  1.00  0.00     0.031 C 
ATOM     65  C   UNL A   1      39.475  31.374  34.801  1.00  0.00     0.037 A 
BRANCH  52  66
ATOM     66  C   UNL A   1      36.689  31.134  29.289  1.00  0.00     0.064 A 
ATOM     67  C   UNL A   1      36.599  32.454  28.817  1.00  0.00     0.173 A 
ATOM     68  C   UNL A   1      35.689  30.230  28.900  1.00  0.00     0.173 A 
ATOM     69  F   UNL A   1      37.518  33.363  29.173  1.00  0.00    -0.203 F 
ATOM     70  C   UNL A   1      35.535  32.855  28.012  1.00  0.00     0.198 A 
ATOM     71  C   UNL A   1      34.647  30.626  28.067  1.00  0.00     0.198 A 
ATOM     72  F   UNL A   1      35.727  28.958  29.322  1.00  0.00    -0.203 F 
ATOM     73  F   UNL A   1      35.441  34.133  27.618  1.00  0.00    -0.200 F 
ATOM     74  C   UNL A   1      34.565  31.940  27.631  1.00  0.00     0.200 A 
ATOM     75  F   UNL A   1      33.719  29.737  27.689  1.00  0.00    -0.200 F 
ATOM     76  F   UNL A   1      33.548  32.325  26.848  1.00  0.00    -0.200 F 
ENDBRANCH  52  66
BRANCH  53  77
ATOM     77  C   UNL A   1      44.501  27.984  34.681  1.00  0.00     0.064 A 
ATOM     78  C   UNL A   1      44.454  26.822  35.464  1.00  0.00     0.173 A 
ATOM     79  C   UNL A   1      45.682  28.740  34.709  1.00  0.00     0.173 A 
ATOM     80  F   UNL A   1      43.337  26.079  35.495  1.00  0.00    -0.203 F 
ATOM     81  C   UNL A   1      45.534  26.446  36.260  1.00  0.00     0.198 A 
ATOM     82  C   UNL A   1      46.773  28.345  35.479  1.00  0.00     0.198 A 
ATOM     83  F   UNL A   1      45.778  29.864  33.983  1.00  0.00    -0.203 F 
ATOM     84  F   UNL A   1      45.440  25.362  37.043  1.00  0.00    -0.200 F 
ATOM     85  C   UNL A   1      46.695  27.204  36.262  1.00  0.00     0.200 A 
ATOM     86  F   UNL A   1      47.897  29.076  35.470  1.00  0.00    -0.200 F 
ATOM     87  F   UNL A   1      47.733  26.842  37.028  1.00  0.00    -0.200 F 
ENDBRANCH  53  77
BRANCH  65  88
ATOM     88  C   UNL A   1      39.041  32.112  36.037  1.00  0.00     0.064 A 
ATOM     89  C   UNL A   1      38.166  31.542  36.972  1.00  0.00     0.173 A 
ATOM     90  C   UNL A   1      39.546  33.394  36.310  1.00  0.00     0.173 A 
ATOM     91  F   UNL A   1      37.644  30.325  36.756  1.00  0.00    -0.203 F 
ATOM     92  C   UNL A   1      37.787  32.240  38.117  1.00  0.00     0.198 A 
ATOM     93  C   UNL A   1      39.195  34.073  37.473  1.00  0.00     0.198 A 
ATOM     94  F   UNL A   1      40.396  33.983  35.455  1.00  0.00    -0.203 F 
ATOM     95  F   UNL A   1      36.905  31.697  38.970  1.00  0.00    -0.200 F 
ATOM     96  C   UNL A   1      38.309  33.500  38.371  1.00  0.00     0.200 A 
ATOM     97  F   UNL A   1      39.717  35.281  37.725  1.00  0.00    -0.200 F 
ATOM     98  F   UNL A   1      37.951  34.165  39.478  1.00  0.00    -0.200 F 
ENDBRANCH  65  88
ENDBRANCH  39  40
ENDBRANCH  32  34
ENDBRANCH  31  32
ENDBRANCH  30  31
ENDBRANCH  29  30
ENDBRANCH  28  29
ENDBRANCH  27  28
ENDBRANCH  26  27
ENDBRANCH  25  26
ENDBRANCH   1  25
TORSDOF 24
ENDMDL
MODEL 2
REMARK VINA RESULT:     -10.0      4.563      7.027
REMARK SMILES CC(=O)Oc1ccc(Br)cc1C(=O)NCC(=O)OCCOCCOCCOCCOC(=O)c1ccc(-c2c3nc(c(-c4c(F)c(F)c(F)c(F)c4F)c4ccc([nH]4)c(-c4c(F)c(F)c(F)c(F)c4F)c4nc(c(-c5c(F)c(F)c(F)c(F)c5F)c5ccc2[nH]5)C=C4)C=C3)cc1
REMARK SMILES IDX 23 1 22 2 21 3 20 4 19 5 18 6 16 7 17 8 15 9 14 10 12 11
REMARK SMILES IDX 13 12 11 14 5 15 6 16 7 17 10 18 8 19 9 20 4 21 2 22 1 23
REMARK SMILES IDX 3 24 24 25 25 26 26 27 27 28 28 29 29 30 30 31 31 32 32 33
REMARK SMILES IDX 33 34 34 35 95 36 35 37 94 38 36 39 37 40 38 41 88 42 39 43
REMARK SMILES IDX 93 44 87 45 89 46 40 47 92 48 86 49 85 50 41 52 73 53 53 54
REMARK SMILES IDX 72 55 54 56 57 57 71 58 90 59 55 60 56 61 70 63 91 64 58 65
REMARK SMILES IDX 42 66 43 67 51 68 44 69 45 70 49 71 52 72 46 73 47 74 50 75
REMARK SMILES IDX 48 76 74 77 75 78 83 79 76 80 77 81 81 82 84 83 78 84 79 85
REMARK SMILES IDX 82 86 80 87 59 88 60 89 68 90 61 91 62 92 66 93 69 94 63 95
REMARK SMILES IDX 64 96 67 97 65 98
REMARK H PARENT 14 13 89 51 57 62
REMARK Flexibility Score: inf
ROOT
ATOM      1  C   UNL A   1      34.128  21.417  26.842  1.00  0.00     0.188 C 
ENDROOT
BRANCH   1   2
ATOM      2  C   UNL A   1      33.294  20.600  25.842  1.00  0.00     0.188 C 
BRANCH   2   3
ATOM      3  O   UNL A   1      32.047  21.086  25.380  1.00  0.00    -0.376 OA
BRANCH   3   4
ATOM      4  C   UNL A   1      31.828  22.436  25.019  1.00  0.00     0.202 C 
BRANCH   4   5
ATOM      5  C   UNL A   1      31.501  23.580  25.997  1.00  0.00     0.261 C 
BRANCH   5   6
ATOM      6  O   UNL A   1      31.156  24.873  25.493  1.00  0.00    -0.462 OA
BRANCH   6   7
ATOM      7  C   UNL A   1      29.918  25.366  25.737  1.00  0.00     0.325 C 
ATOM      8  O   UNL A   1      29.305  25.220  26.788  1.00  0.00    -0.250 OA
BRANCH   7   9
ATOM      9  C   UNL A   1      29.368  26.166  24.544  1.00  0.00     0.239 C 
BRANCH   9  10
ATOM     10  N   UNL A   1      30.362  26.561  23.559  1.00  0.00    -0.341 N 
ATOM     11  C   UNL A   1      30.965  27.730  23.222  1.00  0.00     0.255 C 
ATOM     12  O   UNL A   1      31.731  27.663  22.255  1.00  0.00    -0.269 OA
ATOM     13  H   UNL A   1      30.670  25.806  23.008  1.00  0.00     0.164 HD
BRANCH  11  14
ATOM     14  C   UNL A   1      30.857  29.021  23.955  1.00  0.00     0.083 A 
ATOM     15  C   UNL A   1      30.009  30.112  23.728  1.00  0.00     0.143 A 
ATOM     16  C   UNL A   1      30.038  31.227  24.586  1.00  0.00     0.049 A 
ATOM     17  C   UNL A   1      30.955  31.304  25.630  1.00  0.00     0.019 A 
ATOM     18  C   UNL A   1      31.789  29.129  25.015  1.00  0.00     0.033 A 
ATOM     19  C   UNL A   1      31.837  30.256  25.833  1.00  0.00     0.019 A 
ATOM     20  Br  UNL A   1      33.101  30.349  27.234  1.00  0.00    -0.051 Br
BRANCH  15  21
ATOM     21  O   UNL A   1      29.021  30.140  22.732  1.00  0.00    -0.426 OA
BRANCH  21  22
ATOM     22  C   UNL A   1      27.689  30.193  23.152  1.00  0.00     0.308 C 
ATOM     23  C   UNL A   1      27.129  28.800  23.272  1.00  0.00     0.139 C 
ATOM     24  O   UNL A   1      27.055  31.209  23.397  1.00  0.00    -0.252 OA
ENDBRANCH  21  22
ENDBRANCH  15  21
ENDBRANCH  11  14
ENDBRANCH   9  10
ENDBRANCH   7   9
ENDBRANCH   6   7
ENDBRANCH   5   6
ENDBRANCH   4   5
ENDBRANCH   3   4
ENDBRANCH   2   3
ENDBRANCH   1   2
BRANCH   1  25
ATOM     25  O   UNL A   1      35.374  21.857  26.341  1.00  0.00    -0.377 OA
BRANCH  25  26
ATOM     26  C   UNL A   1      35.536  23.256  26.170  1.00  0.00     0.188 C 
BRANCH  26  27
ATOM     27  C   UNL A   1      36.956  23.798  25.913  1.00  0.00     0.188 C 
BRANCH  27  28
ATOM     28  O   UNL A   1      37.850  22.859  25.332  1.00  0.00    -0.376 OA
BRANCH  28  29
ATOM     29  C   UNL A   1      38.801  22.174  26.129  1.00  0.00     0.202 C 
BRANCH  29  30
ATOM     30  C   UNL A   1      39.255  20.764  25.709  1.00  0.00     0.261 C 
BRANCH  30  31
ATOM     31  O   UNL A   1      40.057  20.042  26.653  1.00  0.00    -0.460 OA
BRANCH  31  32
ATOM     32  C   UNL A   1      41.339  19.792  26.325  1.00  0.00     0.338 C 
ATOM     33  O   UNL A   1      41.767  18.842  25.690  1.00  0.00    -0.246 OA
BRANCH  32  34
ATOM     34  C   UNL A   1      42.131  20.986  26.682  1.00  0.00     0.060 A 
ATOM     35  C   UNL A   1      42.186  21.379  28.026  1.00  0.00     0.016 A 
ATOM     36  C   UNL A   1      42.822  21.704  25.705  1.00  0.00     0.016 A 
ATOM     37  C   UNL A   1      42.896  22.520  28.391  1.00  0.00     0.010 A 
ATOM     38  C   UNL A   1      43.509  22.866  26.065  1.00  0.00     0.010 A 
ATOM     39  C   UNL A   1      43.511  23.298  27.404  1.00  0.00    -0.014 A 
BRANCH  39  40
ATOM     40  C   UNL A   1      43.943  24.675  27.738  1.00  0.00     0.031 A 
ATOM     41  C   UNL A   1      42.880  25.685  28.071  1.00  0.00     0.074 A 
ATOM     42  C   UNL A   1      45.242  25.012  27.788  1.00  0.00     0.049 A 
ATOM     43  N   UNL A   1      42.996  26.957  28.355  1.00  0.00    -0.248 NA
ATOM     44  C   UNL A   1      41.493  25.189  28.083  1.00  0.00     0.031 C 
ATOM     45  C   UNL A   1      46.361  24.107  27.541  1.00  0.00     0.029 A 
ATOM     46  N   UNL A   1      45.836  26.219  28.061  1.00  0.00    -0.354 N 
ATOM     47  C   UNL A   1      41.701  27.411  28.570  1.00  0.00     0.074 A 
ATOM     48  C   UNL A   1      40.813  26.292  28.352  1.00  0.00     0.031 C 
ATOM     49  C   UNL A   1      47.511  24.795  27.659  1.00  0.00     0.029 A 
ATOM     50  C   UNL A   1      47.204  26.195  27.953  1.00  0.00     0.049 A 
ATOM     51  H   UNL A   1      45.329  27.025  28.309  1.00  0.00     0.167 HD
ATOM     52  C   UNL A   1      41.291  28.651  28.924  1.00  0.00     0.037 A 
ATOM     53  C   UNL A   1      48.099  27.197  28.053  1.00  0.00     0.037 A 
ATOM     54  C   UNL A   1      42.181  29.762  29.133  1.00  0.00     0.049 A 
ATOM     55  C   UNL A   1      47.609  28.592  28.361  1.00  0.00     0.074 A 
ATOM     56  C   UNL A   1      41.870  31.057  29.507  1.00  0.00     0.029 A 
ATOM     57  N   UNL A   1      43.558  29.710  28.974  1.00  0.00    -0.354 N 
ATOM     58  N   UNL A   1      46.387  29.014  28.587  1.00  0.00    -0.248 NA
ATOM     59  C   UNL A   1      48.627  29.649  28.432  1.00  0.00     0.031 C 
ATOM     60  C   UNL A   1      43.052  31.806  29.509  1.00  0.00     0.029 A 
ATOM     61  C   UNL A   1      44.108  30.960  29.211  1.00  0.00     0.049 A 
ATOM     62  H   UNL A   1      44.068  28.904  28.730  1.00  0.00     0.167 HD
ATOM     63  C   UNL A   1      46.493  30.373  28.856  1.00  0.00     0.074 A 
ATOM     64  C   UNL A   1      47.901  30.702  28.783  1.00  0.00     0.031 C 
ATOM     65  C   UNL A   1      45.515  31.268  29.141  1.00  0.00     0.037 A 
BRANCH  52  66
ATOM     66  C   UNL A   1      39.815  28.880  29.069  1.00  0.00     0.064 A 
ATOM     67  C   UNL A   1      39.155  28.715  30.297  1.00  0.00     0.173 A 
ATOM     68  C   UNL A   1      39.051  29.292  27.966  1.00  0.00     0.173 A 
ATOM     69  F   UNL A   1      39.833  28.305  31.378  1.00  0.00    -0.203 F 
ATOM     70  C   UNL A   1      37.783  28.929  30.407  1.00  0.00     0.198 A 
ATOM     71  C   UNL A   1      37.687  29.538  28.088  1.00  0.00     0.198 A 
ATOM     72  F   UNL A   1      39.631  29.464  26.769  1.00  0.00    -0.203 F 
ATOM     73  F   UNL A   1      37.165  28.712  31.577  1.00  0.00    -0.200 F 
ATOM     74  C   UNL A   1      37.052  29.347  29.306  1.00  0.00     0.200 A 
ATOM     75  F   UNL A   1      36.985  29.956  27.026  1.00  0.00    -0.200 F 
ATOM     76  F   UNL A   1      35.733  29.561  29.416  1.00  0.00    -0.200 F 
ENDBRANCH  52  66
BRANCH  53  77
ATOM     77  C   UNL A   1      49.546  26.930  27.842  1.00  0.00     0.064 A 
ATOM     78  C   UNL A   1      50.112  26.974  26.560  1.00  0.00     0.173 A 
ATOM     79  C   UNL A   1      50.388  26.594  28.912  1.00  0.00     0.173 A 
ATOM     80  F   UNL A   1      49.343  27.263  25.498  1.00  0.00    -0.203 F 
ATOM     81  C   UNL A   1      51.456  26.670  26.355  1.00  0.00     0.198 A 
ATOM     82  C   UNL A   1      51.739  26.323  28.711  1.00  0.00     0.198 A 
ATOM     83  F   UNL A   1      49.896  26.531  30.160  1.00  0.00    -0.203 F 
ATOM     84  F   UNL A   1      51.956  26.663  25.111  1.00  0.00    -0.200 F 
ATOM     85  C   UNL A   1      52.270  26.351  27.431  1.00  0.00     0.200 A 
ATOM     86  F   UNL A   1      52.524  26.025  29.756  1.00  0.00    -0.200 F 
ATOM     87  F   UNL A   1      53.563  26.059  27.233  1.00  0.00    -0.200 F 
ENDBRANCH  53  77
BRANCH  65  88
ATOM     88  C   UNL A   1      45.933  32.682  29.441  1.00  0.00     0.064 A 
ATOM     89  C   UNL A   1      46.003  33.662  28.441  1.00  0.00     0.173 A 
ATOM     90  C   UNL A   1      46.223  33.068  30.759  1.00  0.00     0.173 A 
ATOM     91  F   UNL A   1      45.747  33.344  27.163  1.00  0.00    -0.203 F 
ATOM     92  C   UNL A   1      46.380  34.968  28.744  1.00  0.00     0.198 A 
ATOM     93  C   UNL A   1      46.563  34.383  31.064  1.00  0.00     0.198 A 
ATOM     94  F   UNL A   1      46.160  32.174  31.757  1.00  0.00    -0.203 F 
ATOM     95  F   UNL A   1      46.496  35.875  27.764  1.00  0.00    -0.200 F 
ATOM     96  C   UNL A   1      46.651  35.330  30.056  1.00  0.00     0.200 A 
ATOM     97  F   UNL A   1      46.804  34.734  32.335  1.00  0.00    -0.200 F 
ATOM     98  F   UNL A   1      47.003  36.589  30.347  1.00  0.00    -0.200 F 
ENDBRANCH  65  88
ENDBRANCH  39  40
ENDBRANCH  32  34
ENDBRANCH  31  32
ENDBRANCH  30  31
ENDBRANCH  29  30
ENDBRANCH  28  29
ENDBRANCH  27  28
ENDBRANCH  26  27
ENDBRANCH  25  26
ENDBRANCH   1  25
TORSDOF 24
ENDMDL
MODEL 3
REMARK VINA RESULT:      -9.7      5.596     11.210
REMARK SMILES CC(=O)Oc1ccc(Br)cc1C(=O)NCC(=O)OCCOCCOCCOCCOC(=O)c1ccc(-c2c3nc(c(-c4c(F)c(F)c(F)c(F)c4F)c4ccc([nH]4)c(-c4c(F)c(F)c(F)c(F)c4F)c4nc(c(-c5c(F)c(F)c(F)c(F)c5F)c5ccc2[nH]5)C=C4)C=C3)cc1
REMARK SMILES IDX 23 1 22 2 21 3 20 4 19 5 18 6 16 7 17 8 15 9 14 10 12 11
REMARK SMILES IDX 13 12 11 14 5 15 6 16 7 17 10 18 8 19 9 20 4 21 2 22 1 23
REMARK SMILES IDX 3 24 24 25 25 26 26 27 27 28 28 29 29 30 30 31 31 32 32 33
REMARK SMILES IDX 33 34 34 35 95 36 35 37 94 38 36 39 37 40 38 41 88 42 39 43
REMARK SMILES IDX 93 44 87 45 89 46 40 47 92 48 86 49 85 50 41 52 73 53 53 54
REMARK SMILES IDX 72 55 54 56 57 57 71 58 90 59 55 60 56 61 70 63 91 64 58 65
REMARK SMILES IDX 42 66 43 67 51 68 44 69 45 70 49 71 52 72 46 73 47 74 50 75
REMARK SMILES IDX 48 76 74 77 75 78 83 79 76 80 77 81 81 82 84 83 78 84 79 85
REMARK SMILES IDX 82 86 80 87 59 88 60 89 68 90 61 91 62 92 66 93 69 94 63 95
REMARK SMILES IDX 64 96 67 97 65 98
REMARK H PARENT 14 13 89 51 57 62
REMARK Flexibility Score: inf
ROOT
ATOM      1  C   UNL A   1      34.574  33.207  28.685  1.00  0.00     0.188 C 
ENDROOT
BRANCH   1   2
ATOM      2  C   UNL A   1      34.719  31.860  29.412  1.00  0.00     0.188 C 
BRANCH   2   3
ATOM      3  O   UNL A   1      35.530  30.834  28.871  1.00  0.00    -0.376 OA
BRANCH   3   4
ATOM      4  C   UNL A   1      35.375  30.337  27.556  1.00  0.00     0.202 C 
BRANCH   4   5
ATOM      5  C   UNL A   1      34.801  28.958  27.184  1.00  0.00     0.261 C 
BRANCH   5   6
ATOM      6  O   UNL A   1      33.761  28.858  26.208  1.00  0.00    -0.462 OA
BRANCH   6   7
ATOM      7  C   UNL A   1      32.488  29.148  26.569  1.00  0.00     0.325 C 
ATOM      8  O   UNL A   1      31.857  30.121  26.174  1.00  0.00    -0.250 OA
BRANCH   7   9
ATOM      9  C   UNL A   1      31.902  28.091  27.521  1.00  0.00     0.239 C 
BRANCH   9  10
ATOM     10  N   UNL A   1      30.954  27.173  26.910  1.00  0.00    -0.341 N 
ATOM     11  C   UNL A   1      31.056  26.087  26.101  1.00  0.00     0.255 C 
ATOM     12  O   UNL A   1      29.979  25.604  25.737  1.00  0.00    -0.269 OA
ATOM     13  H   UNL A   1      30.020  27.387  27.137  1.00  0.00     0.164 HD
BRANCH  11  14
ATOM     14  C   UNL A   1      32.315  25.398  25.707  1.00  0.00     0.083 A 
ATOM     15  C   UNL A   1      33.220  25.702  24.682  1.00  0.00     0.143 A 
ATOM     16  C   UNL A   1      34.390  24.937  24.516  1.00  0.00     0.049 A 
ATOM     17  C   UNL A   1      34.637  23.824  25.313  1.00  0.00     0.019 A 
ATOM     18  C   UNL A   1      32.583  24.253  26.495  1.00  0.00     0.033 A 
ATOM     19  C   UNL A   1      33.723  23.478  26.295  1.00  0.00     0.019 A 
ATOM     20  Br  UNL A   1      34.032  21.959  27.375  1.00  0.00    -0.051 Br
BRANCH  15  21
ATOM     21  O   UNL A   1      33.100  26.816  23.838  1.00  0.00    -0.426 OA
BRANCH  21  22
ATOM     22  C   UNL A   1      33.129  26.582  22.460  1.00  0.00     0.308 C 
ATOM     23  C   UNL A   1      31.915  25.795  22.044  1.00  0.00     0.139 C 
ATOM     24  O   UNL A   1      34.000  26.958  21.689  1.00  0.00    -0.252 OA
ENDBRANCH  21  22
ENDBRANCH  15  21
ENDBRANCH  11  14
ENDBRANCH   9  10
ENDBRANCH   7   9
ENDBRANCH   6   7
ENDBRANCH   5   6
ENDBRANCH   4   5
ENDBRANCH   3   4
ENDBRANCH   2   3
ENDBRANCH   1   2
BRANCH   1  25
ATOM     25  O   UNL A   1      33.445  33.963  29.073  1.00  0.00    -0.377 OA
BRANCH  25  26
ATOM     26  C   UNL A   1      33.559  35.375  28.979  1.00  0.00     0.188 C 
BRANCH  26  27
ATOM     27  C   UNL A   1      32.901  36.231  30.080  1.00  0.00     0.188 C 
BRANCH  27  28
ATOM     28  O   UNL A   1      32.990  35.683  31.387  1.00  0.00    -0.376 OA
BRANCH  28  29
ATOM     29  C   UNL A   1      34.245  35.544  32.032  1.00  0.00     0.202 C 
BRANCH  29  30
ATOM     30  C   UNL A   1      34.656  34.167  32.584  1.00  0.00     0.261 C 
BRANCH  30  31
ATOM     31  O   UNL A   1      35.840  33.581  32.027  1.00  0.00    -0.460 OA
BRANCH  31  32
ATOM     32  C   UNL A   1      36.448  32.607  32.731  1.00  0.00     0.338 C 
ATOM     33  O   UNL A   1      35.973  31.945  33.639  1.00  0.00    -0.246 OA
BRANCH  32  34
ATOM     34  C   UNL A   1      37.739  32.321  32.073  1.00  0.00     0.060 A 
ATOM     35  C   UNL A   1      37.865  32.573  30.701  1.00  0.00     0.016 A 
ATOM     36  C   UNL A   1      38.818  31.820  32.804  1.00  0.00     0.016 A 
ATOM     37  C   UNL A   1      39.058  32.281  30.045  1.00  0.00     0.010 A 
ATOM     38  C   UNL A   1      40.004  31.499  32.141  1.00  0.00     0.010 A 
ATOM     39  C   UNL A   1      40.111  31.690  30.751  1.00  0.00    -0.014 A 
BRANCH  39  40
ATOM     40  C   UNL A   1      41.217  31.057  29.997  1.00  0.00     0.031 A 
ATOM     41  C   UNL A   1      42.433  31.891  29.701  1.00  0.00     0.074 A 
ATOM     42  C   UNL A   1      41.167  29.769  29.622  1.00  0.00     0.049 A 
ATOM     43  N   UNL A   1      43.511  31.585  29.026  1.00  0.00    -0.248 NA
ATOM     44  C   UNL A   1      42.429  33.261  30.240  1.00  0.00     0.031 C 
ATOM     45  C   UNL A   1      40.068  28.849  29.902  1.00  0.00     0.029 A 
ATOM     46  N   UNL A   1      42.071  29.014  28.917  1.00  0.00    -0.354 N 
ATOM     47  C   UNL A   1      44.306  32.724  29.054  1.00  0.00     0.074 A 
ATOM     48  C   UNL A   1      43.576  33.737  29.782  1.00  0.00     0.031 C 
ATOM     49  C   UNL A   1      40.355  27.652  29.358  1.00  0.00     0.029 A 
ATOM     50  C   UNL A   1      41.639  27.736  28.663  1.00  0.00     0.049 A 
ATOM     51  H   UNL A   1      42.944  29.357  28.620  1.00  0.00     0.167 HD
ATOM     52  C   UNL A   1      45.538  32.905  28.525  1.00  0.00     0.037 A 
ATOM     53  C   UNL A   1      42.208  26.759  27.930  1.00  0.00     0.037 A 
ATOM     54  C   UNL A   1      46.256  31.893  27.798  1.00  0.00     0.049 A 
ATOM     55  C   UNL A   1      43.544  27.015  27.274  1.00  0.00     0.074 A 
ATOM     56  C   UNL A   1      47.517  31.969  27.231  1.00  0.00     0.029 A 
ATOM     57  N   UNL A   1      45.770  30.623  27.525  1.00  0.00    -0.354 N 
ATOM     58  N   UNL A   1      44.303  28.085  27.321  1.00  0.00    -0.248 NA
ATOM     59  C   UNL A   1      44.102  25.924  26.464  1.00  0.00     0.031 C 
ATOM     60  C   UNL A   1      47.765  30.768  26.559  1.00  0.00     0.029 A 
ATOM     61  C   UNL A   1      46.692  29.916  26.770  1.00  0.00     0.049 A 
ATOM     62  H   UNL A   1      44.899  30.275  27.824  1.00  0.00     0.167 HD
ATOM     63  C   UNL A   1      45.438  27.784  26.579  1.00  0.00     0.074 A 
ATOM     64  C   UNL A   1      45.276  26.425  26.104  1.00  0.00     0.031 C 
ATOM     65  C   UNL A   1      46.518  28.560  26.313  1.00  0.00     0.037 A 
BRANCH  52  66
ATOM     66  C   UNL A   1      46.169  34.258  28.682  1.00  0.00     0.064 A 
ATOM     67  C   UNL A   1      45.948  35.292  27.757  1.00  0.00     0.173 A 
ATOM     68  C   UNL A   1      46.990  34.532  29.786  1.00  0.00     0.173 A 
ATOM     69  F   UNL A   1      45.187  35.078  26.674  1.00  0.00    -0.203 F 
ATOM     70  C   UNL A   1      46.548  36.538  27.920  1.00  0.00     0.198 A 
ATOM     71  C   UNL A   1      47.559  35.790  29.964  1.00  0.00     0.198 A 
ATOM     72  F   UNL A   1      47.234  33.581  30.700  1.00  0.00    -0.203 F 
ATOM     73  F   UNL A   1      46.367  37.492  26.996  1.00  0.00    -0.200 F 
ATOM     74  C   UNL A   1      47.346  36.789  29.027  1.00  0.00     0.200 A 
ATOM     75  F   UNL A   1      48.318  36.033  31.041  1.00  0.00    -0.200 F 
ATOM     76  F   UNL A   1      47.915  37.992  29.186  1.00  0.00    -0.200 F 
ENDBRANCH  52  66
BRANCH  53  77
ATOM     77  C   UNL A   1      41.514  25.456  27.755  1.00  0.00     0.064 A 
ATOM     78  C   UNL A   1      41.966  24.300  28.407  1.00  0.00     0.173 A 
ATOM     79  C   UNL A   1      40.403  25.331  26.907  1.00  0.00     0.173 A 
ATOM     80  F   UNL A   1      43.042  24.360  29.207  1.00  0.00    -0.203 F 
ATOM     81  C   UNL A   1      41.349  23.068  28.200  1.00  0.00     0.198 A 
ATOM     82  C   UNL A   1      39.766  24.106  26.727  1.00  0.00     0.198 A 
ATOM     83  F   UNL A   1      39.933  26.405  26.253  1.00  0.00    -0.203 F 
ATOM     84  F   UNL A   1      41.838  21.969  28.792  1.00  0.00    -0.200 F 
ATOM     85  C   UNL A   1      40.245  22.973  27.366  1.00  0.00     0.200 A 
ATOM     86  F   UNL A   1      38.694  24.021  25.927  1.00  0.00    -0.200 F 
ATOM     87  F   UNL A   1      39.653  21.787  27.167  1.00  0.00    -0.200 F 
ENDBRANCH  53  77
BRANCH  65  88
ATOM     88  C   UNL A   1      47.634  27.947  25.512  1.00  0.00     0.064 A 
ATOM     89  C   UNL A   1      47.591  27.880  24.112  1.00  0.00     0.173 A 
ATOM     90  C   UNL A   1      48.782  27.460  26.156  1.00  0.00     0.173 A 
ATOM     91  F   UNL A   1      46.512  28.322  23.446  1.00  0.00    -0.203 F 
ATOM     92  C   UNL A   1      48.642  27.320  23.389  1.00  0.00     0.198 A 
ATOM     93  C   UNL A   1      49.847  26.935  25.428  1.00  0.00     0.198 A 
ATOM     94  F   UNL A   1      48.882  27.509  27.493  1.00  0.00    -0.203 F 
ATOM     95  F   UNL A   1      48.555  27.216  22.055  1.00  0.00    -0.200 F 
ATOM     96  C   UNL A   1      49.772  26.856  24.046  1.00  0.00     0.200 A 
ATOM     97  F   UNL A   1      50.945  26.506  26.064  1.00  0.00    -0.200 F 
ATOM     98  F   UNL A   1      50.786  26.327  23.348  1.00  0.00    -0.200 F 
ENDBRANCH  65  88
ENDBRANCH  39  40
ENDBRANCH  32  34
ENDBRANCH  31  32
ENDBRANCH  30  31
ENDBRANCH  29  30
ENDBRANCH  28  29
ENDBRANCH  27  28
ENDBRANCH  26  27
ENDBRANCH  25  26
ENDBRANCH   1  25
TORSDOF 24
ENDMDL
