MODEL 1
REMARK VINA RESULT:      -9.6      0.000      0.000
REMARK SMILES Cc1ccc(S(=O)(=O)N[C@@H](C)C(=O)Oc2csc(C(=O)OCCOCCOCCOCCOC(=O)c3ccc(-c4c5nc(c(-c6c(F)c(F)c(F)c(F)c6F)c6ccc([nH]6)c(-c6c(F)c(F)c(F)c(F)c6F)c6nc(c(-c7c(F)c(F)c(F)c(F)c7F)c7ccc4[nH]7)C=C6)C=C5)cc3)c2C)cc1
REMARK SMILES IDX 25 1 24 2 23 3 22 4 21 5 19 6 20 7 18 8 15 9 16 10 99 11
REMARK SMILES IDX 17 12 100 13 14 14 12 15 13 16 10 17 11 18 9 19 6 21 7 22
REMARK SMILES IDX 8 23 5 24 1 25 2 26 3 27 102 28 4 29 101 30 26 31 27 32
REMARK SMILES IDX 28 33 29 34 30 35 31 36 32 37 33 38 34 39 35 40 36 41 37 42
REMARK SMILES IDX 98 43 38 44 97 45 39 46 40 47 41 48 91 49 42 50 96 51 90 52
REMARK SMILES IDX 92 53 43 54 95 55 89 56 88 57 44 59 76 60 56 61 75 62 57 63
REMARK SMILES IDX 60 64 74 65 93 66 58 67 59 68 73 70 94 71 61 72 45 73 46 74
REMARK SMILES IDX 54 75 47 76 48 77 52 78 55 79 49 80 50 81 53 82 51 83 77 84
REMARK SMILES IDX 78 85 86 86 79 87 80 88 84 89 87 90 81 91 82 92 85 93 83 94
REMARK SMILES IDX 62 95 63 96 71 97 64 98 65 99 69 100 72 101 66 102 67 103
REMARK SMILES IDX 70 104 68 105
REMARK H PARENT 9 20 92 58 60 69
REMARK Flexibility Score: inf
ROOT
ATOM      1  C   UNL A   1      38.206  19.941  24.827  1.00  0.00     0.188 C 
ENDROOT
BRANCH   1   2
ATOM      2  O   UNL A   1      36.840  19.745  25.117  1.00  0.00    -0.376 OA
BRANCH   2   3
ATOM      3  C   UNL A   1      35.953  20.769  24.705  1.00  0.00     0.202 C 
BRANCH   3   4
ATOM      4  C   UNL A   1      34.509  20.423  24.991  1.00  0.00     0.261 C 
BRANCH   4   5
ATOM      5  O   UNL A   1      33.537  21.266  24.381  1.00  0.00    -0.459 OA
BRANCH   5   6
ATOM      6  C   UNL A   1      32.272  21.199  24.877  1.00  0.00     0.348 C 
ATOM      7  O   UNL A   1      31.801  20.225  25.441  1.00  0.00    -0.245 OA
BRANCH   6   8
ATOM      8  C   UNL A   1      31.560  22.383  24.486  1.00  0.00     0.119 A 
ATOM      9  C   UNL A   1      30.814  24.525  24.453  1.00  0.00     0.145 A 
ATOM     10  C   UNL A   1      30.849  24.275  23.105  1.00  0.00     0.113 A 
ATOM     11  C   UNL A   1      30.991  23.373  25.269  1.00  0.00     0.017 A 
ATOM     12  S   UNL A   1      31.379  22.685  22.808  1.00  0.00    -0.133 S 
ATOM     13  C   UNL A   1      30.796  23.384  26.757  1.00  0.00     0.050 C 
BRANCH   9  14
ATOM     14  O   UNL A   1      30.634  25.763  24.943  1.00  0.00    -0.424 OA
BRANCH  14  15
ATOM     15  C   UNL A   1      29.918  26.603  24.118  1.00  0.00     0.329 C 
ATOM     16  O   UNL A   1      28.774  26.433  23.708  1.00  0.00    -0.250 OA
BRANCH  15  17
ATOM     17  C   UNL A   1      30.730  27.847  23.833  1.00  0.00     0.177 C 
ATOM     18  C   UNL A   1      29.835  29.049  23.600  1.00  0.00     0.038 C 
BRANCH  17  19
ATOM     19  N   UNL A   1      31.559  27.474  22.688  1.00  0.00    -0.197 NA
ATOM     20  H   UNL A   1      31.372  26.485  22.523  1.00  0.00     0.142 HD
BRANCH  19  21
ATOM     21  S   UNL A   1      33.200  27.631  22.643  1.00  0.00     0.241 S 
ATOM     22  O   UNL A   1      33.514  28.945  23.172  1.00  0.00    -0.207 OA
ATOM     23  O   UNL A   1      33.587  27.237  21.314  1.00  0.00    -0.207 OA
BRANCH  21  24
ATOM     24  C   UNL A   1      33.843  26.429  23.770  1.00  0.00     0.082 A 
ATOM     25  C   UNL A   1      34.938  23.519  26.731  1.00  0.00     0.044 C 
ATOM     26  C   UNL A   1      34.568  24.528  25.685  1.00  0.00    -0.051 A 
ATOM     27  C   UNL A   1      34.107  25.789  26.080  1.00  0.00     0.005 A 
ATOM     28  C   UNL A   1      34.697  24.239  24.320  1.00  0.00     0.005 A 
ATOM     29  C   UNL A   1      33.731  26.732  25.128  1.00  0.00     0.022 A 
ATOM     30  C   UNL A   1      34.356  25.195  23.360  1.00  0.00     0.022 A 
ENDBRANCH  21  24
ENDBRANCH  19  21
ENDBRANCH  17  19
ENDBRANCH  15  17
ENDBRANCH  14  15
ENDBRANCH   9  14
ENDBRANCH   6   8
ENDBRANCH   5   6
ENDBRANCH   4   5
ENDBRANCH   3   4
ENDBRANCH   2   3
ENDBRANCH   1   2
BRANCH   1  31
ATOM     31  C   UNL A   1      39.216  19.216  25.735  1.00  0.00     0.188 C 
BRANCH  31  32
ATOM     32  O   UNL A   1      39.948  19.944  26.705  1.00  0.00    -0.377 OA
BRANCH  32  33
ATOM     33  C   UNL A   1      40.960  20.875  26.360  1.00  0.00     0.188 C 
BRANCH  33  34
ATOM     34  C   UNL A   1      42.254  20.778  27.158  1.00  0.00     0.188 C 
BRANCH  34  35
ATOM     35  O   UNL A   1      43.174  21.801  26.823  1.00  0.00    -0.376 OA
BRANCH  35  36
ATOM     36  C   UNL A   1      43.930  21.624  25.634  1.00  0.00     0.202 C 
BRANCH  36  37
ATOM     37  C   UNL A   1      43.847  22.852  24.726  1.00  0.00     0.261 C 
BRANCH  37  38
ATOM     38  O   UNL A   1      43.067  23.862  25.401  1.00  0.00    -0.460 OA
BRANCH  38  39
ATOM     39  C   UNL A   1      43.731  25.012  25.709  1.00  0.00     0.338 C 
ATOM     40  O   UNL A   1      44.727  25.426  25.137  1.00  0.00    -0.246 OA
BRANCH  39  41
ATOM     41  C   UNL A   1      43.239  25.565  27.007  1.00  0.00     0.060 A 
ATOM     42  C   UNL A   1      41.914  25.330  27.425  1.00  0.00     0.016 A 
ATOM     43  C   UNL A   1      44.001  26.514  27.679  1.00  0.00     0.016 A 
ATOM     44  C   UNL A   1      41.332  26.097  28.455  1.00  0.00     0.010 A 
ATOM     45  C   UNL A   1      43.402  27.306  28.645  1.00  0.00     0.010 A 
ATOM     46  C   UNL A   1      42.065  27.126  29.050  1.00  0.00    -0.014 A 
BRANCH  46  47
ATOM     47  C   UNL A   1      41.540  28.162  29.968  1.00  0.00     0.031 A 
ATOM     48  C   UNL A   1      40.669  29.268  29.452  1.00  0.00     0.074 A 
ATOM     49  C   UNL A   1      41.467  27.907  31.298  1.00  0.00     0.049 A 
ATOM     50  N   UNL A   1      40.054  30.122  30.200  1.00  0.00    -0.248 NA
ATOM     51  C   UNL A   1      40.412  29.530  28.037  1.00  0.00     0.031 C 
ATOM     52  C   UNL A   1      40.395  28.353  32.178  1.00  0.00     0.029 A 
ATOM     53  N   UNL A   1      42.221  27.109  32.135  1.00  0.00    -0.354 N 
ATOM     54  C   UNL A   1      39.015  30.646  29.473  1.00  0.00     0.074 A 
ATOM     55  C   UNL A   1      39.415  30.422  28.107  1.00  0.00     0.031 C 
ATOM     56  C   UNL A   1      40.639  28.008  33.442  1.00  0.00     0.029 A 
ATOM     57  C   UNL A   1      41.942  27.394  33.466  1.00  0.00     0.049 A 
ATOM     58  H   UNL A   1      42.868  26.431  31.832  1.00  0.00     0.167 HD
ATOM     59  C   UNL A   1      37.891  31.067  30.131  1.00  0.00     0.037 A 
ATOM     60  C   UNL A   1      42.800  27.507  34.503  1.00  0.00     0.037 A 
ATOM     61  C   UNL A   1      38.056  30.993  31.608  1.00  0.00     0.049 A 
ATOM     62  C   UNL A   1      42.601  28.932  34.981  1.00  0.00     0.074 A 
ATOM     63  C   UNL A   1      37.377  30.363  32.639  1.00  0.00     0.029 A 
ATOM     64  N   UNL A   1      39.238  31.475  32.197  1.00  0.00    -0.354 N 
ATOM     65  N   UNL A   1      42.210  29.871  34.138  1.00  0.00    -0.248 NA
ATOM     66  C   UNL A   1      42.439  29.332  36.379  1.00  0.00     0.031 C 
ATOM     67  C   UNL A   1      38.192  30.425  33.821  1.00  0.00     0.029 A 
ATOM     68  C   UNL A   1      39.371  31.102  33.528  1.00  0.00     0.049 A 
ATOM     69  H   UNL A   1      39.902  32.021  31.716  1.00  0.00     0.167 HD
ATOM     70  C   UNL A   1      41.461  30.774  34.840  1.00  0.00     0.074 A 
ATOM     71  C   UNL A   1      41.723  30.466  36.242  1.00  0.00     0.031 C 
ATOM     72  C   UNL A   1      40.488  31.596  34.340  1.00  0.00     0.037 A 
BRANCH  59  73
ATOM     73  C   UNL A   1      36.566  31.439  29.449  1.00  0.00     0.064 A 
ATOM     74  C   UNL A   1      35.898  30.514  28.614  1.00  0.00     0.173 A 
ATOM     75  C   UNL A   1      35.907  32.689  29.550  1.00  0.00     0.173 A 
ATOM     76  F   UNL A   1      36.411  29.299  28.377  1.00  0.00    -0.203 F 
ATOM     77  C   UNL A   1      34.671  30.797  27.989  1.00  0.00     0.198 A 
ATOM     78  C   UNL A   1      34.653  32.948  28.978  1.00  0.00     0.198 A 
ATOM     79  F   UNL A   1      36.466  33.744  30.151  1.00  0.00    -0.203 F 
ATOM     80  F   UNL A   1      34.106  29.884  27.185  1.00  0.00    -0.200 F 
ATOM     81  C   UNL A   1      34.034  32.001  28.196  1.00  0.00     0.200 A 
ATOM     82  F   UNL A   1      34.061  34.133  29.185  1.00  0.00    -0.200 F 
ATOM     83  F   UNL A   1      32.845  32.258  27.632  1.00  0.00    -0.200 F 
ENDBRANCH  59  73
BRANCH  60  84
ATOM     84  C   UNL A   1      43.905  26.516  34.437  1.00  0.00     0.064 A 
ATOM     85  C   UNL A   1      43.519  25.205  34.816  1.00  0.00     0.173 A 
ATOM     86  C   UNL A   1      44.864  26.614  33.415  1.00  0.00     0.173 A 
ATOM     87  F   UNL A   1      42.630  25.032  35.809  1.00  0.00    -0.203 F 
ATOM     88  C   UNL A   1      43.879  24.085  34.062  1.00  0.00     0.198 A 
ATOM     89  C   UNL A   1      45.202  25.488  32.645  1.00  0.00     0.198 A 
ATOM     90  F   UNL A   1      45.228  27.820  32.957  1.00  0.00    -0.203 F 
ATOM     91  F   UNL A   1      43.350  22.884  34.342  1.00  0.00    -0.200 F 
ATOM     92  C   UNL A   1      44.674  24.238  32.940  1.00  0.00     0.200 A 
ATOM     93  F   UNL A   1      45.884  25.654  31.502  1.00  0.00    -0.200 F 
ATOM     94  F   UNL A   1      44.859  23.211  32.099  1.00  0.00    -0.200 F 
ENDBRANCH  60  84
BRANCH  72  95
ATOM     95  C   UNL A   1      40.627  33.064  34.623  1.00  0.00     0.064 A 
ATOM     96  C   UNL A   1      41.425  33.912  33.832  1.00  0.00     0.173 A 
ATOM     97  C   UNL A   1      39.850  33.694  35.619  1.00  0.00     0.173 A 
ATOM     98  F   UNL A   1      42.122  33.453  32.781  1.00  0.00    -0.203 F 
ATOM     99  C   UNL A   1      41.511  35.276  34.081  1.00  0.00     0.198 A 
ATOM    100  C   UNL A   1      39.896  35.066  35.824  1.00  0.00     0.198 A 
ATOM    101  F   UNL A   1      39.008  33.009  36.406  1.00  0.00    -0.203 F 
ATOM    102  F   UNL A   1      42.335  36.029  33.341  1.00  0.00    -0.200 F 
ATOM    103  C   UNL A   1      40.747  35.853  35.077  1.00  0.00     0.200 A 
ATOM    104  F   UNL A   1      39.101  35.623  36.749  1.00  0.00    -0.200 F 
ATOM    105  F   UNL A   1      40.825  37.168  35.308  1.00  0.00    -0.200 F 
ENDBRANCH  72  95
ENDBRANCH  46  47
ENDBRANCH  39  41
ENDBRANCH  38  39
ENDBRANCH  37  38
ENDBRANCH  36  37
ENDBRANCH  35  36
ENDBRANCH  34  35
ENDBRANCH  33  34
ENDBRANCH  32  33
ENDBRANCH  31  32
ENDBRANCH   1  31
TORSDOF 26
ENDMDL
MODEL 2
REMARK VINA RESULT:      -9.4      1.838      2.688
REMARK SMILES Cc1ccc(S(=O)(=O)N[C@@H](C)C(=O)Oc2csc(C(=O)OCCOCCOCCOCCOC(=O)c3ccc(-c4c5nc(c(-c6c(F)c(F)c(F)c(F)c6F)c6ccc([nH]6)c(-c6c(F)c(F)c(F)c(F)c6F)c6nc(c(-c7c(F)c(F)c(F)c(F)c7F)c7ccc4[nH]7)C=C6)C=C5)cc3)c2C)cc1
REMARK SMILES IDX 25 1 24 2 23 3 22 4 21 5 19 6 20 7 18 8 15 9 16 10 99 11
REMARK SMILES IDX 17 12 100 13 14 14 12 15 13 16 10 17 11 18 9 19 6 21 7 22
REMARK SMILES IDX 8 23 5 24 1 25 2 26 3 27 102 28 4 29 101 30 26 31 27 32
REMARK SMILES IDX 28 33 29 34 30 35 31 36 32 37 33 38 34 39 35 40 36 41 37 42
REMARK SMILES IDX 98 43 38 44 97 45 39 46 40 47 41 48 91 49 42 50 96 51 90 52
REMARK SMILES IDX 92 53 43 54 95 55 89 56 88 57 44 59 76 60 56 61 75 62 57 63
REMARK SMILES IDX 60 64 74 65 93 66 58 67 59 68 73 70 94 71 61 72 45 73 46 74
REMARK SMILES IDX 54 75 47 76 48 77 52 78 55 79 49 80 50 81 53 82 51 83 77 84
REMARK SMILES IDX 78 85 86 86 79 87 80 88 84 89 87 90 81 91 82 92 85 93 83 94
REMARK SMILES IDX 62 95 63 96 71 97 64 98 65 99 69 100 72 101 66 102 67 103
REMARK SMILES IDX 70 104 68 105
REMARK H PARENT 9 20 92 58 60 69
REMARK Flexibility Score: inf
ROOT
ATOM      1  C   UNL A   1      38.380  19.581  24.731  1.00  0.00     0.188 C 
ENDROOT
BRANCH   1   2
ATOM      2  O   UNL A   1      37.067  19.536  25.241  1.00  0.00    -0.376 OA
BRANCH   2   3
ATOM      3  C   UNL A   1      36.210  20.604  24.881  1.00  0.00     0.202 C 
BRANCH   3   4
ATOM      4  C   UNL A   1      34.768  20.327  25.241  1.00  0.00     0.261 C 
BRANCH   4   5
ATOM      5  O   UNL A   1      33.812  21.249  24.726  1.00  0.00    -0.459 OA
BRANCH   5   6
ATOM      6  C   UNL A   1      32.502  20.942  24.922  1.00  0.00     0.348 C 
ATOM      7  O   UNL A   1      32.089  19.839  25.241  1.00  0.00    -0.245 OA
BRANCH   6   8
ATOM      8  C   UNL A   1      31.702  22.072  24.539  1.00  0.00     0.119 A 
ATOM      9  C   UNL A   1      30.848  24.172  24.472  1.00  0.00     0.145 A 
ATOM     10  C   UNL A   1      30.790  23.860  23.139  1.00  0.00     0.113 A 
ATOM     11  C   UNL A   1      31.146  23.070  25.321  1.00  0.00     0.017 A 
ATOM     12  S   UNL A   1      31.375  22.285  22.868  1.00  0.00    -0.133 S 
ATOM     13  C   UNL A   1      31.067  23.141  26.818  1.00  0.00     0.050 C 
BRANCH   9  14
ATOM     14  O   UNL A   1      30.643  25.421  24.921  1.00  0.00    -0.424 OA
BRANCH  14  15
ATOM     15  C   UNL A   1      29.959  26.236  24.045  1.00  0.00     0.329 C 
ATOM     16  O   UNL A   1      28.796  26.107  23.675  1.00  0.00    -0.250 OA
BRANCH  15  17
ATOM     17  C   UNL A   1      30.839  27.399  23.642  1.00  0.00     0.177 C 
ATOM     18  C   UNL A   1      30.044  28.689  23.559  1.00  0.00     0.038 C 
BRANCH  17  19
ATOM     19  N   UNL A   1      31.438  26.969  22.381  1.00  0.00    -0.197 NA
ATOM     20  H   UNL A   1      31.082  26.029  22.213  1.00  0.00     0.142 HD
BRANCH  19  21
ATOM     21  S   UNL A   1      33.062  26.886  22.107  1.00  0.00     0.241 S 
ATOM     22  O   UNL A   1      33.578  28.239  22.204  1.00  0.00    -0.207 OA
ATOM     23  O   UNL A   1      33.211  26.102  20.910  1.00  0.00    -0.207 OA
BRANCH  21  24
ATOM     24  C   UNL A   1      33.742  25.954  23.448  1.00  0.00     0.082 A 
ATOM     25  C   UNL A   1      35.830  23.672  26.426  1.00  0.00     0.044 C 
ATOM     26  C   UNL A   1      35.090  24.476  25.400  1.00  0.00    -0.051 A 
ATOM     27  C   UNL A   1      34.960  23.977  24.099  1.00  0.00     0.005 A 
ATOM     28  C   UNL A   1      34.506  25.708  25.725  1.00  0.00     0.005 A 
ATOM     29  C   UNL A   1      34.302  24.718  23.122  1.00  0.00     0.022 A 
ATOM     30  C   UNL A   1      33.813  26.440  24.757  1.00  0.00     0.022 A 
ENDBRANCH  21  24
ENDBRANCH  19  21
ENDBRANCH  17  19
ENDBRANCH  15  17
ENDBRANCH  14  15
ENDBRANCH   9  14
ENDBRANCH   6   8
ENDBRANCH   5   6
ENDBRANCH   4   5
ENDBRANCH   3   4
ENDBRANCH   2   3
ENDBRANCH   1   2
BRANCH   1  31
ATOM     31  C   UNL A   1      39.524  19.580  25.761  1.00  0.00     0.188 C 
BRANCH  31  32
ATOM     32  O   UNL A   1      39.741  20.714  26.582  1.00  0.00    -0.377 OA
BRANCH  32  33
ATOM     33  C   UNL A   1      40.498  21.834  26.155  1.00  0.00     0.188 C 
BRANCH  33  34
ATOM     34  C   UNL A   1      40.987  22.766  27.254  1.00  0.00     0.188 C 
BRANCH  34  35
ATOM     35  O   UNL A   1      41.488  23.989  26.744  1.00  0.00    -0.376 OA
BRANCH  35  36
ATOM     36  C   UNL A   1      42.787  23.965  26.172  1.00  0.00     0.202 C 
BRANCH  36  37
ATOM     37  C   UNL A   1      42.953  25.050  25.106  1.00  0.00     0.261 C 
BRANCH  37  38
ATOM     38  O   UNL A   1      41.787  25.900  25.141  1.00  0.00    -0.460 OA
BRANCH  38  39
ATOM     39  C   UNL A   1      42.021  27.212  25.426  1.00  0.00     0.338 C 
ATOM     40  O   UNL A   1      42.431  28.044  24.632  1.00  0.00    -0.246 OA
BRANCH  39  41
ATOM     41  C   UNL A   1      41.967  27.442  26.902  1.00  0.00     0.060 A 
ATOM     42  C   UNL A   1      40.783  27.179  27.620  1.00  0.00     0.016 A 
ATOM     43  C   UNL A   1      42.991  28.146  27.523  1.00  0.00     0.016 A 
ATOM     44  C   UNL A   1      40.597  27.689  28.921  1.00  0.00     0.010 A 
ATOM     45  C   UNL A   1      42.774  28.696  28.776  1.00  0.00     0.010 A 
ATOM     46  C   UNL A   1      41.583  28.491  29.498  1.00  0.00    -0.014 A 
BRANCH  46  47
ATOM     47  C   UNL A   1      41.454  29.285  30.741  1.00  0.00     0.031 A 
ATOM     48  C   UNL A   1      40.657  30.555  30.755  1.00  0.00     0.074 A 
ATOM     49  C   UNL A   1      41.668  28.694  31.941  1.00  0.00     0.049 A 
ATOM     50  N   UNL A   1      40.374  31.227  31.820  1.00  0.00    -0.248 NA
ATOM     51  C   UNL A   1      40.106  31.203  29.566  1.00  0.00     0.031 C 
ATOM     52  C   UNL A   1      40.919  28.976  33.159  1.00  0.00     0.029 A 
ATOM     53  N   UNL A   1      42.477  27.645  32.331  1.00  0.00    -0.354 N 
ATOM     54  C   UNL A   1      39.279  32.008  31.547  1.00  0.00     0.074 A 
ATOM     55  C   UNL A   1      39.298  32.122  30.111  1.00  0.00     0.031 C 
ATOM     56  C   UNL A   1      41.409  28.290  34.191  1.00  0.00     0.029 A 
ATOM     57  C   UNL A   1      42.574  27.589  33.715  1.00  0.00     0.049 A 
ATOM     58  H   UNL A   1      42.924  27.022  31.714  1.00  0.00     0.167 HD
ATOM     59  C   UNL A   1      38.422  32.328  32.565  1.00  0.00     0.037 A 
ATOM     60  C   UNL A   1      43.665  27.354  34.477  1.00  0.00     0.037 A 
ATOM     61  C   UNL A   1      38.927  31.853  33.882  1.00  0.00     0.049 A 
ATOM     62  C   UNL A   1      43.799  28.612  35.311  1.00  0.00     0.074 A 
ATOM     63  C   UNL A   1      38.433  31.029  34.881  1.00  0.00     0.029 A 
ATOM     64  N   UNL A   1      40.275  32.064  34.223  1.00  0.00    -0.354 N 
ATOM     65  N   UNL A   1      43.359  29.769  34.851  1.00  0.00    -0.248 NA
ATOM     66  C   UNL A   1      44.041  28.639  36.754  1.00  0.00     0.031 C 
ATOM     67  C   UNL A   1      39.510  30.709  35.777  1.00  0.00     0.029 A 
ATOM     68  C   UNL A   1      40.670  31.342  35.342  1.00  0.00     0.049 A 
ATOM     69  H   UNL A   1      40.875  32.662  33.722  1.00  0.00     0.167 HD
ATOM     70  C   UNL A   1      42.943  30.511  35.922  1.00  0.00     0.074 A 
ATOM     71  C   UNL A   1      43.488  29.822  37.086  1.00  0.00     0.031 C 
ATOM     72  C   UNL A   1      42.010  31.512  35.912  1.00  0.00     0.037 A 
BRANCH  59  73
ATOM     73  C   UNL A   1      37.041  32.973  32.377  1.00  0.00     0.064 A 
ATOM     74  C   UNL A   1      36.640  34.069  33.176  1.00  0.00     0.173 A 
ATOM     75  C   UNL A   1      36.053  32.556  31.451  1.00  0.00     0.173 A 
ATOM     76  F   UNL A   1      37.442  34.559  34.132  1.00  0.00    -0.203 F 
ATOM     77  C   UNL A   1      35.399  34.710  33.026  1.00  0.00     0.198 A 
ATOM     78  C   UNL A   1      34.841  33.237  31.258  1.00  0.00     0.198 A 
ATOM     79  F   UNL A   1      36.176  31.438  30.731  1.00  0.00    -0.203 F 
ATOM     80  F   UNL A   1      35.069  35.726  33.838  1.00  0.00    -0.200 F 
ATOM     81  C   UNL A   1      34.513  34.314  32.047  1.00  0.00     0.200 A 
ATOM     82  F   UNL A   1      33.991  32.822  30.307  1.00  0.00    -0.200 F 
ATOM     83  F   UNL A   1      33.346  34.950  31.876  1.00  0.00    -0.200 F 
ENDBRANCH  59  73
BRANCH  60  84
ATOM     84  C   UNL A   1      44.562  26.330  33.882  1.00  0.00     0.064 A 
ATOM     85  C   UNL A   1      44.077  25.003  34.009  1.00  0.00     0.173 A 
ATOM     86  C   UNL A   1      45.268  26.626  32.705  1.00  0.00     0.173 A 
ATOM     87  F   UNL A   1      43.421  24.636  35.123  1.00  0.00    -0.203 F 
ATOM     88  C   UNL A   1      44.084  24.111  32.933  1.00  0.00     0.198 A 
ATOM     89  C   UNL A   1      45.249  25.736  31.619  1.00  0.00     0.198 A 
ATOM     90  F   UNL A   1      45.699  27.876  32.484  1.00  0.00    -0.203 F 
ATOM     91  F   UNL A   1      43.455  22.929  33.033  1.00  0.00    -0.200 F 
ATOM     92  C   UNL A   1      44.617  24.503  31.719  1.00  0.00     0.200 A 
ATOM     93  F   UNL A   1      45.672  26.155  30.416  1.00  0.00    -0.200 F 
ATOM     94  F   UNL A   1      44.449  23.739  30.630  1.00  0.00    -0.200 F 
ENDBRANCH  60  84
BRANCH  72  95
ATOM     95  C   UNL A   1      42.427  32.836  36.483  1.00  0.00     0.064 A 
ATOM     96  C   UNL A   1      42.124  33.216  37.804  1.00  0.00     0.173 A 
ATOM     97  C   UNL A   1      43.266  33.713  35.762  1.00  0.00     0.173 A 
ATOM     98  F   UNL A   1      41.432  32.417  38.631  1.00  0.00    -0.203 F 
ATOM     99  C   UNL A   1      42.553  34.427  38.332  1.00  0.00     0.198 A 
ATOM    100  C   UNL A   1      43.739  34.895  36.316  1.00  0.00     0.198 A 
ATOM    101  F   UNL A   1      43.673  33.445  34.513  1.00  0.00    -0.203 F 
ATOM    102  F   UNL A   1      42.183  34.772  39.573  1.00  0.00    -0.200 F 
ATOM    103  C   UNL A   1      43.359  35.266  37.588  1.00  0.00     0.200 A 
ATOM    104  F   UNL A   1      44.574  35.669  35.609  1.00  0.00    -0.200 F 
ATOM    105  F   UNL A   1      43.777  36.429  38.103  1.00  0.00    -0.200 F 
ENDBRANCH  72  95
ENDBRANCH  46  47
ENDBRANCH  39  41
ENDBRANCH  38  39
ENDBRANCH  37  38
ENDBRANCH  36  37
ENDBRANCH  35  36
ENDBRANCH  34  35
ENDBRANCH  33  34
ENDBRANCH  32  33
ENDBRANCH  31  32
ENDBRANCH   1  31
TORSDOF 26
ENDMDL
MODEL 3
REMARK VINA RESULT:      -9.2      2.974      7.492
REMARK SMILES Cc1ccc(S(=O)(=O)N[C@@H](C)C(=O)Oc2csc(C(=O)OCCOCCOCCOCCOC(=O)c3ccc(-c4c5nc(c(-c6c(F)c(F)c(F)c(F)c6F)c6ccc([nH]6)c(-c6c(F)c(F)c(F)c(F)c6F)c6nc(c(-c7c(F)c(F)c(F)c(F)c7F)c7ccc4[nH]7)C=C6)C=C5)cc3)c2C)cc1
REMARK SMILES IDX 25 1 24 2 23 3 22 4 21 5 19 6 20 7 18 8 15 9 16 10 99 11
REMARK SMILES IDX 17 12 100 13 14 14 12 15 13 16 10 17 11 18 9 19 6 21 7 22
REMARK SMILES IDX 8 23 5 24 1 25 2 26 3 27 102 28 4 29 101 30 26 31 27 32
REMARK SMILES IDX 28 33 29 34 30 35 31 36 32 37 33 38 34 39 35 40 36 41 37 42
REMARK SMILES IDX 98 43 38 44 97 45 39 46 40 47 41 48 91 49 42 50 96 51 90 52
REMARK SMILES IDX 92 53 43 54 95 55 89 56 88 57 44 59 76 60 56 61 75 62 57 63
REMARK SMILES IDX 60 64 74 65 93 66 58 67 59 68 73 70 94 71 61 72 45 73 46 74
REMARK SMILES IDX 54 75 47 76 48 77 52 78 55 79 49 80 50 81 53 82 51 83 77 84
REMARK SMILES IDX 78 85 86 86 79 87 80 88 84 89 87 90 81 91 82 92 85 93 83 94
REMARK SMILES IDX 62 95 63 96 71 97 64 98 65 99 69 100 72 101 66 102 67 103
REMARK SMILES IDX 70 104 68 105
REMARK H PARENT 9 20 92 58 60 69
REMARK Flexibility Score: inf
ROOT
ATOM      1  C   UNL A   1      36.417  20.763  25.557  1.00  0.00     0.188 C 
ENDROOT
BRANCH   1   2
ATOM      2  O   UNL A   1      35.535  21.859  25.642  1.00  0.00    -0.376 OA
BRANCH   2   3
ATOM      3  C   UNL A   1      36.088  23.083  26.092  1.00  0.00     0.202 C 
BRANCH   3   4
ATOM      4  C   UNL A   1      35.968  24.179  25.057  1.00  0.00     0.261 C 
BRANCH   4   5
ATOM      5  O   UNL A   1      34.663  24.391  24.527  1.00  0.00    -0.459 OA
BRANCH   5   6
ATOM      6  C   UNL A   1      34.428  23.917  23.275  1.00  0.00     0.348 C 
ATOM      7  O   UNL A   1      35.244  23.313  22.598  1.00  0.00    -0.245 OA
BRANCH   6   8
ATOM      8  C   UNL A   1      33.140  24.380  22.840  1.00  0.00     0.119 A 
ATOM      9  C   UNL A   1      30.987  25.094  22.891  1.00  0.00     0.145 A 
ATOM     10  C   UNL A   1      31.452  25.847  21.845  1.00  0.00     0.113 A 
ATOM     11  C   UNL A   1      31.879  24.071  23.321  1.00  0.00     0.017 A 
ATOM     12  S   UNL A   1      33.095  25.511  21.551  1.00  0.00    -0.133 S 
ATOM     13  C   UNL A   1      31.496  23.013  24.314  1.00  0.00     0.050 C 
BRANCH   9  14
ATOM     14  O   UNL A   1      29.789  25.320  23.456  1.00  0.00    -0.424 OA
BRANCH  14  15
ATOM     15  C   UNL A   1      29.787  26.322  24.402  1.00  0.00     0.329 C 
ATOM     16  O   UNL A   1      30.574  26.457  25.334  1.00  0.00    -0.250 OA
BRANCH  15  17
ATOM     17  C   UNL A   1      28.691  27.316  24.086  1.00  0.00     0.177 C 
ATOM     18  C   UNL A   1      27.350  26.625  23.923  1.00  0.00     0.038 C 
BRANCH  17  19
ATOM     19  N   UNL A   1      29.172  28.004  22.889  1.00  0.00    -0.197 NA
ATOM     20  H   UNL A   1      29.886  27.396  22.490  1.00  0.00     0.142 HD
BRANCH  19  21
ATOM     21  S   UNL A   1      29.825  29.517  22.890  1.00  0.00     0.241 S 
ATOM     22  O   UNL A   1      28.901  30.377  23.606  1.00  0.00    -0.207 OA
ATOM     23  O   UNL A   1      30.200  29.776  21.525  1.00  0.00    -0.207 OA
BRANCH  21  24
ATOM     24  C   UNL A   1      31.311  29.414  23.845  1.00  0.00     0.082 A 
ATOM     25  C   UNL A   1      34.635  28.910  26.515  1.00  0.00     0.044 C 
ATOM     26  C   UNL A   1      33.486  29.086  25.568  1.00  0.00    -0.051 A 
ATOM     27  C   UNL A   1      32.332  29.748  26.004  1.00  0.00     0.005 A 
ATOM     28  C   UNL A   1      33.555  28.622  24.248  1.00  0.00     0.005 A 
ATOM     29  C   UNL A   1      31.242  29.898  25.152  1.00  0.00     0.022 A 
ATOM     30  C   UNL A   1      32.478  28.802  23.377  1.00  0.00     0.022 A 
ENDBRANCH  21  24
ENDBRANCH  19  21
ENDBRANCH  17  19
ENDBRANCH  15  17
ENDBRANCH  14  15
ENDBRANCH   9  14
ENDBRANCH   6   8
ENDBRANCH   5   6
ENDBRANCH   4   5
ENDBRANCH   3   4
ENDBRANCH   2   3
ENDBRANCH   1   2
BRANCH   1  31
ATOM     31  C   UNL A   1      37.902  21.087  25.309  1.00  0.00     0.188 C 
BRANCH  31  32
ATOM     32  O   UNL A   1      38.905  20.178  25.724  1.00  0.00    -0.377 OA
BRANCH  32  33
ATOM     33  C   UNL A   1      40.273  20.538  25.818  1.00  0.00     0.188 C 
BRANCH  33  34
ATOM     34  C   UNL A   1      40.739  21.036  27.179  1.00  0.00     0.188 C 
BRANCH  34  35
ATOM     35  O   UNL A   1      40.748  22.449  27.265  1.00  0.00    -0.376 OA
BRANCH  35  36
ATOM     36  C   UNL A   1      41.634  23.033  28.209  1.00  0.00     0.202 C 
BRANCH  36  37
ATOM     37  C   UNL A   1      42.141  24.396  27.737  1.00  0.00     0.261 C 
BRANCH  37  38
ATOM     38  O   UNL A   1      41.653  25.401  28.650  1.00  0.00    -0.460 OA
BRANCH  38  39
ATOM     39  C   UNL A   1      40.460  25.972  28.316  1.00  0.00     0.338 C 
ATOM     40  O   UNL A   1      39.782  25.672  27.347  1.00  0.00    -0.246 OA
BRANCH  39  41
ATOM     41  C   UNL A   1      40.220  27.196  29.140  1.00  0.00     0.060 A 
ATOM     42  C   UNL A   1      41.231  28.169  29.281  1.00  0.00     0.016 A 
ATOM     43  C   UNL A   1      39.104  27.258  29.964  1.00  0.00     0.016 A 
ATOM     44  C   UNL A   1      41.159  29.145  30.295  1.00  0.00     0.010 A 
ATOM     45  C   UNL A   1      39.073  28.180  30.998  1.00  0.00     0.010 A 
ATOM     46  C   UNL A   1      40.090  29.133  31.194  1.00  0.00    -0.014 A 
BRANCH  46  47
ATOM     47  C   UNL A   1      39.980  29.928  32.438  1.00  0.00     0.031 A 
ATOM     48  C   UNL A   1      40.987  29.768  33.537  1.00  0.00     0.074 A 
ATOM     49  C   UNL A   1      39.262  31.078  32.439  1.00  0.00     0.049 A 
ATOM     50  N   UNL A   1      41.049  30.520  34.584  1.00  0.00    -0.248 NA
ATOM     51  C   UNL A   1      42.023  28.738  33.570  1.00  0.00     0.031 C 
ATOM     52  C   UNL A   1      39.617  32.285  33.174  1.00  0.00     0.029 A 
ATOM     53  N   UNL A   1      38.160  31.488  31.715  1.00  0.00    -0.354 N 
ATOM     54  C   UNL A   1      42.317  30.420  35.100  1.00  0.00     0.074 A 
ATOM     55  C   UNL A   1      42.791  29.162  34.582  1.00  0.00     0.031 C 
ATOM     56  C   UNL A   1      38.679  33.222  33.034  1.00  0.00     0.029 A 
ATOM     57  C   UNL A   1      37.609  32.636  32.270  1.00  0.00     0.049 A 
ATOM     58  H   UNL A   1      37.813  31.032  30.915  1.00  0.00     0.167 HD
ATOM     59  C   UNL A   1      42.844  31.487  35.776  1.00  0.00     0.037 A 
ATOM     60  C   UNL A   1      36.306  32.942  32.455  1.00  0.00     0.037 A 
ATOM     61  C   UNL A   1      41.846  32.578  35.950  1.00  0.00     0.049 A 
ATOM     62  C   UNL A   1      36.188  33.116  33.957  1.00  0.00     0.074 A 
ATOM     63  C   UNL A   1      41.795  33.921  35.611  1.00  0.00     0.029 A 
ATOM     64  N   UNL A   1      40.543  32.262  36.372  1.00  0.00    -0.354 N 
ATOM     65  N   UNL A   1      36.997  32.462  34.771  1.00  0.00    -0.248 NA
ATOM     66  C   UNL A   1      35.502  34.224  34.621  1.00  0.00     0.031 C 
ATOM     67  C   UNL A   1      40.443  34.377  35.778  1.00  0.00     0.029 A 
ATOM     68  C   UNL A   1      39.657  33.322  36.231  1.00  0.00     0.049 A 
ATOM     69  H   UNL A   1      40.285  31.382  36.729  1.00  0.00     0.167 HD
ATOM     70  C   UNL A   1      37.194  33.243  35.876  1.00  0.00     0.074 A 
ATOM     71  C   UNL A   1      36.163  34.271  35.795  1.00  0.00     0.031 C 
ATOM     72  C   UNL A   1      38.276  33.217  36.714  1.00  0.00     0.037 A 
BRANCH  59  73
ATOM     73  C   UNL A   1      44.317  31.620  36.189  1.00  0.00     0.064 A 
ATOM     74  C   UNL A   1      45.295  32.034  35.254  1.00  0.00     0.173 A 
ATOM     75  C   UNL A   1      44.845  31.336  37.472  1.00  0.00     0.173 A 
ATOM     76  F   UNL A   1      44.969  32.299  33.982  1.00  0.00    -0.203 F 
ATOM     77  C   UNL A   1      46.651  32.196  35.589  1.00  0.00     0.198 A 
ATOM     78  C   UNL A   1      46.185  31.560  37.821  1.00  0.00     0.198 A 
ATOM     79  F   UNL A   1      44.112  30.772  38.436  1.00  0.00    -0.203 F 
ATOM     80  F   UNL A   1      47.532  32.563  34.646  1.00  0.00    -0.200 F 
ATOM     81  C   UNL A   1      47.090  31.989  36.879  1.00  0.00     0.200 A 
ATOM     82  F   UNL A   1      46.589  31.338  39.081  1.00  0.00    -0.200 F 
ATOM     83  F   UNL A   1      48.374  32.182  37.209  1.00  0.00    -0.200 F 
ENDBRANCH  59  73
BRANCH  60  84
ATOM     84  C   UNL A   1      35.449  32.481  31.333  1.00  0.00     0.064 A 
ATOM     85  C   UNL A   1      35.198  33.481  30.358  1.00  0.00     0.173 A 
ATOM     86  C   UNL A   1      35.575  31.165  30.859  1.00  0.00     0.173 A 
ATOM     87  F   UNL A   1      35.033  34.758  30.741  1.00  0.00    -0.203 F 
ATOM     88  C   UNL A   1      35.312  33.220  28.990  1.00  0.00     0.198 A 
ATOM     89  C   UNL A   1      35.715  30.913  29.484  1.00  0.00     0.198 A 
ATOM     90  F   UNL A   1      35.879  30.177  31.712  1.00  0.00    -0.203 F 
ATOM     91  F   UNL A   1      35.248  34.226  28.104  1.00  0.00    -0.200 F 
ATOM     92  C   UNL A   1      35.631  31.945  28.558  1.00  0.00     0.200 A 
ATOM     93  F   UNL A   1      36.125  29.704  29.074  1.00  0.00    -0.200 F 
ATOM     94  F   UNL A   1      35.940  31.727  27.272  1.00  0.00    -0.200 F 
ENDBRANCH  60  84
BRANCH  72  95
ATOM     95  C   UNL A   1      37.998  33.035  38.178  1.00  0.00     0.064 A 
ATOM     96  C   UNL A   1      37.509  31.826  38.707  1.00  0.00     0.173 A 
ATOM     97  C   UNL A   1      38.344  34.029  39.118  1.00  0.00     0.173 A 
ATOM     98  F   UNL A   1      37.252  30.763  37.928  1.00  0.00    -0.203 F 
ATOM     99  C   UNL A   1      37.296  31.658  40.069  1.00  0.00     0.198 A 
ATOM    100  C   UNL A   1      38.184  33.833  40.483  1.00  0.00     0.198 A 
ATOM    101  F   UNL A   1      38.870  35.206  38.751  1.00  0.00    -0.203 F 
ATOM    102  F   UNL A   1      36.768  30.511  40.516  1.00  0.00    -0.200 F 
ATOM    103  C   UNL A   1      37.633  32.661  40.957  1.00  0.00     0.200 A 
ATOM    104  F   UNL A   1      38.575  34.788  41.338  1.00  0.00    -0.200 F 
ATOM    105  F   UNL A   1      37.434  32.493  42.269  1.00  0.00    -0.200 F 
ENDBRANCH  72  95
ENDBRANCH  46  47
ENDBRANCH  39  41
ENDBRANCH  38  39
ENDBRANCH  37  38
ENDBRANCH  36  37
ENDBRANCH  35  36
ENDBRANCH  34  35
ENDBRANCH  33  34
ENDBRANCH  32  33
ENDBRANCH  31  32
ENDBRANCH   1  31
TORSDOF 26
ENDMDL
