MODEL 1
REMARK VINA RESULT:     -10.3      0.000      0.000
REMARK SMILES O=C(OCCOCCOCCOCCOC(=O)[C@H]1CCCCN1C(=O)c1cn2ccccc2n1)c1ccc(-c2c3nc(c(-c4c(F)c(F)c(F)c(F)c4F)c4ccc([nH]4)c(-c4c(F)c(F)c(F)c(F)c4F)c4nc(c(-c5c(F)c(F)c(F)c(F)c5F)c5ccc2[nH]5)C=C4)C=C3)cc1
REMARK SMILES IDX 9 1 8 2 7 3 6 4 5 5 4 6 3 7 2 8 1 9 35 10 36 11 97 12 37 13
REMARK SMILES IDX 96 14 38 15 39 16 40 17 90 18 41 19 95 20 89 21 91 22 42 23
REMARK SMILES IDX 94 24 88 25 87 26 43 28 75 29 55 30 74 31 56 32 59 33 73 34
REMARK SMILES IDX 92 35 57 36 58 37 72 39 93 40 60 41 44 42 45 43 53 44 46 45
REMARK SMILES IDX 47 46 51 47 54 48 48 49 49 50 52 51 50 52 76 53 77 54 85 55
REMARK SMILES IDX 78 56 79 57 83 58 86 59 80 60 81 61 84 62 82 63 61 64 62 65
REMARK SMILES IDX 70 66 63 67 64 68 68 69 71 70 65 71 66 72 69 73 67 74 10 75
REMARK SMILES IDX 11 76 12 77 13 78 14 79 15 80 16 81 17 82 18 83 19 84 23 85
REMARK SMILES IDX 20 86 22 87 21 88 24 89 25 90 26 91 27 92 34 93 28 94 33 95
REMARK SMILES IDX 29 96 32 97 30 98 31 99
REMARK H PARENT 91 27 59 38
REMARK Flexibility Score: inf
ROOT
ATOM      1  O   UNL A   1      35.139  33.080  28.108  1.00  0.00    -0.377 OA
ENDROOT
BRANCH   1   2
ATOM      2  C   UNL A   1      34.307  33.689  29.089  1.00  0.00     0.188 C 
BRANCH   2   3
ATOM      3  C   UNL A   1      34.750  33.375  30.516  1.00  0.00     0.188 C 
BRANCH   3   4
ATOM      4  O   UNL A   1      34.581  34.540  31.331  1.00  0.00    -0.376 OA
BRANCH   4   5
ATOM      5  C   UNL A   1      34.016  34.323  32.620  1.00  0.00     0.202 C 
BRANCH   5   6
ATOM      6  C   UNL A   1      34.635  33.168  33.403  1.00  0.00     0.261 C 
BRANCH   6   7
ATOM      7  O   UNL A   1      36.015  33.413  33.699  1.00  0.00    -0.460 OA
BRANCH   7   8
ATOM      8  C   UNL A   1      36.926  32.518  34.158  1.00  0.00     0.338 C 
ATOM      9  O   UNL A   1      37.045  32.379  35.374  1.00  0.00    -0.246 OA
BRANCH   8  10
ATOM     10  C   UNL A   1      37.769  31.658  33.270  1.00  0.00     0.060 A 
ATOM     11  C   UNL A   1      38.357  30.442  33.628  1.00  0.00     0.016 A 
ATOM     12  C   UNL A   1      37.963  32.113  31.955  1.00  0.00     0.016 A 
ATOM     13  C   UNL A   1      39.193  29.751  32.772  1.00  0.00     0.010 A 
ATOM     14  C   UNL A   1      38.793  31.419  31.072  1.00  0.00     0.010 A 
ATOM     15  C   UNL A   1      39.447  30.264  31.509  1.00  0.00    -0.014 A 
BRANCH  15  16
ATOM     16  C   UNL A   1      40.614  29.713  30.810  1.00  0.00     0.031 A 
ATOM     17  C   UNL A   1      41.929  30.383  31.055  1.00  0.00     0.074 A 
ATOM     18  C   UNL A   1      40.520  28.537  30.168  1.00  0.00     0.049 A 
ATOM     19  N   UNL A   1      43.093  30.159  30.512  1.00  0.00    -0.248 NA
ATOM     20  C   UNL A   1      41.938  31.445  32.079  1.00  0.00     0.031 C 
ATOM     21  C   UNL A   1      39.309  27.718  30.082  1.00  0.00     0.029 A 
ATOM     22  N   UNL A   1      41.468  27.807  29.512  1.00  0.00    -0.354 N 
ATOM     23  C   UNL A   1      43.952  31.091  31.080  1.00  0.00     0.074 A 
ATOM     24  C   UNL A   1      43.189  31.866  32.028  1.00  0.00     0.031 C 
ATOM     25  C   UNL A   1      39.596  26.585  29.423  1.00  0.00     0.029 A 
ATOM     26  C   UNL A   1      40.980  26.646  28.968  1.00  0.00     0.049 A 
ATOM     27  H   UNL A   1      42.409  28.087  29.435  1.00  0.00     0.167 HD
ATOM     28  C   UNL A   1      45.259  31.284  30.801  1.00  0.00     0.037 A 
ATOM     29  C   UNL A   1      41.589  25.770  28.150  1.00  0.00     0.037 A 
ATOM     30  C   UNL A   1      45.972  30.473  29.854  1.00  0.00     0.049 A 
ATOM     31  C   UNL A   1      43.012  26.069  27.758  1.00  0.00     0.074 A 
ATOM     32  C   UNL A   1      47.265  30.604  29.390  1.00  0.00     0.029 A 
ATOM     33  N   UNL A   1      45.425  29.357  29.228  1.00  0.00    -0.354 N 
ATOM     34  N   UNL A   1      43.799  27.035  28.176  1.00  0.00    -0.248 NA
ATOM     35  C   UNL A   1      43.622  25.183  26.762  1.00  0.00     0.031 C 
ATOM     36  C   UNL A   1      47.486  29.589  28.450  1.00  0.00     0.029 A 
ATOM     37  C   UNL A   1      46.349  28.796  28.368  1.00  0.00     0.049 A 
ATOM     38  H   UNL A   1      44.513  29.018  29.377  1.00  0.00     0.167 HD
ATOM     39  C   UNL A   1      45.000  26.870  27.505  1.00  0.00     0.074 A 
ATOM     40  C   UNL A   1      44.842  25.696  26.665  1.00  0.00     0.031 C 
ATOM     41  C   UNL A   1      46.132  27.616  27.565  1.00  0.00     0.037 A 
BRANCH  28  42
ATOM     42  C   UNL A   1      45.917  32.472  31.439  1.00  0.00     0.064 A 
ATOM     43  C   UNL A   1      46.420  32.439  32.750  1.00  0.00     0.173 A 
ATOM     44  C   UNL A   1      45.953  33.697  30.756  1.00  0.00     0.173 A 
ATOM     45  F   UNL A   1      46.371  31.305  33.463  1.00  0.00    -0.203 F 
ATOM     46  C   UNL A   1      46.893  33.598  33.365  1.00  0.00     0.198 A 
ATOM     47  C   UNL A   1      46.452  34.846  31.363  1.00  0.00     0.198 A 
ATOM     48  F   UNL A   1      45.471  33.788  29.507  1.00  0.00    -0.203 F 
ATOM     49  F   UNL A   1      47.290  33.561  34.644  1.00  0.00    -0.200 F 
ATOM     50  C   UNL A   1      46.909  34.799  32.671  1.00  0.00     0.200 A 
ATOM     51  F   UNL A   1      46.463  36.006  30.693  1.00  0.00    -0.200 F 
ATOM     52  F   UNL A   1      47.340  35.917  33.272  1.00  0.00    -0.200 F 
ENDBRANCH  28  42
BRANCH  29  53
ATOM     53  C   UNL A   1      40.844  24.602  27.611  1.00  0.00     0.064 A 
ATOM     54  C   UNL A   1      41.130  23.298  28.034  1.00  0.00     0.173 A 
ATOM     55  C   UNL A   1      39.812  24.768  26.672  1.00  0.00     0.173 A 
ATOM     56  F   UNL A   1      42.119  23.081  28.914  1.00  0.00    -0.203 F 
ATOM     57  C   UNL A   1      40.419  22.206  27.536  1.00  0.00     0.198 A 
ATOM     58  C   UNL A   1      39.083  23.679  26.198  1.00  0.00     0.198 A 
ATOM     59  F   UNL A   1      39.499  25.993  26.226  1.00  0.00    -0.203 F 
ATOM     60  F   UNL A   1      40.737  20.966  27.931  1.00  0.00    -0.200 F 
ATOM     61  C   UNL A   1      39.390  22.398  26.626  1.00  0.00     0.200 A 
ATOM     62  F   UNL A   1      38.081  23.874  25.329  1.00  0.00    -0.200 F 
ATOM     63  F   UNL A   1      38.701  21.349  26.156  1.00  0.00    -0.200 F 
ENDBRANCH  29  53
BRANCH  41  64
ATOM     64  C   UNL A   1      47.284  27.153  26.730  1.00  0.00     0.064 A 
ATOM     65  C   UNL A   1      47.510  27.661  25.445  1.00  0.00     0.173 A 
ATOM     66  C   UNL A   1      48.203  26.231  27.253  1.00  0.00     0.173 A 
ATOM     67  F   UNL A   1      46.646  28.534  24.902  1.00  0.00    -0.203 F 
ATOM     68  C   UNL A   1      48.608  27.246  24.699  1.00  0.00     0.198 A 
ATOM     69  C   UNL A   1      49.316  25.841  26.516  1.00  0.00     0.198 A 
ATOM     70  F   UNL A   1      48.030  25.726  28.483  1.00  0.00    -0.203 F 
ATOM     71  F   UNL A   1      48.786  27.710  23.455  1.00  0.00    -0.200 F 
ATOM     72  C   UNL A   1      49.514  26.344  25.239  1.00  0.00     0.200 A 
ATOM     73  F   UNL A   1      50.198  24.982  27.045  1.00  0.00    -0.200 F 
ATOM     74  F   UNL A   1      50.578  25.954  24.524  1.00  0.00    -0.200 F 
ENDBRANCH  41  64
ENDBRANCH  15  16
ENDBRANCH   8  10
ENDBRANCH   7   8
ENDBRANCH   6   7
ENDBRANCH   5   6
ENDBRANCH   4   5
ENDBRANCH   3   4
ENDBRANCH   2   3
ENDBRANCH   1   2
BRANCH   1  75
ATOM     75  C   UNL A   1      36.098  32.154  28.600  1.00  0.00     0.188 C 
BRANCH  75  76
ATOM     76  C   UNL A   1      36.102  30.746  27.977  1.00  0.00     0.188 C 
BRANCH  76  77
ATOM     77  O   UNL A   1      34.839  30.332  27.479  1.00  0.00    -0.376 OA
BRANCH  77  78
ATOM     78  C   UNL A   1      34.765  28.958  27.113  1.00  0.00     0.202 C 
BRANCH  78  79
ATOM     79  C   UNL A   1      33.396  28.496  26.583  1.00  0.00     0.261 C 
BRANCH  79  80
ATOM     80  O   UNL A   1      33.335  27.170  25.999  1.00  0.00    -0.462 OA
BRANCH  80  81
ATOM     81  C   UNL A   1      32.126  26.545  25.922  1.00  0.00     0.328 C 
ATOM     82  O   UNL A   1      31.377  26.444  26.871  1.00  0.00    -0.250 OA
BRANCH  81  83
ATOM     83  C   UNL A   1      31.827  26.010  24.476  1.00  0.00     0.195 C 
ATOM     84  C   UNL A   1      30.336  26.274  24.194  1.00  0.00     0.037 C 
ATOM     85  N   UNL A   1      32.608  26.502  23.290  1.00  0.00    -0.323 N 
ATOM     86  C   UNL A   1      30.074  27.748  23.856  1.00  0.00     0.005 C 
ATOM     87  C   UNL A   1      32.392  27.892  22.881  1.00  0.00     0.121 C 
ATOM     88  C   UNL A   1      30.916  28.192  22.665  1.00  0.00     0.022 C 
BRANCH  85  89
ATOM     89  C   UNL A   1      33.303  25.563  22.493  1.00  0.00     0.274 C 
ATOM     90  O   UNL A   1      33.605  25.808  21.327  1.00  0.00    -0.267 OA
BRANCH  89  91
ATOM     91  C   UNL A   1      33.636  24.250  23.083  1.00  0.00     0.147 A 
ATOM     92  C   UNL A   1      34.758  23.952  23.831  1.00  0.00     0.127 A 
ATOM     93  N   UNL A   1      32.815  23.130  23.022  1.00  0.00    -0.223 NA
ATOM     94  N   UNL A   1      34.681  22.621  24.144  1.00  0.00    -0.306 N 
ATOM     95  C   UNL A   1      33.439  22.184  23.701  1.00  0.00     0.137 A 
ATOM     96  C   UNL A   1      35.618  21.796  24.767  1.00  0.00     0.093 A 
ATOM     97  C   UNL A   1      33.082  20.842  24.029  1.00  0.00     0.048 A 
ATOM     98  C   UNL A   1      35.306  20.509  25.001  1.00  0.00     0.018 A 
ATOM     99  C   UNL A   1      33.973  20.040  24.648  1.00  0.00     0.005 A 
ENDBRANCH  89  91
ENDBRANCH  85  89
ENDBRANCH  81  83
ENDBRANCH  80  81
ENDBRANCH  79  80
ENDBRANCH  78  79
ENDBRANCH  77  78
ENDBRANCH  76  77
ENDBRANCH  75  76
ENDBRANCH   1  75
TORSDOF 22
ENDMDL
MODEL 2
REMARK VINA RESULT:      -9.9      1.513      3.843
REMARK SMILES O=C(OCCOCCOCCOCCOC(=O)[C@H]1CCCCN1C(=O)c1cn2ccccc2n1)c1ccc(-c2c3nc(c(-c4c(F)c(F)c(F)c(F)c4F)c4ccc([nH]4)c(-c4c(F)c(F)c(F)c(F)c4F)c4nc(c(-c5c(F)c(F)c(F)c(F)c5F)c5ccc2[nH]5)C=C4)C=C3)cc1
REMARK SMILES IDX 9 1 8 2 7 3 6 4 5 5 4 6 3 7 2 8 1 9 35 10 36 11 97 12 37 13
REMARK SMILES IDX 96 14 38 15 39 16 40 17 90 18 41 19 95 20 89 21 91 22 42 23
REMARK SMILES IDX 94 24 88 25 87 26 43 28 75 29 55 30 74 31 56 32 59 33 73 34
REMARK SMILES IDX 92 35 57 36 58 37 72 39 93 40 60 41 44 42 45 43 53 44 46 45
REMARK SMILES IDX 47 46 51 47 54 48 48 49 49 50 52 51 50 52 76 53 77 54 85 55
REMARK SMILES IDX 78 56 79 57 83 58 86 59 80 60 81 61 84 62 82 63 61 64 62 65
REMARK SMILES IDX 70 66 63 67 64 68 68 69 71 70 65 71 66 72 69 73 67 74 10 75
REMARK SMILES IDX 11 76 12 77 13 78 14 79 15 80 16 81 17 82 18 83 19 84 23 85
REMARK SMILES IDX 20 86 22 87 21 88 24 89 25 90 26 91 27 92 34 93 28 94 33 95
REMARK SMILES IDX 29 96 32 97 30 98 31 99
REMARK H PARENT 91 27 59 38
REMARK Flexibility Score: inf
ROOT
ATOM      1  O   UNL A   1      34.704  33.504  27.806  1.00  0.00    -0.377 OA
ENDROOT
BRANCH   1   2
ATOM      2  C   UNL A   1      34.239  34.128  28.997  1.00  0.00     0.188 C 
BRANCH   2   3
ATOM      3  C   UNL A   1      34.810  33.491  30.260  1.00  0.00     0.188 C 
BRANCH   3   4
ATOM      4  O   UNL A   1      35.015  34.505  31.251  1.00  0.00    -0.376 OA
BRANCH   4   5
ATOM      5  C   UNL A   1      34.416  34.267  32.520  1.00  0.00     0.202 C 
BRANCH   5   6
ATOM      6  C   UNL A   1      34.933  33.029  33.250  1.00  0.00     0.261 C 
BRANCH   6   7
ATOM      7  O   UNL A   1      36.024  33.349  34.121  1.00  0.00    -0.460 OA
BRANCH   7   8
ATOM      8  C   UNL A   1      37.006  32.515  34.545  1.00  0.00     0.338 C 
ATOM      9  O   UNL A   1      37.204  32.414  35.754  1.00  0.00    -0.246 OA
BRANCH   8  10
ATOM     10  C   UNL A   1      37.840  31.676  33.627  1.00  0.00     0.060 A 
ATOM     11  C   UNL A   1      38.450  30.463  33.957  1.00  0.00     0.016 A 
ATOM     12  C   UNL A   1      37.998  32.149  32.314  1.00  0.00     0.016 A 
ATOM     13  C   UNL A   1      39.275  29.794  33.075  1.00  0.00     0.010 A 
ATOM     14  C   UNL A   1      38.817  31.477  31.404  1.00  0.00     0.010 A 
ATOM     15  C   UNL A   1      39.495  30.324  31.813  1.00  0.00    -0.014 A 
BRANCH  15  16
ATOM     16  C   UNL A   1      40.653  29.796  31.081  1.00  0.00     0.031 A 
ATOM     17  C   UNL A   1      41.970  30.463  31.326  1.00  0.00     0.074 A 
ATOM     18  C   UNL A   1      40.551  28.639  30.408  1.00  0.00     0.049 A 
ATOM     19  N   UNL A   1      43.126  30.258  30.759  1.00  0.00    -0.248 NA
ATOM     20  C   UNL A   1      41.991  31.496  32.379  1.00  0.00     0.031 C 
ATOM     21  C   UNL A   1      39.341  27.820  30.317  1.00  0.00     0.029 A 
ATOM     22  N   UNL A   1      41.492  27.931  29.717  1.00  0.00    -0.354 N 
ATOM     23  C   UNL A   1      43.991  31.176  31.340  1.00  0.00     0.074 A 
ATOM     24  C   UNL A   1      43.240  31.922  32.321  1.00  0.00     0.031 C 
ATOM     25  C   UNL A   1      39.621  26.706  29.622  1.00  0.00     0.029 A 
ATOM     26  C   UNL A   1      40.999  26.784  29.148  1.00  0.00     0.049 A 
ATOM     27  H   UNL A   1      42.431  28.215  29.634  1.00  0.00     0.167 HD
ATOM     28  C   UNL A   1      45.294  31.380  31.047  1.00  0.00     0.037 A 
ATOM     29  C   UNL A   1      41.597  25.933  28.297  1.00  0.00     0.037 A 
ATOM     30  C   UNL A   1      45.994  30.599  30.068  1.00  0.00     0.049 A 
ATOM     31  C   UNL A   1      43.013  26.246  27.892  1.00  0.00     0.074 A 
ATOM     32  C   UNL A   1      47.279  30.746  29.588  1.00  0.00     0.029 A 
ATOM     33  N   UNL A   1      45.440  29.499  29.419  1.00  0.00    -0.354 N 
ATOM     34  N   UNL A   1      43.804  27.203  28.326  1.00  0.00    -0.248 NA
ATOM     35  C   UNL A   1      43.610  25.391  26.863  1.00  0.00     0.031 C 
ATOM     36  C   UNL A   1      47.489  29.758  28.616  1.00  0.00     0.029 A 
ATOM     37  C   UNL A   1      46.352  28.964  28.529  1.00  0.00     0.049 A 
ATOM     38  H   UNL A   1      44.531  29.153  29.571  1.00  0.00     0.167 HD
ATOM     39  C   UNL A   1      44.996  27.059  27.632  1.00  0.00     0.074 A 
ATOM     40  C   UNL A   1      44.828  25.909  26.763  1.00  0.00     0.031 C 
ATOM     41  C   UNL A   1      46.127  27.807  27.697  1.00  0.00     0.037 A 
BRANCH  28  42
ATOM     42  C   UNL A   1      45.958  32.551  31.709  1.00  0.00     0.064 A 
ATOM     43  C   UNL A   1      45.983  33.829  31.128  1.00  0.00     0.173 A 
ATOM     44  C   UNL A   1      46.670  32.363  32.903  1.00  0.00     0.173 A 
ATOM     45  F   UNL A   1      45.355  34.054  29.964  1.00  0.00    -0.203 F 
ATOM     46  C   UNL A   1      46.732  34.860  31.695  1.00  0.00     0.198 A 
ATOM     47  C   UNL A   1      47.394  33.402  33.483  1.00  0.00     0.198 A 
ATOM     48  F   UNL A   1      46.694  31.158  33.493  1.00  0.00    -0.203 F 
ATOM     49  F   UNL A   1      46.809  36.047  31.079  1.00  0.00    -0.200 F 
ATOM     50  C   UNL A   1      47.435  34.645  32.871  1.00  0.00     0.200 A 
ATOM     51  F   UNL A   1      48.076  33.191  34.616  1.00  0.00    -0.200 F 
ATOM     52  F   UNL A   1      48.174  35.630  33.401  1.00  0.00    -0.200 F 
ENDBRANCH  28  42
BRANCH  29  53
ATOM     53  C   UNL A   1      40.847  24.779  27.737  1.00  0.00     0.064 A 
ATOM     54  C   UNL A   1      41.132  23.465  28.129  1.00  0.00     0.173 A 
ATOM     55  C   UNL A   1      39.811  24.967  26.806  1.00  0.00     0.173 A 
ATOM     56  F   UNL A   1      42.125  23.227  28.999  1.00  0.00    -0.203 F 
ATOM     57  C   UNL A   1      40.417  22.385  27.611  1.00  0.00     0.198 A 
ATOM     58  C   UNL A   1      39.077  23.890  26.313  1.00  0.00     0.198 A 
ATOM     59  F   UNL A   1      39.497  26.202  26.389  1.00  0.00    -0.203 F 
ATOM     60  F   UNL A   1      40.734  21.136  27.978  1.00  0.00    -0.200 F 
ATOM     61  C   UNL A   1      39.384  22.599  26.711  1.00  0.00     0.200 A 
ATOM     62  F   UNL A   1      38.070  24.106  25.454  1.00  0.00    -0.200 F 
ATOM     63  F   UNL A   1      38.690  21.562  26.222  1.00  0.00    -0.200 F 
ENDBRANCH  29  53
BRANCH  41  64
ATOM     64  C   UNL A   1      47.267  27.371  26.832  1.00  0.00     0.064 A 
ATOM     65  C   UNL A   1      48.235  26.468  27.294  1.00  0.00     0.173 A 
ATOM     66  C   UNL A   1      47.355  27.820  25.507  1.00  0.00     0.173 A 
ATOM     67  F   UNL A   1      48.196  26.026  28.561  1.00  0.00    -0.203 F 
ATOM     68  C   UNL A   1      49.266  26.045  26.463  1.00  0.00     0.198 A 
ATOM     69  C   UNL A   1      48.370  27.371  24.670  1.00  0.00     0.198 A 
ATOM     70  F   UNL A   1      46.445  28.677  25.022  1.00  0.00    -0.203 F 
ATOM     71  F   UNL A   1      50.206  25.215  26.933  1.00  0.00    -0.200 F 
ATOM     72  C   UNL A   1      49.327  26.490  25.150  1.00  0.00     0.200 A 
ATOM     73  F   UNL A   1      48.419  27.790  23.397  1.00  0.00    -0.200 F 
ATOM     74  F   UNL A   1      50.314  26.072  24.346  1.00  0.00    -0.200 F 
ENDBRANCH  41  64
ENDBRANCH  15  16
ENDBRANCH   8  10
ENDBRANCH   7   8
ENDBRANCH   6   7
ENDBRANCH   5   6
ENDBRANCH   4   5
ENDBRANCH   3   4
ENDBRANCH   2   3
ENDBRANCH   1   2
BRANCH   1  75
ATOM     75  C   UNL A   1      35.730  32.535  27.977  1.00  0.00     0.188 C 
BRANCH  75  76
ATOM     76  C   UNL A   1      35.359  31.063  27.717  1.00  0.00     0.188 C 
BRANCH  76  77
ATOM     77  O   UNL A   1      34.010  30.870  27.318  1.00  0.00    -0.376 OA
BRANCH  77  78
ATOM     78  C   UNL A   1      33.629  29.509  27.146  1.00  0.00     0.202 C 
BRANCH  78  79
ATOM     79  C   UNL A   1      34.015  28.888  25.792  1.00  0.00     0.261 C 
BRANCH  79  80
ATOM     80  O   UNL A   1      33.116  29.132  24.681  1.00  0.00    -0.462 OA
BRANCH  80  81
ATOM     81  C   UNL A   1      33.447  28.644  23.453  1.00  0.00     0.328 C 
ATOM     82  O   UNL A   1      34.516  28.866  22.923  1.00  0.00    -0.250 OA
BRANCH  81  83
ATOM     83  C   UNL A   1      32.304  27.759  22.840  1.00  0.00     0.195 C 
ATOM     84  C   UNL A   1      32.980  26.693  21.957  1.00  0.00     0.037 C 
ATOM     85  N   UNL A   1      31.311  27.056  23.720  1.00  0.00    -0.323 N 
ATOM     86  C   UNL A   1      33.595  25.566  22.798  1.00  0.00     0.005 C 
ATOM     87  C   UNL A   1      31.811  25.945  24.533  1.00  0.00     0.121 C 
ATOM     88  C   UNL A   1      32.544  24.914  23.688  1.00  0.00     0.022 C 
BRANCH  85  89
ATOM     89  C   UNL A   1      29.933  27.322  23.544  1.00  0.00     0.274 C 
ATOM     90  O   UNL A   1      29.084  26.447  23.695  1.00  0.00    -0.267 OA
BRANCH  89  91
ATOM     91  C   UNL A   1      29.527  28.683  23.135  1.00  0.00     0.147 A 
ATOM     92  C   UNL A   1      29.760  29.850  23.836  1.00  0.00     0.127 A 
ATOM     93  N   UNL A   1      28.902  28.990  21.932  1.00  0.00    -0.223 NA
ATOM     94  N   UNL A   1      29.188  30.864  23.116  1.00  0.00    -0.306 N 
ATOM     95  C   UNL A   1      28.752  30.302  21.923  1.00  0.00     0.137 A 
ATOM     96  C   UNL A   1      29.024  32.210  23.446  1.00  0.00     0.093 A 
ATOM     97  C   UNL A   1      28.223  31.202  20.950  1.00  0.00     0.048 A 
ATOM     98  C   UNL A   1      28.451  33.039  22.555  1.00  0.00     0.018 A 
ATOM     99  C   UNL A   1      28.078  32.509  21.251  1.00  0.00     0.005 A 
ENDBRANCH  89  91
ENDBRANCH  85  89
ENDBRANCH  81  83
ENDBRANCH  80  81
ENDBRANCH  79  80
ENDBRANCH  78  79
ENDBRANCH  77  78
ENDBRANCH  76  77
ENDBRANCH  75  76
ENDBRANCH   1  75
TORSDOF 22
ENDMDL
MODEL 3
REMARK VINA RESULT:      -9.8      5.262      8.608
REMARK SMILES O=C(OCCOCCOCCOCCOC(=O)[C@H]1CCCCN1C(=O)c1cn2ccccc2n1)c1ccc(-c2c3nc(c(-c4c(F)c(F)c(F)c(F)c4F)c4ccc([nH]4)c(-c4c(F)c(F)c(F)c(F)c4F)c4nc(c(-c5c(F)c(F)c(F)c(F)c5F)c5ccc2[nH]5)C=C4)C=C3)cc1
REMARK SMILES IDX 9 1 8 2 7 3 6 4 5 5 4 6 3 7 2 8 1 9 35 10 36 11 97 12 37 13
REMARK SMILES IDX 96 14 38 15 39 16 40 17 90 18 41 19 95 20 89 21 91 22 42 23
REMARK SMILES IDX 94 24 88 25 87 26 43 28 75 29 55 30 74 31 56 32 59 33 73 34
REMARK SMILES IDX 92 35 57 36 58 37 72 39 93 40 60 41 44 42 45 43 53 44 46 45
REMARK SMILES IDX 47 46 51 47 54 48 48 49 49 50 52 51 50 52 76 53 77 54 85 55
REMARK SMILES IDX 78 56 79 57 83 58 86 59 80 60 81 61 84 62 82 63 61 64 62 65
REMARK SMILES IDX 70 66 63 67 64 68 68 69 71 70 65 71 66 72 69 73 67 74 10 75
REMARK SMILES IDX 11 76 12 77 13 78 14 79 15 80 16 81 17 82 18 83 19 84 23 85
REMARK SMILES IDX 20 86 22 87 21 88 24 89 25 90 26 91 27 92 34 93 28 94 33 95
REMARK SMILES IDX 29 96 32 97 30 98 31 99
REMARK H PARENT 91 27 59 38
REMARK Flexibility Score: inf
ROOT
ATOM      1  O   UNL A   1      38.884  32.322  39.461  1.00  0.00    -0.377 OA
ENDROOT
BRANCH   1   2
ATOM      2  C   UNL A   1      39.514  33.554  39.791  1.00  0.00     0.188 C 
BRANCH   2   3
ATOM      3  C   UNL A   1      41.037  33.453  39.811  1.00  0.00     0.188 C 
BRANCH   3   4
ATOM      4  O   UNL A   1      41.541  34.132  40.966  1.00  0.00    -0.376 OA
BRANCH   4   5
ATOM      5  C   UNL A   1      42.383  35.252  40.713  1.00  0.00     0.202 C 
BRANCH   5   6
ATOM      6  C   UNL A   1      41.661  36.597  40.669  1.00  0.00     0.261 C 
BRANCH   6   7
ATOM      7  O   UNL A   1      41.642  37.141  39.344  1.00  0.00    -0.460 OA
BRANCH   7   8
ATOM      8  C   UNL A   1      40.786  36.824  38.341  1.00  0.00     0.338 C 
ATOM      9  O   UNL A   1      39.593  37.082  38.487  1.00  0.00    -0.246 OA
BRANCH   8  10
ATOM     10  C   UNL A   1      41.215  36.213  37.043  1.00  0.00     0.060 A 
ATOM     11  C   UNL A   1      40.384  35.943  35.953  1.00  0.00     0.016 A 
ATOM     12  C   UNL A   1      42.579  35.909  36.912  1.00  0.00     0.016 A 
ATOM     13  C   UNL A   1      40.843  35.298  34.822  1.00  0.00     0.010 A 
ATOM     14  C   UNL A   1      43.065  35.270  35.769  1.00  0.00     0.010 A 
ATOM     15  C   UNL A   1      42.176  34.920  34.748  1.00  0.00    -0.014 A 
BRANCH  15  16
ATOM     16  C   UNL A   1      42.511  33.921  33.727  1.00  0.00     0.031 A 
ATOM     17  C   UNL A   1      42.923  34.438  32.384  1.00  0.00     0.074 A 
ATOM     18  C   UNL A   1      42.649  32.631  34.069  1.00  0.00     0.049 A 
ATOM     19  N   UNL A   1      43.191  33.787  31.286  1.00  0.00    -0.248 NA
ATOM     20  C   UNL A   1      43.078  35.901  32.269  1.00  0.00     0.031 C 
ATOM     21  C   UNL A   1      42.477  32.093  35.420  1.00  0.00     0.029 A 
ATOM     22  N   UNL A   1      43.011  31.549  33.319  1.00  0.00    -0.354 N 
ATOM     23  C   UNL A   1      43.482  34.761  30.341  1.00  0.00     0.074 A 
ATOM     24  C   UNL A   1      43.385  36.045  30.992  1.00  0.00     0.031 C 
ATOM     25  C   UNL A   1      42.753  30.780  35.404  1.00  0.00     0.029 A 
ATOM     26  C   UNL A   1      43.031  30.377  34.030  1.00  0.00     0.049 A 
ATOM     27  H   UNL A   1      43.235  31.605  32.361  1.00  0.00     0.167 HD
ATOM     28  C   UNL A   1      43.777  34.580  29.035  1.00  0.00     0.037 A 
ATOM     29  C   UNL A   1      43.203  29.118  33.589  1.00  0.00     0.037 A 
ATOM     30  C   UNL A   1      43.870  33.276  28.441  1.00  0.00     0.049 A 
ATOM     31  C   UNL A   1      43.414  28.930  32.110  1.00  0.00     0.074 A 
ATOM     32  C   UNL A   1      44.061  32.929  27.119  1.00  0.00     0.029 A 
ATOM     33  N   UNL A   1      43.780  32.090  29.165  1.00  0.00    -0.354 N 
ATOM     34  N   UNL A   1      43.547  29.841  31.172  1.00  0.00    -0.248 NA
ATOM     35  C   UNL A   1      43.465  27.549  31.622  1.00  0.00     0.031 C 
ATOM     36  C   UNL A   1      44.045  31.530  27.038  1.00  0.00     0.029 A 
ATOM     37  C   UNL A   1      43.896  31.006  28.316  1.00  0.00     0.049 A 
ATOM     38  H   UNL A   1      43.652  32.033  30.139  1.00  0.00     0.167 HD
ATOM     39  C   UNL A   1      43.710  29.147  29.983  1.00  0.00     0.074 A 
ATOM     40  C   UNL A   1      43.677  27.736  30.325  1.00  0.00     0.031 C 
ATOM     41  C   UNL A   1      43.867  29.622  28.721  1.00  0.00     0.037 A 
BRANCH  28  42
ATOM     42  C   UNL A   1      43.887  35.814  28.190  1.00  0.00     0.064 A 
ATOM     43  C   UNL A   1      45.109  36.472  27.974  1.00  0.00     0.173 A 
ATOM     44  C   UNL A   1      42.727  36.406  27.669  1.00  0.00     0.173 A 
ATOM     45  F   UNL A   1      46.244  35.972  28.487  1.00  0.00    -0.203 F 
ATOM     46  C   UNL A   1      45.157  37.695  27.307  1.00  0.00     0.198 A 
ATOM     47  C   UNL A   1      42.781  37.614  26.978  1.00  0.00     0.198 A 
ATOM     48  F   UNL A   1      41.530  35.829  27.859  1.00  0.00    -0.203 F 
ATOM     49  F   UNL A   1      46.322  38.345  27.186  1.00  0.00    -0.200 F 
ATOM     50  C   UNL A   1      43.994  38.264  26.810  1.00  0.00     0.200 A 
ATOM     51  F   UNL A   1      41.656  38.163  26.502  1.00  0.00    -0.200 F 
ATOM     52  F   UNL A   1      44.038  39.452  26.191  1.00  0.00    -0.200 F 
ENDBRANCH  28  42
BRANCH  29  53
ATOM     53  C   UNL A   1      43.112  27.973  34.532  1.00  0.00     0.064 A 
ATOM     54  C   UNL A   1      41.942  27.213  34.645  1.00  0.00     0.173 A 
ATOM     55  C   UNL A   1      44.206  27.600  35.331  1.00  0.00     0.173 A 
ATOM     56  F   UNL A   1      40.860  27.538  33.920  1.00  0.00    -0.203 F 
ATOM     57  C   UNL A   1      41.865  26.130  35.521  1.00  0.00     0.198 A 
ATOM     58  C   UNL A   1      44.139  26.500  36.184  1.00  0.00     0.198 A 
ATOM     59  F   UNL A   1      45.351  28.294  35.270  1.00  0.00    -0.203 F 
ATOM     60  F   UNL A   1      40.720  25.442  35.634  1.00  0.00    -0.200 F 
ATOM     61  C   UNL A   1      42.966  25.769  36.283  1.00  0.00     0.200 A 
ATOM     62  F   UNL A   1      45.211  26.147  36.906  1.00  0.00    -0.200 F 
ATOM     63  F   UNL A   1      42.895  24.722  37.116  1.00  0.00    -0.200 F 
ENDBRANCH  29  53
BRANCH  41  64
ATOM     64  C   UNL A   1      44.052  28.603  27.642  1.00  0.00     0.064 A 
ATOM     65  C   UNL A   1      45.316  28.081  27.334  1.00  0.00     0.173 A 
ATOM     66  C   UNL A   1      42.940  28.104  26.950  1.00  0.00     0.173 A 
ATOM     67  F   UNL A   1      46.408  28.543  27.963  1.00  0.00    -0.203 F 
ATOM     68  C   UNL A   1      45.462  27.107  26.353  1.00  0.00     0.198 A 
ATOM     69  C   UNL A   1      43.086  27.108  25.990  1.00  0.00     0.198 A 
ATOM     70  F   UNL A   1      41.710  28.569  27.219  1.00  0.00    -0.203 F 
ATOM     71  F   UNL A   1      46.682  26.650  26.042  1.00  0.00    -0.200 F 
ATOM     72  C   UNL A   1      44.347  26.616  25.689  1.00  0.00     0.200 A 
ATOM     73  F   UNL A   1      42.007  26.623  25.361  1.00  0.00    -0.200 F 
ATOM     74  F   UNL A   1      44.489  25.668  24.753  1.00  0.00    -0.200 F 
ENDBRANCH  41  64
ENDBRANCH  15  16
ENDBRANCH   8  10
ENDBRANCH   7   8
ENDBRANCH   6   7
ENDBRANCH   5   6
ENDBRANCH   4   5
ENDBRANCH   3   4
ENDBRANCH   2   3
ENDBRANCH   1   2
BRANCH   1  75
ATOM     75  C   UNL A   1      37.756  32.415  38.602  1.00  0.00     0.188 C 
BRANCH  75  76
ATOM     76  C   UNL A   1      37.797  31.604  37.294  1.00  0.00     0.188 C 
BRANCH  76  77
ATOM     77  O   UNL A   1      39.033  31.687  36.602  1.00  0.00    -0.376 OA
BRANCH  77  78
ATOM     78  C   UNL A   1      38.925  32.063  35.233  1.00  0.00     0.202 C 
BRANCH  78  79
ATOM     79  C   UNL A   1      38.038  31.148  34.372  1.00  0.00     0.261 C 
BRANCH  79  80
ATOM     80  O   UNL A   1      38.527  29.804  34.127  1.00  0.00    -0.462 OA
BRANCH  80  81
ATOM     81  C   UNL A   1      38.208  29.197  32.950  1.00  0.00     0.328 C 
ATOM     82  O   UNL A   1      37.439  28.262  32.879  1.00  0.00    -0.250 OA
BRANCH  81  83
ATOM     83  C   UNL A   1      38.929  29.867  31.725  1.00  0.00     0.195 C 
ATOM     84  C   UNL A   1      39.882  28.814  31.129  1.00  0.00     0.037 C 
ATOM     85  N   UNL A   1      38.141  30.460  30.592  1.00  0.00    -0.323 N 
ATOM     86  C   UNL A   1      39.126  27.771  30.294  1.00  0.00     0.005 C 
ATOM     87  C   UNL A   1      37.415  29.529  29.726  1.00  0.00     0.121 C 
ATOM     88  C   UNL A   1      38.326  28.438  29.182  1.00  0.00     0.022 C 
BRANCH  85  89
ATOM     89  C   UNL A   1      38.333  31.824  30.267  1.00  0.00     0.274 C 
ATOM     90  O   UNL A   1      39.457  32.306  30.155  1.00  0.00    -0.267 OA
BRANCH  89  91
ATOM     91  C   UNL A   1      37.141  32.679  30.096  1.00  0.00     0.147 A 
ATOM     92  C   UNL A   1      36.567  33.049  28.895  1.00  0.00     0.127 A 
ATOM     93  N   UNL A   1      36.377  33.184  31.142  1.00  0.00    -0.223 NA
ATOM     94  N   UNL A   1      35.511  33.866  29.197  1.00  0.00    -0.306 N 
ATOM     95  C   UNL A   1      35.384  33.850  30.581  1.00  0.00     0.137 A 
ATOM     96  C   UNL A   1      34.688  34.610  28.351  1.00  0.00     0.093 A 
ATOM     97  C   UNL A   1      34.263  34.544  31.126  1.00  0.00     0.048 A 
ATOM     98  C   UNL A   1      33.680  35.328  28.879  1.00  0.00     0.018 A 
ATOM     99  C   UNL A   1      33.449  35.251  30.315  1.00  0.00     0.005 A 
ENDBRANCH  89  91
ENDBRANCH  85  89
ENDBRANCH  81  83
ENDBRANCH  80  81
ENDBRANCH  79  80
ENDBRANCH  78  79
ENDBRANCH  77  78
ENDBRANCH  76  77
ENDBRANCH  75  76
ENDBRANCH   1  75
TORSDOF 22
ENDMDL
