MODEL 1
REMARK VINA RESULT:     -10.4      0.000      0.000
REMARK SMILES Cc1cc(C(=O)OCCOCCOCCOCCOC(=O)c2ccc(-c3c4nc(c(-c5c(F)c(F)c(F)c(F)c5F)c5ccc([nH]5)c(-c5c(F)c(F)c(F)c(F)c5F)c5nc(c(-c6c(F)c(F)c(F)c(F)c6F)c6ccc3[nH]6)C=C5)C=C4)cc2)ccc1NCCCC(=O)NC1CC1
REMARK SMILES IDX 11 1 10 2 9 3 8 4 7 5 5 6 6 7 4 8 1 9 2 10 3 11 87 12 86 13
REMARK SMILES IDX 85 14 88 15 89 17 90 18 91 19 92 20 93 21 94 22 95 24 96 25
REMARK SMILES IDX 97 26 12 27 13 28 14 29 15 30 16 31 17 32 18 33 19 34 20 35
REMARK SMILES IDX 21 36 22 37 23 38 84 39 24 40 83 41 25 42 26 43 27 44 77 45
REMARK SMILES IDX 28 46 82 47 76 48 78 49 29 50 81 51 75 52 74 53 30 55 62 56
REMARK SMILES IDX 42 57 61 58 43 59 46 60 60 61 79 62 44 63 45 64 59 66 80 67
REMARK SMILES IDX 47 68 31 69 32 70 40 71 33 72 34 73 38 74 41 75 35 76 36 77
REMARK SMILES IDX 39 78 37 79 63 80 64 81 72 82 65 83 66 84 70 85 73 86 67 87
REMARK SMILES IDX 68 88 71 89 69 90 48 91 49 92 57 93 50 94 51 95 55 96 58 97
REMARK SMILES IDX 52 98 53 99 56 100 54 101
REMARK H PARENT 88 16 94 23 78 54 46 65
REMARK Flexibility Score: inf
ROOT
ATOM      1  C   UNL A   1      34.896  33.180  29.329  1.00  0.00     0.188 C 
ENDROOT
BRANCH   1   2
ATOM      2  O   UNL A   1      34.354  31.866  29.259  1.00  0.00    -0.376 OA
BRANCH   2   3
ATOM      3  C   UNL A   1      34.794  31.064  28.165  1.00  0.00     0.202 C 
BRANCH   3   4
ATOM      4  C   UNL A   1      33.714  30.590  27.199  1.00  0.00     0.261 C 
BRANCH   4   5
ATOM      5  O   UNL A   1      33.561  29.179  27.325  1.00  0.00    -0.460 OA
BRANCH   5   6
ATOM      6  C   UNL A   1      32.465  28.689  26.720  1.00  0.00     0.338 C 
ATOM      7  O   UNL A   1      31.500  29.314  26.323  1.00  0.00    -0.246 OA
BRANCH   6   8
ATOM      8  C   UNL A   1      32.787  27.316  26.302  1.00  0.00     0.060 A 
ATOM      9  C   UNL A   1      30.677  24.222  26.192  1.00  0.00     0.046 C 
ATOM     10  C   UNL A   1      31.905  25.086  26.076  1.00  0.00    -0.027 A 
ATOM     11  C   UNL A   1      31.758  26.404  26.491  1.00  0.00     0.021 A 
ATOM     12  C   UNL A   1      33.131  24.666  25.517  1.00  0.00     0.037 A 
ATOM     13  C   UNL A   1      34.089  25.625  25.179  1.00  0.00     0.027 A 
ATOM     14  C   UNL A   1      33.930  26.948  25.590  1.00  0.00     0.018 A 
BRANCH  12  15
ATOM     15  N   UNL A   1      33.332  23.318  25.338  1.00  0.00    -0.385 N 
ATOM     16  H   UNL A   1      32.987  22.734  26.052  1.00  0.00     0.160 HD
BRANCH  15  17
ATOM     17  C   UNL A   1      33.984  22.651  24.237  1.00  0.00     0.113 C 
BRANCH  17  18
ATOM     18  C   UNL A   1      32.949  22.331  23.150  1.00  0.00     0.031 C 
BRANCH  18  19
ATOM     19  C   UNL A   1      32.378  20.910  23.111  1.00  0.00     0.102 C 
BRANCH  19  20
ATOM     20  C   UNL A   1      32.274  20.115  24.392  1.00  0.00     0.220 C 
ATOM     21  O   UNL A   1      31.751  20.632  25.386  1.00  0.00    -0.275 OA
ATOM     22  N   UNL A   1      32.635  18.808  24.488  1.00  0.00    -0.353 N 
ATOM     23  H   UNL A   1      32.274  18.352  25.282  1.00  0.00     0.163 HD
BRANCH  22  24
ATOM     24  C   UNL A   1      33.434  17.974  23.659  1.00  0.00     0.082 C 
ATOM     25  C   UNL A   1      34.735  17.460  24.244  1.00  0.00     0.027 C 
ATOM     26  C   UNL A   1      33.659  16.504  23.855  1.00  0.00     0.027 C 
ENDBRANCH  22  24
ENDBRANCH  19  20
ENDBRANCH  18  19
ENDBRANCH  17  18
ENDBRANCH  15  17
ENDBRANCH  12  15
ENDBRANCH   6   8
ENDBRANCH   5   6
ENDBRANCH   4   5
ENDBRANCH   3   4
ENDBRANCH   2   3
ENDBRANCH   1   2
BRANCH   1  27
ATOM     27  C   UNL A   1      35.173  33.878  27.997  1.00  0.00     0.188 C 
BRANCH  27  28
ATOM     28  O   UNL A   1      34.744  35.236  27.895  1.00  0.00    -0.377 OA
BRANCH  28  29
ATOM     29  C   UNL A   1      33.641  35.658  28.695  1.00  0.00     0.188 C 
BRANCH  29  30
ATOM     30  C   UNL A   1      33.480  37.166  28.882  1.00  0.00     0.188 C 
BRANCH  30  31
ATOM     31  O   UNL A   1      33.027  37.411  30.214  1.00  0.00    -0.376 OA
BRANCH  31  32
ATOM     32  C   UNL A   1      32.520  36.269  30.904  1.00  0.00     0.202 C 
BRANCH  32  33
ATOM     33  C   UNL A   1      32.576  36.395  32.431  1.00  0.00     0.261 C 
BRANCH  33  34
ATOM     34  O   UNL A   1      33.887  36.012  32.886  1.00  0.00    -0.460 OA
BRANCH  34  35
ATOM     35  C   UNL A   1      34.111  34.672  32.912  1.00  0.00     0.338 C 
ATOM     36  O   UNL A   1      33.250  33.810  32.913  1.00  0.00    -0.246 OA
BRANCH  35  37
ATOM     37  C   UNL A   1      35.547  34.415  33.218  1.00  0.00     0.060 A 
ATOM     38  C   UNL A   1      36.515  34.600  32.218  1.00  0.00     0.016 A 
ATOM     39  C   UNL A   1      35.886  33.734  34.383  1.00  0.00     0.016 A 
ATOM     40  C   UNL A   1      37.762  33.962  32.319  1.00  0.00     0.010 A 
ATOM     41  C   UNL A   1      37.087  33.052  34.440  1.00  0.00     0.010 A 
ATOM     42  C   UNL A   1      38.013  33.095  33.388  1.00  0.00    -0.014 A 
BRANCH  42  43
ATOM     43  C   UNL A   1      39.032  32.022  33.377  1.00  0.00     0.031 A 
ATOM     44  C   UNL A   1      38.848  30.753  32.584  1.00  0.00     0.074 A 
ATOM     45  C   UNL A   1      40.291  32.362  33.769  1.00  0.00     0.049 A 
ATOM     46  N   UNL A   1      39.718  29.794  32.529  1.00  0.00    -0.248 NA
ATOM     47  C   UNL A   1      37.671  30.443  31.768  1.00  0.00     0.031 C 
ATOM     48  C   UNL A   1      41.536  31.778  33.272  1.00  0.00     0.029 A 
ATOM     49  N   UNL A   1      40.766  33.347  34.626  1.00  0.00    -0.354 N 
ATOM     50  C   UNL A   1      39.446  29.036  31.407  1.00  0.00     0.074 A 
ATOM     51  C   UNL A   1      38.084  29.369  31.078  1.00  0.00     0.031 C 
ATOM     52  C   UNL A   1      42.593  32.328  33.882  1.00  0.00     0.029 A 
ATOM     53  C   UNL A   1      42.079  33.063  35.007  1.00  0.00     0.049 A 
ATOM     54  H   UNL A   1      40.250  34.132  34.922  1.00  0.00     0.167 HD
ATOM     55  C   UNL A   1      40.463  28.369  30.777  1.00  0.00     0.037 A 
ATOM     56  C   UNL A   1      42.448  32.748  36.288  1.00  0.00     0.037 A 
ATOM     57  C   UNL A   1      41.721  28.392  31.545  1.00  0.00     0.049 A 
ATOM     58  C   UNL A   1      42.905  31.302  36.406  1.00  0.00     0.074 A 
ATOM     59  C   UNL A   1      43.044  28.647  31.229  1.00  0.00     0.029 A 
ATOM     60  N   UNL A   1      41.697  28.218  32.930  1.00  0.00    -0.354 N 
ATOM     61  N   UNL A   1      42.561  30.392  35.528  1.00  0.00    -0.248 NA
ATOM     62  C   UNL A   1      43.831  30.766  37.400  1.00  0.00     0.031 C 
ATOM     63  C   UNL A   1      43.777  28.779  32.442  1.00  0.00     0.029 A 
ATOM     64  C   UNL A   1      42.929  28.464  33.492  1.00  0.00     0.049 A 
ATOM     65  H   UNL A   1      40.899  27.952  33.441  1.00  0.00     0.167 HD
ATOM     66  C   UNL A   1      43.250  29.240  35.747  1.00  0.00     0.074 A 
ATOM     67  C   UNL A   1      43.988  29.496  36.970  1.00  0.00     0.031 C 
ATOM     68  C   UNL A   1      43.183  28.177  34.896  1.00  0.00     0.037 A 
BRANCH  55  69
ATOM     69  C   UNL A   1      40.416  27.849  29.337  1.00  0.00     0.064 A 
ATOM     70  C   UNL A   1      39.725  26.652  29.028  1.00  0.00     0.173 A 
ATOM     71  C   UNL A   1      41.122  28.405  28.247  1.00  0.00     0.173 A 
ATOM     72  F   UNL A   1      39.000  26.014  29.957  1.00  0.00    -0.203 F 
ATOM     73  C   UNL A   1      39.749  26.066  27.752  1.00  0.00     0.198 A 
ATOM     74  C   UNL A   1      41.083  27.858  26.955  1.00  0.00     0.198 A 
ATOM     75  F   UNL A   1      41.924  29.466  28.394  1.00  0.00    -0.203 F 
ATOM     76  F   UNL A   1      39.122  24.900  27.539  1.00  0.00    -0.200 F 
ATOM     77  C   UNL A   1      40.411  26.680  26.711  1.00  0.00     0.200 A 
ATOM     78  F   UNL A   1      41.722  28.479  25.951  1.00  0.00    -0.200 F 
ATOM     79  F   UNL A   1      40.408  26.141  25.484  1.00  0.00    -0.200 F 
ENDBRANCH  55  69
BRANCH  56  80
ATOM     80  C   UNL A   1      41.832  33.656  37.289  1.00  0.00     0.064 A 
ATOM     81  C   UNL A   1      40.772  33.075  38.017  1.00  0.00     0.173 A 
ATOM     82  C   UNL A   1      42.622  34.611  37.947  1.00  0.00     0.173 A 
ATOM     83  F   UNL A   1      39.963  32.188  37.417  1.00  0.00    -0.203 F 
ATOM     84  C   UNL A   1      40.680  33.233  39.397  1.00  0.00     0.198 A 
ATOM     85  C   UNL A   1      42.511  34.780  39.332  1.00  0.00     0.198 A 
ATOM     86  F   UNL A   1      43.637  35.207  37.305  1.00  0.00    -0.203 F 
ATOM     87  F   UNL A   1      39.807  32.494  40.097  1.00  0.00    -0.200 F 
ATOM     88  C   UNL A   1      41.586  34.043  40.059  1.00  0.00     0.200 A 
ATOM     89  F   UNL A   1      43.405  35.538  39.983  1.00  0.00    -0.200 F 
ATOM     90  F   UNL A   1      41.624  34.051  41.399  1.00  0.00    -0.200 F 
ENDBRANCH  56  80
BRANCH  68  91
ATOM     91  C   UNL A   1      43.382  26.737  35.293  1.00  0.00     0.064 A 
ATOM     92  C   UNL A   1      42.322  25.817  35.332  1.00  0.00     0.173 A 
ATOM     93  C   UNL A   1      44.683  26.179  35.377  1.00  0.00     0.173 A 
ATOM     94  F   UNL A   1      41.051  26.210  35.175  1.00  0.00    -0.203 F 
ATOM     95  C   UNL A   1      42.545  24.446  35.461  1.00  0.00     0.198 A 
ATOM     96  C   UNL A   1      44.901  24.806  35.453  1.00  0.00     0.198 A 
ATOM     97  F   UNL A   1      45.785  26.941  35.340  1.00  0.00    -0.203 F 
ATOM     98  F   UNL A   1      41.499  23.610  35.500  1.00  0.00    -0.200 F 
ATOM     99  C   UNL A   1      43.831  23.940  35.501  1.00  0.00     0.200 A 
ATOM    100  F   UNL A   1      46.154  24.329  35.441  1.00  0.00    -0.200 F 
ATOM    101  F   UNL A   1      44.037  22.618  35.562  1.00  0.00    -0.200 F 
ENDBRANCH  68  91
ENDBRANCH  42  43
ENDBRANCH  35  37
ENDBRANCH  34  35
ENDBRANCH  33  34
ENDBRANCH  32  33
ENDBRANCH  31  32
ENDBRANCH  30  31
ENDBRANCH  29  30
ENDBRANCH  28  29
ENDBRANCH  27  28
ENDBRANCH   1  27
TORSDOF 26
ENDMDL
MODEL 2
REMARK VINA RESULT:     -10.1      1.447      2.423
REMARK SMILES Cc1cc(C(=O)OCCOCCOCCOCCOC(=O)c2ccc(-c3c4nc(c(-c5c(F)c(F)c(F)c(F)c5F)c5ccc([nH]5)c(-c5c(F)c(F)c(F)c(F)c5F)c5nc(c(-c6c(F)c(F)c(F)c(F)c6F)c6ccc3[nH]6)C=C5)C=C4)cc2)ccc1NCCCC(=O)NC1CC1
REMARK SMILES IDX 11 1 10 2 9 3 8 4 7 5 5 6 6 7 4 8 1 9 2 10 3 11 87 12 86 13
REMARK SMILES IDX 85 14 88 15 89 17 90 18 91 19 92 20 93 21 94 22 95 24 96 25
REMARK SMILES IDX 97 26 12 27 13 28 14 29 15 30 16 31 17 32 18 33 19 34 20 35
REMARK SMILES IDX 21 36 22 37 23 38 84 39 24 40 83 41 25 42 26 43 27 44 77 45
REMARK SMILES IDX 28 46 82 47 76 48 78 49 29 50 81 51 75 52 74 53 30 55 62 56
REMARK SMILES IDX 42 57 61 58 43 59 46 60 60 61 79 62 44 63 45 64 59 66 80 67
REMARK SMILES IDX 47 68 31 69 32 70 40 71 33 72 34 73 38 74 41 75 35 76 36 77
REMARK SMILES IDX 39 78 37 79 63 80 64 81 72 82 65 83 66 84 70 85 73 86 67 87
REMARK SMILES IDX 68 88 71 89 69 90 48 91 49 92 57 93 50 94 51 95 55 96 58 97
REMARK SMILES IDX 52 98 53 99 56 100 54 101
REMARK H PARENT 88 16 94 23 78 54 46 65
REMARK Flexibility Score: inf
ROOT
ATOM      1  C   UNL A   1      34.755  29.555  27.604  1.00  0.00     0.188 C 
ENDROOT
BRANCH   1   2
ATOM      2  O   UNL A   1      33.559  29.131  26.958  1.00  0.00    -0.376 OA
BRANCH   2   3
ATOM      3  C   UNL A   1      33.318  29.678  25.663  1.00  0.00     0.202 C 
BRANCH   3   4
ATOM      4  C   UNL A   1      31.890  30.124  25.375  1.00  0.00     0.261 C 
BRANCH   4   5
ATOM      5  O   UNL A   1      31.036  28.983  25.370  1.00  0.00    -0.460 OA
BRANCH   5   6
ATOM      6  C   UNL A   1      30.901  28.404  24.164  1.00  0.00     0.338 C 
ATOM      7  O   UNL A   1      31.017  28.933  23.075  1.00  0.00    -0.246 OA
BRANCH   6   8
ATOM      8  C   UNL A   1      30.940  26.949  24.383  1.00  0.00     0.060 A 
ATOM      9  C   UNL A   1      32.874  24.254  22.643  1.00  0.00     0.046 C 
ATOM     10  C   UNL A   1      31.895  24.882  23.598  1.00  0.00    -0.027 A 
ATOM     11  C   UNL A   1      31.716  26.254  23.467  1.00  0.00     0.021 A 
ATOM     12  C   UNL A   1      31.228  24.190  24.633  1.00  0.00     0.037 A 
ATOM     13  C   UNL A   1      30.593  24.921  25.640  1.00  0.00     0.027 A 
ATOM     14  C   UNL A   1      30.427  26.299  25.507  1.00  0.00     0.018 A 
BRANCH  12  15
ATOM     15  N   UNL A   1      31.228  22.817  24.597  1.00  0.00    -0.385 N 
ATOM     16  H   UNL A   1      31.095  22.410  23.710  1.00  0.00     0.160 HD
BRANCH  15  17
ATOM     17  C   UNL A   1      31.399  21.895  25.694  1.00  0.00     0.113 C 
BRANCH  17  18
ATOM     18  C   UNL A   1      32.625  22.307  26.520  1.00  0.00     0.031 C 
BRANCH  18  19
ATOM     19  C   UNL A   1      33.817  21.345  26.548  1.00  0.00     0.102 C 
BRANCH  19  20
ATOM     20  C   UNL A   1      34.245  20.654  25.274  1.00  0.00     0.220 C 
ATOM     21  O   UNL A   1      33.916  19.478  25.082  1.00  0.00    -0.275 OA
ATOM     22  N   UNL A   1      34.893  21.292  24.263  1.00  0.00    -0.353 N 
ATOM     23  H   UNL A   1      34.873  20.806  23.407  1.00  0.00     0.163 HD
BRANCH  22  24
ATOM     24  C   UNL A   1      35.596  22.527  24.208  1.00  0.00     0.082 C 
ATOM     25  C   UNL A   1      37.074  22.498  24.542  1.00  0.00     0.027 C 
ATOM     26  C   UNL A   1      36.621  22.904  23.180  1.00  0.00     0.027 C 
ENDBRANCH  22  24
ENDBRANCH  19  20
ENDBRANCH  18  19
ENDBRANCH  17  18
ENDBRANCH  15  17
ENDBRANCH  12  15
ENDBRANCH   6   8
ENDBRANCH   5   6
ENDBRANCH   4   5
ENDBRANCH   3   4
ENDBRANCH   2   3
ENDBRANCH   1   2
BRANCH   1  27
ATOM     27  C   UNL A   1      34.976  31.064  27.712  1.00  0.00     0.188 C 
BRANCH  27  28
ATOM     28  O   UNL A   1      35.467  31.542  28.964  1.00  0.00    -0.377 OA
BRANCH  28  29
ATOM     29  C   UNL A   1      34.773  32.617  29.596  1.00  0.00     0.188 C 
BRANCH  29  30
ATOM     30  C   UNL A   1      34.110  33.632  28.665  1.00  0.00     0.188 C 
BRANCH  30  31
ATOM     31  O   UNL A   1      34.228  34.929  29.252  1.00  0.00    -0.376 OA
BRANCH  31  32
ATOM     32  C   UNL A   1      32.994  35.541  29.627  1.00  0.00     0.202 C 
BRANCH  32  33
ATOM     33  C   UNL A   1      32.895  35.866  31.122  1.00  0.00     0.261 C 
BRANCH  33  34
ATOM     34  O   UNL A   1      34.159  35.583  31.749  1.00  0.00    -0.460 OA
BRANCH  34  35
ATOM     35  C   UNL A   1      34.156  34.502  32.573  1.00  0.00     0.338 C 
ATOM     36  O   UNL A   1      33.166  33.988  33.062  1.00  0.00    -0.246 OA
BRANCH  35  37
ATOM     37  C   UNL A   1      35.551  34.209  33.010  1.00  0.00     0.060 A 
ATOM     38  C   UNL A   1      36.625  34.520  32.162  1.00  0.00     0.016 A 
ATOM     39  C   UNL A   1      35.762  33.384  34.111  1.00  0.00     0.016 A 
ATOM     40  C   UNL A   1      37.861  33.873  32.327  1.00  0.00     0.010 A 
ATOM     41  C   UNL A   1      36.959  32.701  34.221  1.00  0.00     0.010 A 
ATOM     42  C   UNL A   1      38.000  32.878  33.299  1.00  0.00    -0.014 A 
BRANCH  42  43
ATOM     43  C   UNL A   1      39.029  31.815  33.272  1.00  0.00     0.031 A 
ATOM     44  C   UNL A   1      38.867  30.566  32.442  1.00  0.00     0.074 A 
ATOM     45  C   UNL A   1      40.279  32.155  33.689  1.00  0.00     0.049 A 
ATOM     46  N   UNL A   1      39.746  29.617  32.373  1.00  0.00    -0.248 NA
ATOM     47  C   UNL A   1      37.703  30.268  31.603  1.00  0.00     0.031 C 
ATOM     48  C   UNL A   1      41.536  31.596  33.192  1.00  0.00     0.029 A 
ATOM     49  N   UNL A   1      40.734  33.121  34.579  1.00  0.00    -0.354 N 
ATOM     50  C   UNL A   1      39.495  28.888  31.227  1.00  0.00     0.074 A 
ATOM     51  C   UNL A   1      38.135  29.217  30.890  1.00  0.00     0.031 C 
ATOM     52  C   UNL A   1      42.581  32.139  33.831  1.00  0.00     0.029 A 
ATOM     53  C   UNL A   1      42.045  32.838  34.968  1.00  0.00     0.049 A 
ATOM     54  H   UNL A   1      40.208  33.893  34.889  1.00  0.00     0.167 HD
ATOM     55  C   UNL A   1      40.526  28.247  30.592  1.00  0.00     0.037 A 
ATOM     56  C   UNL A   1      42.401  32.492  36.245  1.00  0.00     0.037 A 
ATOM     57  C   UNL A   1      41.774  28.261  31.376  1.00  0.00     0.049 A 
ATOM     58  C   UNL A   1      42.870  31.047  36.329  1.00  0.00     0.074 A 
ATOM     59  C   UNL A   1      43.099  28.536  31.084  1.00  0.00     0.029 A 
ATOM     60  N   UNL A   1      41.735  28.049  32.756  1.00  0.00    -0.354 N 
ATOM     61  N   UNL A   1      42.546  30.159  35.423  1.00  0.00    -0.248 NA
ATOM     62  C   UNL A   1      43.789  30.492  37.320  1.00  0.00     0.031 C 
ATOM     63  C   UNL A   1      43.815  28.641  32.309  1.00  0.00     0.029 A 
ATOM     64  C   UNL A   1      42.957  28.290  33.339  1.00  0.00     0.049 A 
ATOM     65  H   UNL A   1      40.933  27.761  33.249  1.00  0.00     0.167 HD
ATOM     66  C   UNL A   1      43.243  29.007  35.619  1.00  0.00     0.074 A 
ATOM     67  C   UNL A   1      43.963  29.236  36.858  1.00  0.00     0.031 C 
ATOM     68  C   UNL A   1      43.197  27.967  34.738  1.00  0.00     0.037 A 
BRANCH  55  69
ATOM     69  C   UNL A   1      40.502  27.766  29.138  1.00  0.00     0.064 A 
ATOM     70  C   UNL A   1      39.842  26.562  28.790  1.00  0.00     0.173 A 
ATOM     71  C   UNL A   1      41.204  28.368  28.070  1.00  0.00     0.173 A 
ATOM     72  F   UNL A   1      39.124  25.883  29.696  1.00  0.00    -0.203 F 
ATOM     73  C   UNL A   1      39.888  26.013  27.499  1.00  0.00     0.198 A 
ATOM     74  C   UNL A   1      41.187  27.857  26.763  1.00  0.00     0.198 A 
ATOM     75  F   UNL A   1      41.980  29.443  28.252  1.00  0.00    -0.203 F 
ATOM     76  F   UNL A   1      39.290  24.839  27.249  1.00  0.00    -0.200 F 
ATOM     77  C   UNL A   1      40.544  26.670  26.480  1.00  0.00     0.200 A 
ATOM     78  F   UNL A   1      41.820  28.519  25.782  1.00  0.00    -0.200 F 
ATOM     79  F   UNL A   1      40.563  26.166  25.239  1.00  0.00    -0.200 F 
ENDBRANCH  55  69
BRANCH  56  80
ATOM     80  C   UNL A   1      41.765  33.367  37.262  1.00  0.00     0.064 A 
ATOM     81  C   UNL A   1      42.376  34.631  37.397  1.00  0.00     0.173 A 
ATOM     82  C   UNL A   1      40.382  33.289  37.486  1.00  0.00     0.173 A 
ATOM     83  F   UNL A   1      43.703  34.748  37.234  1.00  0.00    -0.203 F 
ATOM     84  C   UNL A   1      41.611  35.792  37.476  1.00  0.00     0.198 A 
ATOM     85  C   UNL A   1      39.620  34.458  37.585  1.00  0.00     0.198 A 
ATOM     86  F   UNL A   1      39.746  32.113  37.384  1.00  0.00    -0.203 F 
ATOM     87  F   UNL A   1      42.203  36.991  37.373  1.00  0.00    -0.200 F 
ATOM     88  C   UNL A   1      40.230  35.704  37.513  1.00  0.00     0.200 A 
ATOM     89  F   UNL A   1      38.282  34.383  37.590  1.00  0.00    -0.200 F 
ATOM     90  F   UNL A   1      39.484  36.812  37.398  1.00  0.00    -0.200 F 
ENDBRANCH  56  80
BRANCH  68  91
ATOM     91  C   UNL A   1      43.404  26.519  35.098  1.00  0.00     0.064 A 
ATOM     92  C   UNL A   1      42.334  25.620  35.236  1.00  0.00     0.173 A 
ATOM     93  C   UNL A   1      44.694  25.933  35.044  1.00  0.00     0.173 A 
ATOM     94  F   UNL A   1      41.062  26.041  35.213  1.00  0.00    -0.203 F 
ATOM     95  C   UNL A   1      42.540  24.243  35.328  1.00  0.00     0.198 A 
ATOM     96  C   UNL A   1      44.890  24.556  35.083  1.00  0.00     0.198 A 
ATOM     97  F   UNL A   1      45.804  26.673  34.903  1.00  0.00    -0.203 F 
ATOM     98  F   UNL A   1      41.485  23.428  35.466  1.00  0.00    -0.200 F 
ATOM     99  C   UNL A   1      43.812  23.711  35.231  1.00  0.00     0.200 A 
ATOM    100  F   UNL A   1      46.124  24.053  34.939  1.00  0.00    -0.200 F 
ATOM    101  F   UNL A   1      43.994  22.384  35.258  1.00  0.00    -0.200 F 
ENDBRANCH  68  91
ENDBRANCH  42  43
ENDBRANCH  35  37
ENDBRANCH  34  35
ENDBRANCH  33  34
ENDBRANCH  32  33
ENDBRANCH  31  32
ENDBRANCH  30  31
ENDBRANCH  29  30
ENDBRANCH  28  29
ENDBRANCH  27  28
ENDBRANCH   1  27
TORSDOF 26
ENDMDL
MODEL 3
REMARK VINA RESULT:      -9.6      5.264     11.274
REMARK SMILES Cc1cc(C(=O)OCCOCCOCCOCCOC(=O)c2ccc(-c3c4nc(c(-c5c(F)c(F)c(F)c(F)c5F)c5ccc([nH]5)c(-c5c(F)c(F)c(F)c(F)c5F)c5nc(c(-c6c(F)c(F)c(F)c(F)c6F)c6ccc3[nH]6)C=C5)C=C4)cc2)ccc1NCCCC(=O)NC1CC1
REMARK SMILES IDX 11 1 10 2 9 3 8 4 7 5 5 6 6 7 4 8 1 9 2 10 3 11 87 12 86 13
REMARK SMILES IDX 85 14 88 15 89 17 90 18 91 19 92 20 93 21 94 22 95 24 96 25
REMARK SMILES IDX 97 26 12 27 13 28 14 29 15 30 16 31 17 32 18 33 19 34 20 35
REMARK SMILES IDX 21 36 22 37 23 38 84 39 24 40 83 41 25 42 26 43 27 44 77 45
REMARK SMILES IDX 28 46 82 47 76 48 78 49 29 50 81 51 75 52 74 53 30 55 62 56
REMARK SMILES IDX 42 57 61 58 43 59 46 60 60 61 79 62 44 63 45 64 59 66 80 67
REMARK SMILES IDX 47 68 31 69 32 70 40 71 33 72 34 73 38 74 41 75 35 76 36 77
REMARK SMILES IDX 39 78 37 79 63 80 64 81 72 82 65 83 66 84 70 85 73 86 67 87
REMARK SMILES IDX 68 88 71 89 69 90 48 91 49 92 57 93 50 94 51 95 55 96 58 97
REMARK SMILES IDX 52 98 53 99 56 100 54 101
REMARK H PARENT 88 16 94 23 78 54 46 65
REMARK Flexibility Score: inf
ROOT
ATOM      1  C   UNL A   1      36.030  20.018  24.672  1.00  0.00     0.188 C 
ENDROOT
BRANCH   1   2
ATOM      2  O   UNL A   1      34.947  20.338  25.539  1.00  0.00    -0.376 OA
BRANCH   2   3
ATOM      3  C   UNL A   1      33.717  20.683  24.904  1.00  0.00     0.202 C 
BRANCH   3   4
ATOM      4  C   UNL A   1      32.551  21.014  25.829  1.00  0.00     0.261 C 
BRANCH   4   5
ATOM      5  O   UNL A   1      31.504  21.605  25.065  1.00  0.00    -0.460 OA
BRANCH   5   6
ATOM      6  C   UNL A   1      30.906  22.648  25.667  1.00  0.00     0.338 C 
ATOM      7  O   UNL A   1      30.445  22.684  26.792  1.00  0.00    -0.246 OA
BRANCH   6   8
ATOM      8  C   UNL A   1      31.221  23.842  24.867  1.00  0.00     0.060 A 
ATOM      9  C   UNL A   1      34.031  26.305  25.128  1.00  0.00     0.046 C 
ATOM     10  C   UNL A   1      32.757  25.681  24.626  1.00  0.00    -0.027 A 
ATOM     11  C   UNL A   1      32.309  24.568  25.327  1.00  0.00     0.021 A 
ATOM     12  C   UNL A   1      32.057  26.104  23.474  1.00  0.00     0.037 A 
ATOM     13  C   UNL A   1      31.076  25.272  22.930  1.00  0.00     0.027 A 
ATOM     14  C   UNL A   1      30.640  24.151  23.636  1.00  0.00     0.018 A 
BRANCH  12  15
ATOM     15  N   UNL A   1      32.372  27.331  22.942  1.00  0.00    -0.385 N 
ATOM     16  H   UNL A   1      33.141  27.349  22.327  1.00  0.00     0.160 HD
BRANCH  15  17
ATOM     17  C   UNL A   1      31.717  28.597  23.169  1.00  0.00     0.113 C 
BRANCH  17  18
ATOM     18  C   UNL A   1      31.284  28.690  24.638  1.00  0.00     0.031 C 
BRANCH  18  19
ATOM     19  C   UNL A   1      32.083  29.623  25.554  1.00  0.00     0.102 C 
BRANCH  19  20
ATOM     20  C   UNL A   1      32.308  29.235  26.997  1.00  0.00     0.220 C 
ATOM     21  O   UNL A   1      31.399  28.683  27.625  1.00  0.00    -0.275 OA
ATOM     22  N   UNL A   1      33.508  29.366  27.623  1.00  0.00    -0.353 N 
ATOM     23  H   UNL A   1      33.583  28.840  28.453  1.00  0.00     0.163 HD
BRANCH  22  24
ATOM     24  C   UNL A   1      34.673  30.117  27.309  1.00  0.00     0.082 C 
ATOM     25  C   UNL A   1      35.292  30.934  28.426  1.00  0.00     0.027 C 
ATOM     26  C   UNL A   1      36.061  29.822  27.796  1.00  0.00     0.027 C 
ENDBRANCH  22  24
ENDBRANCH  19  20
ENDBRANCH  18  19
ENDBRANCH  17  18
ENDBRANCH  15  17
ENDBRANCH  12  15
ENDBRANCH   6   8
ENDBRANCH   5   6
ENDBRANCH   4   5
ENDBRANCH   3   4
ENDBRANCH   2   3
ENDBRANCH   1   2
BRANCH   1  27
ATOM     27  C   UNL A   1      37.192  21.012  24.633  1.00  0.00     0.188 C 
BRANCH  27  28
ATOM     28  O   UNL A   1      37.017  22.154  23.794  1.00  0.00    -0.377 OA
BRANCH  28  29
ATOM     29  C   UNL A   1      36.377  23.305  24.343  1.00  0.00     0.188 C 
BRANCH  29  30
ATOM     30  C   UNL A   1      36.499  23.487  25.856  1.00  0.00     0.188 C 
BRANCH  30  31
ATOM     31  O   UNL A   1      37.796  24.009  26.146  1.00  0.00    -0.376 OA
BRANCH  31  32
ATOM     32  C   UNL A   1      38.652  23.136  26.884  1.00  0.00     0.202 C 
BRANCH  32  33
ATOM     33  C   UNL A   1      40.078  23.054  26.327  1.00  0.00     0.261 C 
BRANCH  33  34
ATOM     34  O   UNL A   1      40.294  21.741  25.780  1.00  0.00    -0.460 OA
BRANCH  34  35
ATOM     35  C   UNL A   1      41.476  21.166  26.128  1.00  0.00     0.338 C 
ATOM     36  O   UNL A   1      41.658  19.975  26.305  1.00  0.00    -0.246 OA
BRANCH  35  37
ATOM     37  C   UNL A   1      42.443  22.227  26.529  1.00  0.00     0.060 A 
ATOM     38  C   UNL A   1      42.688  22.465  27.891  1.00  0.00     0.016 A 
ATOM     39  C   UNL A   1      42.877  23.149  25.582  1.00  0.00     0.016 A 
ATOM     40  C   UNL A   1      43.216  23.699  28.305  1.00  0.00     0.010 A 
ATOM     41  C   UNL A   1      43.329  24.386  26.004  1.00  0.00     0.010 A 
ATOM     42  C   UNL A   1      43.440  24.709  27.364  1.00  0.00    -0.014 A 
BRANCH  42  43
ATOM     43  C   UNL A   1      43.521  26.152  27.683  1.00  0.00     0.031 A 
ATOM     44  C   UNL A   1      42.289  27.011  27.814  1.00  0.00     0.074 A 
ATOM     45  C   UNL A   1      44.681  26.598  28.238  1.00  0.00     0.049 A 
ATOM     46  N   UNL A   1      42.307  28.273  28.108  1.00  0.00    -0.248 NA
ATOM     47  C   UNL A   1      40.915  26.532  27.634  1.00  0.00     0.031 C 
ATOM     48  C   UNL A   1      44.813  27.697  29.193  1.00  0.00     0.029 A 
ATOM     49  N   UNL A   1      45.990  26.140  28.155  1.00  0.00    -0.354 N 
ATOM     50  C   UNL A   1      41.054  28.619  28.575  1.00  0.00     0.074 A 
ATOM     51  C   UNL A   1      40.196  27.565  28.099  1.00  0.00     0.031 C 
ATOM     52  C   UNL A   1      46.097  27.886  29.523  1.00  0.00     0.029 A 
ATOM     53  C   UNL A   1      46.876  27.134  28.576  1.00  0.00     0.049 A 
ATOM     54  H   UNL A   1      46.255  25.244  27.843  1.00  0.00     0.167 HD
ATOM     55  C   UNL A   1      40.925  29.647  29.471  1.00  0.00     0.037 A 
ATOM     56  C   UNL A   1      47.776  27.751  27.749  1.00  0.00     0.037 A 
ATOM     57  C   UNL A   1      42.177  30.402  29.655  1.00  0.00     0.049 A 
ATOM     58  C   UNL A   1      47.429  29.216  27.530  1.00  0.00     0.074 A 
ATOM     59  C   UNL A   1      42.875  30.867  30.755  1.00  0.00     0.029 A 
ATOM     60  N   UNL A   1      42.980  30.704  28.552  1.00  0.00    -0.354 N 
ATOM     61  N   UNL A   1      46.220  29.680  27.728  1.00  0.00    -0.248 NA
ATOM     62  C   UNL A   1      48.365  30.286  27.189  1.00  0.00     0.031 C 
ATOM     63  C   UNL A   1      44.159  31.303  30.322  1.00  0.00     0.029 A 
ATOM     64  C   UNL A   1      44.190  31.235  28.938  1.00  0.00     0.049 A 
ATOM     65  H   UNL A   1      42.713  30.556  27.616  1.00  0.00     0.167 HD
ATOM     66  C   UNL A   1      46.216  31.038  27.655  1.00  0.00     0.074 A 
ATOM     67  C   UNL A   1      47.569  31.374  27.250  1.00  0.00     0.031 C 
ATOM     68  C   UNL A   1      45.114  31.783  27.957  1.00  0.00     0.037 A 
BRANCH  55  69
ATOM     69  C   UNL A   1      39.712  29.879  30.378  1.00  0.00     0.064 A 
ATOM     70  C   UNL A   1      39.308  28.888  31.305  1.00  0.00     0.173 A 
ATOM     71  C   UNL A   1      38.840  30.988  30.302  1.00  0.00     0.173 A 
ATOM     72  F   UNL A   1      40.042  27.782  31.496  1.00  0.00    -0.203 F 
ATOM     73  C   UNL A   1      38.139  28.995  32.074  1.00  0.00     0.198 A 
ATOM     74  C   UNL A   1      37.713  31.128  31.126  1.00  0.00     0.198 A 
ATOM     75  F   UNL A   1      39.007  31.957  29.394  1.00  0.00    -0.203 F 
ATOM     76  F   UNL A   1      37.781  27.994  32.892  1.00  0.00    -0.200 F 
ATOM     77  C   UNL A   1      37.352  30.124  31.999  1.00  0.00     0.200 A 
ATOM     78  F   UNL A   1      36.967  32.241  31.049  1.00  0.00    -0.200 F 
ATOM     79  F   UNL A   1      36.253  30.245  32.757  1.00  0.00    -0.200 F 
ENDBRANCH  55  69
BRANCH  56  80
ATOM     80  C   UNL A   1      48.498  26.786  26.882  1.00  0.00     0.064 A 
ATOM     81  C   UNL A   1      48.089  26.807  25.532  1.00  0.00     0.173 A 
ATOM     82  C   UNL A   1      49.840  26.476  27.147  1.00  0.00     0.173 A 
ATOM     83  F   UNL A   1      46.806  27.058  25.230  1.00  0.00    -0.203 F 
ATOM     84  C   UNL A   1      49.025  26.794  24.500  1.00  0.00     0.198 A 
ATOM     85  C   UNL A   1      50.773  26.443  26.104  1.00  0.00     0.198 A 
ATOM     86  F   UNL A   1      50.286  26.428  28.411  1.00  0.00    -0.203 F 
ATOM     87  F   UNL A   1      48.634  27.045  23.241  1.00  0.00    -0.200 F 
ATOM     88  C   UNL A   1      50.371  26.668  24.794  1.00  0.00     0.200 A 
ATOM     89  F   UNL A   1      52.081  26.353  26.383  1.00  0.00    -0.200 F 
ATOM     90  F   UNL A   1      51.287  26.845  23.831  1.00  0.00    -0.200 F 
ENDBRANCH  56  80
BRANCH  68  91
ATOM     91  C   UNL A   1      44.799  33.137  27.375  1.00  0.00     0.064 A 
ATOM     92  C   UNL A   1      44.075  33.291  26.183  1.00  0.00     0.173 A 
ATOM     93  C   UNL A   1      44.977  34.317  28.143  1.00  0.00     0.173 A 
ATOM     94  F   UNL A   1      43.765  32.238  25.414  1.00  0.00    -0.203 F 
ATOM     95  C   UNL A   1      43.579  34.532  25.781  1.00  0.00     0.198 A 
ATOM     96  C   UNL A   1      44.436  35.541  27.762  1.00  0.00     0.198 A 
ATOM     97  F   UNL A   1      45.640  34.311  29.308  1.00  0.00    -0.203 F 
ATOM     98  F   UNL A   1      42.900  34.627  24.629  1.00  0.00    -0.200 F 
ATOM     99  C   UNL A   1      43.742  35.649  26.577  1.00  0.00     0.200 A 
ATOM    100  F   UNL A   1      44.560  36.604  28.569  1.00  0.00    -0.200 F 
ATOM    101  F   UNL A   1      43.210  36.823  26.213  1.00  0.00    -0.200 F 
ENDBRANCH  68  91
ENDBRANCH  42  43
ENDBRANCH  35  37
ENDBRANCH  34  35
ENDBRANCH  33  34
ENDBRANCH  32  33
ENDBRANCH  31  32
ENDBRANCH  30  31
ENDBRANCH  29  30
ENDBRANCH  28  29
ENDBRANCH  27  28
ENDBRANCH   1  27
TORSDOF 26
ENDMDL
