MODEL 1
REMARK VINA RESULT:     -12.0      0.000      0.000
REMARK SMILES NS(=O)(=O)c1ccc(-n2nc(C(=O)OCCOCCOCCOCCOC(=O)c3ccc(-c4c5nc(c(-c6c(F)c(F)c(F)c(F)c6F)c6ccc([nH]6)c(-c6c(F)c(F)c(F)c(F)c6F)c6nc(c(-c7c(F)c(F)c(F)c(F)c7F)c7ccc4[nH]7)C=C6)C=C5)cc3)c(Cl)c2-c2ccc(Cl)cc2)cc1
REMARK SMILES IDX 19 1 18 2 17 3 16 4 15 5 14 6 12 7 13 8 11 9 9 10 10 11
REMARK SMILES IDX 94 12 92 13 93 14 8 15 5 16 6 17 103 18 7 19 102 20 2 21
REMARK SMILES IDX 3 22 4 23 1 24 95 27 96 28 101 29 97 30 100 31 98 32 99 33
REMARK SMILES IDX 20 34 21 35 22 36 23 37 24 38 25 39 26 40 27 41 28 42 29 43
REMARK SMILES IDX 30 44 91 45 31 46 90 47 32 48 33 49 34 50 84 51 35 52 89 53
REMARK SMILES IDX 83 54 85 55 36 56 88 57 82 58 81 59 37 61 69 62 49 63 68 64
REMARK SMILES IDX 50 65 53 66 67 67 86 68 51 69 52 70 66 72 87 73 54 74 38 75
REMARK SMILES IDX 39 76 47 77 40 78 41 79 45 80 48 81 42 82 43 83 46 84 44 85
REMARK SMILES IDX 70 86 71 87 79 88 72 89 73 90 77 91 80 92 74 93 75 94 78 95
REMARK SMILES IDX 76 96 55 97 56 98 64 99 57 100 58 101 62 102 65 103 59 104
REMARK SMILES IDX 60 105 63 106 61 107
REMARK H PARENT 1 25 1 26 85 60 53 71
REMARK Flexibility Score: inf
ROOT
ATOM      1  C   UNL A   1      36.932  23.092  25.536  1.00  0.00     0.188 C 
ENDROOT
BRANCH   1   2
ATOM      2  C   UNL A   1      36.929  21.917  24.531  1.00  0.00     0.188 C 
BRANCH   2   3
ATOM      3  O   UNL A   1      35.923  20.909  24.570  1.00  0.00    -0.376 OA
BRANCH   3   4
ATOM      4  C   UNL A   1      34.545  21.223  24.702  1.00  0.00     0.202 C 
BRANCH   4   5
ATOM      5  C   UNL A   1      33.845  22.163  23.713  1.00  0.00     0.261 C 
BRANCH   5   6
ATOM      6  O   UNL A   1      32.451  21.929  23.535  1.00  0.00    -0.458 OA
BRANCH   6   7
ATOM      7  C   UNL A   1      31.652  22.120  24.623  1.00  0.00     0.360 C 
ATOM      8  O   UNL A   1      31.203  21.215  25.316  1.00  0.00    -0.244 OA
BRANCH   7   9
ATOM      9  C   UNL A   1      31.441  23.545  24.900  1.00  0.00     0.190 A 
ATOM     10  N   UNL A   1      30.723  25.544  24.651  1.00  0.00    -0.231 N 
ATOM     11  N   UNL A   1      30.485  24.267  24.276  1.00  0.00    -0.159 NA
ATOM     12  C   UNL A   1      31.744  25.650  25.577  1.00  0.00     0.094 A 
ATOM     13  C   UNL A   1      32.154  24.353  25.817  1.00  0.00     0.102 A 
ATOM     14  Cl  UNL A   1      33.365  23.858  26.910  1.00  0.00    -0.079 Cl
BRANCH  10  15
ATOM     15  C   UNL A   1      30.110  26.603  23.949  1.00  0.00     0.065 A 
ATOM     16  C   UNL A   1      28.972  28.839  22.772  1.00  0.00     0.082 A 
ATOM     17  C   UNL A   1      28.146  27.884  23.382  1.00  0.00     0.024 A 
ATOM     18  C   UNL A   1      30.357  28.657  22.708  1.00  0.00     0.024 A 
ATOM     19  C   UNL A   1      28.716  26.741  23.955  1.00  0.00     0.030 A 
ATOM     20  C   UNL A   1      30.930  27.543  23.314  1.00  0.00     0.030 A 
BRANCH  16  21
ATOM     21  S   UNL A   1      28.281  30.332  22.122  1.00  0.00     0.238 S 
ATOM     22  O   UNL A   1      27.313  30.854  23.047  1.00  0.00    -0.207 OA
ATOM     23  O   UNL A   1      27.984  30.116  20.717  1.00  0.00    -0.207 OA
BRANCH  21  24
ATOM     24  N   UNL A   1      29.566  31.411  22.165  1.00  0.00    -0.225 NA
ATOM     25  H   UNL A   1      30.442  30.899  22.063  1.00  0.00     0.137 HD
ATOM     26  H   UNL A   1      29.563  31.906  23.057  1.00  0.00     0.137 HD
ENDBRANCH  21  24
ENDBRANCH  16  21
ENDBRANCH  10  15
BRANCH  12  27
ATOM     27  C   UNL A   1      32.295  26.891  26.112  1.00  0.00     0.002 A 
ATOM     28  C   UNL A   1      31.477  27.684  26.931  1.00  0.00     0.012 A 
ATOM     29  C   UNL A   1      33.581  27.337  25.790  1.00  0.00     0.012 A 
ATOM     30  C   UNL A   1      31.919  28.917  27.398  1.00  0.00     0.021 A 
ATOM     31  C   UNL A   1      34.030  28.574  26.266  1.00  0.00     0.021 A 
ATOM     32  C   UNL A   1      33.193  29.362  27.059  1.00  0.00     0.041 A 
ATOM     33  Cl  UNL A   1      33.728  30.900  27.609  1.00  0.00    -0.084 Cl
ENDBRANCH  12  27
ENDBRANCH   7   9
ENDBRANCH   6   7
ENDBRANCH   5   6
ENDBRANCH   4   5
ENDBRANCH   3   4
ENDBRANCH   2   3
ENDBRANCH   1   2
BRANCH   1  34
ATOM     34  O   UNL A   1      38.179  23.756  25.652  1.00  0.00    -0.377 OA
BRANCH  34  35
ATOM     35  C   UNL A   1      39.066  23.249  26.648  1.00  0.00     0.188 C 
BRANCH  35  36
ATOM     36  C   UNL A   1      39.832  21.929  26.385  1.00  0.00     0.188 C 
BRANCH  36  37
ATOM     37  O   UNL A   1      40.487  21.386  27.530  1.00  0.00    -0.376 OA
BRANCH  37  38
ATOM     38  C   UNL A   1      41.897  21.225  27.518  1.00  0.00     0.202 C 
BRANCH  38  39
ATOM     39  C   UNL A   1      42.354  20.122  26.566  1.00  0.00     0.261 C 
BRANCH  39  40
ATOM     40  O   UNL A   1      42.860  20.637  25.343  1.00  0.00    -0.460 OA
BRANCH  40  41
ATOM     41  C   UNL A   1      44.203  20.629  25.233  1.00  0.00     0.338 C 
ATOM     42  O   UNL A   1      44.951  19.677  25.373  1.00  0.00    -0.246 OA
BRANCH  41  43
ATOM     43  C   UNL A   1      44.662  22.008  25.047  1.00  0.00     0.060 A 
ATOM     44  C   UNL A   1      45.700  22.395  25.891  1.00  0.00     0.016 A 
ATOM     45  C   UNL A   1      43.824  22.931  24.400  1.00  0.00     0.016 A 
ATOM     46  C   UNL A   1      45.662  23.676  26.373  1.00  0.00     0.010 A 
ATOM     47  C   UNL A   1      43.784  24.210  24.886  1.00  0.00     0.010 A 
ATOM     48  C   UNL A   1      44.617  24.508  25.958  1.00  0.00    -0.014 A 
BRANCH  48  49
ATOM     49  C   UNL A   1      44.359  25.660  26.782  1.00  0.00     0.031 A 
ATOM     50  C   UNL A   1      45.324  26.754  26.619  1.00  0.00     0.074 A 
ATOM     51  C   UNL A   1      43.305  25.703  27.615  1.00  0.00     0.049 A 
ATOM     52  N   UNL A   1      46.130  27.243  27.500  1.00  0.00    -0.248 NA
ATOM     53  C   UNL A   1      45.484  27.296  25.263  1.00  0.00     0.031 C 
ATOM     54  C   UNL A   1      42.135  24.822  27.665  1.00  0.00     0.029 A 
ATOM     55  N   UNL A   1      43.027  26.645  28.551  1.00  0.00    -0.354 N 
ATOM     56  C   UNL A   1      46.801  28.269  26.851  1.00  0.00     0.074 A 
ATOM     57  C   UNL A   1      46.466  28.173  25.453  1.00  0.00     0.031 C 
ATOM     58  C   UNL A   1      41.180  25.405  28.425  1.00  0.00     0.029 A 
ATOM     59  C   UNL A   1      41.720  26.626  29.001  1.00  0.00     0.049 A 
ATOM     60  H   UNL A   1      43.697  27.286  28.881  1.00  0.00     0.167 HD
ATOM     61  C   UNL A   1      47.418  29.261  27.540  1.00  0.00     0.037 A 
ATOM     62  C   UNL A   1      41.119  27.619  29.696  1.00  0.00     0.037 A 
ATOM     63  C   UNL A   1      47.725  28.877  28.890  1.00  0.00     0.049 A 
ATOM     64  C   UNL A   1      42.189  28.458  30.303  1.00  0.00     0.074 A 
ATOM     65  C   UNL A   1      48.501  27.881  29.453  1.00  0.00     0.029 A 
ATOM     66  N   UNL A   1      46.934  29.346  29.911  1.00  0.00    -0.354 N 
ATOM     67  N   UNL A   1      42.984  28.057  31.258  1.00  0.00    -0.248 NA
ATOM     68  C   UNL A   1      42.662  29.608  29.544  1.00  0.00     0.031 C 
ATOM     69  C   UNL A   1      47.805  27.485  30.633  1.00  0.00     0.029 A 
ATOM     70  C   UNL A   1      46.659  28.274  30.723  1.00  0.00     0.049 A 
ATOM     71  H   UNL A   1      46.624  30.272  30.035  1.00  0.00     0.167 HD
ATOM     72  C   UNL A   1      44.213  28.638  30.971  1.00  0.00     0.074 A 
ATOM     73  C   UNL A   1      43.930  29.654  29.963  1.00  0.00     0.031 C 
ATOM     74  C   UNL A   1      45.384  28.057  31.367  1.00  0.00     0.037 A 
BRANCH  61  75
ATOM     75  C   UNL A   1      47.451  30.678  27.051  1.00  0.00     0.064 A 
ATOM     76  C   UNL A   1      48.674  31.365  26.983  1.00  0.00     0.173 A 
ATOM     77  C   UNL A   1      46.289  31.468  26.899  1.00  0.00     0.173 A 
ATOM     78  F   UNL A   1      49.832  30.713  27.160  1.00  0.00    -0.203 F 
ATOM     79  C   UNL A   1      48.726  32.749  26.814  1.00  0.00     0.198 A 
ATOM     80  C   UNL A   1      46.346  32.839  26.668  1.00  0.00     0.198 A 
ATOM     81  F   UNL A   1      45.060  30.965  27.076  1.00  0.00    -0.203 F 
ATOM     82  F   UNL A   1      49.907  33.380  26.866  1.00  0.00    -0.200 F 
ATOM     83  C   UNL A   1      47.564  33.484  26.653  1.00  0.00     0.200 A 
ATOM     84  F   UNL A   1      45.208  33.534  26.539  1.00  0.00    -0.200 F 
ATOM     85  F   UNL A   1      47.611  34.818  26.537  1.00  0.00    -0.200 F 
ENDBRANCH  61  75
BRANCH  62  86
ATOM     86  C   UNL A   1      39.717  28.072  29.547  1.00  0.00     0.064 A 
ATOM     87  C   UNL A   1      38.861  28.154  30.656  1.00  0.00     0.173 A 
ATOM     88  C   UNL A   1      39.253  28.667  28.355  1.00  0.00     0.173 A 
ATOM     89  F   UNL A   1      39.249  27.665  31.842  1.00  0.00    -0.203 F 
ATOM     90  C   UNL A   1      37.621  28.795  30.577  1.00  0.00     0.198 A 
ATOM     91  C   UNL A   1      38.010  29.291  28.272  1.00  0.00     0.198 A 
ATOM     92  F   UNL A   1      40.034  28.736  27.267  1.00  0.00    -0.203 F 
ATOM     93  F   UNL A   1      36.854  28.905  31.670  1.00  0.00    -0.200 F 
ATOM     94  C   UNL A   1      37.198  29.366  29.387  1.00  0.00     0.200 A 
ATOM     95  F   UNL A   1      37.633  29.868  27.122  1.00  0.00    -0.200 F 
ATOM     96  F   UNL A   1      36.031  30.020  29.322  1.00  0.00    -0.200 F 
ENDBRANCH  62  86
BRANCH  74  97
ATOM     97  C   UNL A   1      45.303  26.907  32.330  1.00  0.00     0.064 A 
ATOM     98  C   UNL A   1      45.308  27.072  33.726  1.00  0.00     0.173 A 
ATOM     99  C   UNL A   1      45.049  25.622  31.834  1.00  0.00     0.173 A 
ATOM    100  F   UNL A   1      45.429  28.288  34.273  1.00  0.00    -0.203 F 
ATOM    101  C   UNL A   1      45.116  25.991  34.583  1.00  0.00     0.198 A 
ATOM    102  C   UNL A   1      44.823  24.548  32.693  1.00  0.00     0.198 A 
ATOM    103  F   UNL A   1      44.967  25.416  30.510  1.00  0.00    -0.203 F 
ATOM    104  F   UNL A   1      45.133  26.175  35.913  1.00  0.00    -0.200 F 
ATOM    105  C   UNL A   1      44.867  24.731  34.066  1.00  0.00     0.200 A 
ATOM    106  F   UNL A   1      44.531  23.341  32.189  1.00  0.00    -0.200 F 
ATOM    107  F   UNL A   1      44.638  23.699  34.889  1.00  0.00    -0.200 F 
ENDBRANCH  74  97
ENDBRANCH  48  49
ENDBRANCH  41  43
ENDBRANCH  40  41
ENDBRANCH  39  40
ENDBRANCH  38  39
ENDBRANCH  37  38
ENDBRANCH  36  37
ENDBRANCH  35  36
ENDBRANCH  34  35
ENDBRANCH   1  34
TORSDOF 24
ENDMDL
MODEL 2
REMARK VINA RESULT:     -11.5      2.007      2.689
REMARK SMILES NS(=O)(=O)c1ccc(-n2nc(C(=O)OCCOCCOCCOCCOC(=O)c3ccc(-c4c5nc(c(-c6c(F)c(F)c(F)c(F)c6F)c6ccc([nH]6)c(-c6c(F)c(F)c(F)c(F)c6F)c6nc(c(-c7c(F)c(F)c(F)c(F)c7F)c7ccc4[nH]7)C=C6)C=C5)cc3)c(Cl)c2-c2ccc(Cl)cc2)cc1
REMARK SMILES IDX 19 1 18 2 17 3 16 4 15 5 14 6 12 7 13 8 11 9 9 10 10 11
REMARK SMILES IDX 94 12 92 13 93 14 8 15 5 16 6 17 103 18 7 19 102 20 2 21
REMARK SMILES IDX 3 22 4 23 1 24 95 27 96 28 101 29 97 30 100 31 98 32 99 33
REMARK SMILES IDX 20 34 21 35 22 36 23 37 24 38 25 39 26 40 27 41 28 42 29 43
REMARK SMILES IDX 30 44 91 45 31 46 90 47 32 48 33 49 34 50 84 51 35 52 89 53
REMARK SMILES IDX 83 54 85 55 36 56 88 57 82 58 81 59 37 61 69 62 49 63 68 64
REMARK SMILES IDX 50 65 53 66 67 67 86 68 51 69 52 70 66 72 87 73 54 74 38 75
REMARK SMILES IDX 39 76 47 77 40 78 41 79 45 80 48 81 42 82 43 83 46 84 44 85
REMARK SMILES IDX 70 86 71 87 79 88 72 89 73 90 77 91 80 92 74 93 75 94 78 95
REMARK SMILES IDX 76 96 55 97 56 98 64 99 57 100 58 101 62 102 65 103 59 104
REMARK SMILES IDX 60 105 63 106 61 107
REMARK H PARENT 1 25 1 26 85 60 53 71
REMARK Flexibility Score: inf
ROOT
ATOM      1  C   UNL A   1      36.675  22.765  25.660  1.00  0.00     0.188 C 
ENDROOT
BRANCH   1   2
ATOM      2  C   UNL A   1      36.519  21.432  24.892  1.00  0.00     0.188 C 
BRANCH   2   3
ATOM      3  O   UNL A   1      35.337  20.644  25.005  1.00  0.00    -0.376 OA
BRANCH   3   4
ATOM      4  C   UNL A   1      34.139  21.156  25.567  1.00  0.00     0.202 C 
BRANCH   4   5
ATOM      5  C   UNL A   1      33.209  22.068  24.760  1.00  0.00     0.261 C 
BRANCH   5   6
ATOM      6  O   UNL A   1      31.905  22.246  25.308  1.00  0.00    -0.458 OA
BRANCH   6   7
ATOM      7  C   UNL A   1      31.780  23.158  26.312  1.00  0.00     0.360 C 
ATOM      8  O   UNL A   1      31.621  22.869  27.491  1.00  0.00    -0.244 OA
BRANCH   7   9
ATOM      9  C   UNL A   1      31.918  24.534  25.817  1.00  0.00     0.190 A 
ATOM     10  N   UNL A   1      32.426  26.611  25.806  1.00  0.00    -0.231 N 
ATOM     11  N   UNL A   1      32.703  25.444  26.431  1.00  0.00    -0.159 NA
ATOM     12  C   UNL A   1      31.558  26.454  24.740  1.00  0.00     0.094 A 
ATOM     13  C   UNL A   1      31.296  25.100  24.680  1.00  0.00     0.102 A 
ATOM     14  Cl  UNL A   1      30.315  24.307  23.533  1.00  0.00    -0.079 Cl
BRANCH  10  15
ATOM     15  C   UNL A   1      32.834  27.830  26.387  1.00  0.00     0.065 A 
ATOM     16  C   UNL A   1      33.547  30.343  27.312  1.00  0.00     0.082 A 
ATOM     17  C   UNL A   1      34.536  29.485  26.807  1.00  0.00     0.024 A 
ATOM     18  C   UNL A   1      32.214  29.930  27.397  1.00  0.00     0.024 A 
ATOM     19  C   UNL A   1      34.183  28.206  26.363  1.00  0.00     0.030 A 
ATOM     20  C   UNL A   1      31.853  28.675  26.918  1.00  0.00     0.030 A 
BRANCH  16  21
ATOM     21  S   UNL A   1      33.958  31.995  27.794  1.00  0.00     0.238 S 
ATOM     22  O   UNL A   1      32.855  32.867  27.502  1.00  0.00    -0.207 OA
ATOM     23  O   UNL A   1      35.312  32.269  27.348  1.00  0.00    -0.207 OA
BRANCH  21  24
ATOM     24  N   UNL A   1      34.028  31.908  29.468  1.00  0.00    -0.225 NA
ATOM     25  H   UNL A   1      34.011  30.930  29.759  1.00  0.00     0.137 HD
ATOM     26  H   UNL A   1      33.226  32.395  29.867  1.00  0.00     0.137 HD
ENDBRANCH  21  24
ENDBRANCH  16  21
ENDBRANCH  10  15
BRANCH  12  27
ATOM     27  C   UNL A   1      31.001  27.525  23.920  1.00  0.00     0.002 A 
ATOM     28  C   UNL A   1      29.606  27.646  23.842  1.00  0.00     0.012 A 
ATOM     29  C   UNL A   1      31.808  28.391  23.173  1.00  0.00     0.012 A 
ATOM     30  C   UNL A   1      29.019  28.595  23.009  1.00  0.00     0.021 A 
ATOM     31  C   UNL A   1      31.218  29.349  22.341  1.00  0.00     0.021 A 
ATOM     32  C   UNL A   1      29.828  29.440  22.256  1.00  0.00     0.041 A 
ATOM     33  Cl  UNL A   1      29.104  30.589  21.203  1.00  0.00    -0.084 Cl
ENDBRANCH  12  27
ENDBRANCH   7   9
ENDBRANCH   6   7
ENDBRANCH   5   6
ENDBRANCH   4   5
ENDBRANCH   3   4
ENDBRANCH   2   3
ENDBRANCH   1   2
BRANCH   1  34
ATOM     34  O   UNL A   1      37.963  23.347  25.560  1.00  0.00    -0.377 OA
BRANCH  34  35
ATOM     35  C   UNL A   1      38.918  22.921  26.529  1.00  0.00     0.188 C 
BRANCH  35  36
ATOM     36  C   UNL A   1      39.735  21.629  26.277  1.00  0.00     0.188 C 
BRANCH  36  37
ATOM     37  O   UNL A   1      40.431  21.136  27.420  1.00  0.00    -0.376 OA
BRANCH  37  38
ATOM     38  C   UNL A   1      41.845  21.017  27.380  1.00  0.00     0.202 C 
BRANCH  38  39
ATOM     39  C   UNL A   1      42.313  19.873  26.484  1.00  0.00     0.261 C 
BRANCH  39  40
ATOM     40  O   UNL A   1      42.843  20.333  25.249  1.00  0.00    -0.460 OA
BRANCH  40  41
ATOM     41  C   UNL A   1      44.188  20.330  25.169  1.00  0.00     0.338 C 
ATOM     42  O   UNL A   1      44.937  19.384  25.341  1.00  0.00    -0.246 OA
BRANCH  41  43
ATOM     43  C   UNL A   1      44.644  21.708  24.972  1.00  0.00     0.060 A 
ATOM     44  C   UNL A   1      45.718  22.087  25.774  1.00  0.00     0.016 A 
ATOM     45  C   UNL A   1      43.782  22.638  24.366  1.00  0.00     0.016 A 
ATOM     46  C   UNL A   1      45.706  23.365  26.264  1.00  0.00     0.010 A 
ATOM     47  C   UNL A   1      43.769  23.915  24.861  1.00  0.00     0.010 A 
ATOM     48  C   UNL A   1      44.647  24.203  25.898  1.00  0.00    -0.014 A 
BRANCH  48  49
ATOM     49  C   UNL A   1      44.429  25.351  26.739  1.00  0.00     0.031 A 
ATOM     50  C   UNL A   1      45.438  26.409  26.599  1.00  0.00     0.074 A 
ATOM     51  C   UNL A   1      43.373  25.422  27.567  1.00  0.00     0.049 A 
ATOM     52  N   UNL A   1      46.256  26.852  27.492  1.00  0.00    -0.248 NA
ATOM     53  C   UNL A   1      45.627  26.966  25.253  1.00  0.00     0.031 C 
ATOM     54  C   UNL A   1      42.169  24.586  27.596  1.00  0.00     0.029 A 
ATOM     55  N   UNL A   1      43.125  26.359  28.516  1.00  0.00    -0.354 N 
ATOM     56  C   UNL A   1      46.971  27.861  26.864  1.00  0.00     0.074 A 
ATOM     57  C   UNL A   1      46.641  27.801  25.462  1.00  0.00     0.031 C 
ATOM     58  C   UNL A   1      41.233  25.195  28.360  1.00  0.00     0.029 A 
ATOM     59  C   UNL A   1      41.817  26.384  28.958  1.00  0.00     0.049 A 
ATOM     60  H   UNL A   1      43.818  26.969  28.859  1.00  0.00     0.167 HD
ATOM     61  C   UNL A   1      47.622  28.818  27.571  1.00  0.00     0.037 A 
ATOM     62  C   UNL A   1      41.250  27.389  29.666  1.00  0.00     0.037 A 
ATOM     63  C   UNL A   1      47.905  28.402  28.917  1.00  0.00     0.049 A 
ATOM     64  C   UNL A   1      42.348  28.176  30.291  1.00  0.00     0.074 A 
ATOM     65  C   UNL A   1      48.637  27.367  29.469  1.00  0.00     0.029 A 
ATOM     66  N   UNL A   1      47.127  28.884  29.941  1.00  0.00    -0.354 N 
ATOM     67  N   UNL A   1      43.121  27.730  31.245  1.00  0.00    -0.248 NA
ATOM     68  C   UNL A   1      42.870  29.318  29.554  1.00  0.00     0.031 C 
ATOM     69  C   UNL A   1      47.920  26.980  30.638  1.00  0.00     0.029 A 
ATOM     70  C   UNL A   1      46.805  27.812  30.734  1.00  0.00     0.049 A 
ATOM     71  H   UNL A   1      46.852  29.820  30.078  1.00  0.00     0.167 HD
ATOM     72  C   UNL A   1      44.373  28.266  30.974  1.00  0.00     0.074 A 
ATOM     73  C   UNL A   1      44.136  29.308  29.981  1.00  0.00     0.031 C 
ATOM     74  C   UNL A   1      45.518  27.634  31.367  1.00  0.00     0.037 A 
BRANCH  61  75
ATOM     75  C   UNL A   1      47.713  30.240  27.106  1.00  0.00     0.064 A 
ATOM     76  C   UNL A   1      48.960  30.882  27.064  1.00  0.00     0.173 A 
ATOM     77  C   UNL A   1      46.582  31.075  26.951  1.00  0.00     0.173 A 
ATOM     78  F   UNL A   1      50.092  30.186  27.245  1.00  0.00    -0.203 F 
ATOM     79  C   UNL A   1      49.065  32.266  26.917  1.00  0.00     0.198 A 
ATOM     80  C   UNL A   1      46.692  32.446  26.743  1.00  0.00     0.198 A 
ATOM     81  F   UNL A   1      45.334  30.614  27.104  1.00  0.00    -0.203 F 
ATOM     82  F   UNL A   1      50.268  32.853  26.994  1.00  0.00    -0.200 F 
ATOM     83  C   UNL A   1      47.933  33.046  26.753  1.00  0.00     0.200 A 
ATOM     84  F   UNL A   1      45.582  33.184  26.610  1.00  0.00    -0.200 F 
ATOM     85  F   UNL A   1      48.030  34.379  26.659  1.00  0.00    -0.200 F 
ENDBRANCH  61  75
BRANCH  62  86
ATOM     86  C   UNL A   1      39.867  27.899  29.516  1.00  0.00     0.064 A 
ATOM     87  C   UNL A   1      39.014  28.010  30.623  1.00  0.00     0.173 A 
ATOM     88  C   UNL A   1      39.431  28.516  28.326  1.00  0.00     0.173 A 
ATOM     89  F   UNL A   1      39.379  27.501  31.809  1.00  0.00    -0.203 F 
ATOM     90  C   UNL A   1      37.800  28.702  30.545  1.00  0.00     0.198 A 
ATOM     91  C   UNL A   1      38.214  29.190  28.243  1.00  0.00     0.198 A 
ATOM     92  F   UNL A   1      40.216  28.558  27.239  1.00  0.00    -0.203 F 
ATOM     93  F   UNL A   1      37.036  28.837  31.637  1.00  0.00    -0.200 F 
ATOM     94  C   UNL A   1      37.403  29.293  29.356  1.00  0.00     0.200 A 
ATOM     95  F   UNL A   1      37.862  29.787  27.095  1.00  0.00    -0.200 F 
ATOM     96  F   UNL A   1      36.263  29.994  29.293  1.00  0.00    -0.200 F 
ENDBRANCH  62  86
BRANCH  74  97
ATOM     97  C   UNL A   1      45.387  26.473  32.312  1.00  0.00     0.064 A 
ATOM     98  C   UNL A   1      45.456  26.608  33.710  1.00  0.00     0.173 A 
ATOM     99  C   UNL A   1      45.019  25.221  31.802  1.00  0.00     0.173 A 
ATOM    100  F   UNL A   1      45.689  27.800  34.273  1.00  0.00    -0.203 F 
ATOM    101  C   UNL A   1      45.215  25.526  34.553  1.00  0.00     0.198 A 
ATOM    102  C   UNL A   1      44.744  24.150  32.649  1.00  0.00     0.198 A 
ATOM    103  F   UNL A   1      44.872  25.050  30.479  1.00  0.00    -0.203 F 
ATOM    104  F   UNL A   1      45.295  25.681  35.884  1.00  0.00    -0.200 F 
ATOM    105  C   UNL A   1      44.853  24.300  34.023  1.00  0.00     0.200 A 
ATOM    106  F   UNL A   1      44.343  22.979  32.135  1.00  0.00    -0.200 F 
ATOM    107  F   UNL A   1      44.577  23.270  34.835  1.00  0.00    -0.200 F 
ENDBRANCH  74  97
ENDBRANCH  48  49
ENDBRANCH  41  43
ENDBRANCH  40  41
ENDBRANCH  39  40
ENDBRANCH  38  39
ENDBRANCH  37  38
ENDBRANCH  36  37
ENDBRANCH  35  36
ENDBRANCH  34  35
ENDBRANCH   1  34
TORSDOF 24
ENDMDL
MODEL 3
REMARK VINA RESULT:      -9.8      7.286     12.253
REMARK SMILES NS(=O)(=O)c1ccc(-n2nc(C(=O)OCCOCCOCCOCCOC(=O)c3ccc(-c4c5nc(c(-c6c(F)c(F)c(F)c(F)c6F)c6ccc([nH]6)c(-c6c(F)c(F)c(F)c(F)c6F)c6nc(c(-c7c(F)c(F)c(F)c(F)c7F)c7ccc4[nH]7)C=C6)C=C5)cc3)c(Cl)c2-c2ccc(Cl)cc2)cc1
REMARK SMILES IDX 19 1 18 2 17 3 16 4 15 5 14 6 12 7 13 8 11 9 9 10 10 11
REMARK SMILES IDX 94 12 92 13 93 14 8 15 5 16 6 17 103 18 7 19 102 20 2 21
REMARK SMILES IDX 3 22 4 23 1 24 95 27 96 28 101 29 97 30 100 31 98 32 99 33
REMARK SMILES IDX 20 34 21 35 22 36 23 37 24 38 25 39 26 40 27 41 28 42 29 43
REMARK SMILES IDX 30 44 91 45 31 46 90 47 32 48 33 49 34 50 84 51 35 52 89 53
REMARK SMILES IDX 83 54 85 55 36 56 88 57 82 58 81 59 37 61 69 62 49 63 68 64
REMARK SMILES IDX 50 65 53 66 67 67 86 68 51 69 52 70 66 72 87 73 54 74 38 75
REMARK SMILES IDX 39 76 47 77 40 78 41 79 45 80 48 81 42 82 43 83 46 84 44 85
REMARK SMILES IDX 70 86 71 87 79 88 72 89 73 90 77 91 80 92 74 93 75 94 78 95
REMARK SMILES IDX 76 96 55 97 56 98 64 99 57 100 58 101 62 102 65 103 59 104
REMARK SMILES IDX 60 105 63 106 61 107
REMARK H PARENT 1 25 1 26 85 60 53 71
REMARK Flexibility Score: inf
ROOT
ATOM      1  C   UNL A   1      36.049  34.853  32.910  1.00  0.00     0.188 C 
ENDROOT
BRANCH   1   2
ATOM      2  C   UNL A   1      34.743  35.332  33.587  1.00  0.00     0.188 C 
BRANCH   2   3
ATOM      3  O   UNL A   1      33.922  36.333  32.992  1.00  0.00    -0.376 OA
BRANCH   3   4
ATOM      4  C   UNL A   1      32.794  36.008  32.195  1.00  0.00     0.202 C 
BRANCH   4   5
ATOM      5  C   UNL A   1      32.863  36.056  30.664  1.00  0.00     0.261 C 
BRANCH   5   6
ATOM      6  O   UNL A   1      33.231  34.833  30.032  1.00  0.00    -0.458 OA
BRANCH   6   7
ATOM      7  C   UNL A   1      34.005  34.928  28.914  1.00  0.00     0.360 C 
ATOM      8  O   UNL A   1      34.289  35.982  28.360  1.00  0.00    -0.244 OA
BRANCH   7   9
ATOM      9  C   UNL A   1      34.507  33.616  28.487  1.00  0.00     0.190 A 
ATOM     10  N   UNL A   1      34.492  31.645  27.657  1.00  0.00    -0.231 N 
ATOM     11  N   UNL A   1      33.801  32.808  27.666  1.00  0.00    -0.159 NA
ATOM     12  C   UNL A   1      35.675  31.719  28.370  1.00  0.00     0.094 A 
ATOM     13  C   UNL A   1      35.741  33.018  28.833  1.00  0.00     0.102 A 
ATOM     14  Cl  UNL A   1      37.006  33.707  29.745  1.00  0.00    -0.079 Cl
BRANCH  10  15
ATOM     15  C   UNL A   1      33.885  30.476  27.151  1.00  0.00     0.065 A 
ATOM     16  C   UNL A   1      32.628  28.122  26.406  1.00  0.00     0.082 A 
ATOM     17  C   UNL A   1      34.028  28.167  26.471  1.00  0.00     0.024 A 
ATOM     18  C   UNL A   1      31.859  29.261  26.666  1.00  0.00     0.024 A 
ATOM     19  C   UNL A   1      34.667  29.362  26.823  1.00  0.00     0.030 A 
ATOM     20  C   UNL A   1      32.489  30.438  27.057  1.00  0.00     0.030 A 
BRANCH  16  21
ATOM     21  S   UNL A   1      31.798  26.600  26.051  1.00  0.00     0.238 S 
ATOM     22  O   UNL A   1      30.685  26.442  26.946  1.00  0.00    -0.207 OA
ATOM     23  O   UNL A   1      32.806  25.572  25.867  1.00  0.00    -0.207 OA
BRANCH  21  24
ATOM     24  N   UNL A   1      31.122  26.865  24.539  1.00  0.00    -0.225 NA
ATOM     25  H   UNL A   1      30.585  26.045  24.258  1.00  0.00     0.137 HD
ATOM     26  H   UNL A   1      31.864  27.034  23.860  1.00  0.00     0.137 HD
ENDBRANCH  21  24
ENDBRANCH  16  21
ENDBRANCH  10  15
BRANCH  12  27
ATOM     27  C   UNL A   1      36.598  30.616  28.620  1.00  0.00     0.002 A 
ATOM     28  C   UNL A   1      36.465  29.896  29.816  1.00  0.00     0.012 A 
ATOM     29  C   UNL A   1      37.636  30.297  27.738  1.00  0.00     0.012 A 
ATOM     30  C   UNL A   1      37.369  28.891  30.145  1.00  0.00     0.021 A 
ATOM     31  C   UNL A   1      38.541  29.281  28.065  1.00  0.00     0.021 A 
ATOM     32  C   UNL A   1      38.409  28.591  29.271  1.00  0.00     0.041 A 
ATOM     33  Cl  UNL A   1      39.545  27.372  29.693  1.00  0.00    -0.084 Cl
ENDBRANCH  12  27
ENDBRANCH   7   9
ENDBRANCH   6   7
ENDBRANCH   5   6
ENDBRANCH   4   5
ENDBRANCH   3   4
ENDBRANCH   2   3
ENDBRANCH   1   2
BRANCH   1  34
ATOM     34  O   UNL A   1      37.198  34.942  33.734  1.00  0.00    -0.377 OA
BRANCH  34  35
ATOM     35  C   UNL A   1      38.150  33.890  33.595  1.00  0.00     0.188 C 
BRANCH  35  36
ATOM     36  C   UNL A   1      37.656  32.426  33.475  1.00  0.00     0.188 C 
BRANCH  36  37
ATOM     37  O   UNL A   1      38.102  31.744  32.304  1.00  0.00    -0.376 OA
BRANCH  37  38
ATOM     38  C   UNL A   1      39.284  30.961  32.358  1.00  0.00     0.202 C 
BRANCH  38  39
ATOM     39  C   UNL A   1      40.284  31.332  31.265  1.00  0.00     0.261 C 
BRANCH  39  40
ATOM     40  O   UNL A   1      40.895  32.593  31.494  1.00  0.00    -0.460 OA
BRANCH  40  41
ATOM     41  C   UNL A   1      41.824  32.950  30.586  1.00  0.00     0.338 C 
ATOM     42  O   UNL A   1      42.581  32.217  29.974  1.00  0.00    -0.246 OA
BRANCH  41  43
ATOM     43  C   UNL A   1      41.887  34.414  30.538  1.00  0.00     0.060 A 
ATOM     44  C   UNL A   1      41.455  34.976  29.338  1.00  0.00     0.016 A 
ATOM     45  C   UNL A   1      42.714  35.097  31.444  1.00  0.00     0.016 A 
ATOM     46  C   UNL A   1      42.146  36.066  28.881  1.00  0.00     0.010 A 
ATOM     47  C   UNL A   1      43.407  36.184  30.983  1.00  0.00     0.010 A 
ATOM     48  C   UNL A   1      43.200  36.555  29.660  1.00  0.00    -0.014 A 
BRANCH  48  49
ATOM     49  C   UNL A   1      44.154  37.393  28.981  1.00  0.00     0.031 A 
ATOM     50  C   UNL A   1      45.389  36.708  28.580  1.00  0.00     0.074 A 
ATOM     51  C   UNL A   1      43.900  38.690  28.741  1.00  0.00     0.049 A 
ATOM     52  N   UNL A   1      46.595  36.944  28.973  1.00  0.00    -0.248 NA
ATOM     53  C   UNL A   1      45.239  35.534  27.709  1.00  0.00     0.031 C 
ATOM     54  C   UNL A   1      42.627  39.411  28.830  1.00  0.00     0.029 A 
ATOM     55  N   UNL A   1      44.755  39.626  28.256  1.00  0.00    -0.354 N 
ATOM     56  C   UNL A   1      47.389  36.043  28.279  1.00  0.00     0.074 A 
ATOM     57  C   UNL A   1      46.500  35.118  27.621  1.00  0.00     0.031 C 
ATOM     58  C   UNL A   1      42.753  40.601  28.201  1.00  0.00     0.029 A 
ATOM     59  C   UNL A   1      44.135  40.765  27.780  1.00  0.00     0.049 A 
ATOM     60  H   UNL A   1      45.732  39.503  28.244  1.00  0.00     0.167 HD
ATOM     61  C   UNL A   1      48.720  36.247  28.116  1.00  0.00     0.037 A 
ATOM     62  C   UNL A   1      44.717  41.701  26.994  1.00  0.00     0.037 A 
ATOM     63  C   UNL A   1      49.258  37.140  29.104  1.00  0.00     0.049 A 
ATOM     64  C   UNL A   1      46.191  41.566  27.147  1.00  0.00     0.074 A 
ATOM     65  C   UNL A   1      49.340  37.111  30.484  1.00  0.00     0.029 A 
ATOM     66  N   UNL A   1      49.526  38.440  28.750  1.00  0.00    -0.354 N 
ATOM     67  N   UNL A   1      46.845  41.852  28.241  1.00  0.00    -0.248 NA
ATOM     68  C   UNL A   1      46.895  40.698  26.213  1.00  0.00     0.031 C 
ATOM     69  C   UNL A   1      49.175  38.465  30.899  1.00  0.00     0.029 A 
ATOM     70  C   UNL A   1      49.020  39.236  29.747  1.00  0.00     0.049 A 
ATOM     71  H   UNL A   1      49.991  38.743  27.936  1.00  0.00     0.167 HD
ATOM     72  C   UNL A   1      47.855  40.900  28.315  1.00  0.00     0.074 A 
ATOM     73  C   UNL A   1      47.893  40.279  26.996  1.00  0.00     0.031 C 
ATOM     74  C   UNL A   1      48.376  40.508  29.515  1.00  0.00     0.037 A 
BRANCH  61  75
ATOM     75  C   UNL A   1      49.444  35.863  26.861  1.00  0.00     0.064 A 
ATOM     76  C   UNL A   1      50.579  35.039  26.934  1.00  0.00     0.173 A 
ATOM     77  C   UNL A   1      49.216  36.492  25.615  1.00  0.00     0.173 A 
ATOM     78  F   UNL A   1      50.908  34.433  28.084  1.00  0.00    -0.203 F 
ATOM     79  C   UNL A   1      51.443  34.889  25.849  1.00  0.00     0.198 A 
ATOM     80  C   UNL A   1      50.045  36.290  24.517  1.00  0.00     0.198 A 
ATOM     81  F   UNL A   1      48.250  37.404  25.447  1.00  0.00    -0.203 F 
ATOM     82  F   UNL A   1      52.574  34.184  25.994  1.00  0.00    -0.200 F 
ATOM     83  C   UNL A   1      51.175  35.511  24.641  1.00  0.00     0.200 A 
ATOM     84  F   UNL A   1      49.779  36.921  23.365  1.00  0.00    -0.200 F 
ATOM     85  F   UNL A   1      52.029  35.404  23.615  1.00  0.00    -0.200 F 
ENDBRANCH  61  75
BRANCH  62  86
ATOM     86  C   UNL A   1      44.078  42.426  25.871  1.00  0.00     0.064 A 
ATOM     87  C   UNL A   1      44.519  43.702  25.491  1.00  0.00     0.173 A 
ATOM     88  C   UNL A   1      43.183  41.785  24.989  1.00  0.00     0.173 A 
ATOM     89  F   UNL A   1      45.414  44.357  26.243  1.00  0.00    -0.203 F 
ATOM     90  C   UNL A   1      44.093  44.297  24.299  1.00  0.00     0.198 A 
ATOM     91  C   UNL A   1      42.747  42.386  23.810  1.00  0.00     0.198 A 
ATOM     92  F   UNL A   1      42.782  40.523  25.206  1.00  0.00    -0.203 F 
ATOM     93  F   UNL A   1      44.578  45.493  23.939  1.00  0.00    -0.200 F 
ATOM     94  C   UNL A   1      43.210  43.638  23.459  1.00  0.00     0.200 A 
ATOM     95  F   UNL A   1      41.920  41.718  22.992  1.00  0.00    -0.200 F 
ATOM     96  F   UNL A   1      42.838  44.188  22.295  1.00  0.00    -0.200 F 
ENDBRANCH  62  86
BRANCH  74  97
ATOM     97  C   UNL A   1      48.006  41.308  30.732  1.00  0.00     0.064 A 
ATOM     98  C   UNL A   1      48.744  42.419  31.175  1.00  0.00     0.173 A 
ATOM     99  C   UNL A   1      46.787  41.047  31.371  1.00  0.00     0.173 A 
ATOM    100  F   UNL A   1      49.860  42.798  30.541  1.00  0.00    -0.203 F 
ATOM    101  C   UNL A   1      48.304  43.202  32.241  1.00  0.00     0.198 A 
ATOM    102  C   UNL A   1      46.332  41.852  32.413  1.00  0.00     0.198 A 
ATOM    103  F   UNL A   1      46.007  40.039  30.948  1.00  0.00    -0.203 F 
ATOM    104  F   UNL A   1      49.032  44.252  32.649  1.00  0.00    -0.200 F 
ATOM    105  C   UNL A   1      47.095  42.921  32.854  1.00  0.00     0.200 A 
ATOM    106  F   UNL A   1      45.137  41.610  32.970  1.00  0.00    -0.200 F 
ATOM    107  F   UNL A   1      46.649  43.700  33.850  1.00  0.00    -0.200 F 
ENDBRANCH  74  97
ENDBRANCH  48  49
ENDBRANCH  41  43
ENDBRANCH  40  41
ENDBRANCH  39  40
ENDBRANCH  38  39
ENDBRANCH  37  38
ENDBRANCH  36  37
ENDBRANCH  35  36
ENDBRANCH  34  35
ENDBRANCH   1  34
TORSDOF 24
ENDMDL
