MODEL 1
REMARK VINA RESULT:     -10.6      0.000      0.000
REMARK SMILES Nc1ccc(N2CC3(CCC3)C2)c(C(=O)OCCOCCOCCOCCOC(=O)c2ccc(-c3c4nc(c(-c5c(F)c(F)c(F)c(F)c5F)c5ccc([nH]5)c(-c5c(F)c(F)c(F)c(F)c5F)c5nc(c(-c6c(F)c(F)c(F)c(F)c6F)c6ccc3[nH]6)C=C5)C=C4)cc2)c1
REMARK SMILES IDX 23 1 22 2 21 3 20 4 19 5 18 6 17 7 16 8 14 9 15 10 13 11
REMARK SMILES IDX 2 12 3 13 94 14 4 15 5 16 1 17 6 20 7 21 12 22 8 23 9 24
REMARK SMILES IDX 11 25 10 26 24 27 25 28 26 29 27 30 28 31 29 32 30 33 31 34
REMARK SMILES IDX 32 35 93 36 33 37 92 38 34 39 35 40 36 41 86 42 37 43 91 44
REMARK SMILES IDX 85 45 87 46 38 47 90 48 84 49 83 50 39 52 71 53 51 54 70 55
REMARK SMILES IDX 52 56 55 57 69 58 88 59 53 60 54 61 68 63 89 64 56 65 40 66
REMARK SMILES IDX 41 67 49 68 42 69 43 70 47 71 50 72 44 73 45 74 48 75 46 76
REMARK SMILES IDX 72 77 73 78 81 79 74 80 75 81 79 82 82 83 76 84 77 85 80 86
REMARK SMILES IDX 78 87 57 88 58 89 66 90 59 91 60 92 64 93 67 94 61 95 62 96
REMARK SMILES IDX 65 97 63 98
REMARK H PARENT 1 18 1 19 87 51 55 62
REMARK Flexibility Score: inf
ROOT
ATOM      1  C   UNL A   1      34.038  34.146  28.701  1.00  0.00     0.188 C 
ENDROOT
BRANCH   1   2
ATOM      2  O   UNL A   1      34.507  33.383  27.599  1.00  0.00    -0.377 OA
BRANCH   2   3
ATOM      3  C   UNL A   1      34.601  31.978  27.810  1.00  0.00     0.188 C 
BRANCH   3   4
ATOM      4  C   UNL A   1      33.432  31.086  27.364  1.00  0.00     0.188 C 
BRANCH   4   5
ATOM      5  O   UNL A   1      33.841  30.018  26.503  1.00  0.00    -0.376 OA
BRANCH   5   6
ATOM      6  C   UNL A   1      33.321  28.734  26.845  1.00  0.00     0.202 C 
BRANCH   6   7
ATOM      7  C   UNL A   1      33.672  27.668  25.804  1.00  0.00     0.261 C 
BRANCH   7   8
ATOM      8  O   UNL A   1      33.514  28.130  24.453  1.00  0.00    -0.460 OA
BRANCH   8   9
ATOM      9  C   UNL A   1      33.035  27.239  23.543  1.00  0.00     0.340 C 
ATOM     10  O   UNL A   1      33.626  26.258  23.133  1.00  0.00    -0.246 OA
BRANCH   9  11
ATOM     11  C   UNL A   1      31.628  27.629  23.253  1.00  0.00     0.085 A 
ATOM     12  C   UNL A   1      30.127  29.346  22.400  1.00  0.00     0.032 A 
ATOM     13  C   UNL A   1      29.047  28.570  22.818  1.00  0.00     0.027 A 
ATOM     14  C   UNL A   1      31.413  28.846  22.582  1.00  0.00     0.043 A 
ATOM     15  C   UNL A   1      29.248  27.366  23.508  1.00  0.00     0.029 A 
ATOM     16  C   UNL A   1      30.540  26.882  23.752  1.00  0.00     0.051 A 
BRANCH  12  17
ATOM     17  N   UNL A   1      29.926  30.536  21.720  1.00  0.00    -0.399 N 
ATOM     18  H   UNL A   1      29.400  31.257  22.134  1.00  0.00     0.156 HD
ATOM     19  H   UNL A   1      30.311  30.661  20.823  1.00  0.00     0.156 HD
ENDBRANCH  12  17
BRANCH  16  20
ATOM     20  N   UNL A   1      30.723  25.762  24.570  1.00  0.00    -0.370 N 
ATOM     21  C   UNL A   1      30.789  24.362  24.239  1.00  0.00     0.125 C 
ATOM     22  C   UNL A   1      30.381  25.505  25.940  1.00  0.00     0.125 C 
ATOM     23  C   UNL A   1      31.047  24.174  25.710  1.00  0.00     0.005 C 
ATOM     24  C   UNL A   1      30.619  22.964  26.484  1.00  0.00     0.011 C 
ATOM     25  C   UNL A   1      32.491  23.990  26.133  1.00  0.00     0.011 C 
ATOM     26  C   UNL A   1      31.964  23.072  27.253  1.00  0.00     0.001 C 
ENDBRANCH  16  20
ENDBRANCH   9  11
ENDBRANCH   8   9
ENDBRANCH   7   8
ENDBRANCH   6   7
ENDBRANCH   5   6
ENDBRANCH   4   5
ENDBRANCH   3   4
ENDBRANCH   2   3
ENDBRANCH   1   2
BRANCH   1  27
ATOM     27  C   UNL A   1      34.392  33.497  30.053  1.00  0.00     0.188 C 
BRANCH  27  28
ATOM     28  O   UNL A   1      35.379  34.225  30.786  1.00  0.00    -0.376 OA
BRANCH  28  29
ATOM     29  C   UNL A   1      35.105  34.458  32.163  1.00  0.00     0.202 C 
BRANCH  29  30
ATOM     30  C   UNL A   1      34.665  33.236  32.984  1.00  0.00     0.261 C 
BRANCH  30  31
ATOM     31  O   UNL A   1      35.474  32.059  32.822  1.00  0.00    -0.460 OA
BRANCH  31  32
ATOM     32  C   UNL A   1      36.654  32.003  33.473  1.00  0.00     0.338 C 
ATOM     33  O   UNL A   1      36.882  32.297  34.631  1.00  0.00    -0.246 OA
BRANCH  32  34
ATOM     34  C   UNL A   1      37.607  31.310  32.582  1.00  0.00     0.060 A 
ATOM     35  C   UNL A   1      38.593  30.496  33.157  1.00  0.00     0.016 A 
ATOM     36  C   UNL A   1      37.488  31.407  31.193  1.00  0.00     0.016 A 
ATOM     37  C   UNL A   1      39.480  29.795  32.340  1.00  0.00     0.010 A 
ATOM     38  C   UNL A   1      38.394  30.729  30.376  1.00  0.00     0.010 A 
ATOM     39  C   UNL A   1      39.411  29.945  30.947  1.00  0.00    -0.014 A 
BRANCH  39  40
ATOM     40  C   UNL A   1      40.542  29.490  30.107  1.00  0.00     0.031 A 
ATOM     41  C   UNL A   1      41.628  30.485  29.809  1.00  0.00     0.074 A 
ATOM     42  C   UNL A   1      40.610  28.239  29.624  1.00  0.00     0.049 A 
ATOM     43  N   UNL A   1      42.703  30.350  29.077  1.00  0.00    -0.248 NA
ATOM     44  C   UNL A   1      41.479  31.816  30.422  1.00  0.00     0.031 C 
ATOM     45  C   UNL A   1      39.636  27.178  29.868  1.00  0.00     0.029 A 
ATOM     46  N   UNL A   1      41.550  27.653  28.812  1.00  0.00    -0.354 N 
ATOM     47  C   UNL A   1      43.360  31.571  29.151  1.00  0.00     0.074 A 
ATOM     48  C   UNL A   1      42.551  32.446  29.970  1.00  0.00     0.031 C 
ATOM     49  C   UNL A   1      40.021  26.073  29.205  1.00  0.00     0.029 A 
ATOM     50  C   UNL A   1      41.255  26.357  28.473  1.00  0.00     0.049 A 
ATOM     51  H   UNL A   1      42.360  28.120  28.502  1.00  0.00     0.167 HD
ATOM     52  C   UNL A   1      44.538  31.930  28.593  1.00  0.00     0.037 A 
ATOM     53  C   UNL A   1      41.902  25.508  27.648  1.00  0.00     0.037 A 
ATOM     54  C   UNL A   1      45.332  31.071  27.759  1.00  0.00     0.049 A 
ATOM     55  C   UNL A   1      43.173  25.962  26.971  1.00  0.00     0.074 A 
ATOM     56  C   UNL A   1      46.539  31.343  27.142  1.00  0.00     0.029 A 
ATOM     57  N   UNL A   1      44.987  29.773  27.417  1.00  0.00    -0.354 N 
ATOM     58  N   UNL A   1      43.806  27.105  27.072  1.00  0.00    -0.248 NA
ATOM     59  C   UNL A   1      43.820  25.002  26.063  1.00  0.00     0.031 C 
ATOM     60  C   UNL A   1      46.905  30.221  26.391  1.00  0.00     0.029 A 
ATOM     61  C   UNL A   1      45.948  29.236  26.579  1.00  0.00     0.049 A 
ATOM     62  H   UNL A   1      44.177  29.303  27.725  1.00  0.00     0.167 HD
ATOM     63  C   UNL A   1      44.936  26.992  26.271  1.00  0.00     0.074 A 
ATOM     64  C   UNL A   1      44.908  25.664  25.696  1.00  0.00     0.031 C 
ATOM     65  C   UNL A   1      45.909  27.905  26.031  1.00  0.00     0.037 A 
BRANCH  52  66
ATOM     66  C   UNL A   1      45.023  33.323  28.851  1.00  0.00     0.064 A 
ATOM     67  C   UNL A   1      45.855  33.617  29.942  1.00  0.00     0.173 A 
ATOM     68  C   UNL A   1      44.669  34.372  27.990  1.00  0.00     0.173 A 
ATOM     69  F   UNL A   1      46.201  32.650  30.806  1.00  0.00    -0.203 F 
ATOM     70  C   UNL A   1      46.302  34.915  30.171  1.00  0.00     0.198 A 
ATOM     71  C   UNL A   1      45.139  35.664  28.208  1.00  0.00     0.198 A 
ATOM     72  F   UNL A   1      43.872  34.142  26.936  1.00  0.00    -0.203 F 
ATOM     73  F   UNL A   1      47.064  35.182  31.241  1.00  0.00    -0.200 F 
ATOM     74  C   UNL A   1      45.950  35.935  29.300  1.00  0.00     0.200 A 
ATOM     75  F   UNL A   1      44.802  36.648  27.363  1.00  0.00    -0.200 F 
ATOM     76  F   UNL A   1      46.386  37.184  29.517  1.00  0.00    -0.200 F 
ENDBRANCH  52  66
BRANCH  53  77
ATOM     77  C   UNL A   1      41.361  24.147  27.395  1.00  0.00     0.064 A 
ATOM     78  C   UNL A   1      42.012  23.006  27.886  1.00  0.00     0.173 A 
ATOM     79  C   UNL A   1      40.212  23.956  26.616  1.00  0.00     0.173 A 
ATOM     80  F   UNL A   1      43.133  23.136  28.611  1.00  0.00    -0.203 F 
ATOM     81  C   UNL A   1      41.546  21.727  27.589  1.00  0.00     0.198 A 
ATOM     82  C   UNL A   1      39.732  22.677  26.341  1.00  0.00     0.198 A 
ATOM     83  F   UNL A   1      39.556  25.013  26.114  1.00  0.00    -0.203 F 
ATOM     84  F   UNL A   1      42.219  20.653  28.025  1.00  0.00    -0.200 F 
ATOM     85  C   UNL A   1      40.404  21.563  26.819  1.00  0.00     0.200 A 
ATOM     86  F   UNL A   1      38.624  22.523  25.602  1.00  0.00    -0.200 F 
ATOM     87  F   UNL A   1      39.961  20.333  26.528  1.00  0.00    -0.200 F 
ENDBRANCH  53  77
BRANCH  65  88
ATOM     88  C   UNL A   1      47.044  27.490  25.142  1.00  0.00     0.064 A 
ATOM     89  C   UNL A   1      47.072  27.825  23.781  1.00  0.00     0.173 A 
ATOM     90  C   UNL A   1      48.143  26.798  25.674  1.00  0.00     0.173 A 
ATOM     91  F   UNL A   1      46.040  28.475  23.224  1.00  0.00    -0.203 F 
ATOM     92  C   UNL A   1      48.152  27.463  22.979  1.00  0.00     0.198 A 
ATOM     93  C   UNL A   1      49.232  26.463  24.875  1.00  0.00     0.198 A 
ATOM     94  F   UNL A   1      48.167  26.463  26.973  1.00  0.00    -0.203 F 
ATOM     95  F   UNL A   1      48.141  27.758  21.671  1.00  0.00    -0.200 F 
ATOM     96  C   UNL A   1      49.233  26.790  23.528  1.00  0.00     0.200 A 
ATOM     97  F   UNL A   1      50.282  25.824  25.410  1.00  0.00    -0.200 F 
ATOM     98  F   UNL A   1      50.275  26.451  22.756  1.00  0.00    -0.200 F 
ENDBRANCH  65  88
ENDBRANCH  39  40
ENDBRANCH  32  34
ENDBRANCH  31  32
ENDBRANCH  30  31
ENDBRANCH  29  30
ENDBRANCH  28  29
ENDBRANCH  27  28
ENDBRANCH   1  27
TORSDOF 22
ENDMDL
MODEL 2
REMARK VINA RESULT:     -10.6      1.237      2.908
REMARK SMILES Nc1ccc(N2CC3(CCC3)C2)c(C(=O)OCCOCCOCCOCCOC(=O)c2ccc(-c3c4nc(c(-c5c(F)c(F)c(F)c(F)c5F)c5ccc([nH]5)c(-c5c(F)c(F)c(F)c(F)c5F)c5nc(c(-c6c(F)c(F)c(F)c(F)c6F)c6ccc3[nH]6)C=C5)C=C4)cc2)c1
REMARK SMILES IDX 23 1 22 2 21 3 20 4 19 5 18 6 17 7 16 8 14 9 15 10 13 11
REMARK SMILES IDX 2 12 3 13 94 14 4 15 5 16 1 17 6 20 7 21 12 22 8 23 9 24
REMARK SMILES IDX 11 25 10 26 24 27 25 28 26 29 27 30 28 31 29 32 30 33 31 34
REMARK SMILES IDX 32 35 93 36 33 37 92 38 34 39 35 40 36 41 86 42 37 43 91 44
REMARK SMILES IDX 85 45 87 46 38 47 90 48 84 49 83 50 39 52 71 53 51 54 70 55
REMARK SMILES IDX 52 56 55 57 69 58 88 59 53 60 54 61 68 63 89 64 56 65 40 66
REMARK SMILES IDX 41 67 49 68 42 69 43 70 47 71 50 72 44 73 45 74 48 75 46 76
REMARK SMILES IDX 72 77 73 78 81 79 74 80 75 81 79 82 82 83 76 84 77 85 80 86
REMARK SMILES IDX 78 87 57 88 58 89 66 90 59 91 60 92 64 93 67 94 61 95 62 96
REMARK SMILES IDX 65 97 63 98
REMARK H PARENT 1 18 1 19 87 51 55 62
REMARK Flexibility Score: inf
ROOT
ATOM      1  C   UNL A   1      34.322  34.167  28.249  1.00  0.00     0.188 C 
ENDROOT
BRANCH   1   2
ATOM      2  O   UNL A   1      34.242  32.883  28.850  1.00  0.00    -0.377 OA
BRANCH   2   3
ATOM      3  C   UNL A   1      34.098  31.785  27.954  1.00  0.00     0.188 C 
BRANCH   3   4
ATOM      4  C   UNL A   1      35.300  30.855  27.728  1.00  0.00     0.188 C 
BRANCH   4   5
ATOM      5  O   UNL A   1      34.948  29.469  27.763  1.00  0.00    -0.376 OA
BRANCH   5   6
ATOM      6  C   UNL A   1      34.419  28.950  26.543  1.00  0.00     0.202 C 
BRANCH   6   7
ATOM      7  C   UNL A   1      33.218  28.029  26.775  1.00  0.00     0.261 C 
BRANCH   7   8
ATOM      8  O   UNL A   1      33.389  26.727  26.191  1.00  0.00    -0.460 OA
BRANCH   8   9
ATOM      9  C   UNL A   1      32.307  25.903  26.180  1.00  0.00     0.340 C 
ATOM     10  O   UNL A   1      31.344  25.990  26.919  1.00  0.00    -0.246 OA
BRANCH   9  11
ATOM     11  C   UNL A   1      32.477  24.977  25.027  1.00  0.00     0.085 A 
ATOM     12  C   UNL A   1      33.701  23.087  24.099  1.00  0.00     0.032 A 
ATOM     13  C   UNL A   1      33.034  23.285  22.891  1.00  0.00     0.027 A 
ATOM     14  C   UNL A   1      33.382  23.911  25.175  1.00  0.00     0.043 A 
ATOM     15  C   UNL A   1      32.146  24.357  22.725  1.00  0.00     0.029 A 
ATOM     16  C   UNL A   1      31.864  25.231  23.782  1.00  0.00     0.051 A 
BRANCH  12  17
ATOM     17  N   UNL A   1      34.579  22.029  24.262  1.00  0.00    -0.399 N 
ATOM     18  H   UNL A   1      35.485  22.078  23.882  1.00  0.00     0.156 HD
ATOM     19  H   UNL A   1      34.296  21.227  24.758  1.00  0.00     0.156 HD
ENDBRANCH  12  17
BRANCH  16  20
ATOM     20  N   UNL A   1      31.097  26.378  23.555  1.00  0.00    -0.370 N 
ATOM     21  C   UNL A   1      29.762  26.712  23.982  1.00  0.00     0.125 C 
ATOM     22  C   UNL A   1      31.074  27.321  22.473  1.00  0.00     0.125 C 
ATOM     23  C   UNL A   1      30.025  28.025  23.295  1.00  0.00     0.005 C 
ATOM     24  C   UNL A   1      28.961  28.847  22.631  1.00  0.00     0.011 C 
ATOM     25  C   UNL A   1      30.438  29.187  24.176  1.00  0.00     0.011 C 
ATOM     26  C   UNL A   1      29.691  30.102  23.186  1.00  0.00     0.001 C 
ENDBRANCH  16  20
ENDBRANCH   9  11
ENDBRANCH   8   9
ENDBRANCH   7   8
ENDBRANCH   6   7
ENDBRANCH   5   6
ENDBRANCH   4   5
ENDBRANCH   3   4
ENDBRANCH   2   3
ENDBRANCH   1   2
BRANCH   1  27
ATOM     27  C   UNL A   1      33.558  35.236  29.052  1.00  0.00     0.188 C 
BRANCH  27  28
ATOM     28  O   UNL A   1      33.033  34.746  30.287  1.00  0.00    -0.376 OA
BRANCH  28  29
ATOM     29  C   UNL A   1      33.623  35.257  31.477  1.00  0.00     0.202 C 
BRANCH  29  30
ATOM     30  C   UNL A   1      34.180  34.216  32.460  1.00  0.00     0.261 C 
BRANCH  30  31
ATOM     31  O   UNL A   1      35.321  33.475  31.994  1.00  0.00    -0.460 OA
BRANCH  31  32
ATOM     32  C   UNL A   1      36.039  32.777  32.897  1.00  0.00     0.338 C 
ATOM     33  O   UNL A   1      35.809  32.631  34.082  1.00  0.00    -0.246 OA
BRANCH  32  34
ATOM     34  C   UNL A   1      37.067  32.028  32.145  1.00  0.00     0.060 A 
ATOM     35  C   UNL A   1      37.956  31.210  32.856  1.00  0.00     0.016 A 
ATOM     36  C   UNL A   1      37.111  32.078  30.749  1.00  0.00     0.016 A 
ATOM     37  C   UNL A   1      38.910  30.458  32.171  1.00  0.00     0.010 A 
ATOM     38  C   UNL A   1      38.084  31.347  30.065  1.00  0.00     0.010 A 
ATOM     39  C   UNL A   1      39.005  30.559  30.775  1.00  0.00    -0.014 A 
BRANCH  39  40
ATOM     40  C   UNL A   1      40.211  30.045  30.087  1.00  0.00     0.031 A 
ATOM     41  C   UNL A   1      41.350  31.002  29.876  1.00  0.00     0.074 A 
ATOM     42  C   UNL A   1      40.299  28.773  29.663  1.00  0.00     0.049 A 
ATOM     43  N   UNL A   1      42.497  30.813  29.276  1.00  0.00    -0.248 NA
ATOM     44  C   UNL A   1      41.169  32.360  30.417  1.00  0.00     0.031 C 
ATOM     45  C   UNL A   1      39.276  27.746  29.836  1.00  0.00     0.029 A 
ATOM     46  N   UNL A   1      41.309  28.134  28.986  1.00  0.00    -0.354 N 
ATOM     47  C   UNL A   1      43.173  32.021  29.378  1.00  0.00     0.074 A 
ATOM     48  C   UNL A   1      42.301  32.947  30.065  1.00  0.00     0.031 C 
ATOM     49  C   UNL A   1      39.703  26.606  29.262  1.00  0.00     0.029 A 
ATOM     50  C   UNL A   1      41.019  26.831  28.665  1.00  0.00     0.049 A 
ATOM     51  H   UNL A   1      42.160  28.569  28.752  1.00  0.00     0.167 HD
ATOM     52  C   UNL A   1      44.415  32.331  28.943  1.00  0.00     0.037 A 
ATOM     53  C   UNL A   1      41.731  25.936  27.952  1.00  0.00     0.037 A 
ATOM     54  C   UNL A   1      45.274  31.421  28.239  1.00  0.00     0.049 A 
ATOM     55  C   UNL A   1      43.082  26.333  27.406  1.00  0.00     0.074 A 
ATOM     56  C   UNL A   1      46.551  31.640  27.752  1.00  0.00     0.029 A 
ATOM     57  N   UNL A   1      44.935  30.118  27.910  1.00  0.00    -0.354 N 
ATOM     58  N   UNL A   1      43.730  27.465  27.535  1.00  0.00    -0.248 NA
ATOM     59  C   UNL A   1      43.801  25.323  26.615  1.00  0.00     0.031 C 
ATOM     60  C   UNL A   1      46.969  30.480  27.091  1.00  0.00     0.029 A 
ATOM     61  C   UNL A   1      45.970  29.525  27.207  1.00  0.00     0.049 A 
ATOM     62  H   UNL A   1      44.084  29.679  28.141  1.00  0.00     0.167 HD
ATOM     63  C   UNL A   1      44.939  27.294  26.872  1.00  0.00     0.074 A 
ATOM     64  C   UNL A   1      44.941  25.945  26.349  1.00  0.00     0.031 C 
ATOM     65  C   UNL A   1      45.958  28.175  26.709  1.00  0.00     0.037 A 
BRANCH  52  66
ATOM     66  C   UNL A   1      44.905  33.722  29.202  1.00  0.00     0.064 A 
ATOM     67  C   UNL A   1      44.659  34.764  28.295  1.00  0.00     0.173 A 
ATOM     68  C   UNL A   1      45.612  34.022  30.375  1.00  0.00     0.173 A 
ATOM     69  F   UNL A   1      44.007  34.521  27.148  1.00  0.00    -0.203 F 
ATOM     70  C   UNL A   1      45.117  36.054  28.548  1.00  0.00     0.198 A 
ATOM     71  C   UNL A   1      46.046  35.318  30.636  1.00  0.00     0.198 A 
ATOM     72  F   UNL A   1      45.876  33.058  31.270  1.00  0.00    -0.203 F 
ATOM     73  F   UNL A   1      44.905  37.027  27.650  1.00  0.00    -0.200 F 
ATOM     74  C   UNL A   1      45.803  36.331  29.720  1.00  0.00     0.200 A 
ATOM     75  F   UNL A   1      46.705  35.586  31.772  1.00  0.00    -0.200 F 
ATOM     76  F   UNL A   1      46.239  37.575  29.965  1.00  0.00    -0.200 F 
ENDBRANCH  52  66
BRANCH  53  77
ATOM     77  C   UNL A   1      41.187  24.578  27.691  1.00  0.00     0.064 A 
ATOM     78  C   UNL A   1      41.745  23.444  28.299  1.00  0.00     0.173 A 
ATOM     79  C   UNL A   1      40.129  24.380  26.793  1.00  0.00     0.173 A 
ATOM     80  F   UNL A   1      42.779  23.579  29.143  1.00  0.00    -0.203 F 
ATOM     81  C   UNL A   1      41.282  22.165  28.000  1.00  0.00     0.198 A 
ATOM     82  C   UNL A   1      39.649  23.102  26.514  1.00  0.00     0.198 A 
ATOM     83  F   UNL A   1      39.564  25.430  26.178  1.00  0.00    -0.203 F 
ATOM     84  F   UNL A   1      41.870  21.094  28.553  1.00  0.00    -0.200 F 
ATOM     85  C   UNL A   1      40.232  21.994  27.110  1.00  0.00     0.200 A 
ATOM     86  F   UNL A   1      38.629  22.942  25.659  1.00  0.00    -0.200 F 
ATOM     87  F   UNL A   1      39.791  20.763  26.818  1.00  0.00    -0.200 F 
ENDBRANCH  53  77
BRANCH  65  88
ATOM     88  C   UNL A   1      47.173  27.698  25.971  1.00  0.00     0.064 A 
ATOM     89  C   UNL A   1      48.268  27.135  26.642  1.00  0.00     0.173 A 
ATOM     90  C   UNL A   1      47.218  27.755  24.569  1.00  0.00     0.173 A 
ATOM     91  F   UNL A   1      48.278  27.070  27.981  1.00  0.00    -0.203 F 
ATOM     92  C   UNL A   1      49.373  26.665  25.937  1.00  0.00     0.198 A 
ATOM     93  C   UNL A   1      48.312  27.258  23.867  1.00  0.00     0.198 A 
ATOM     94  F   UNL A   1      46.191  28.277  23.881  1.00  0.00    -0.203 F 
ATOM     95  F   UNL A   1      50.426  26.166  26.600  1.00  0.00    -0.200 F 
ATOM     96  C   UNL A   1      49.390  26.720  24.551  1.00  0.00     0.200 A 
ATOM     97  F   UNL A   1      48.321  27.300  22.527  1.00  0.00    -0.200 F 
ATOM     98  F   UNL A   1      50.450  26.257  23.874  1.00  0.00    -0.200 F 
ENDBRANCH  65  88
ENDBRANCH  39  40
ENDBRANCH  32  34
ENDBRANCH  31  32
ENDBRANCH  30  31
ENDBRANCH  29  30
ENDBRANCH  28  29
ENDBRANCH  27  28
ENDBRANCH   1  27
TORSDOF 22
ENDMDL
MODEL 3
REMARK VINA RESULT:     -10.5      0.488      7.114
REMARK SMILES Nc1ccc(N2CC3(CCC3)C2)c(C(=O)OCCOCCOCCOCCOC(=O)c2ccc(-c3c4nc(c(-c5c(F)c(F)c(F)c(F)c5F)c5ccc([nH]5)c(-c5c(F)c(F)c(F)c(F)c5F)c5nc(c(-c6c(F)c(F)c(F)c(F)c6F)c6ccc3[nH]6)C=C5)C=C4)cc2)c1
REMARK SMILES IDX 23 1 22 2 21 3 20 4 19 5 18 6 17 7 16 8 14 9 15 10 13 11
REMARK SMILES IDX 2 12 3 13 94 14 4 15 5 16 1 17 6 20 7 21 12 22 8 23 9 24
REMARK SMILES IDX 11 25 10 26 24 27 25 28 26 29 27 30 28 31 29 32 30 33 31 34
REMARK SMILES IDX 32 35 93 36 33 37 92 38 34 39 35 40 36 41 86 42 37 43 91 44
REMARK SMILES IDX 85 45 87 46 38 47 90 48 84 49 83 50 39 52 71 53 51 54 70 55
REMARK SMILES IDX 52 56 55 57 69 58 88 59 53 60 54 61 68 63 89 64 56 65 40 66
REMARK SMILES IDX 41 67 49 68 42 69 43 70 47 71 50 72 44 73 45 74 48 75 46 76
REMARK SMILES IDX 72 77 73 78 81 79 74 80 75 81 79 82 82 83 76 84 77 85 80 86
REMARK SMILES IDX 78 87 57 88 58 89 66 90 59 91 60 92 64 93 67 94 61 95 62 96
REMARK SMILES IDX 65 97 63 98
REMARK H PARENT 1 18 1 19 87 51 55 62
REMARK Flexibility Score: inf
ROOT
ATOM      1  C   UNL A   1      33.969  34.212  28.877  1.00  0.00     0.188 C 
ENDROOT
BRANCH   1   2
ATOM      2  O   UNL A   1      34.247  33.515  27.671  1.00  0.00    -0.377 OA
BRANCH   2   3
ATOM      3  C   UNL A   1      34.471  32.114  27.799  1.00  0.00     0.188 C 
BRANCH   3   4
ATOM      4  C   UNL A   1      33.351  31.148  27.381  1.00  0.00     0.188 C 
BRANCH   4   5
ATOM      5  O   UNL A   1      33.806  30.113  26.504  1.00  0.00    -0.376 OA
BRANCH   5   6
ATOM      6  C   UNL A   1      33.113  28.872  26.623  1.00  0.00     0.202 C 
BRANCH   6   7
ATOM      7  C   UNL A   1      33.720  27.778  25.742  1.00  0.00     0.261 C 
BRANCH   7   8
ATOM      8  O   UNL A   1      33.628  28.073  24.338  1.00  0.00    -0.460 OA
BRANCH   8   9
ATOM      9  C   UNL A   1      33.075  27.122  23.538  1.00  0.00     0.340 C 
ATOM     10  O   UNL A   1      33.602  26.073  23.217  1.00  0.00    -0.246 OA
BRANCH   9  11
ATOM     11  C   UNL A   1      31.682  27.556  23.245  1.00  0.00     0.085 A 
ATOM     12  C   UNL A   1      30.239  29.318  22.384  1.00  0.00     0.032 A 
ATOM     13  C   UNL A   1      29.134  28.579  22.804  1.00  0.00     0.027 A 
ATOM     14  C   UNL A   1      31.508  28.777  22.569  1.00  0.00     0.043 A 
ATOM     15  C   UNL A   1      29.295  27.372  23.497  1.00  0.00     0.029 A 
ATOM     16  C   UNL A   1      30.570  26.847  23.745  1.00  0.00     0.051 A 
BRANCH  12  17
ATOM     17  N   UNL A   1      30.078  30.511  21.699  1.00  0.00    -0.399 N 
ATOM     18  H   UNL A   1      30.272  31.366  22.147  1.00  0.00     0.156 HD
ATOM     19  H   UNL A   1      29.769  30.505  20.765  1.00  0.00     0.156 HD
ENDBRANCH  12  17
BRANCH  16  20
ATOM     20  N   UNL A   1      30.716  25.724  24.567  1.00  0.00    -0.370 N 
ATOM     21  C   UNL A   1      30.716  24.321  24.244  1.00  0.00     0.125 C 
ATOM     22  C   UNL A   1      30.382  25.491  25.944  1.00  0.00     0.125 C 
ATOM     23  C   UNL A   1      30.987  24.130  25.712  1.00  0.00     0.005 C 
ATOM     24  C   UNL A   1      30.517  22.944  26.500  1.00  0.00     0.011 C 
ATOM     25  C   UNL A   1      32.427  23.887  26.117  1.00  0.00     0.011 C 
ATOM     26  C   UNL A   1      31.876  22.998  27.250  1.00  0.00     0.001 C 
ENDBRANCH  16  20
ENDBRANCH   9  11
ENDBRANCH   8   9
ENDBRANCH   7   8
ENDBRANCH   6   7
ENDBRANCH   5   6
ENDBRANCH   4   5
ENDBRANCH   3   4
ENDBRANCH   2   3
ENDBRANCH   1   2
BRANCH   1  27
ATOM     27  C   UNL A   1      34.484  33.459  30.118  1.00  0.00     0.188 C 
BRANCH  27  28
ATOM     28  O   UNL A   1      35.455  34.198  30.862  1.00  0.00    -0.376 OA
BRANCH  28  29
ATOM     29  C   UNL A   1      35.234  34.308  32.264  1.00  0.00     0.202 C 
BRANCH  29  30
ATOM     30  C   UNL A   1      34.858  33.010  32.995  1.00  0.00     0.261 C 
BRANCH  30  31
ATOM     31  O   UNL A   1      35.710  31.883  32.731  1.00  0.00    -0.460 OA
BRANCH  31  32
ATOM     32  C   UNL A   1      36.874  31.792  33.406  1.00  0.00     0.338 C 
ATOM     33  O   UNL A   1      37.062  31.959  34.595  1.00  0.00    -0.246 OA
BRANCH  32  34
ATOM     34  C   UNL A   1      37.874  31.238  32.469  1.00  0.00     0.060 A 
ATOM     35  C   UNL A   1      38.964  30.529  32.994  1.00  0.00     0.016 A 
ATOM     36  C   UNL A   1      37.704  31.358  31.088  1.00  0.00     0.016 A 
ATOM     37  C   UNL A   1      39.901  29.958  32.134  1.00  0.00     0.010 A 
ATOM     38  C   UNL A   1      38.658  30.811  30.227  1.00  0.00     0.010 A 
ATOM     39  C   UNL A   1      39.774  30.136  30.748  1.00  0.00    -0.014 A 
BRANCH  39  40
ATOM     40  C   UNL A   1      40.925  29.837  29.866  1.00  0.00     0.031 A 
ATOM     41  C   UNL A   1      40.985  28.470  29.244  1.00  0.00     0.074 A 
ATOM     42  C   UNL A   1      41.885  30.743  29.618  1.00  0.00     0.049 A 
ATOM     43  N   UNL A   1      41.896  27.949  28.464  1.00  0.00    -0.248 NA
ATOM     44  C   UNL A   1      39.861  27.567  29.545  1.00  0.00     0.031 C 
ATOM     45  C   UNL A   1      41.921  32.107  30.137  1.00  0.00     0.029 A 
ATOM     46  N   UNL A   1      43.028  30.638  28.864  1.00  0.00    -0.354 N 
ATOM     47  C   UNL A   1      41.450  26.666  28.176  1.00  0.00     0.074 A 
ATOM     48  C   UNL A   1      40.206  26.473  28.887  1.00  0.00     0.031 C 
ATOM     49  C   UNL A   1      43.042  32.710  29.699  1.00  0.00     0.029 A 
ATOM     50  C   UNL A   1      43.810  31.765  28.889  1.00  0.00     0.049 A 
ATOM     51  H   UNL A   1      43.265  29.830  28.354  1.00  0.00     0.167 HD
ATOM     52  C   UNL A   1      42.022  25.733  27.381  1.00  0.00     0.037 A 
ATOM     53  C   UNL A   1      45.018  31.994  28.334  1.00  0.00     0.037 A 
ATOM     54  C   UNL A   1      43.269  25.913  26.693  1.00  0.00     0.049 A 
ATOM     55  C   UNL A   1      45.674  30.905  27.519  1.00  0.00     0.074 A 
ATOM     56  C   UNL A   1      43.935  25.027  25.867  1.00  0.00     0.029 A 
ATOM     57  N   UNL A   1      44.045  27.060  26.763  1.00  0.00    -0.354 N 
ATOM     58  N   UNL A   1      45.231  29.708  27.221  1.00  0.00    -0.248 NA
ATOM     59  C   UNL A   1      47.002  31.204  26.960  1.00  0.00     0.031 C 
ATOM     60  C   UNL A   1      45.137  25.622  25.469  1.00  0.00     0.029 A 
ATOM     61  C   UNL A   1      45.195  26.897  26.011  1.00  0.00     0.049 A 
ATOM     62  H   UNL A   1      43.812  27.871  27.272  1.00  0.00     0.167 HD
ATOM     63  C   UNL A   1      46.205  29.125  26.420  1.00  0.00     0.074 A 
ATOM     64  C   UNL A   1      47.261  30.104  26.268  1.00  0.00     0.031 C 
ATOM     65  C   UNL A   1      46.226  27.890  25.860  1.00  0.00     0.037 A 
BRANCH  52  66
ATOM     66  C   UNL A   1      41.307  24.425  27.236  1.00  0.00     0.064 A 
ATOM     67  C   UNL A   1      40.169  24.299  26.425  1.00  0.00     0.173 A 
ATOM     68  C   UNL A   1      41.775  23.281  27.898  1.00  0.00     0.173 A 
ATOM     69  F   UNL A   1      39.672  25.371  25.791  1.00  0.00    -0.203 F 
ATOM     70  C   UNL A   1      39.516  23.077  26.296  1.00  0.00     0.198 A 
ATOM     71  C   UNL A   1      41.134  22.055  27.746  1.00  0.00     0.198 A 
ATOM     72  F   UNL A   1      42.857  23.352  28.688  1.00  0.00    -0.203 F 
ATOM     73  F   UNL A   1      38.407  22.988  25.548  1.00  0.00    -0.200 F 
ATOM     74  C   UNL A   1      40.002  21.955  26.950  1.00  0.00     0.200 A 
ATOM     75  F   UNL A   1      41.608  20.971  28.374  1.00  0.00    -0.200 F 
ATOM     76  F   UNL A   1      39.376  20.778  26.820  1.00  0.00    -0.200 F 
ENDBRANCH  52  66
BRANCH  53  77
ATOM     77  C   UNL A   1      45.704  33.297  28.536  1.00  0.00     0.064 A 
ATOM     78  C   UNL A   1      46.688  33.453  29.522  1.00  0.00     0.173 A 
ATOM     79  C   UNL A   1      45.355  34.425  27.781  1.00  0.00     0.173 A 
ATOM     80  F   UNL A   1      47.035  32.410  30.292  1.00  0.00    -0.203 F 
ATOM     81  C   UNL A   1      47.280  34.691  29.760  1.00  0.00     0.198 A 
ATOM     82  C   UNL A   1      45.966  35.658  28.002  1.00  0.00     0.198 A 
ATOM     83  F   UNL A   1      44.413  34.333  26.829  1.00  0.00    -0.203 F 
ATOM     84  F   UNL A   1      48.178  34.825  30.746  1.00  0.00    -0.200 F 
ATOM     85  C   UNL A   1      46.921  35.793  28.997  1.00  0.00     0.200 A 
ATOM     86  F   UNL A   1      45.622  36.718  27.257  1.00  0.00    -0.200 F 
ATOM     87  F   UNL A   1      47.486  36.985  29.231  1.00  0.00    -0.200 F 
ENDBRANCH  53  77
BRANCH  65  88
ATOM     88  C   UNL A   1      47.404  27.539  25.001  1.00  0.00     0.064 A 
ATOM     89  C   UNL A   1      47.443  27.865  23.638  1.00  0.00     0.173 A 
ATOM     90  C   UNL A   1      48.532  26.920  25.563  1.00  0.00     0.173 A 
ATOM     91  F   UNL A   1      46.386  28.446  23.051  1.00  0.00    -0.203 F 
ATOM     92  C   UNL A   1      48.561  27.564  22.864  1.00  0.00     0.198 A 
ATOM     93  C   UNL A   1      49.657  26.647  24.792  1.00  0.00     0.198 A 
ATOM     94  F   UNL A   1      48.546  26.598  26.865  1.00  0.00    -0.203 F 
ATOM     95  F   UNL A   1      48.562  27.848  21.553  1.00  0.00    -0.200 F 
ATOM     96  C   UNL A   1      49.669  26.963  23.442  1.00  0.00     0.200 A 
ATOM     97  F   UNL A   1      50.732  26.079  25.356  1.00  0.00    -0.200 F 
ATOM     98  F   UNL A   1      50.747  26.683  22.698  1.00  0.00    -0.200 F 
ENDBRANCH  65  88
ENDBRANCH  39  40
ENDBRANCH  32  34
ENDBRANCH  31  32
ENDBRANCH  30  31
ENDBRANCH  29  30
ENDBRANCH  28  29
ENDBRANCH  27  28
ENDBRANCH   1  27
TORSDOF 22
ENDMDL
