MODEL 1
REMARK VINA RESULT:      -9.9      0.000      0.000
REMARK SMILES O=C(CCS[C@H]1CC(=O)c2ccccc2C1=O)OCCOCCOCCOCCOC(=O)c1ccc(-c2c3nc(c(-c4c(F)c(F)c(F)c(F)c4F)c4ccc([nH]4)c(-c4c(F)c(F)c(F)c(F)c4F)c4nc(c(-c5c(F)c(F)c(F)c(F)c5F)c5ccc2[nH]5)C=C4)C=C3)cc1
REMARK SMILES IDX 23 1 22 2 21 3 20 4 19 5 18 6 2 7 1 8 3 9 4 10 5 11 6 12
REMARK SMILES IDX 7 13 16 14 8 15 15 16 17 17 9 18 10 19 14 20 11 21 13 22
REMARK SMILES IDX 12 23 24 24 25 25 26 26 27 27 28 28 29 29 30 30 31 31 32 32
REMARK SMILES IDX 33 33 34 34 95 35 35 36 94 37 36 38 37 39 38 40 88 41 39 42
REMARK SMILES IDX 93 43 87 44 89 45 40 46 92 47 86 48 85 49 41 51 73 52 53 53
REMARK SMILES IDX 72 54 54 55 57 56 71 57 90 58 55 59 56 60 70 62 91 63 58 64
REMARK SMILES IDX 42 65 43 66 51 67 44 68 45 69 49 70 52 71 46 72 47 73 50 74
REMARK SMILES IDX 48 75 74 76 75 77 83 78 76 79 77 80 81 81 84 82 78 83 79 84
REMARK SMILES IDX 82 85 80 86 59 87 60 88 68 89 61 90 62 91 66 92 69 93 63 94
REMARK SMILES IDX 64 95 67 96 65 97
REMARK H PARENT 89 50 57 61
REMARK Flexibility Score: inf
ROOT
ATOM      1  C   UNL A   1      30.698  27.034  25.015  1.00  0.00     0.188 C 
ENDROOT
BRANCH   1   2
ATOM      2  C   UNL A   1      30.529  28.330  24.222  1.00  0.00     0.188 C 
BRANCH   2   3
ATOM      3  O   UNL A   1      30.903  28.296  22.852  1.00  0.00    -0.376 OA
BRANCH   3   4
ATOM      4  C   UNL A   1      32.092  28.953  22.452  1.00  0.00     0.202 C 
BRANCH   4   5
ATOM      5  C   UNL A   1      33.413  28.380  22.936  1.00  0.00     0.261 C 
BRANCH   5   6
ATOM      6  O   UNL A   1      34.028  27.421  22.062  1.00  0.00    -0.463 OA
BRANCH   6   7
ATOM      7  C   UNL A   1      33.628  26.139  21.923  1.00  0.00     0.306 C 
ATOM      8  O   UNL A   1      33.278  25.725  20.820  1.00  0.00    -0.252 OA
BRANCH   7   9
ATOM      9  C   UNL A   1      33.450  25.294  23.159  1.00  0.00     0.133 C 
BRANCH   9  10
ATOM     10  C   UNL A   1      32.241  24.362  23.203  1.00  0.00     0.082 C 
BRANCH  10  11
ATOM     11  S   UNL A   1      32.536  22.561  23.119  1.00  0.00    -0.149 SA
BRANCH  11  12
ATOM     12  C   UNL A   1      32.141  21.954  24.837  1.00  0.00     0.126 C 
ATOM     13  C   UNL A   1      32.571  20.499  24.995  1.00  0.00     0.104 C 
ATOM     14  C   UNL A   1      32.944  22.744  25.862  1.00  0.00     0.176 C 
ATOM     15  C   UNL A   1      34.076  20.316  24.888  1.00  0.00     0.165 C 
ATOM     16  C   UNL A   1      34.412  22.623  25.766  1.00  0.00     0.030 A 
ATOM     17  O   UNL A   1      32.445  23.478  26.705  1.00  0.00    -0.293 OA
ATOM     18  O   UNL A   1      34.579  19.227  24.627  1.00  0.00    -0.294 OA
ATOM     19  C   UNL A   1      34.953  21.477  25.187  1.00  0.00     0.028 A 
ATOM     20  C   UNL A   1      35.226  23.705  26.109  1.00  0.00     0.012 A 
ATOM     21  C   UNL A   1      36.313  21.445  24.870  1.00  0.00     0.012 A 
ATOM     22  C   UNL A   1      36.571  23.689  25.750  1.00  0.00     0.001 A 
ATOM     23  C   UNL A   1      37.108  22.566  25.118  1.00  0.00     0.001 A 
ENDBRANCH  11  12
ENDBRANCH  10  11
ENDBRANCH   9  10
ENDBRANCH   7   9
ENDBRANCH   6   7
ENDBRANCH   5   6
ENDBRANCH   4   5
ENDBRANCH   3   4
ENDBRANCH   2   3
ENDBRANCH   1   2
BRANCH   1  24
ATOM     24  O   UNL A   1      31.713  27.127  26.004  1.00  0.00    -0.377 OA
BRANCH  24  25
ATOM     25  C   UNL A   1      32.015  28.442  26.459  1.00  0.00     0.188 C 
BRANCH  25  26
ATOM     26  C   UNL A   1      33.363  28.570  27.202  1.00  0.00     0.188 C 
BRANCH  26  27
ATOM     27  O   UNL A   1      33.823  29.833  27.679  1.00  0.00    -0.376 OA
BRANCH  27  28
ATOM     28  C   UNL A   1      33.604  30.980  26.877  1.00  0.00     0.202 C 
BRANCH  28  29
ATOM     29  C   UNL A   1      32.780  32.036  27.627  1.00  0.00     0.261 C 
BRANCH  29  30
ATOM     30  O   UNL A   1      33.153  33.392  27.313  1.00  0.00    -0.460 OA
BRANCH  30  31
ATOM     31  C   UNL A   1      33.224  34.251  28.365  1.00  0.00     0.338 C 
ATOM     32  O   UNL A   1      32.390  35.084  28.686  1.00  0.00    -0.246 OA
BRANCH  31  33
ATOM     33  C   UNL A   1      34.453  34.000  29.171  1.00  0.00     0.060 A 
ATOM     34  C   UNL A   1      34.403  33.440  30.451  1.00  0.00     0.016 A 
ATOM     35  C   UNL A   1      35.701  34.301  28.603  1.00  0.00     0.016 A 
ATOM     36  C   UNL A   1      35.591  33.118  31.123  1.00  0.00     0.010 A 
ATOM     37  C   UNL A   1      36.889  33.963  29.268  1.00  0.00     0.010 A 
ATOM     38  C   UNL A   1      36.845  33.330  30.517  1.00  0.00    -0.014 A 
BRANCH  38  39
ATOM     39  C   UNL A   1      38.048  32.663  31.088  1.00  0.00     0.031 A 
ATOM     40  C   UNL A   1      38.750  33.126  32.324  1.00  0.00     0.074 A 
ATOM     41  C   UNL A   1      38.536  31.587  30.441  1.00  0.00     0.049 A 
ATOM     42  N   UNL A   1      39.608  32.479  33.076  1.00  0.00    -0.248 NA
ATOM     43  C   UNL A   1      38.476  34.494  32.770  1.00  0.00     0.031 C 
ATOM     44  C   UNL A   1      38.027  31.073  29.171  1.00  0.00     0.029 A 
ATOM     45  N   UNL A   1      39.559  30.732  30.767  1.00  0.00    -0.354 N 
ATOM     46  C   UNL A   1      39.911  33.330  34.128  1.00  0.00     0.074 A 
ATOM     47  C   UNL A   1      39.217  34.573  33.869  1.00  0.00     0.031 C 
ATOM     48  C   UNL A   1      38.716  29.972  28.840  1.00  0.00     0.029 A 
ATOM     49  C   UNL A   1      39.715  29.705  29.873  1.00  0.00     0.049 A 
ATOM     50  H   UNL A   1      40.126  30.845  31.564  1.00  0.00     0.167 HD
ATOM     51  C   UNL A   1      40.682  33.091  35.216  1.00  0.00     0.037 A 
ATOM     52  C   UNL A   1      40.548  28.649  29.889  1.00  0.00     0.037 A 
ATOM     53  C   UNL A   1      41.473  31.903  35.409  1.00  0.00     0.049 A 
ATOM     54  C   UNL A   1      41.473  28.442  31.055  1.00  0.00     0.074 A 
ATOM     55  C   UNL A   1      42.237  31.538  36.505  1.00  0.00     0.029 A 
ATOM     56  N   UNL A   1      41.654  30.916  34.453  1.00  0.00    -0.354 N 
ATOM     57  N   UNL A   1      41.580  29.141  32.158  1.00  0.00    -0.248 NA
ATOM     58  C   UNL A   1      42.384  27.290  30.981  1.00  0.00     0.031 C 
ATOM     59  C   UNL A   1      42.941  30.373  36.182  1.00  0.00     0.029 A 
ATOM     60  C   UNL A   1      42.571  29.980  34.905  1.00  0.00     0.049 A 
ATOM     61  H   UNL A   1      41.199  30.884  33.581  1.00  0.00     0.167 HD
ATOM     62  C   UNL A   1      42.554  28.505  32.918  1.00  0.00     0.074 A 
ATOM     63  C   UNL A   1      42.999  27.358  32.155  1.00  0.00     0.031 C 
ATOM     64  C   UNL A   1      43.028  28.848  34.140  1.00  0.00     0.037 A 
BRANCH  51  65
ATOM     65  C   UNL A   1      40.692  34.119  36.310  1.00  0.00     0.064 A 
ATOM     66  C   UNL A   1      41.661  35.134  36.325  1.00  0.00     0.173 A 
ATOM     67  C   UNL A   1      39.683  34.162  37.282  1.00  0.00     0.173 A 
ATOM     68  F   UNL A   1      42.651  35.136  35.420  1.00  0.00    -0.203 F 
ATOM     69  C   UNL A   1      41.622  36.150  37.276  1.00  0.00     0.198 A 
ATOM     70  C   UNL A   1      39.637  35.189  38.222  1.00  0.00     0.198 A 
ATOM     71  F   UNL A   1      38.728  33.220  37.306  1.00  0.00    -0.203 F 
ATOM     72  F   UNL A   1      42.571  37.096  37.282  1.00  0.00    -0.200 F 
ATOM     73  C   UNL A   1      40.606  36.181  38.219  1.00  0.00     0.200 A 
ATOM     74  F   UNL A   1      38.649  35.224  39.127  1.00  0.00    -0.200 F 
ATOM     75  F   UNL A   1      40.564  37.166  39.127  1.00  0.00    -0.200 F 
ENDBRANCH  51  65
BRANCH  52  76
ATOM     76  C   UNL A   1      40.484  27.670  28.778  1.00  0.00     0.064 A 
ATOM     77  C   UNL A   1      41.279  27.832  27.637  1.00  0.00     0.173 A 
ATOM     78  C   UNL A   1      39.675  26.528  28.862  1.00  0.00     0.173 A 
ATOM     79  F   UNL A   1      42.057  28.917  27.512  1.00  0.00    -0.203 F 
ATOM     80  C   UNL A   1      41.268  26.885  26.616  1.00  0.00     0.198 A 
ATOM     81  C   UNL A   1      39.682  25.570  27.851  1.00  0.00     0.198 A 
ATOM     82  F   UNL A   1      38.905  26.328  29.941  1.00  0.00    -0.203 F 
ATOM     83  F   UNL A   1      42.024  27.070  25.526  1.00  0.00    -0.200 F 
ATOM     84  C   UNL A   1      40.477  25.751  26.729  1.00  0.00     0.200 A 
ATOM     85  F   UNL A   1      38.930  24.468  27.970  1.00  0.00    -0.200 F 
ATOM     86  F   UNL A   1      40.481  24.830  25.755  1.00  0.00    -0.200 F 
ENDBRANCH  52  76
BRANCH  64  87
ATOM     87  C   UNL A   1      44.101  27.988  34.741  1.00  0.00     0.064 A 
ATOM     88  C   UNL A   1      43.786  26.828  35.463  1.00  0.00     0.173 A 
ATOM     89  C   UNL A   1      45.457  28.279  34.525  1.00  0.00     0.173 A 
ATOM     90  F   UNL A   1      42.505  26.514  35.709  1.00  0.00    -0.203 F 
ATOM     91  C   UNL A   1      44.788  25.994  35.952  1.00  0.00     0.198 A 
ATOM     92  C   UNL A   1      46.456  27.429  34.993  1.00  0.00     0.198 A 
ATOM     93  F   UNL A   1      45.812  29.374  33.837  1.00  0.00    -0.203 F 
ATOM     94  F   UNL A   1      44.464  24.904  36.661  1.00  0.00    -0.200 F 
ATOM     95  C   UNL A   1      46.121  26.288  35.707  1.00  0.00     0.200 A 
ATOM     96  F   UNL A   1      47.742  27.708  34.744  1.00  0.00    -0.200 F 
ATOM     97  F   UNL A   1      47.083  25.473  36.161  1.00  0.00    -0.200 F 
ENDBRANCH  64  87
ENDBRANCH  38  39
ENDBRANCH  31  33
ENDBRANCH  30  31
ENDBRANCH  29  30
ENDBRANCH  28  29
ENDBRANCH  27  28
ENDBRANCH  26  27
ENDBRANCH  25  26
ENDBRANCH  24  25
ENDBRANCH   1  24
TORSDOF 23
ENDMDL
MODEL 2
REMARK VINA RESULT:      -9.7      3.682      9.610
REMARK SMILES O=C(CCS[C@H]1CC(=O)c2ccccc2C1=O)OCCOCCOCCOCCOC(=O)c1ccc(-c2c3nc(c(-c4c(F)c(F)c(F)c(F)c4F)c4ccc([nH]4)c(-c4c(F)c(F)c(F)c(F)c4F)c4nc(c(-c5c(F)c(F)c(F)c(F)c5F)c5ccc2[nH]5)C=C4)C=C3)cc1
REMARK SMILES IDX 23 1 22 2 21 3 20 4 19 5 18 6 2 7 1 8 3 9 4 10 5 11 6 12
REMARK SMILES IDX 7 13 16 14 8 15 15 16 17 17 9 18 10 19 14 20 11 21 13 22
REMARK SMILES IDX 12 23 24 24 25 25 26 26 27 27 28 28 29 29 30 30 31 31 32 32
REMARK SMILES IDX 33 33 34 34 95 35 35 36 94 37 36 38 37 39 38 40 88 41 39 42
REMARK SMILES IDX 93 43 87 44 89 45 40 46 92 47 86 48 85 49 41 51 73 52 53 53
REMARK SMILES IDX 72 54 54 55 57 56 71 57 90 58 55 59 56 60 70 62 91 63 58 64
REMARK SMILES IDX 42 65 43 66 51 67 44 68 45 69 49 70 52 71 46 72 47 73 50 74
REMARK SMILES IDX 48 75 74 76 75 77 83 78 76 79 77 80 81 81 84 82 78 83 79 84
REMARK SMILES IDX 82 85 80 86 59 87 60 88 68 89 61 90 62 91 66 92 69 93 63 94
REMARK SMILES IDX 64 95 67 96 65 97
REMARK H PARENT 89 50 57 61
REMARK Flexibility Score: inf
ROOT
ATOM      1  C   UNL A   1      42.279  19.786  26.485  1.00  0.00     0.188 C 
ENDROOT
BRANCH   1   2
ATOM      2  C   UNL A   1      42.060  21.296  26.381  1.00  0.00     0.188 C 
BRANCH   2   3
ATOM      3  O   UNL A   1      40.829  21.801  26.877  1.00  0.00    -0.376 OA
BRANCH   3   4
ATOM      4  C   UNL A   1      39.647  21.576  26.130  1.00  0.00     0.202 C 
BRANCH   4   5
ATOM      5  C   UNL A   1      38.638  22.709  26.046  1.00  0.00     0.261 C 
BRANCH   5   6
ATOM      6  O   UNL A   1      37.585  22.529  25.087  1.00  0.00    -0.463 OA
BRANCH   6   7
ATOM      7  C   UNL A   1      36.623  23.438  24.822  1.00  0.00     0.306 C 
ATOM      8  O   UNL A   1      36.302  24.258  25.680  1.00  0.00    -0.252 OA
BRANCH   7   9
ATOM      9  C   UNL A   1      35.837  23.312  23.541  1.00  0.00     0.133 C 
BRANCH   9  10
ATOM     10  C   UNL A   1      34.379  22.872  23.653  1.00  0.00     0.082 C 
BRANCH  10  11
ATOM     11  S   UNL A   1      33.145  24.104  24.199  1.00  0.00    -0.149 SA
BRANCH  11  12
ATOM     12  C   UNL A   1      32.114  24.423  22.680  1.00  0.00     0.126 C 
ATOM     13  C   UNL A   1      30.682  24.767  23.076  1.00  0.00     0.104 C 
ATOM     14  C   UNL A   1      32.649  25.639  21.937  1.00  0.00     0.176 C 
ATOM     15  C   UNL A   1      30.584  26.070  23.854  1.00  0.00     0.165 C 
ATOM     16  C   UNL A   1      32.608  26.917  22.674  1.00  0.00     0.030 A 
ATOM     17  O   UNL A   1      33.131  25.598  20.812  1.00  0.00    -0.293 OA
ATOM     18  O   UNL A   1      29.614  26.332  24.558  1.00  0.00    -0.294 OA
ATOM     19  C   UNL A   1      31.664  27.076  23.686  1.00  0.00     0.028 A 
ATOM     20  C   UNL A   1      33.598  27.880  22.460  1.00  0.00     0.012 A 
ATOM     21  C   UNL A   1      31.759  28.171  24.549  1.00  0.00     0.012 A 
ATOM     22  C   UNL A   1      33.719  28.944  23.350  1.00  0.00     0.001 A 
ATOM     23  C   UNL A   1      32.810  29.079  24.401  1.00  0.00     0.001 A 
ENDBRANCH  11  12
ENDBRANCH  10  11
ENDBRANCH   9  10
ENDBRANCH   7   9
ENDBRANCH   6   7
ENDBRANCH   5   6
ENDBRANCH   4   5
ENDBRANCH   3   4
ENDBRANCH   2   3
ENDBRANCH   1   2
BRANCH   1  24
ATOM     24  O   UNL A   1      42.755  19.218  25.275  1.00  0.00    -0.377 OA
BRANCH  24  25
ATOM     25  C   UNL A   1      44.154  18.959  25.220  1.00  0.00     0.188 C 
BRANCH  25  26
ATOM     26  C   UNL A   1      44.993  20.098  24.598  1.00  0.00     0.188 C 
BRANCH  26  27
ATOM     27  O   UNL A   1      44.574  20.750  23.401  1.00  0.00    -0.376 OA
BRANCH  27  28
ATOM     28  C   UNL A   1      44.610  22.165  23.353  1.00  0.00     0.202 C 
BRANCH  28  29
ATOM     29  C   UNL A   1      45.527  22.737  24.444  1.00  0.00     0.261 C 
BRANCH  29  30
ATOM     30  O   UNL A   1      44.931  23.812  25.197  1.00  0.00    -0.460 OA
BRANCH  30  31
ATOM     31  C   UNL A   1      45.117  23.772  26.543  1.00  0.00     0.338 C 
ATOM     32  O   UNL A   1      45.898  23.057  27.153  1.00  0.00    -0.246 OA
BRANCH  31  33
ATOM     33  C   UNL A   1      44.279  24.802  27.224  1.00  0.00     0.060 A 
ATOM     34  C   UNL A   1      43.195  24.460  28.039  1.00  0.00     0.016 A 
ATOM     35  C   UNL A   1      44.621  26.154  27.070  1.00  0.00     0.016 A 
ATOM     36  C   UNL A   1      42.509  25.457  28.748  1.00  0.00     0.010 A 
ATOM     37  C   UNL A   1      43.946  27.149  27.791  1.00  0.00     0.010 A 
ATOM     38  C   UNL A   1      42.909  26.805  28.670  1.00  0.00    -0.014 A 
BRANCH  38  39
ATOM     39  C   UNL A   1      42.407  27.770  29.687  1.00  0.00     0.031 A 
ATOM     40  C   UNL A   1      41.184  28.612  29.505  1.00  0.00     0.074 A 
ATOM     41  C   UNL A   1      43.105  27.898  30.831  1.00  0.00     0.049 A 
ATOM     42  N   UNL A   1      40.487  29.258  30.407  1.00  0.00    -0.248 NA
ATOM     43  C   UNL A   1      40.686  28.769  28.137  1.00  0.00     0.031 C 
ATOM     44  C   UNL A   1      44.370  27.225  31.119  1.00  0.00     0.029 A 
ATOM     45  N   UNL A   1      42.845  28.629  31.964  1.00  0.00    -0.354 N 
ATOM     46  C   UNL A   1      39.421  29.830  29.729  1.00  0.00     0.074 A 
ATOM     47  C   UNL A   1      39.614  29.531  28.326  1.00  0.00     0.031 C 
ATOM     48  C   UNL A   1      44.762  27.545  32.360  1.00  0.00     0.029 A 
ATOM     49  C   UNL A   1      43.777  28.447  32.953  1.00  0.00     0.049 A 
ATOM     50  H   UNL A   1      42.068  29.225  32.057  1.00  0.00     0.167 HD
ATOM     51  C   UNL A   1      38.371  30.524  30.231  1.00  0.00     0.037 A 
ATOM     52  C   UNL A   1      43.826  28.928  34.209  1.00  0.00     0.037 A 
ATOM     53  C   UNL A   1      38.246  30.930  31.607  1.00  0.00     0.049 A 
ATOM     54  C   UNL A   1      42.704  29.781  34.729  1.00  0.00     0.074 A 
ATOM     55  C   UNL A   1      37.192  31.581  32.227  1.00  0.00     0.029 A 
ATOM     56  N   UNL A   1      39.239  30.783  32.563  1.00  0.00    -0.354 N 
ATOM     57  N   UNL A   1      41.584  30.121  34.139  1.00  0.00    -0.248 NA
ATOM     58  C   UNL A   1      42.848  30.305  36.094  1.00  0.00     0.031 C 
ATOM     59  C   UNL A   1      37.579  31.897  33.533  1.00  0.00     0.029 A 
ATOM     60  C   UNL A   1      38.852  31.392  33.746  1.00  0.00     0.049 A 
ATOM     61  H   UNL A   1      40.093  30.315  32.422  1.00  0.00     0.167 HD
ATOM     62  C   UNL A   1      40.882  30.882  35.066  1.00  0.00     0.074 A 
ATOM     63  C   UNL A   1      41.698  30.945  36.260  1.00  0.00     0.031 C 
ATOM     64  C   UNL A   1      39.669  31.471  34.930  1.00  0.00     0.037 A 
BRANCH  51  65
ATOM     65  C   UNL A   1      37.247  30.869  29.298  1.00  0.00     0.064 A 
ATOM     66  C   UNL A   1      36.291  29.904  28.946  1.00  0.00     0.173 A 
ATOM     67  C   UNL A   1      37.057  32.179  28.837  1.00  0.00     0.173 A 
ATOM     68  F   UNL A   1      36.429  28.635  29.357  1.00  0.00    -0.203 F 
ATOM     69  C   UNL A   1      35.189  30.237  28.161  1.00  0.00     0.198 A 
ATOM     70  C   UNL A   1      35.945  32.513  28.065  1.00  0.00     0.198 A 
ATOM     71  F   UNL A   1      37.937  33.140  29.152  1.00  0.00    -0.203 F 
ATOM     72  F   UNL A   1      34.302  29.293  27.821  1.00  0.00    -0.200 F 
ATOM     73  C   UNL A   1      35.014  31.542  27.728  1.00  0.00     0.200 A 
ATOM     74  F   UNL A   1      35.770  33.777  27.656  1.00  0.00    -0.200 F 
ATOM     75  F   UNL A   1      33.947  31.864  26.983  1.00  0.00    -0.200 F 
ENDBRANCH  51  65
BRANCH  52  76
ATOM     76  C   UNL A   1      44.964  28.545  35.077  1.00  0.00     0.064 A 
ATOM     77  C   UNL A   1      46.113  29.343  35.143  1.00  0.00     0.173 A 
ATOM     78  C   UNL A   1      44.900  27.412  35.901  1.00  0.00     0.173 A 
ATOM     79  F   UNL A   1      46.218  30.429  34.364  1.00  0.00    -0.203 F 
ATOM     80  C   UNL A   1      47.160  29.021  36.002  1.00  0.00     0.198 A 
ATOM     81  C   UNL A   1      45.938  27.103  36.776  1.00  0.00     0.198 A 
ATOM     82  F   UNL A   1      43.816  26.624  35.876  1.00  0.00    -0.203 F 
ATOM     83  F   UNL A   1      48.257  29.790  36.035  1.00  0.00    -0.200 F 
ATOM     84  C   UNL A   1      47.068  27.907  36.824  1.00  0.00     0.200 A 
ATOM     85  F   UNL A   1      45.840  26.036  37.580  1.00  0.00    -0.200 F 
ATOM     86  F   UNL A   1      48.068  27.608  37.664  1.00  0.00    -0.200 F 
ENDBRANCH  52  76
BRANCH  64  87
ATOM     87  C   UNL A   1      39.137  32.255  36.093  1.00  0.00     0.064 A 
ATOM     88  C   UNL A   1      38.256  31.678  37.019  1.00  0.00     0.173 A 
ATOM     89  C   UNL A   1      39.574  33.566  36.332  1.00  0.00     0.173 A 
ATOM     90  F   UNL A   1      37.797  30.432  36.827  1.00  0.00    -0.203 F 
ATOM     91  C   UNL A   1      37.826  32.387  38.138  1.00  0.00     0.198 A 
ATOM     92  C   UNL A   1      39.163  34.264  37.466  1.00  0.00     0.198 A 
ATOM     93  F   UNL A   1      40.421  34.163  35.480  1.00  0.00    -0.203 F 
ATOM     94  F   UNL A   1      36.965  31.824  38.996  1.00  0.00    -0.200 F 
ATOM     95  C   UNL A   1      38.290  33.674  38.367  1.00  0.00     0.200 A 
ATOM     96  F   UNL A   1      39.623  35.502  37.692  1.00  0.00    -0.200 F 
ATOM     97  F   UNL A   1      37.892  34.347  39.455  1.00  0.00    -0.200 F 
ENDBRANCH  64  87
ENDBRANCH  38  39
ENDBRANCH  31  33
ENDBRANCH  30  31
ENDBRANCH  29  30
ENDBRANCH  28  29
ENDBRANCH  27  28
ENDBRANCH  26  27
ENDBRANCH  25  26
ENDBRANCH  24  25
ENDBRANCH   1  24
TORSDOF 23
ENDMDL
MODEL 3
REMARK VINA RESULT:      -9.7      0.810      2.389
REMARK SMILES O=C(CCS[C@H]1CC(=O)c2ccccc2C1=O)OCCOCCOCCOCCOC(=O)c1ccc(-c2c3nc(c(-c4c(F)c(F)c(F)c(F)c4F)c4ccc([nH]4)c(-c4c(F)c(F)c(F)c(F)c4F)c4nc(c(-c5c(F)c(F)c(F)c(F)c5F)c5ccc2[nH]5)C=C4)C=C3)cc1
REMARK SMILES IDX 23 1 22 2 21 3 20 4 19 5 18 6 2 7 1 8 3 9 4 10 5 11 6 12
REMARK SMILES IDX 7 13 16 14 8 15 15 16 17 17 9 18 10 19 14 20 11 21 13 22
REMARK SMILES IDX 12 23 24 24 25 25 26 26 27 27 28 28 29 29 30 30 31 31 32 32
REMARK SMILES IDX 33 33 34 34 95 35 35 36 94 37 36 38 37 39 38 40 88 41 39 42
REMARK SMILES IDX 93 43 87 44 89 45 40 46 92 47 86 48 85 49 41 51 73 52 53 53
REMARK SMILES IDX 72 54 54 55 57 56 71 57 90 58 55 59 56 60 70 62 91 63 58 64
REMARK SMILES IDX 42 65 43 66 51 67 44 68 45 69 49 70 52 71 46 72 47 73 50 74
REMARK SMILES IDX 48 75 74 76 75 77 83 78 76 79 77 80 81 81 84 82 78 83 79 84
REMARK SMILES IDX 82 85 80 86 59 87 60 88 68 89 61 90 62 91 66 92 69 93 63 94
REMARK SMILES IDX 64 95 67 96 65 97
REMARK H PARENT 89 50 57 61
REMARK Flexibility Score: inf
ROOT
ATOM      1  C   UNL A   1      30.565  27.491  24.585  1.00  0.00     0.188 C 
ENDROOT
BRANCH   1   2
ATOM      2  C   UNL A   1      30.735  28.866  23.936  1.00  0.00     0.188 C 
BRANCH   2   3
ATOM      3  O   UNL A   1      31.524  28.924  22.757  1.00  0.00    -0.376 OA
BRANCH   3   4
ATOM      4  C   UNL A   1      32.935  28.880  22.876  1.00  0.00     0.202 C 
BRANCH   4   5
ATOM      5  C   UNL A   1      33.601  27.516  22.881  1.00  0.00     0.261 C 
BRANCH   5   6
ATOM      6  O   UNL A   1      33.742  26.892  21.596  1.00  0.00    -0.463 OA
BRANCH   6   7
ATOM      7  C   UNL A   1      32.932  25.924  21.117  1.00  0.00     0.306 C 
ATOM      8  O   UNL A   1      33.087  25.509  19.971  1.00  0.00    -0.252 OA
BRANCH   7   9
ATOM      9  C   UNL A   1      31.739  25.502  21.938  1.00  0.00     0.133 C 
BRANCH   9  10
ATOM     10  C   UNL A   1      31.947  24.376  22.948  1.00  0.00     0.082 C 
BRANCH  10  11
ATOM     11  S   UNL A   1      33.520  23.448  22.895  1.00  0.00    -0.149 SA
BRANCH  11  12
ATOM     12  C   UNL A   1      34.266  23.718  24.581  1.00  0.00     0.126 C 
ATOM     13  C   UNL A   1      33.169  23.799  25.638  1.00  0.00     0.104 C 
ATOM     14  C   UNL A   1      35.129  22.522  24.963  1.00  0.00     0.176 C 
ATOM     15  C   UNL A   1      32.401  22.496  25.791  1.00  0.00     0.165 C 
ATOM     16  C   UNL A   1      34.426  21.229  25.082  1.00  0.00     0.030 A 
ATOM     17  O   UNL A   1      36.341  22.577  25.129  1.00  0.00    -0.293 OA
ATOM     18  O   UNL A   1      31.285  22.458  26.299  1.00  0.00    -0.294 OA
ATOM     19  C   UNL A   1      33.065  21.233  25.380  1.00  0.00     0.028 A 
ATOM     20  C   UNL A   1      35.085  20.043  24.750  1.00  0.00     0.012 A 
ATOM     21  C   UNL A   1      32.334  20.047  25.264  1.00  0.00     0.012 A 
ATOM     22  C   UNL A   1      34.346  18.874  24.590  1.00  0.00     0.001 A 
ATOM     23  C   UNL A   1      32.971  18.881  24.831  1.00  0.00     0.001 A 
ENDBRANCH  11  12
ENDBRANCH  10  11
ENDBRANCH   9  10
ENDBRANCH   7   9
ENDBRANCH   6   7
ENDBRANCH   5   6
ENDBRANCH   4   5
ENDBRANCH   3   4
ENDBRANCH   2   3
ENDBRANCH   1   2
BRANCH   1  24
ATOM     24  O   UNL A   1      31.343  27.342  25.762  1.00  0.00    -0.377 OA
BRANCH  24  25
ATOM     25  C   UNL A   1      31.747  28.553  26.394  1.00  0.00     0.188 C 
BRANCH  25  26
ATOM     26  C   UNL A   1      33.243  28.609  26.776  1.00  0.00     0.188 C 
BRANCH  26  27
ATOM     27  O   UNL A   1      33.815  29.788  27.339  1.00  0.00    -0.376 OA
BRANCH  27  28
ATOM     28  C   UNL A   1      33.020  30.958  27.411  1.00  0.00     0.202 C 
BRANCH  28  29
ATOM     29  C   UNL A   1      33.862  32.182  27.798  1.00  0.00     0.261 C 
BRANCH  29  30
ATOM     30  O   UNL A   1      33.193  33.439  27.574  1.00  0.00    -0.460 OA
BRANCH  30  31
ATOM     31  C   UNL A   1      33.284  34.352  28.578  1.00  0.00     0.338 C 
ATOM     32  O   UNL A   1      32.478  35.231  28.844  1.00  0.00    -0.246 OA
BRANCH  31  33
ATOM     33  C   UNL A   1      34.496  34.102  29.411  1.00  0.00     0.060 A 
ATOM     34  C   UNL A   1      34.425  33.476  30.660  1.00  0.00     0.016 A 
ATOM     35  C   UNL A   1      35.749  34.473  28.901  1.00  0.00     0.016 A 
ATOM     36  C   UNL A   1      35.602  33.160  31.354  1.00  0.00     0.010 A 
ATOM     37  C   UNL A   1      36.927  34.142  29.587  1.00  0.00     0.010 A 
ATOM     38  C   UNL A   1      36.866  33.445  30.801  1.00  0.00    -0.014 A 
BRANCH  38  39
ATOM     39  C   UNL A   1      38.074  32.791  31.377  1.00  0.00     0.031 A 
ATOM     40  C   UNL A   1      38.739  33.234  32.641  1.00  0.00     0.074 A 
ATOM     41  C   UNL A   1      38.602  31.747  30.710  1.00  0.00     0.049 A 
ATOM     42  N   UNL A   1      39.596  32.586  33.392  1.00  0.00    -0.248 NA
ATOM     43  C   UNL A   1      38.420  34.580  33.121  1.00  0.00     0.031 C 
ATOM     44  C   UNL A   1      38.132  31.259  29.415  1.00  0.00     0.029 A 
ATOM     45  N   UNL A   1      39.639  30.908  31.033  1.00  0.00    -0.354 N 
ATOM     46  C   UNL A   1      39.856  33.412  34.475  1.00  0.00     0.074 A 
ATOM     47  C   UNL A   1      39.137  34.645  34.238  1.00  0.00     0.031 C 
ATOM     48  C   UNL A   1      38.855  30.186  29.066  1.00  0.00     0.029 A 
ATOM     49  C   UNL A   1      39.839  29.912  30.112  1.00  0.00     0.049 A 
ATOM     50  H   UNL A   1      40.186  31.011  31.844  1.00  0.00     0.167 HD
ATOM     51  C   UNL A   1      40.610  33.159  35.572  1.00  0.00     0.037 A 
ATOM     52  C   UNL A   1      40.698  28.877  30.115  1.00  0.00     0.037 A 
ATOM     53  C   UNL A   1      41.427  31.986  35.747  1.00  0.00     0.049 A 
ATOM     54  C   UNL A   1      41.603  28.658  31.293  1.00  0.00     0.074 A 
ATOM     55  C   UNL A   1      42.177  31.608  36.848  1.00  0.00     0.029 A 
ATOM     56  N   UNL A   1      41.652  31.033  34.766  1.00  0.00    -0.354 N 
ATOM     57  N   UNL A   1      41.670  29.326  32.419  1.00  0.00    -0.248 NA
ATOM     58  C   UNL A   1      42.544  27.532  31.206  1.00  0.00     0.031 C 
ATOM     59  C   UNL A   1      42.916  30.470  36.505  1.00  0.00     0.029 A 
ATOM     60  C   UNL A   1      42.583  30.107  35.210  1.00  0.00     0.049 A 
ATOM     61  H   UNL A   1      41.216  31.016  33.884  1.00  0.00     0.167 HD
ATOM     62  C   UNL A   1      42.644  28.692  33.180  1.00  0.00     0.074 A 
ATOM     63  C   UNL A   1      43.133  27.579  32.393  1.00  0.00     0.031 C 
ATOM     64  C   UNL A   1      43.084  29.009  34.422  1.00  0.00     0.037 A 
BRANCH  51  65
ATOM     65  C   UNL A   1      40.572  34.154  36.695  1.00  0.00     0.064 A 
ATOM     66  C   UNL A   1      39.591  34.064  37.695  1.00  0.00     0.173 A 
ATOM     67  C   UNL A   1      41.566  35.132  36.839  1.00  0.00     0.173 A 
ATOM     68  F   UNL A   1      38.614  33.149  37.602  1.00  0.00    -0.203 F 
ATOM     69  C   UNL A   1      39.603  34.919  38.793  1.00  0.00     0.198 A 
ATOM     70  C   UNL A   1      41.586  35.976  37.949  1.00  0.00     0.198 A 
ATOM     71  F   UNL A   1      42.531  35.255  35.916  1.00  0.00    -0.203 F 
ATOM     72  F   UNL A   1      38.643  34.826  39.723  1.00  0.00    -0.200 F 
ATOM     73  C   UNL A   1      40.605  35.869  38.923  1.00  0.00     0.200 A 
ATOM     74  F   UNL A   1      42.560  36.887  38.078  1.00  0.00    -0.200 F 
ATOM     75  F   UNL A   1      40.622  36.684  39.987  1.00  0.00    -0.200 F 
ENDBRANCH  51  65
BRANCH  52  76
ATOM     76  C   UNL A   1      40.681  27.931  28.974  1.00  0.00     0.064 A 
ATOM     77  C   UNL A   1      39.836  26.814  28.984  1.00  0.00     0.173 A 
ATOM     78  C   UNL A   1      41.460  28.157  27.831  1.00  0.00     0.173 A 
ATOM     79  F   UNL A   1      39.083  26.555  30.063  1.00  0.00    -0.203 F 
ATOM     80  C   UNL A   1      39.770  25.956  27.891  1.00  0.00     0.198 A 
ATOM     81  C   UNL A   1      41.378  27.311  26.728  1.00  0.00     0.198 A 
ATOM     82  F   UNL A   1      42.277  29.219  27.775  1.00  0.00    -0.203 F 
ATOM     83  F   UNL A   1      38.967  24.884  27.930  1.00  0.00    -0.200 F 
ATOM     84  C   UNL A   1      40.534  26.210  26.760  1.00  0.00     0.200 A 
ATOM     85  F   UNL A   1      42.104  27.568  25.632  1.00  0.00    -0.200 F 
ATOM     86  F   UNL A   1      40.457  25.394  25.700  1.00  0.00    -0.200 F 
ENDBRANCH  52  76
BRANCH  64  87
ATOM     87  C   UNL A   1      44.166  28.158  35.020  1.00  0.00     0.064 A 
ATOM     88  C   UNL A   1      45.508  28.563  34.995  1.00  0.00     0.173 A 
ATOM     89  C   UNL A   1      43.851  26.969  35.694  1.00  0.00     0.173 A 
ATOM     90  F   UNL A   1      45.863  29.685  34.351  1.00  0.00    -0.203 F 
ATOM     91  C   UNL A   1      46.497  27.806  35.619  1.00  0.00     0.198 A 
ATOM     92  C   UNL A   1      44.838  26.227  36.339  1.00  0.00     0.198 A 
ATOM     93  F   UNL A   1      42.581  26.540  35.750  1.00  0.00    -0.203 F 
ATOM     94  F   UNL A   1      47.776  28.200  35.563  1.00  0.00    -0.200 F 
ATOM     95  C   UNL A   1      46.159  26.645  36.300  1.00  0.00     0.200 A 
ATOM     96  F   UNL A   1      44.508  25.114  37.007  1.00  0.00    -0.200 F 
ATOM     97  F   UNL A   1      47.108  25.929  36.917  1.00  0.00    -0.200 F 
ENDBRANCH  64  87
ENDBRANCH  38  39
ENDBRANCH  31  33
ENDBRANCH  30  31
ENDBRANCH  29  30
ENDBRANCH  28  29
ENDBRANCH  27  28
ENDBRANCH  26  27
ENDBRANCH  25  26
ENDBRANCH  24  25
ENDBRANCH   1  24
TORSDOF 23
ENDMDL
