MODEL 1
REMARK VINA RESULT:     -10.8      0.000      0.000
REMARK SMILES CC(C)CCn1nc(C(=O)OCCOCCOCCOCCOC(=O)c2ccc(-c3c4nc(c(-c5c(F)c(F)c(F)c(F)c5F)c5ccc([nH]5)c(-c5c(F)c(F)c(F)c(F)c5F)c5nc(c(-c6c(F)c(F)c(F)c(F)c6F)c6ccc3[nH]6)C=C5)C=C4)cc2)c2c1CCN(C(=O)[C@@H]1CCc3nn(C)c(=O)n3C1)C2
REMARK SMILES IDX 16 1 15 2 14 3 13 4 12 5 11 6 9 7 10 8 8 9 6 10 7 11 90 12
REMARK SMILES IDX 89 13 91 14 107 15 92 16 93 17 5 18 4 19 2 20 1 21 3 22
REMARK SMILES IDX 94 23 95 24 96 25 97 26 106 27 98 28 105 29 99 30 103 31
REMARK SMILES IDX 100 32 101 33 104 34 102 35 17 36 18 37 19 38 20 39 21 40
REMARK SMILES IDX 22 41 23 42 24 43 25 44 26 45 27 46 88 47 28 48 87 49 29 50
REMARK SMILES IDX 30 51 31 52 81 53 32 54 86 55 80 56 82 57 33 58 85 59 79 60
REMARK SMILES IDX 78 61 34 63 66 64 46 65 65 66 47 67 50 68 64 69 83 70 48 71
REMARK SMILES IDX 49 72 63 74 84 75 51 76 35 77 36 78 44 79 37 80 38 81 42 82
REMARK SMILES IDX 45 83 39 84 40 85 43 86 41 87 67 88 68 89 76 90 69 91 70 92
REMARK SMILES IDX 74 93 77 94 71 95 72 96 75 97 73 98 52 99 53 100 61 101
REMARK SMILES IDX 54 102 55 103 59 104 62 105 56 106 57 107 60 108 58 109
REMARK H PARENT 82 62 50 73
REMARK Flexibility Score: inf
ROOT
ATOM      1  C   UNL A   1      36.139  30.696  30.079  1.00  0.00     0.188 C 
ENDROOT
BRANCH   1   2
ATOM      2  C   UNL A   1      36.339  31.587  28.828  1.00  0.00     0.188 C 
BRANCH   2   3
ATOM      3  O   UNL A   1      35.250  31.565  27.932  1.00  0.00    -0.376 OA
BRANCH   3   4
ATOM      4  C   UNL A   1      34.460  30.425  27.713  1.00  0.00     0.202 C 
BRANCH   4   5
ATOM      5  C   UNL A   1      33.161  30.561  26.916  1.00  0.00     0.261 C 
BRANCH   5   6
ATOM      6  O   UNL A   1      33.234  30.188  25.541  1.00  0.00    -0.458 OA
BRANCH   6   7
ATOM      7  C   UNL A   1      33.178  28.861  25.252  1.00  0.00     0.359 C 
ATOM      8  O   UNL A   1      34.042  28.048  25.594  1.00  0.00    -0.244 OA
BRANCH   7   9
ATOM      9  C   UNL A   1      31.918  28.524  24.574  1.00  0.00     0.175 A 
ATOM     10  N   UNL A   1      30.110  28.732  23.439  1.00  0.00    -0.268 N 
ATOM     11  N   UNL A   1      31.183  29.426  23.881  1.00  0.00    -0.165 NA
ATOM     12  C   UNL A   1      30.070  27.484  23.983  1.00  0.00     0.046 A 
ATOM     13  C   UNL A   1      31.321  27.235  24.497  1.00  0.00     0.028 A 
ATOM     14  C   UNL A   1      28.941  26.531  24.040  1.00  0.00     0.078 C 
ATOM     15  C   UNL A   1      31.787  25.897  24.973  1.00  0.00     0.159 C 
ATOM     16  C   UNL A   1      29.373  25.313  24.898  1.00  0.00     0.126 C 
ATOM     17  N   UNL A   1      30.760  24.882  24.645  1.00  0.00    -0.338 N 
BRANCH  10  18
ATOM     18  C   UNL A   1      29.089  29.386  22.638  1.00  0.00     0.145 C 
BRANCH  18  19
ATOM     19  C   UNL A   1      29.504  30.663  21.884  1.00  0.00     0.027 C 
BRANCH  19  20
ATOM     20  C   UNL A   1      28.634  31.927  22.074  1.00  0.00    -0.016 C 
ATOM     21  C   UNL A   1      27.779  32.266  20.851  1.00  0.00     0.007 C 
ATOM     22  C   UNL A   1      27.696  31.728  23.277  1.00  0.00     0.007 C 
ENDBRANCH  19  20
ENDBRANCH  18  19
ENDBRANCH  10  18
BRANCH  17  23
ATOM     23  C   UNL A   1      31.207  23.583  24.509  1.00  0.00     0.227 C 
ATOM     24  O   UNL A   1      31.291  23.078  23.380  1.00  0.00    -0.274 OA
BRANCH  23  25
ATOM     25  C   UNL A   1      31.545  22.676  25.707  1.00  0.00     0.099 C 
ATOM     26  C   UNL A   1      32.251  23.323  26.902  1.00  0.00     0.023 C 
ATOM     27  C   UNL A   1      32.086  21.297  25.361  1.00  0.00     0.142 C 
ATOM     28  C   UNL A   1      33.769  23.219  26.913  1.00  0.00     0.078 C 
ATOM     29  N   UNL A   1      33.516  21.208  25.502  1.00  0.00    -0.278 N 
ATOM     30  C   UNL A   1      34.322  22.027  26.198  1.00  0.00     0.133 A 
ATOM     31  C   UNL A   1      34.324  20.246  24.955  1.00  0.00     0.345 A 
ATOM     32  N   UNL A   1      35.590  21.750  26.111  1.00  0.00    -0.155 NA
ATOM     33  N   UNL A   1      35.619  20.628  25.312  1.00  0.00    -0.216 N 
ATOM     34  O   UNL A   1      33.979  19.279  24.298  1.00  0.00    -0.246 OA
ATOM     35  C   UNL A   1      36.839  19.978  24.923  1.00  0.00     0.179 C 
ENDBRANCH  23  25
ENDBRANCH  17  23
ENDBRANCH   7   9
ENDBRANCH   6   7
ENDBRANCH   5   6
ENDBRANCH   4   5
ENDBRANCH   3   4
ENDBRANCH   2   3
ENDBRANCH   1   2
BRANCH   1  36
ATOM     36  O   UNL A   1      36.909  30.840  31.269  1.00  0.00    -0.377 OA
BRANCH  36  37
ATOM     37  C   UNL A   1      36.938  29.802  32.235  1.00  0.00     0.188 C 
BRANCH  37  38
ATOM     38  C   UNL A   1      38.220  28.943  32.417  1.00  0.00     0.188 C 
BRANCH  38  39
ATOM     39  O   UNL A   1      38.887  29.019  33.662  1.00  0.00    -0.376 OA
BRANCH  39  40
ATOM     40  C   UNL A   1      39.629  30.112  34.169  1.00  0.00     0.202 C 
BRANCH  40  41
ATOM     41  C   UNL A   1      39.826  31.444  33.452  1.00  0.00     0.261 C 
BRANCH  41  42
ATOM     42  O   UNL A   1      40.574  31.352  32.270  1.00  0.00    -0.460 OA
BRANCH  42  43
ATOM     43  C   UNL A   1      40.126  32.145  31.289  1.00  0.00     0.338 C 
ATOM     44  O   UNL A   1      39.414  33.139  31.403  1.00  0.00    -0.246 OA
BRANCH  43  45
ATOM     45  C   UNL A   1      40.595  31.593  30.011  1.00  0.00     0.060 A 
ATOM     46  C   UNL A   1      39.844  30.505  29.576  1.00  0.00     0.016 A 
ATOM     47  C   UNL A   1      41.970  31.722  29.765  1.00  0.00     0.016 A 
ATOM     48  C   UNL A   1      40.536  29.349  29.354  1.00  0.00     0.010 A 
ATOM     49  C   UNL A   1      42.662  30.565  29.579  1.00  0.00     0.010 A 
ATOM     50  C   UNL A   1      41.926  29.386  29.509  1.00  0.00    -0.014 A 
BRANCH  50  51
ATOM     51  C   UNL A   1      42.618  28.130  29.561  1.00  0.00     0.031 A 
ATOM     52  C   UNL A   1      43.089  27.828  30.924  1.00  0.00     0.074 A 
ATOM     53  C   UNL A   1      42.724  27.349  28.473  1.00  0.00     0.049 A 
ATOM     54  N   UNL A   1      44.308  27.756  31.335  1.00  0.00    -0.248 NA
ATOM     55  C   UNL A   1      42.080  27.834  31.997  1.00  0.00     0.031 C 
ATOM     56  C   UNL A   1      42.071  27.486  27.167  1.00  0.00     0.029 A 
ATOM     57  N   UNL A   1      43.391  26.173  28.360  1.00  0.00    -0.354 N 
ATOM     58  C   UNL A   1      44.216  27.522  32.700  1.00  0.00     0.074 A 
ATOM     59  C   UNL A   1      42.856  27.791  33.078  1.00  0.00     0.031 C 
ATOM     60  C   UNL A   1      42.189  26.320  26.488  1.00  0.00     0.029 A 
ATOM     61  C   UNL A   1      43.023  25.415  27.257  1.00  0.00     0.049 A 
ATOM     62  H   UNL A   1      44.077  25.883  29.005  1.00  0.00     0.167 HD
ATOM     63  C   UNL A   1      45.206  26.872  33.364  1.00  0.00     0.037 A 
ATOM     64  C   UNL A   1      43.302  24.094  27.120  1.00  0.00     0.037 A 
ATOM     65  C   UNL A   1      46.439  26.913  32.621  1.00  0.00     0.049 A 
ATOM     66  C   UNL A   1      44.439  23.797  28.043  1.00  0.00     0.074 A 
ATOM     67  C   UNL A   1      47.283  27.932  32.222  1.00  0.00     0.029 A 
ATOM     68  N   UNL A   1      46.754  25.834  31.830  1.00  0.00    -0.354 N 
ATOM     69  N   UNL A   1      45.642  24.283  27.882  1.00  0.00    -0.248 NA
ATOM     70  C   UNL A   1      44.109  23.389  29.404  1.00  0.00     0.031 C 
ATOM     71  C   UNL A   1      47.720  27.565  30.917  1.00  0.00     0.029 A 
ATOM     72  C   UNL A   1      47.176  26.316  30.615  1.00  0.00     0.049 A 
ATOM     73  H   UNL A   1      46.689  24.886  32.087  1.00  0.00     0.167 HD
ATOM     74  C   UNL A   1      46.064  24.625  29.162  1.00  0.00     0.074 A 
ATOM     75  C   UNL A   1      45.098  24.003  30.063  1.00  0.00     0.031 C 
ATOM     76  C   UNL A   1      46.976  25.622  29.364  1.00  0.00     0.037 A 
BRANCH  63  77
ATOM     77  C   UNL A   1      44.951  25.905  34.487  1.00  0.00     0.064 A 
ATOM     78  C   UNL A   1      45.586  26.119  35.723  1.00  0.00     0.173 A 
ATOM     79  C   UNL A   1      44.345  24.637  34.324  1.00  0.00     0.173 A 
ATOM     80  F   UNL A   1      46.205  27.280  35.981  1.00  0.00    -0.203 F 
ATOM     81  C   UNL A   1      45.676  25.112  36.686  1.00  0.00     0.198 A 
ATOM     82  C   UNL A   1      44.387  23.656  35.311  1.00  0.00     0.198 A 
ATOM     83  F   UNL A   1      43.787  24.244  33.174  1.00  0.00    -0.203 F 
ATOM     84  F   UNL A   1      46.400  25.320  37.794  1.00  0.00    -0.200 F 
ATOM     85  C   UNL A   1      45.082  23.881  36.478  1.00  0.00     0.200 A 
ATOM     86  F   UNL A   1      43.817  22.466  35.079  1.00  0.00    -0.200 F 
ATOM     87  F   UNL A   1      45.221  22.895  37.373  1.00  0.00    -0.200 F 
ENDBRANCH  63  77
BRANCH  64  88
ATOM     88  C   UNL A   1      42.386  23.043  26.608  1.00  0.00     0.064 A 
ATOM     89  C   UNL A   1      42.885  21.838  26.092  1.00  0.00     0.173 A 
ATOM     90  C   UNL A   1      41.000  23.085  26.864  1.00  0.00     0.173 A 
ATOM     91  F   UNL A   1      44.200  21.694  25.868  1.00  0.00    -0.203 F 
ATOM     92  C   UNL A   1      42.051  20.736  25.861  1.00  0.00     0.198 A 
ATOM     93  C   UNL A   1      40.168  21.990  26.627  1.00  0.00     0.198 A 
ATOM     94  F   UNL A   1      40.433  24.156  27.439  1.00  0.00    -0.203 F 
ATOM     95  F   UNL A   1      42.573  19.582  25.422  1.00  0.00    -0.200 F 
ATOM     96  C   UNL A   1      40.696  20.811  26.137  1.00  0.00     0.200 A 
ATOM     97  F   UNL A   1      38.866  22.067  26.936  1.00  0.00    -0.200 F 
ATOM     98  F   UNL A   1      39.907  19.740  25.973  1.00  0.00    -0.200 F 
ENDBRANCH  64  88
BRANCH  76  99
ATOM     99  C   UNL A   1      47.662  26.200  28.156  1.00  0.00     0.064 A 
ATOM    100  C   UNL A   1      48.801  25.632  27.556  1.00  0.00     0.173 A 
ATOM    101  C   UNL A   1      47.049  27.265  27.485  1.00  0.00     0.173 A 
ATOM    102  F   UNL A   1      49.382  24.545  28.079  1.00  0.00    -0.203 F 
ATOM    103  C   UNL A   1      49.322  26.136  26.365  1.00  0.00     0.198 A 
ATOM    104  C   UNL A   1      47.548  27.743  26.276  1.00  0.00     0.198 A 
ATOM    105  F   UNL A   1      45.924  27.809  27.977  1.00  0.00    -0.203 F 
ATOM    106  F   UNL A   1      50.413  25.579  25.818  1.00  0.00    -0.200 F 
ATOM    107  C   UNL A   1      48.689  27.185  25.721  1.00  0.00     0.200 A 
ATOM    108  F   UNL A   1      46.902  28.723  25.631  1.00  0.00    -0.200 F 
ATOM    109  F   UNL A   1      49.160  27.641  24.552  1.00  0.00    -0.200 F 
ENDBRANCH  76  99
ENDBRANCH  50  51
ENDBRANCH  43  45
ENDBRANCH  42  43
ENDBRANCH  41  42
ENDBRANCH  40  41
ENDBRANCH  39  40
ENDBRANCH  38  39
ENDBRANCH  37  38
ENDBRANCH  36  37
ENDBRANCH   1  36
TORSDOF 25
ENDMDL
MODEL 2
REMARK VINA RESULT:     -10.2      5.762     14.079
REMARK SMILES CC(C)CCn1nc(C(=O)OCCOCCOCCOCCOC(=O)c2ccc(-c3c4nc(c(-c5c(F)c(F)c(F)c(F)c5F)c5ccc([nH]5)c(-c5c(F)c(F)c(F)c(F)c5F)c5nc(c(-c6c(F)c(F)c(F)c(F)c6F)c6ccc3[nH]6)C=C5)C=C4)cc2)c2c1CCN(C(=O)[C@@H]1CCc3nn(C)c(=O)n3C1)C2
REMARK SMILES IDX 16 1 15 2 14 3 13 4 12 5 11 6 9 7 10 8 8 9 6 10 7 11 90 12
REMARK SMILES IDX 89 13 91 14 107 15 92 16 93 17 5 18 4 19 2 20 1 21 3 22
REMARK SMILES IDX 94 23 95 24 96 25 97 26 106 27 98 28 105 29 99 30 103 31
REMARK SMILES IDX 100 32 101 33 104 34 102 35 17 36 18 37 19 38 20 39 21 40
REMARK SMILES IDX 22 41 23 42 24 43 25 44 26 45 27 46 88 47 28 48 87 49 29 50
REMARK SMILES IDX 30 51 31 52 81 53 32 54 86 55 80 56 82 57 33 58 85 59 79 60
REMARK SMILES IDX 78 61 34 63 66 64 46 65 65 66 47 67 50 68 64 69 83 70 48 71
REMARK SMILES IDX 49 72 63 74 84 75 51 76 35 77 36 78 44 79 37 80 38 81 42 82
REMARK SMILES IDX 45 83 39 84 40 85 43 86 41 87 67 88 68 89 76 90 69 91 70 92
REMARK SMILES IDX 74 93 77 94 71 95 72 96 75 97 73 98 52 99 53 100 61 101
REMARK SMILES IDX 54 102 55 103 59 104 62 105 56 106 57 107 60 108 58 109
REMARK H PARENT 82 62 50 73
REMARK Flexibility Score: inf
ROOT
ATOM      1  C   UNL A   1      42.003  26.886  36.439  1.00  0.00     0.188 C 
ENDROOT
BRANCH   1   2
ATOM      2  C   UNL A   1      41.460  25.435  36.421  1.00  0.00     0.188 C 
BRANCH   2   3
ATOM      3  O   UNL A   1      41.751  24.732  35.234  1.00  0.00    -0.376 OA
BRANCH   3   4
ATOM      4  C   UNL A   1      42.612  23.624  35.190  1.00  0.00     0.202 C 
BRANCH   4   5
ATOM      5  C   UNL A   1      44.098  23.822  35.497  1.00  0.00     0.261 C 
BRANCH   5   6
ATOM      6  O   UNL A   1      44.776  22.693  36.045  1.00  0.00    -0.458 OA
BRANCH   6   7
ATOM      7  C   UNL A   1      45.730  22.934  36.983  1.00  0.00     0.359 C 
ATOM      8  O   UNL A   1      45.904  24.033  37.517  1.00  0.00    -0.244 OA
BRANCH   7   9
ATOM      9  C   UNL A   1      46.444  21.698  37.335  1.00  0.00     0.175 A 
ATOM     10  N   UNL A   1      46.974  19.884  38.350  1.00  0.00    -0.268 N 
ATOM     11  N   UNL A   1      46.057  20.878  38.341  1.00  0.00    -0.165 NA
ATOM     12  C   UNL A   1      48.007  20.156  37.504  1.00  0.00     0.046 A 
ATOM     13  C   UNL A   1      47.579  21.162  36.667  1.00  0.00     0.028 A 
ATOM     14  C   UNL A   1      49.344  19.532  37.440  1.00  0.00     0.078 C 
ATOM     15  C   UNL A   1      48.307  21.603  35.438  1.00  0.00     0.159 C 
ATOM     16  C   UNL A   1      50.196  20.306  36.400  1.00  0.00     0.126 C 
ATOM     17  N   UNL A   1      49.441  20.683  35.191  1.00  0.00    -0.338 N 
BRANCH  10  18
ATOM     18  C   UNL A   1      46.874  18.798  39.310  1.00  0.00     0.145 C 
BRANCH  18  19
ATOM     19  C   UNL A   1      47.104  19.152  40.791  1.00  0.00     0.027 C 
BRANCH  19  20
ATOM     20  C   UNL A   1      48.302  18.493  41.512  1.00  0.00    -0.016 C 
ATOM     21  C   UNL A   1      49.596  19.304  41.407  1.00  0.00     0.007 C 
ATOM     22  C   UNL A   1      47.967  18.310  43.002  1.00  0.00     0.007 C 
ENDBRANCH  19  20
ENDBRANCH  18  19
ENDBRANCH  10  18
BRANCH  17  23
ATOM     23  C   UNL A   1      49.877  20.590  33.884  1.00  0.00     0.227 C 
ATOM     24  O   UNL A   1      49.207  19.954  33.057  1.00  0.00    -0.274 OA
BRANCH  23  25
ATOM     25  C   UNL A   1      51.214  21.177  33.396  1.00  0.00     0.099 C 
ATOM     26  C   UNL A   1      52.465  20.308  33.558  1.00  0.00     0.023 C 
ATOM     27  C   UNL A   1      51.452  22.643  33.724  1.00  0.00     0.142 C 
ATOM     28  C   UNL A   1      53.283  20.548  34.819  1.00  0.00     0.078 C 
ATOM     29  N   UNL A   1      52.329  22.826  34.851  1.00  0.00    -0.278 N 
ATOM     30  C   UNL A   1      53.184  21.934  35.376  1.00  0.00     0.133 A 
ATOM     31  C   UNL A   1      52.464  23.971  35.593  1.00  0.00     0.345 A 
ATOM     32  N   UNL A   1      53.821  22.342  36.434  1.00  0.00    -0.155 NA
ATOM     33  N   UNL A   1      53.368  23.633  36.602  1.00  0.00    -0.216 N 
ATOM     34  O   UNL A   1      51.907  25.040  35.408  1.00  0.00    -0.246 OA
ATOM     35  C   UNL A   1      53.793  24.475  37.685  1.00  0.00     0.179 C 
ENDBRANCH  23  25
ENDBRANCH  17  23
ENDBRANCH   7   9
ENDBRANCH   6   7
ENDBRANCH   5   6
ENDBRANCH   4   5
ENDBRANCH   3   4
ENDBRANCH   2   3
ENDBRANCH   1   2
BRANCH   1  36
ATOM     36  O   UNL A   1      41.164  28.029  36.583  1.00  0.00    -0.377 OA
BRANCH  36  37
ATOM     37  C   UNL A   1      41.446  29.220  35.867  1.00  0.00     0.188 C 
BRANCH  37  38
ATOM     38  C   UNL A   1      40.790  29.470  34.481  1.00  0.00     0.188 C 
BRANCH  38  39
ATOM     39  O   UNL A   1      39.383  29.614  34.440  1.00  0.00    -0.376 OA
BRANCH  39  40
ATOM     40  C   UNL A   1      38.649  30.821  34.371  1.00  0.00     0.202 C 
BRANCH  40  41
ATOM     41  C   UNL A   1      38.201  31.500  33.081  1.00  0.00     0.261 C 
BRANCH  41  42
ATOM     42  O   UNL A   1      38.298  30.687  31.943  1.00  0.00    -0.460 OA
BRANCH  42  43
ATOM     43  C   UNL A   1      37.152  30.071  31.625  1.00  0.00     0.338 C 
ATOM     44  O   UNL A   1      36.014  30.413  31.935  1.00  0.00    -0.246 OA
BRANCH  43  45
ATOM     45  C   UNL A   1      37.486  28.859  30.866  1.00  0.00     0.060 A 
ATOM     46  C   UNL A   1      38.220  27.936  31.605  1.00  0.00     0.016 A 
ATOM     47  C   UNL A   1      37.645  29.035  29.485  1.00  0.00     0.016 A 
ATOM     48  C   UNL A   1      39.425  27.569  31.077  1.00  0.00     0.010 A 
ATOM     49  C   UNL A   1      38.860  28.701  28.968  1.00  0.00     0.010 A 
ATOM     50  C   UNL A   1      39.769  28.089  29.825  1.00  0.00    -0.014 A 
BRANCH  50  51
ATOM     51  C   UNL A   1      41.134  27.944  29.402  1.00  0.00     0.031 A 
ATOM     52  C   UNL A   1      41.375  26.623  28.799  1.00  0.00     0.074 A 
ATOM     53  C   UNL A   1      42.007  28.960  29.513  1.00  0.00     0.049 A 
ATOM     54  N   UNL A   1      42.118  25.675  29.257  1.00  0.00    -0.248 NA
ATOM     55  C   UNL A   1      40.508  26.232  27.674  1.00  0.00     0.031 C 
ATOM     56  C   UNL A   1      41.761  30.358  29.877  1.00  0.00     0.029 A 
ATOM     57  N   UNL A   1      43.329  28.950  29.210  1.00  0.00    -0.354 N 
ATOM     58  C   UNL A   1      41.951  24.623  28.367  1.00  0.00     0.074 A 
ATOM     59  C   UNL A   1      40.809  24.941  27.555  1.00  0.00     0.031 C 
ATOM     60  C   UNL A   1      42.845  31.100  29.544  1.00  0.00     0.029 A 
ATOM     61  C   UNL A   1      43.889  30.213  29.068  1.00  0.00     0.049 A 
ATOM     62  H   UNL A   1      43.847  28.119  29.101  1.00  0.00     0.167 HD
ATOM     63  C   UNL A   1      42.926  23.693  28.197  1.00  0.00     0.037 A 
ATOM     64  C   UNL A   1      45.078  30.449  28.458  1.00  0.00     0.037 A 
ATOM     65  C   UNL A   1      43.832  23.684  29.316  1.00  0.00     0.049 A 
ATOM     66  C   UNL A   1      45.830  29.158  28.467  1.00  0.00     0.074 A 
ATOM     67  C   UNL A   1      43.691  23.388  30.658  1.00  0.00     0.029 A 
ATOM     68  N   UNL A   1      44.999  24.402  29.210  1.00  0.00    -0.354 N 
ATOM     69  N   UNL A   1      46.264  28.586  29.559  1.00  0.00    -0.248 NA
ATOM     70  C   UNL A   1      45.642  28.263  27.329  1.00  0.00     0.031 C 
ATOM     71  C   UNL A   1      44.512  24.335  31.337  1.00  0.00     0.029 A 
ATOM     72  C   UNL A   1      45.159  25.112  30.374  1.00  0.00     0.049 A 
ATOM     73  H   UNL A   1      45.610  24.408  28.438  1.00  0.00     0.167 HD
ATOM     74  C   UNL A   1      46.013  27.231  29.379  1.00  0.00     0.074 A 
ATOM     75  C   UNL A   1      45.676  27.088  27.966  1.00  0.00     0.031 C 
ATOM     76  C   UNL A   1      45.808  26.401  30.445  1.00  0.00     0.037 A 
BRANCH  63  77
ATOM     77  C   UNL A   1      43.251  23.072  26.866  1.00  0.00     0.064 A 
ATOM     78  C   UNL A   1      42.998  21.702  26.677  1.00  0.00     0.173 A 
ATOM     79  C   UNL A   1      44.053  23.686  25.875  1.00  0.00     0.173 A 
ATOM     80  F   UNL A   1      42.261  21.016  27.562  1.00  0.00    -0.203 F 
ATOM     81  C   UNL A   1      43.571  20.988  25.623  1.00  0.00     0.198 A 
ATOM     82  C   UNL A   1      44.574  22.982  24.794  1.00  0.00     0.198 A 
ATOM     83  F   UNL A   1      44.464  24.956  25.962  1.00  0.00    -0.203 F 
ATOM     84  F   UNL A   1      43.405  19.660  25.556  1.00  0.00    -0.200 F 
ATOM     85  C   UNL A   1      44.363  21.627  24.686  1.00  0.00     0.200 A 
ATOM     86  F   UNL A   1      45.351  23.621  23.907  1.00  0.00    -0.200 F 
ATOM     87  F   UNL A   1      44.962  20.932  23.711  1.00  0.00    -0.200 F 
ENDBRANCH  63  77
BRANCH  64  88
ATOM     88  C   UNL A   1      45.384  31.550  27.510  1.00  0.00     0.064 A 
ATOM     89  C   UNL A   1      44.494  31.886  26.479  1.00  0.00     0.173 A 
ATOM     90  C   UNL A   1      46.424  32.470  27.760  1.00  0.00     0.173 A 
ATOM     91  F   UNL A   1      43.446  31.092  26.210  1.00  0.00    -0.203 F 
ATOM     92  C   UNL A   1      44.625  33.077  25.753  1.00  0.00     0.198 A 
ATOM     93  C   UNL A   1      46.559  33.653  27.032  1.00  0.00     0.198 A 
ATOM     94  F   UNL A   1      47.278  32.291  28.778  1.00  0.00    -0.203 F 
ATOM     95  F   UNL A   1      43.721  33.392  24.815  1.00  0.00    -0.200 F 
ATOM     96  C   UNL A   1      45.652  33.962  26.037  1.00  0.00     0.200 A 
ATOM     97  F   UNL A   1      47.535  34.517  27.345  1.00  0.00    -0.200 F 
ATOM     98  F   UNL A   1      45.745  35.130  25.385  1.00  0.00    -0.200 F 
ENDBRANCH  64  88
BRANCH  76  99
ATOM     99  C   UNL A   1      46.063  26.952  31.822  1.00  0.00     0.064 A 
ATOM    100  C   UNL A   1      45.099  27.643  32.579  1.00  0.00     0.173 A 
ATOM    101  C   UNL A   1      47.264  26.623  32.461  1.00  0.00     0.173 A 
ATOM    102  F   UNL A   1      43.886  27.901  32.076  1.00  0.00    -0.203 F 
ATOM    103  C   UNL A   1      45.347  28.021  33.898  1.00  0.00     0.198 A 
ATOM    104  C   UNL A   1      47.496  26.969  33.791  1.00  0.00     0.198 A 
ATOM    105  F   UNL A   1      48.198  25.912  31.809  1.00  0.00    -0.203 F 
ATOM    106  F   UNL A   1      44.412  28.686  34.595  1.00  0.00    -0.200 F 
ATOM    107  C   UNL A   1      46.542  27.675  34.505  1.00  0.00     0.200 A 
ATOM    108  F   UNL A   1      48.631  26.586  34.389  1.00  0.00    -0.200 F 
ATOM    109  F   UNL A   1      46.764  27.997  35.788  1.00  0.00    -0.200 F 
ENDBRANCH  76  99
ENDBRANCH  50  51
ENDBRANCH  43  45
ENDBRANCH  42  43
ENDBRANCH  41  42
ENDBRANCH  40  41
ENDBRANCH  39  40
ENDBRANCH  38  39
ENDBRANCH  37  38
ENDBRANCH  36  37
ENDBRANCH   1  36
TORSDOF 25
ENDMDL
MODEL 3
REMARK VINA RESULT:     -10.1      4.481      9.781
REMARK SMILES CC(C)CCn1nc(C(=O)OCCOCCOCCOCCOC(=O)c2ccc(-c3c4nc(c(-c5c(F)c(F)c(F)c(F)c5F)c5ccc([nH]5)c(-c5c(F)c(F)c(F)c(F)c5F)c5nc(c(-c6c(F)c(F)c(F)c(F)c6F)c6ccc3[nH]6)C=C5)C=C4)cc2)c2c1CCN(C(=O)[C@@H]1CCc3nn(C)c(=O)n3C1)C2
REMARK SMILES IDX 16 1 15 2 14 3 13 4 12 5 11 6 9 7 10 8 8 9 6 10 7 11 90 12
REMARK SMILES IDX 89 13 91 14 107 15 92 16 93 17 5 18 4 19 2 20 1 21 3 22
REMARK SMILES IDX 94 23 95 24 96 25 97 26 106 27 98 28 105 29 99 30 103 31
REMARK SMILES IDX 100 32 101 33 104 34 102 35 17 36 18 37 19 38 20 39 21 40
REMARK SMILES IDX 22 41 23 42 24 43 25 44 26 45 27 46 88 47 28 48 87 49 29 50
REMARK SMILES IDX 30 51 31 52 81 53 32 54 86 55 80 56 82 57 33 58 85 59 79 60
REMARK SMILES IDX 78 61 34 63 66 64 46 65 65 66 47 67 50 68 64 69 83 70 48 71
REMARK SMILES IDX 49 72 63 74 84 75 51 76 35 77 36 78 44 79 37 80 38 81 42 82
REMARK SMILES IDX 45 83 39 84 40 85 43 86 41 87 67 88 68 89 76 90 69 91 70 92
REMARK SMILES IDX 74 93 77 94 71 95 72 96 75 97 73 98 52 99 53 100 61 101
REMARK SMILES IDX 54 102 55 103 59 104 62 105 56 106 57 107 60 108 58 109
REMARK H PARENT 82 62 50 73
REMARK Flexibility Score: inf
ROOT
ATOM      1  C   UNL A   1      42.480  23.281  27.978  1.00  0.00     0.188 C 
ENDROOT
BRANCH   1   2
ATOM      2  C   UNL A   1      40.952  23.328  28.227  1.00  0.00     0.188 C 
BRANCH   2   3
ATOM      3  O   UNL A   1      40.205  23.761  27.111  1.00  0.00    -0.376 OA
BRANCH   3   4
ATOM      4  C   UNL A   1      39.175  23.000  26.537  1.00  0.00     0.202 C 
BRANCH   4   5
ATOM      5  C   UNL A   1      37.884  23.700  26.105  1.00  0.00     0.261 C 
BRANCH   5   6
ATOM      6  O   UNL A   1      36.732  22.866  25.993  1.00  0.00    -0.458 OA
BRANCH   6   7
ATOM      7  C   UNL A   1      36.361  22.481  24.743  1.00  0.00     0.359 C 
ATOM      8  O   UNL A   1      37.027  22.711  23.730  1.00  0.00    -0.244 OA
BRANCH   7   9
ATOM      9  C   UNL A   1      35.128  21.683  24.785  1.00  0.00     0.175 A 
ATOM     10  N   UNL A   1      33.801  19.999  24.701  1.00  0.00    -0.268 N 
ATOM     11  N   UNL A   1      35.107  20.340  24.612  1.00  0.00    -0.165 NA
ATOM     12  C   UNL A   1      33.003  21.103  24.745  1.00  0.00     0.046 A 
ATOM     13  C   UNL A   1      33.818  22.168  25.055  1.00  0.00     0.028 A 
ATOM     14  C   UNL A   1      31.547  21.207  24.518  1.00  0.00     0.078 C 
ATOM     15  C   UNL A   1      33.323  23.526  25.434  1.00  0.00     0.159 C 
ATOM     16  C   UNL A   1      31.156  22.708  24.536  1.00  0.00     0.126 C 
ATOM     17  N   UNL A   1      31.850  23.481  25.582  1.00  0.00    -0.338 N 
BRANCH  10  18
ATOM     18  C   UNL A   1      33.390  18.612  24.569  1.00  0.00     0.145 C 
BRANCH  18  19
ATOM     19  C   UNL A   1      34.426  17.629  23.993  1.00  0.00     0.027 C 
BRANCH  19  20
ATOM     20  C   UNL A   1      34.412  16.175  24.521  1.00  0.00    -0.016 C 
ATOM     21  C   UNL A   1      35.632  15.828  25.376  1.00  0.00     0.007 C 
ATOM     22  C   UNL A   1      33.149  15.950  25.369  1.00  0.00     0.007 C 
ENDBRANCH  19  20
ENDBRANCH  18  19
ENDBRANCH  10  18
BRANCH  17  23
ATOM     23  C   UNL A   1      31.291  24.430  26.415  1.00  0.00     0.227 C 
ATOM     24  O   UNL A   1      31.176  24.193  27.626  1.00  0.00    -0.274 OA
BRANCH  23  25
ATOM     25  C   UNL A   1      30.719  25.766  25.907  1.00  0.00     0.099 C 
ATOM     26  C   UNL A   1      29.871  25.731  24.632  1.00  0.00     0.023 C 
ATOM     27  C   UNL A   1      31.664  26.956  25.969  1.00  0.00     0.142 C 
ATOM     28  C   UNL A   1      30.611  26.017  23.334  1.00  0.00     0.078 C 
ATOM     29  N   UNL A   1      32.250  27.270  24.691  1.00  0.00    -0.278 N 
ATOM     30  C   UNL A   1      31.814  26.894  23.478  1.00  0.00     0.133 A 
ATOM     31  C   UNL A   1      33.367  28.035  24.480  1.00  0.00     0.345 A 
ATOM     32  N   UNL A   1      32.567  27.270  22.486  1.00  0.00    -0.155 NA
ATOM     33  N   UNL A   1      33.572  27.986  23.099  1.00  0.00    -0.216 N 
ATOM     34  O   UNL A   1      34.032  28.617  25.319  1.00  0.00    -0.246 OA
ATOM     35  C   UNL A   1      34.662  28.578  22.376  1.00  0.00     0.179 C 
ENDBRANCH  23  25
ENDBRANCH  17  23
ENDBRANCH   7   9
ENDBRANCH   6   7
ENDBRANCH   5   6
ENDBRANCH   4   5
ENDBRANCH   3   4
ENDBRANCH   2   3
ENDBRANCH   1   2
BRANCH   1  36
ATOM     36  O   UNL A   1      43.166  22.101  27.569  1.00  0.00    -0.377 OA
BRANCH  36  37
ATOM     37  C   UNL A   1      43.326  21.805  26.192  1.00  0.00     0.188 C 
BRANCH  37  38
ATOM     38  C   UNL A   1      44.435  22.515  25.366  1.00  0.00     0.188 C 
BRANCH  38  39
ATOM     39  O   UNL A   1      45.288  23.411  26.052  1.00  0.00    -0.376 OA
BRANCH  39  40
ATOM     40  C   UNL A   1      45.955  24.537  25.514  1.00  0.00     0.202 C 
BRANCH  40  41
ATOM     41  C   UNL A   1      45.269  25.798  25.001  1.00  0.00     0.261 C 
BRANCH  41  42
ATOM     42  O   UNL A   1      44.085  26.122  25.679  1.00  0.00    -0.460 OA
BRANCH  42  43
ATOM     43  C   UNL A   1      43.805  27.431  25.672  1.00  0.00     0.338 C 
ATOM     44  O   UNL A   1      44.563  28.353  25.381  1.00  0.00    -0.246 OA
BRANCH  43  45
ATOM     45  C   UNL A   1      42.419  27.598  26.129  1.00  0.00     0.060 A 
ATOM     46  C   UNL A   1      41.963  28.909  26.026  1.00  0.00     0.016 A 
ATOM     47  C   UNL A   1      42.007  26.721  27.142  1.00  0.00     0.016 A 
ATOM     48  C   UNL A   1      41.514  29.480  27.183  1.00  0.00     0.010 A 
ATOM     49  C   UNL A   1      41.592  27.293  28.306  1.00  0.00     0.010 A 
ATOM     50  C   UNL A   1      41.483  28.680  28.330  1.00  0.00    -0.014 A 
BRANCH  50  51
ATOM     51  C   UNL A   1      41.291  29.341  29.591  1.00  0.00     0.031 A 
ATOM     52  C   UNL A   1      40.083  30.182  29.581  1.00  0.00     0.074 A 
ATOM     53  C   UNL A   1      42.117  29.114  30.626  1.00  0.00     0.049 A 
ATOM     54  N   UNL A   1      40.021  31.467  29.658  1.00  0.00    -0.248 NA
ATOM     55  C   UNL A   1      38.815  29.529  29.216  1.00  0.00     0.031 C 
ATOM     56  C   UNL A   1      43.179  28.112  30.763  1.00  0.00     0.029 A 
ATOM     57  N   UNL A   1      42.093  29.703  31.847  1.00  0.00    -0.354 N 
ATOM     58  C   UNL A   1      38.673  31.773  29.532  1.00  0.00     0.074 A 
ATOM     59  C   UNL A   1      38.020  30.585  29.056  1.00  0.00     0.031 C 
ATOM     60  C   UNL A   1      43.527  28.011  32.068  1.00  0.00     0.029 A 
ATOM     61  C   UNL A   1      42.807  29.021  32.823  1.00  0.00     0.049 A 
ATOM     62  H   UNL A   1      41.609  30.543  32.027  1.00  0.00     0.167 HD
ATOM     63  C   UNL A   1      38.161  32.904  30.081  1.00  0.00     0.037 A 
ATOM     64  C   UNL A   1      42.659  29.230  34.155  1.00  0.00     0.037 A 
ATOM     65  C   UNL A   1      39.199  33.868  30.340  1.00  0.00     0.049 A 
ATOM     66  C   UNL A   1      42.042  30.581  34.312  1.00  0.00     0.074 A 
ATOM     67  C   UNL A   1      40.071  34.574  29.534  1.00  0.00     0.029 A 
ATOM     68  N   UNL A   1      39.728  33.925  31.607  1.00  0.00    -0.354 N 
ATOM     69  N   UNL A   1      42.652  31.692  33.992  1.00  0.00    -0.248 NA
ATOM     70  C   UNL A   1      40.585  30.656  34.333  1.00  0.00     0.031 C 
ATOM     71  C   UNL A   1      41.300  34.607  30.255  1.00  0.00     0.029 A 
ATOM     72  C   UNL A   1      41.095  33.982  31.485  1.00  0.00     0.049 A 
ATOM     73  H   UNL A   1      39.220  33.924  32.450  1.00  0.00     0.167 HD
ATOM     74  C   UNL A   1      41.679  32.472  33.379  1.00  0.00     0.074 A 
ATOM     75  C   UNL A   1      40.414  31.801  33.665  1.00  0.00     0.031 C 
ATOM     76  C   UNL A   1      42.010  33.417  32.450  1.00  0.00     0.037 A 
BRANCH  63  77
ATOM     77  C   UNL A   1      36.795  32.973  30.708  1.00  0.00     0.064 A 
ATOM     78  C   UNL A   1      35.769  33.647  30.024  1.00  0.00     0.173 A 
ATOM     79  C   UNL A   1      36.523  32.659  32.060  1.00  0.00     0.173 A 
ATOM     80  F   UNL A   1      35.924  34.005  28.741  1.00  0.00    -0.203 F 
ATOM     81  C   UNL A   1      34.596  34.046  30.668  1.00  0.00     0.198 A 
ATOM     82  C   UNL A   1      35.328  33.008  32.682  1.00  0.00     0.198 A 
ATOM     83  F   UNL A   1      37.432  32.108  32.873  1.00  0.00    -0.203 F 
ATOM     84  F   UNL A   1      33.702  34.796  30.010  1.00  0.00    -0.200 F 
ATOM     85  C   UNL A   1      34.379  33.731  31.997  1.00  0.00     0.200 A 
ATOM     86  F   UNL A   1      35.148  32.705  33.975  1.00  0.00    -0.200 F 
ATOM     87  F   UNL A   1      33.283  34.167  32.632  1.00  0.00    -0.200 F 
ENDBRANCH  63  77
BRANCH  64  88
ATOM     88  C   UNL A   1      42.598  28.190  35.213  1.00  0.00     0.064 A 
ATOM     89  C   UNL A   1      41.724  27.097  35.104  1.00  0.00     0.173 A 
ATOM     90  C   UNL A   1      43.582  28.102  36.220  1.00  0.00     0.173 A 
ATOM     91  F   UNL A   1      40.791  27.076  34.140  1.00  0.00    -0.203 F 
ATOM     92  C   UNL A   1      41.839  25.978  35.938  1.00  0.00     0.198 A 
ATOM     93  C   UNL A   1      43.692  26.990  37.055  1.00  0.00     0.198 A 
ATOM     94  F   UNL A   1      44.521  29.049  36.354  1.00  0.00    -0.203 F 
ATOM     95  F   UNL A   1      41.024  24.928  35.765  1.00  0.00    -0.200 F 
ATOM     96  C   UNL A   1      42.828  25.922  36.907  1.00  0.00     0.200 A 
ATOM     97  F   UNL A   1      44.678  26.936  37.962  1.00  0.00    -0.200 F 
ATOM     98  F   UNL A   1      42.977  24.828  37.666  1.00  0.00    -0.200 F 
ENDBRANCH  64  88
BRANCH  76  99
ATOM     99  C   UNL A   1      43.470  33.731  32.258  1.00  0.00     0.064 A 
ATOM    100  C   UNL A   1      44.191  34.623  33.072  1.00  0.00     0.173 A 
ATOM    101  C   UNL A   1      44.198  32.978  31.330  1.00  0.00     0.173 A 
ATOM    102  F   UNL A   1      43.585  35.301  34.054  1.00  0.00    -0.203 F 
ATOM    103  C   UNL A   1      45.569  34.782  32.930  1.00  0.00     0.198 A 
ATOM    104  C   UNL A   1      45.580  33.109  31.215  1.00  0.00     0.198 A 
ATOM    105  F   UNL A   1      43.573  32.066  30.567  1.00  0.00    -0.203 F 
ATOM    106  F   UNL A   1      46.233  35.645  33.715  1.00  0.00    -0.200 F 
ATOM    107  C   UNL A   1      46.263  34.017  32.008  1.00  0.00     0.200 A 
ATOM    108  F   UNL A   1      46.253  32.330  30.359  1.00  0.00    -0.200 F 
ATOM    109  F   UNL A   1      47.595  34.134  31.902  1.00  0.00    -0.200 F 
ENDBRANCH  76  99
ENDBRANCH  50  51
ENDBRANCH  43  45
ENDBRANCH  42  43
ENDBRANCH  41  42
ENDBRANCH  40  41
ENDBRANCH  39  40
ENDBRANCH  38  39
ENDBRANCH  37  38
ENDBRANCH  36  37
ENDBRANCH   1  36
TORSDOF 25
ENDMDL
