MODEL 1
REMARK VINA RESULT:     -10.5      0.000      0.000
REMARK SMILES O=C(OCCOCCOCCOCCOC(=O)[C@@H]1CSCN1C(=O)c1cccc(Cl)c1)c1ccc(-c2c3nc(c(-c4c(F)c(F)c(F)c(F)c4F)c4ccc([nH]4)c(-c4c(F)c(F)c(F)c(F)c4F)c4nc(c(-c5c(F)c(F)c(F)c(F)c5F)c5ccc2[nH]5)C=C4)C=C3)cc1
REMARK SMILES IDX 9 1 8 2 7 3 6 4 5 5 4 6 3 7 2 8 1 9 32 10 33 11 94 12 34 13
REMARK SMILES IDX 93 14 35 15 36 16 37 17 87 18 38 19 92 20 86 21 88 22 39 23
REMARK SMILES IDX 91 24 85 25 84 26 40 28 72 29 52 30 71 31 53 32 56 33 70 34
REMARK SMILES IDX 89 35 54 36 55 37 69 39 90 40 57 41 41 42 42 43 50 44 43 45
REMARK SMILES IDX 44 46 48 47 51 48 45 49 46 50 49 51 47 52 73 53 74 54 82 55
REMARK SMILES IDX 75 56 76 57 80 58 83 59 77 60 78 61 81 62 79 63 58 64 59 65
REMARK SMILES IDX 67 66 60 67 61 68 65 69 68 70 62 71 63 72 66 73 64 74 10 75
REMARK SMILES IDX 11 76 12 77 13 78 14 79 15 80 16 81 17 82 18 83 19 84 22 85
REMARK SMILES IDX 20 86 21 87 23 88 24 89 25 90 26 91 31 92 27 93 29 94 28 95
REMARK SMILES IDX 30 96
REMARK H PARENT 88 27 56 38
REMARK Flexibility Score: inf
ROOT
ATOM      1  O   UNL A   1      32.721  22.716  27.777  1.00  0.00    -0.377 OA
ENDROOT
BRANCH   1   2
ATOM      2  C   UNL A   1      34.034  22.772  27.232  1.00  0.00     0.188 C 
BRANCH   2   3
ATOM      3  C   UNL A   1      34.482  21.480  26.558  1.00  0.00     0.188 C 
BRANCH   3   4
ATOM      4  O   UNL A   1      35.846  21.589  26.187  1.00  0.00    -0.376 OA
BRANCH   4   5
ATOM      5  C   UNL A   1      36.340  20.954  25.015  1.00  0.00     0.202 C 
BRANCH   5   6
ATOM      6  C   UNL A   1      37.813  20.576  25.032  1.00  0.00     0.261 C 
BRANCH   6   7
ATOM      7  O   UNL A   1      38.625  21.700  25.405  1.00  0.00    -0.460 OA
BRANCH   7   8
ATOM      8  C   UNL A   1      39.632  21.496  26.293  1.00  0.00     0.338 C 
ATOM      9  O   UNL A   1      40.339  20.521  26.404  1.00  0.00    -0.246 OA
BRANCH   8  10
ATOM     10  C   UNL A   1      39.805  22.788  26.978  1.00  0.00     0.060 A 
ATOM     11  C   UNL A   1      39.030  23.889  26.602  1.00  0.00     0.016 A 
ATOM     12  C   UNL A   1      40.874  22.944  27.849  1.00  0.00     0.016 A 
ATOM     13  C   UNL A   1      39.428  25.163  26.904  1.00  0.00     0.010 A 
ATOM     14  C   UNL A   1      41.209  24.228  28.262  1.00  0.00     0.010 A 
ATOM     15  C   UNL A   1      40.519  25.337  27.737  1.00  0.00    -0.014 A 
BRANCH  15  16
ATOM     16  C   UNL A   1      41.017  26.702  27.910  1.00  0.00     0.031 A 
ATOM     17  C   UNL A   1      42.407  26.984  27.456  1.00  0.00     0.074 A 
ATOM     18  C   UNL A   1      40.192  27.659  28.363  1.00  0.00     0.049 A 
ATOM     19  N   UNL A   1      43.180  27.992  27.740  1.00  0.00    -0.248 NA
ATOM     20  C   UNL A   1      43.020  25.977  26.572  1.00  0.00     0.031 C 
ATOM     21  C   UNL A   1      38.762  27.487  28.639  1.00  0.00     0.029 A 
ATOM     22  N   UNL A   1      40.436  28.967  28.667  1.00  0.00    -0.354 N 
ATOM     23  C   UNL A   1      44.399  27.695  27.149  1.00  0.00     0.074 A 
ATOM     24  C   UNL A   1      44.258  26.428  26.469  1.00  0.00     0.031 C 
ATOM     25  C   UNL A   1      38.257  28.649  29.077  1.00  0.00     0.029 A 
ATOM     26  C   UNL A   1      39.353  29.593  29.230  1.00  0.00     0.049 A 
ATOM     27  H   UNL A   1      41.298  29.413  28.500  1.00  0.00     0.167 HD
ATOM     28  C   UNL A   1      45.534  28.425  27.220  1.00  0.00     0.037 A 
ATOM     29  C   UNL A   1      39.295  30.765  29.886  1.00  0.00     0.037 A 
ATOM     30  C   UNL A   1      45.582  29.689  27.903  1.00  0.00     0.049 A 
ATOM     31  C   UNL A   1      40.580  31.529  30.027  1.00  0.00     0.074 A 
ATOM     32  C   UNL A   1      46.656  30.530  28.110  1.00  0.00     0.029 A 
ATOM     33  N   UNL A   1      44.472  30.293  28.492  1.00  0.00    -0.354 N 
ATOM     34  N   UNL A   1      41.776  31.215  29.584  1.00  0.00    -0.248 NA
ATOM     35  C   UNL A   1      40.523  32.788  30.773  1.00  0.00     0.031 C 
ATOM     36  C   UNL A   1      46.204  31.615  28.871  1.00  0.00     0.029 A 
ATOM     37  C   UNL A   1      44.837  31.486  29.080  1.00  0.00     0.049 A 
ATOM     38  H   UNL A   1      43.561  29.921  28.488  1.00  0.00     0.167 HD
ATOM     39  C   UNL A   1      42.616  32.244  29.975  1.00  0.00     0.074 A 
ATOM     40  C   UNL A   1      41.784  33.195  30.694  1.00  0.00     0.031 C 
ATOM     41  C   UNL A   1      43.947  32.397  29.766  1.00  0.00     0.037 A 
BRANCH  28  42
ATOM     42  C   UNL A   1      46.780  27.802  26.662  1.00  0.00     0.064 A 
ATOM     43  C   UNL A   1      47.170  27.958  25.322  1.00  0.00     0.173 A 
ATOM     44  C   UNL A   1      47.547  26.943  27.466  1.00  0.00     0.173 A 
ATOM     45  F   UNL A   1      46.457  28.742  24.498  1.00  0.00    -0.203 F 
ATOM     46  C   UNL A   1      48.243  27.238  24.798  1.00  0.00     0.198 A 
ATOM     47  C   UNL A   1      48.639  26.252  26.947  1.00  0.00     0.198 A 
ATOM     48  F   UNL A   1      47.217  26.746  28.751  1.00  0.00    -0.203 F 
ATOM     49  F   UNL A   1      48.536  27.332  23.493  1.00  0.00    -0.200 F 
ATOM     50  C   UNL A   1      48.975  26.386  25.610  1.00  0.00     0.200 A 
ATOM     51  F   UNL A   1      49.346  25.432  27.736  1.00  0.00    -0.200 F 
ATOM     52  F   UNL A   1      49.990  25.675  25.097  1.00  0.00    -0.200 F 
ENDBRANCH  28  42
BRANCH  29  53
ATOM     53  C   UNL A   1      38.015  31.193  30.507  1.00  0.00     0.064 A 
ATOM     54  C   UNL A   1      37.834  31.159  31.894  1.00  0.00     0.173 A 
ATOM     55  C   UNL A   1      36.970  31.720  29.727  1.00  0.00     0.173 A 
ATOM     56  F   UNL A   1      38.795  30.658  32.681  1.00  0.00    -0.203 F 
ATOM     57  C   UNL A   1      36.660  31.635  32.478  1.00  0.00     0.198 A 
ATOM     58  C   UNL A   1      35.810  32.223  30.314  1.00  0.00     0.198 A 
ATOM     59  F   UNL A   1      37.092  31.786  28.393  1.00  0.00    -0.203 F 
ATOM     60  F   UNL A   1      36.503  31.572  33.807  1.00  0.00    -0.200 F 
ATOM     61  C   UNL A   1      35.655  32.177  31.690  1.00  0.00     0.200 A 
ATOM     62  F   UNL A   1      34.855  32.767  29.548  1.00  0.00    -0.200 F 
ATOM     63  F   UNL A   1      34.538  32.654  32.256  1.00  0.00    -0.200 F 
ENDBRANCH  29  53
BRANCH  41  64
ATOM     64  C   UNL A   1      44.566  33.663  30.267  1.00  0.00     0.064 A 
ATOM     65  C   UNL A   1      45.193  33.730  31.517  1.00  0.00     0.173 A 
ATOM     66  C   UNL A   1      44.624  34.786  29.429  1.00  0.00     0.173 A 
ATOM     67  F   UNL A   1      45.147  32.682  32.355  1.00  0.00    -0.203 F 
ATOM     68  C   UNL A   1      45.857  34.885  31.914  1.00  0.00     0.198 A 
ATOM     69  C   UNL A   1      45.315  35.927  29.815  1.00  0.00     0.198 A 
ATOM     70  F   UNL A   1      44.042  34.759  28.220  1.00  0.00    -0.203 F 
ATOM     71  F   UNL A   1      46.433  34.942  33.122  1.00  0.00    -0.200 F 
ATOM     72  C   UNL A   1      45.931  35.975  31.058  1.00  0.00     0.200 A 
ATOM     73  F   UNL A   1      45.402  36.971  28.981  1.00  0.00    -0.200 F 
ATOM     74  F   UNL A   1      46.599  37.076  31.430  1.00  0.00    -0.200 F 
ENDBRANCH  41  64
ENDBRANCH  15  16
ENDBRANCH   8  10
ENDBRANCH   7   8
ENDBRANCH   6   7
ENDBRANCH   5   6
ENDBRANCH   4   5
ENDBRANCH   3   4
ENDBRANCH   2   3
ENDBRANCH   1   2
BRANCH   1  75
ATOM     75  C   UNL A   1      31.646  22.752  26.846  1.00  0.00     0.188 C 
BRANCH  75  76
ATOM     76  C   UNL A   1      30.671  23.936  26.833  1.00  0.00     0.188 C 
BRANCH  76  77
ATOM     77  O   UNL A   1      30.473  24.524  25.559  1.00  0.00    -0.376 OA
BRANCH  77  78
ATOM     78  C   UNL A   1      29.845  25.801  25.594  1.00  0.00     0.202 C 
BRANCH  78  79
ATOM     79  C   UNL A   1      29.685  26.532  24.243  1.00  0.00     0.261 C 
BRANCH  79  80
ATOM     80  O   UNL A   1      30.450  26.070  23.102  1.00  0.00    -0.462 OA
BRANCH  80  81
ATOM     81  C   UNL A   1      31.234  26.969  22.463  1.00  0.00     0.329 C 
ATOM     82  O   UNL A   1      30.803  28.044  22.052  1.00  0.00    -0.250 OA
BRANCH  81  83
ATOM     83  C   UNL A   1      32.697  26.481  22.248  1.00  0.00     0.206 C 
ATOM     84  C   UNL A   1      32.960  25.013  21.896  1.00  0.00     0.108 C 
ATOM     85  N   UNL A   1      33.440  26.769  23.486  1.00  0.00    -0.315 N 
ATOM     86  S   UNL A   1      33.697  24.212  23.375  1.00  0.00    -0.138 SA
ATOM     87  C   UNL A   1      33.472  25.667  24.420  1.00  0.00     0.191 C 
BRANCH  85  88
ATOM     88  C   UNL A   1      33.870  28.061  23.693  1.00  0.00     0.255 C 
ATOM     89  O   UNL A   1      34.446  28.720  22.832  1.00  0.00    -0.269 OA
BRANCH  88  90
ATOM     90  C   UNL A   1      33.589  28.717  24.976  1.00  0.00     0.041 A 
ATOM     91  C   UNL A   1      34.396  28.489  26.092  1.00  0.00     0.014 A 
ATOM     92  C   UNL A   1      32.559  29.660  25.007  1.00  0.00     0.034 A 
ATOM     93  C   UNL A   1      34.156  29.201  27.265  1.00  0.00     0.002 A 
ATOM     94  C   UNL A   1      32.339  30.378  26.177  1.00  0.00     0.041 A 
ATOM     95  C   UNL A   1      33.132  30.152  27.304  1.00  0.00     0.020 A 
ATOM     96  Cl  UNL A   1      31.099  31.568  26.227  1.00  0.00    -0.084 Cl
ENDBRANCH  88  90
ENDBRANCH  85  88
ENDBRANCH  81  83
ENDBRANCH  80  81
ENDBRANCH  79  80
ENDBRANCH  78  79
ENDBRANCH  77  78
ENDBRANCH  76  77
ENDBRANCH  75  76
ENDBRANCH   1  75
TORSDOF 22
ENDMDL
MODEL 2
REMARK VINA RESULT:     -10.5      1.702      2.488
REMARK SMILES O=C(OCCOCCOCCOCCOC(=O)[C@@H]1CSCN1C(=O)c1cccc(Cl)c1)c1ccc(-c2c3nc(c(-c4c(F)c(F)c(F)c(F)c4F)c4ccc([nH]4)c(-c4c(F)c(F)c(F)c(F)c4F)c4nc(c(-c5c(F)c(F)c(F)c(F)c5F)c5ccc2[nH]5)C=C4)C=C3)cc1
REMARK SMILES IDX 9 1 8 2 7 3 6 4 5 5 4 6 3 7 2 8 1 9 32 10 33 11 94 12 34 13
REMARK SMILES IDX 93 14 35 15 36 16 37 17 87 18 38 19 92 20 86 21 88 22 39 23
REMARK SMILES IDX 91 24 85 25 84 26 40 28 72 29 52 30 71 31 53 32 56 33 70 34
REMARK SMILES IDX 89 35 54 36 55 37 69 39 90 40 57 41 41 42 42 43 50 44 43 45
REMARK SMILES IDX 44 46 48 47 51 48 45 49 46 50 49 51 47 52 73 53 74 54 82 55
REMARK SMILES IDX 75 56 76 57 80 58 83 59 77 60 78 61 81 62 79 63 58 64 59 65
REMARK SMILES IDX 67 66 60 67 61 68 65 69 68 70 62 71 63 72 66 73 64 74 10 75
REMARK SMILES IDX 11 76 12 77 13 78 14 79 15 80 16 81 17 82 18 83 19 84 22 85
REMARK SMILES IDX 20 86 21 87 23 88 24 89 25 90 26 91 31 92 27 93 29 94 28 95
REMARK SMILES IDX 30 96
REMARK H PARENT 88 27 56 38
REMARK Flexibility Score: inf
ROOT
ATOM      1  O   UNL A   1      34.974  21.647  23.991  1.00  0.00    -0.377 OA
ENDROOT
BRANCH   1   2
ATOM      2  C   UNL A   1      35.769  22.529  24.775  1.00  0.00     0.188 C 
BRANCH   2   3
ATOM      3  C   UNL A   1      36.708  21.821  25.746  1.00  0.00     0.188 C 
BRANCH   3   4
ATOM      4  O   UNL A   1      37.815  21.293  25.033  1.00  0.00    -0.376 OA
BRANCH   4   5
ATOM      5  C   UNL A   1      38.091  19.900  25.037  1.00  0.00     0.202 C 
BRANCH   5   6
ATOM      6  C   UNL A   1      39.439  19.489  25.609  1.00  0.00     0.261 C 
BRANCH   6   7
ATOM      7  O   UNL A   1      39.755  20.260  26.778  1.00  0.00    -0.460 OA
BRANCH   7   8
ATOM      8  C   UNL A   1      41.061  20.530  27.034  1.00  0.00     0.338 C 
ATOM      9  O   UNL A   1      42.024  19.841  26.790  1.00  0.00    -0.246 OA
BRANCH   8  10
ATOM     10  C   UNL A   1      41.076  21.924  27.508  1.00  0.00     0.060 A 
ATOM     11  C   UNL A   1      40.265  22.882  26.893  1.00  0.00     0.016 A 
ATOM     12  C   UNL A   1      42.045  22.306  28.424  1.00  0.00     0.016 A 
ATOM     13  C   UNL A   1      40.542  24.217  27.011  1.00  0.00     0.010 A 
ATOM     14  C   UNL A   1      42.249  23.664  28.646  1.00  0.00     0.010 A 
ATOM     15  C   UNL A   1      41.534  24.613  27.890  1.00  0.00    -0.014 A 
BRANCH  15  16
ATOM     16  C   UNL A   1      41.916  26.025  27.875  1.00  0.00     0.031 A 
ATOM     17  C   UNL A   1      43.170  26.386  27.157  1.00  0.00     0.074 A 
ATOM     18  C   UNL A   1      41.093  26.943  28.405  1.00  0.00     0.049 A 
ATOM     19  N   UNL A   1      43.877  27.477  27.225  1.00  0.00    -0.248 NA
ATOM     20  C   UNL A   1      43.717  25.363  26.247  1.00  0.00     0.031 C 
ATOM     21  C   UNL A   1      39.757  26.674  28.948  1.00  0.00     0.029 A 
ATOM     22  N   UNL A   1      41.255  28.288  28.568  1.00  0.00    -0.354 N 
ATOM     23  C   UNL A   1      44.996  27.236  26.443  1.00  0.00     0.074 A 
ATOM     24  C   UNL A   1      44.866  25.909  25.889  1.00  0.00     0.031 C 
ATOM     25  C   UNL A   1      39.224  27.820  29.390  1.00  0.00     0.029 A 
ATOM     26  C   UNL A   1      40.230  28.865  29.274  1.00  0.00     0.049 A 
ATOM     27  H   UNL A   1      42.025  28.791  28.217  1.00  0.00     0.167 HD
ATOM     28  C   UNL A   1      46.048  28.064  26.255  1.00  0.00     0.037 A 
ATOM     29  C   UNL A   1      40.170  30.079  29.848  1.00  0.00     0.037 A 
ATOM     30  C   UNL A   1      46.089  29.381  26.829  1.00  0.00     0.049 A 
ATOM     31  C   UNL A   1      41.378  30.960  29.700  1.00  0.00     0.074 A 
ATOM     32  C   UNL A   1      47.092  30.326  26.779  1.00  0.00     0.029 A 
ATOM     33  N   UNL A   1      45.044  29.936  27.569  1.00  0.00    -0.354 N 
ATOM     34  N   UNL A   1      42.503  30.713  29.068  1.00  0.00    -0.248 NA
ATOM     35  C   UNL A   1      41.326  32.269  30.355  1.00  0.00     0.031 C 
ATOM     36  C   UNL A   1      46.675  31.430  27.533  1.00  0.00     0.029 A 
ATOM     37  C   UNL A   1      45.386  31.202  27.997  1.00  0.00     0.049 A 
ATOM     38  H   UNL A   1      44.188  29.488  27.757  1.00  0.00     0.167 HD
ATOM     39  C   UNL A   1      43.291  31.840  29.228  1.00  0.00     0.074 A 
ATOM     40  C   UNL A   1      42.507  32.774  30.020  1.00  0.00     0.031 C 
ATOM     41  C   UNL A   1      44.543  32.088  28.769  1.00  0.00     0.037 A 
BRANCH  28  42
ATOM     42  C   UNL A   1      47.232  27.505  25.523  1.00  0.00     0.064 A 
ATOM     43  C   UNL A   1      48.287  26.850  26.178  1.00  0.00     0.173 A 
ATOM     44  C   UNL A   1      47.360  27.721  24.141  1.00  0.00     0.173 A 
ATOM     45  F   UNL A   1      48.235  26.644  27.503  1.00  0.00    -0.203 F 
ATOM     46  C   UNL A   1      49.444  26.485  25.490  1.00  0.00     0.198 A 
ATOM     47  C   UNL A   1      48.501  27.323  23.451  1.00  0.00     0.198 A 
ATOM     48  F   UNL A   1      46.389  28.350  23.463  1.00  0.00    -0.203 F 
ATOM     49  F   UNL A   1      50.475  25.947  26.157  1.00  0.00    -0.200 F 
ATOM     50  C   UNL A   1      49.550  26.722  24.129  1.00  0.00     0.200 A 
ATOM     51  F   UNL A   1      48.599  27.552  22.134  1.00  0.00    -0.200 F 
ATOM     52  F   UNL A   1      50.673  26.393  23.474  1.00  0.00    -0.200 F 
ENDBRANCH  28  42
BRANCH  29  53
ATOM     53  C   UNL A   1      38.984  30.448  30.661  1.00  0.00     0.064 A 
ATOM     54  C   UNL A   1      38.921  30.156  32.029  1.00  0.00     0.173 A 
ATOM     55  C   UNL A   1      37.914  31.170  30.101  1.00  0.00     0.173 A 
ATOM     56  F   UNL A   1      39.908  29.462  32.610  1.00  0.00    -0.203 F 
ATOM     57  C   UNL A   1      37.839  30.573  32.805  1.00  0.00     0.198 A 
ATOM     58  C   UNL A   1      36.849  31.612  30.883  1.00  0.00     0.198 A 
ATOM     59  F   UNL A   1      37.926  31.485  28.797  1.00  0.00    -0.203 F 
ATOM     60  F   UNL A   1      37.794  30.263  34.107  1.00  0.00    -0.200 F 
ATOM     61  C   UNL A   1      36.811  31.309  32.234  1.00  0.00     0.200 A 
ATOM     62  F   UNL A   1      35.872  32.344  30.330  1.00  0.00    -0.200 F 
ATOM     63  F   UNL A   1      35.783  31.727  32.987  1.00  0.00    -0.200 F 
ENDBRANCH  29  53
BRANCH  41  64
ATOM     64  C   UNL A   1      45.111  33.441  29.061  1.00  0.00     0.064 A 
ATOM     65  C   UNL A   1      45.891  33.682  30.199  1.00  0.00     0.173 A 
ATOM     66  C   UNL A   1      44.958  34.474  28.125  1.00  0.00     0.173 A 
ATOM     67  F   UNL A   1      46.048  32.724  31.126  1.00  0.00    -0.203 F 
ATOM     68  C   UNL A   1      46.499  34.917  30.391  1.00  0.00     0.198 A 
ATOM     69  C   UNL A   1      45.593  35.696  28.304  1.00  0.00     0.198 A 
ATOM     70  F   UNL A   1      44.225  34.281  27.018  1.00  0.00    -0.203 F 
ATOM     71  F   UNL A   1      47.224  35.139  31.496  1.00  0.00    -0.200 F 
ATOM     72  C   UNL A   1      46.363  35.916  29.438  1.00  0.00     0.200 A 
ATOM     73  F   UNL A   1      45.477  36.653  27.374  1.00  0.00    -0.200 F 
ATOM     74  F   UNL A   1      46.975  37.095  29.610  1.00  0.00    -0.200 F 
ENDBRANCH  41  64
ENDBRANCH  15  16
ENDBRANCH   8  10
ENDBRANCH   7   8
ENDBRANCH   6   7
ENDBRANCH   5   6
ENDBRANCH   4   5
ENDBRANCH   3   4
ENDBRANCH   2   3
ENDBRANCH   1   2
BRANCH   1  75
ATOM     75  C   UNL A   1      33.574  21.899  23.977  1.00  0.00     0.188 C 
BRANCH  75  76
ATOM     76  C   UNL A   1      32.584  20.793  24.363  1.00  0.00     0.188 C 
BRANCH  76  77
ATOM     77  O   UNL A   1      31.775  21.091  25.487  1.00  0.00    -0.376 OA
BRANCH  77  78
ATOM     78  C   UNL A   1      31.126  22.357  25.423  1.00  0.00     0.202 C 
BRANCH  78  79
ATOM     79  C   UNL A   1      30.913  23.094  26.764  1.00  0.00     0.261 C 
BRANCH  79  80
ATOM     80  O   UNL A   1      31.623  24.334  27.003  1.00  0.00    -0.462 OA
BRANCH  80  81
ATOM     81  C   UNL A   1      31.936  25.097  25.931  1.00  0.00     0.329 C 
ATOM     82  O   UNL A   1      32.998  24.977  25.324  1.00  0.00    -0.250 OA
BRANCH  81  83
ATOM     83  C   UNL A   1      30.858  26.169  25.591  1.00  0.00     0.206 C 
ATOM     84  C   UNL A   1      30.134  26.110  24.242  1.00  0.00     0.108 C 
ATOM     85  N   UNL A   1      31.510  27.486  25.675  1.00  0.00    -0.315 N 
ATOM     86  S   UNL A   1      30.766  27.495  23.213  1.00  0.00    -0.138 SA
ATOM     87  C   UNL A   1      32.028  27.966  24.415  1.00  0.00     0.191 C 
BRANCH  85  88
ATOM     88  C   UNL A   1      31.699  28.032  26.926  1.00  0.00     0.255 C 
ATOM     89  O   UNL A   1      30.947  27.814  27.872  1.00  0.00    -0.269 OA
BRANCH  88  90
ATOM     90  C   UNL A   1      32.878  28.870  27.175  1.00  0.00     0.041 A 
ATOM     91  C   UNL A   1      34.168  28.342  27.085  1.00  0.00     0.014 A 
ATOM     92  C   UNL A   1      32.668  30.234  27.392  1.00  0.00     0.034 A 
ATOM     93  C   UNL A   1      35.264  29.188  27.233  1.00  0.00     0.002 A 
ATOM     94  C   UNL A   1      33.768  31.072  27.521  1.00  0.00     0.041 A 
ATOM     95  C   UNL A   1      35.063  30.555  27.444  1.00  0.00     0.020 A 
ATOM     96  Cl  UNL A   1      33.532  32.760  27.755  1.00  0.00    -0.084 Cl
ENDBRANCH  88  90
ENDBRANCH  85  88
ENDBRANCH  81  83
ENDBRANCH  80  81
ENDBRANCH  79  80
ENDBRANCH  78  79
ENDBRANCH  77  78
ENDBRANCH  76  77
ENDBRANCH  75  76
ENDBRANCH   1  75
TORSDOF 22
ENDMDL
MODEL 3
REMARK VINA RESULT:     -10.2      1.655      2.946
REMARK SMILES O=C(OCCOCCOCCOCCOC(=O)[C@@H]1CSCN1C(=O)c1cccc(Cl)c1)c1ccc(-c2c3nc(c(-c4c(F)c(F)c(F)c(F)c4F)c4ccc([nH]4)c(-c4c(F)c(F)c(F)c(F)c4F)c4nc(c(-c5c(F)c(F)c(F)c(F)c5F)c5ccc2[nH]5)C=C4)C=C3)cc1
REMARK SMILES IDX 9 1 8 2 7 3 6 4 5 5 4 6 3 7 2 8 1 9 32 10 33 11 94 12 34 13
REMARK SMILES IDX 93 14 35 15 36 16 37 17 87 18 38 19 92 20 86 21 88 22 39 23
REMARK SMILES IDX 91 24 85 25 84 26 40 28 72 29 52 30 71 31 53 32 56 33 70 34
REMARK SMILES IDX 89 35 54 36 55 37 69 39 90 40 57 41 41 42 42 43 50 44 43 45
REMARK SMILES IDX 44 46 48 47 51 48 45 49 46 50 49 51 47 52 73 53 74 54 82 55
REMARK SMILES IDX 75 56 76 57 80 58 83 59 77 60 78 61 81 62 79 63 58 64 59 65
REMARK SMILES IDX 67 66 60 67 61 68 65 69 68 70 62 71 63 72 66 73 64 74 10 75
REMARK SMILES IDX 11 76 12 77 13 78 14 79 15 80 16 81 17 82 18 83 19 84 22 85
REMARK SMILES IDX 20 86 21 87 23 88 24 89 25 90 26 91 31 92 27 93 29 94 28 95
REMARK SMILES IDX 30 96
REMARK H PARENT 88 27 56 38
REMARK Flexibility Score: inf
ROOT
ATOM      1  O   UNL A   1      34.586  20.626  25.048  1.00  0.00    -0.377 OA
ENDROOT
BRANCH   1   2
ATOM      2  C   UNL A   1      35.530  21.662  24.804  1.00  0.00     0.188 C 
BRANCH   2   3
ATOM      3  C   UNL A   1      36.796  21.560  25.648  1.00  0.00     0.188 C 
BRANCH   3   4
ATOM      4  O   UNL A   1      37.833  20.980  24.876  1.00  0.00    -0.376 OA
BRANCH   4   5
ATOM      5  C   UNL A   1      38.155  19.601  24.999  1.00  0.00     0.202 C 
BRANCH   5   6
ATOM      6  C   UNL A   1      39.509  19.286  25.617  1.00  0.00     0.261 C 
BRANCH   6   7
ATOM      7  O   UNL A   1      39.749  20.108  26.769  1.00  0.00    -0.460 OA
BRANCH   7   8
ATOM      8  C   UNL A   1      41.037  20.357  27.120  1.00  0.00     0.338 C 
ATOM      9  O   UNL A   1      42.003  19.648  26.955  1.00  0.00    -0.246 OA
BRANCH   8  10
ATOM     10  C   UNL A   1      41.043  21.756  27.581  1.00  0.00     0.060 A 
ATOM     11  C   UNL A   1      40.212  22.698  26.970  1.00  0.00     0.016 A 
ATOM     12  C   UNL A   1      42.020  22.157  28.481  1.00  0.00     0.016 A 
ATOM     13  C   UNL A   1      40.474  24.038  27.072  1.00  0.00     0.010 A 
ATOM     14  C   UNL A   1      42.210  23.519  28.688  1.00  0.00     0.010 A 
ATOM     15  C   UNL A   1      41.474  24.453  27.934  1.00  0.00    -0.014 A 
BRANCH  15  16
ATOM     16  C   UNL A   1      41.840  25.869  27.901  1.00  0.00     0.031 A 
ATOM     17  C   UNL A   1      43.099  26.234  27.195  1.00  0.00     0.074 A 
ATOM     18  C   UNL A   1      40.998  26.785  28.404  1.00  0.00     0.049 A 
ATOM     19  N   UNL A   1      43.791  27.334  27.255  1.00  0.00    -0.248 NA
ATOM     20  C   UNL A   1      43.670  25.203  26.309  1.00  0.00     0.031 C 
ATOM     21  C   UNL A   1      39.658  26.508  28.934  1.00  0.00     0.029 A 
ATOM     22  N   UNL A   1      41.141  28.135  28.548  1.00  0.00    -0.354 N 
ATOM     23  C   UNL A   1      44.924  27.095  26.493  1.00  0.00     0.074 A 
ATOM     24  C   UNL A   1      44.818  25.757  25.958  1.00  0.00     0.031 C 
ATOM     25  C   UNL A   1      39.104  27.655  29.349  1.00  0.00     0.029 A 
ATOM     26  C   UNL A   1      40.099  28.710  29.231  1.00  0.00     0.049 A 
ATOM     27  H   UNL A   1      41.910  28.641  28.199  1.00  0.00     0.167 HD
ATOM     28  C   UNL A   1      45.969  27.933  26.306  1.00  0.00     0.037 A 
ATOM     29  C   UNL A   1      40.017  29.932  29.784  1.00  0.00     0.037 A 
ATOM     30  C   UNL A   1      45.985  29.259  26.859  1.00  0.00     0.049 A 
ATOM     31  C   UNL A   1      41.216  30.826  29.638  1.00  0.00     0.074 A 
ATOM     32  C   UNL A   1      46.978  30.215  26.807  1.00  0.00     0.029 A 
ATOM     33  N   UNL A   1      44.924  29.813  27.575  1.00  0.00    -0.354 N 
ATOM     34  N   UNL A   1      42.353  30.583  29.026  1.00  0.00    -0.248 NA
ATOM     35  C   UNL A   1      41.140  32.144  30.271  1.00  0.00     0.031 C 
ATOM     36  C   UNL A   1      46.537  31.326  27.538  1.00  0.00     0.029 A 
ATOM     37  C   UNL A   1      45.244  31.090  27.987  1.00  0.00     0.049 A 
ATOM     38  H   UNL A   1      44.071  29.358  27.758  1.00  0.00     0.167 HD
ATOM     39  C   UNL A   1      43.125  31.721  29.179  1.00  0.00     0.074 A 
ATOM     40  C   UNL A   1      42.319  32.659  29.944  1.00  0.00     0.031 C 
ATOM     41  C   UNL A   1      44.381  31.978  28.733  1.00  0.00     0.037 A 
BRANCH  28  42
ATOM     42  C   UNL A   1      47.170  27.376  25.599  1.00  0.00     0.064 A 
ATOM     43  C   UNL A   1      48.197  26.697  26.273  1.00  0.00     0.173 A 
ATOM     44  C   UNL A   1      47.343  27.620  24.227  1.00  0.00     0.173 A 
ATOM     45  F   UNL A   1      48.101  26.464  27.591  1.00  0.00    -0.203 F 
ATOM     46  C   UNL A   1      49.371  26.334  25.614  1.00  0.00     0.198 A 
ATOM     47  C   UNL A   1      48.501  27.224  23.565  1.00  0.00     0.198 A 
ATOM     48  F   UNL A   1      46.400  28.273  23.532  1.00  0.00    -0.203 F 
ATOM     49  F   UNL A   1      50.376  25.772  26.301  1.00  0.00    -0.200 F 
ATOM     50  C   UNL A   1      49.522  26.598  24.262  1.00  0.00     0.200 A 
ATOM     51  F   UNL A   1      48.643  27.479  22.256  1.00  0.00    -0.200 F 
ATOM     52  F   UNL A   1      50.662  26.271  23.635  1.00  0.00    -0.200 F 
ENDBRANCH  28  42
BRANCH  29  53
ATOM     53  C   UNL A   1      38.815  30.299  30.574  1.00  0.00     0.064 A 
ATOM     54  C   UNL A   1      38.818  30.238  31.973  1.00  0.00     0.173 A 
ATOM     55  C   UNL A   1      37.656  30.794  29.948  1.00  0.00     0.173 A 
ATOM     56  F   UNL A   1      39.893  29.765  32.618  1.00  0.00    -0.203 F 
ATOM     57  C   UNL A   1      37.713  30.657  32.714  1.00  0.00     0.198 A 
ATOM     58  C   UNL A   1      36.565  31.241  30.691  1.00  0.00     0.198 A 
ATOM     59  F   UNL A   1      37.601  30.884  28.611  1.00  0.00    -0.203 F 
ATOM     60  F   UNL A   1      37.735  30.569  34.051  1.00  0.00    -0.200 F 
ATOM     61  C   UNL A   1      36.594  31.168  32.074  1.00  0.00     0.200 A 
ATOM     62  F   UNL A   1      35.497  31.756  30.067  1.00  0.00    -0.200 F 
ATOM     63  F   UNL A   1      35.542  31.592  32.790  1.00  0.00    -0.200 F 
ENDBRANCH  29  53
BRANCH  41  64
ATOM     64  C   UNL A   1      44.928  33.342  29.010  1.00  0.00     0.064 A 
ATOM     65  C   UNL A   1      44.682  34.421  28.152  1.00  0.00     0.173 A 
ATOM     66  C   UNL A   1      45.613  33.585  30.210  1.00  0.00     0.173 A 
ATOM     67  F   UNL A   1      44.044  34.227  26.987  1.00  0.00    -0.203 F 
ATOM     68  C   UNL A   1      45.106  35.702  28.486  1.00  0.00     0.198 A 
ATOM     69  C   UNL A   1      46.008  34.870  30.555  1.00  0.00     0.198 A 
ATOM     70  F   UNL A   1      45.862  32.578  31.061  1.00  0.00    -0.203 F 
ATOM     71  F   UNL A   1      44.883  36.720  27.645  1.00  0.00    -0.200 F 
ATOM     72  C   UNL A   1      45.754  35.927  29.693  1.00  0.00     0.200 A 
ATOM     73  F   UNL A   1      46.616  35.090  31.728  1.00  0.00    -0.200 F 
ATOM     74  F   UNL A   1      46.135  37.168  30.028  1.00  0.00    -0.200 F 
ENDBRANCH  41  64
ENDBRANCH  15  16
ENDBRANCH   8  10
ENDBRANCH   7   8
ENDBRANCH   6   7
ENDBRANCH   5   6
ENDBRANCH   4   5
ENDBRANCH   3   4
ENDBRANCH   2   3
ENDBRANCH   1   2
BRANCH   1  75
ATOM     75  C   UNL A   1      33.445  20.978  25.822  1.00  0.00     0.188 C 
BRANCH  75  76
ATOM     76  C   UNL A   1      33.613  21.707  27.162  1.00  0.00     0.188 C 
BRANCH  76  77
ATOM     77  O   UNL A   1      32.986  22.976  27.225  1.00  0.00    -0.376 OA
BRANCH  77  78
ATOM     78  C   UNL A   1      31.765  23.064  26.496  1.00  0.00     0.202 C 
BRANCH  78  79
ATOM     79  C   UNL A   1      31.240  24.485  26.195  1.00  0.00     0.261 C 
BRANCH  79  80
ATOM     80  O   UNL A   1      32.175  25.591  26.191  1.00  0.00    -0.462 OA
BRANCH  80  81
ATOM     81  C   UNL A   1      32.647  26.013  24.996  1.00  0.00     0.329 C 
ATOM     82  O   UNL A   1      32.608  25.312  23.987  1.00  0.00    -0.250 OA
BRANCH  81  83
ATOM     83  C   UNL A   1      33.294  27.430  25.044  1.00  0.00     0.206 C 
ATOM     84  C   UNL A   1      34.015  27.888  26.315  1.00  0.00     0.108 C 
ATOM     85  N   UNL A   1      32.227  28.406  24.774  1.00  0.00    -0.315 N 
ATOM     86  S   UNL A   1      32.959  29.156  27.123  1.00  0.00    -0.138 SA
ATOM     87  C   UNL A   1      31.594  28.926  25.965  1.00  0.00     0.191 C 
BRANCH  85  88
ATOM     88  C   UNL A   1      31.842  28.595  23.466  1.00  0.00     0.255 C 
ATOM     89  O   UNL A   1      32.641  28.666  22.537  1.00  0.00    -0.269 OA
BRANCH  88  90
ATOM     90  C   UNL A   1      30.412  28.661  23.138  1.00  0.00     0.041 A 
ATOM     91  C   UNL A   1      29.526  27.678  23.583  1.00  0.00     0.014 A 
ATOM     92  C   UNL A   1      29.955  29.797  22.464  1.00  0.00     0.034 A 
ATOM     93  C   UNL A   1      28.163  27.823  23.335  1.00  0.00     0.002 A 
ATOM     94  C   UNL A   1      28.591  29.941  22.237  1.00  0.00     0.041 A 
ATOM     95  C   UNL A   1      27.696  28.960  22.668  1.00  0.00     0.020 A 
ATOM     96  Cl  UNL A   1      28.003  31.347  21.441  1.00  0.00    -0.084 Cl
ENDBRANCH  88  90
ENDBRANCH  85  88
ENDBRANCH  81  83
ENDBRANCH  80  81
ENDBRANCH  79  80
ENDBRANCH  78  79
ENDBRANCH  77  78
ENDBRANCH  76  77
ENDBRANCH  75  76
ENDBRANCH   1  75
TORSDOF 22
ENDMDL
