MODEL 1
REMARK VINA RESULT:     -10.6      0.000      0.000
REMARK SMILES Cc1cc2cc(-c3ccc([C@@H](C)C(=O)OCCOCCOCCOCCOC(=O)c4ccc(-c5c6nc(c(-c7c(F)c(F)c(F)c(F)c7F)c7ccc([nH]7)c(-c7c(F)c(F)c(F)c(F)c7F)c7nc(c(-c8c(F)c(F)c(F)c(F)c8F)c8ccc5[nH]8)C=C7)C=C6)cc4)cc3)ccc2[nH]1
REMARK SMILES IDX 21 1 20 2 19 3 18 4 17 5 16 6 15 7 13 8 14 9 11 10 12 11
REMARK SMILES IDX 10 12 7 13 8 14 94 15 9 16 93 17 6 18 1 19 2 20 3 21 98 22
REMARK SMILES IDX 4 23 97 24 5 26 96 27 95 28 22 29 23 30 24 31 25 32 26 33
REMARK SMILES IDX 27 34 28 35 29 36 30 37 31 38 92 39 32 40 91 41 33 42 34 43
REMARK SMILES IDX 35 44 85 45 36 46 90 47 84 48 86 49 37 50 89 51 83 52 82 53
REMARK SMILES IDX 38 55 70 56 50 57 69 58 51 59 54 60 68 61 87 62 52 63 53 64
REMARK SMILES IDX 67 66 88 67 55 68 39 69 40 70 48 71 41 72 42 73 46 74 49 75
REMARK SMILES IDX 43 76 44 77 47 78 45 79 71 80 72 81 80 82 73 83 74 84 78 85
REMARK SMILES IDX 81 86 75 87 76 88 79 89 77 90 56 91 57 92 65 93 58 94 59 95
REMARK SMILES IDX 63 96 66 97 60 98 61 99 64 100 62 101
REMARK H PARENT 98 25 86 54 54 65
REMARK Flexibility Score: inf
ROOT
ATOM      1  O   UNL A   1      32.787  26.659  26.079  1.00  0.00    -0.377 OA
ENDROOT
BRANCH   1   2
ATOM      2  C   UNL A   1      33.730  26.413  25.056  1.00  0.00     0.188 C 
BRANCH   2   3
ATOM      3  C   UNL A   1      33.828  27.509  23.986  1.00  0.00     0.188 C 
BRANCH   3   4
ATOM      4  O   UNL A   1      33.623  27.205  22.614  1.00  0.00    -0.376 OA
BRANCH   4   5
ATOM      5  C   UNL A   1      32.379  26.692  22.160  1.00  0.00     0.202 C 
BRANCH   5   6
ATOM      6  C   UNL A   1      32.135  25.178  22.005  1.00  0.00     0.261 C 
BRANCH   6   7
ATOM      7  O   UNL A   1      31.219  24.558  22.932  1.00  0.00    -0.463 OA
BRANCH   7   8
ATOM      8  C   UNL A   1      31.720  23.557  23.692  1.00  0.00     0.313 C 
ATOM      9  O   UNL A   1      31.378  23.361  24.858  1.00  0.00    -0.252 OA
BRANCH   8  10
ATOM     10  C   UNL A   1      32.782  22.676  23.034  1.00  0.00     0.126 C 
ATOM     11  C   UNL A   1      32.119  21.375  22.597  1.00  0.00     0.025 C 
BRANCH  10  12
ATOM     12  C   UNL A   1      34.127  22.405  23.711  1.00  0.00    -0.034 A 
ATOM     13  C   UNL A   1      36.696  21.986  24.909  1.00  0.00    -0.018 A 
ATOM     14  C   UNL A   1      35.598  21.157  25.202  1.00  0.00     0.009 A 
ATOM     15  C   UNL A   1      36.484  23.042  24.017  1.00  0.00     0.009 A 
ATOM     16  C   UNL A   1      34.337  21.355  24.611  1.00  0.00     0.005 A 
ATOM     17  C   UNL A   1      35.228  23.239  23.419  1.00  0.00     0.005 A 
BRANCH  13  18
ATOM     18  C   UNL A   1      38.036  21.690  25.455  1.00  0.00    -0.018 A 
ATOM     19  C   UNL A   1      42.986  18.284  26.699  1.00  0.00     0.064 C 
ATOM     20  C   UNL A   1      41.822  19.161  26.425  1.00  0.00     0.013 A 
ATOM     21  C   UNL A   1      40.646  18.899  25.753  1.00  0.00     0.031 A 
ATOM     22  N   UNL A   1      41.766  20.469  26.847  1.00  0.00    -0.359 N 
ATOM     23  C   UNL A   1      39.854  20.077  25.778  1.00  0.00     0.000 A 
ATOM     24  C   UNL A   1      40.575  21.050  26.464  1.00  0.00     0.046 A 
ATOM     25  H   UNL A   1      42.477  20.926  27.352  1.00  0.00     0.166 HD
ATOM     26  C   UNL A   1      38.581  20.404  25.271  1.00  0.00     0.019 A 
ATOM     27  C   UNL A   1      40.078  22.344  26.662  1.00  0.00     0.027 A 
ATOM     28  C   UNL A   1      38.803  22.643  26.144  1.00  0.00     0.011 A 
ENDBRANCH  13  18
ENDBRANCH  10  12
ENDBRANCH   8  10
ENDBRANCH   7   8
ENDBRANCH   6   7
ENDBRANCH   5   6
ENDBRANCH   4   5
ENDBRANCH   3   4
ENDBRANCH   2   3
ENDBRANCH   1   2
BRANCH   1  29
ATOM     29  C   UNL A   1      32.950  27.855  26.822  1.00  0.00     0.188 C 
BRANCH  29  30
ATOM     30  C   UNL A   1      31.834  28.909  26.718  1.00  0.00     0.188 C 
BRANCH  30  31
ATOM     31  O   UNL A   1      32.196  30.185  27.228  1.00  0.00    -0.376 OA
BRANCH  31  32
ATOM     32  C   UNL A   1      31.765  31.351  26.541  1.00  0.00     0.202 C 
BRANCH  32  33
ATOM     33  C   UNL A   1      31.850  32.709  27.261  1.00  0.00     0.261 C 
BRANCH  33  34
ATOM     34  O   UNL A   1      33.160  33.211  27.567  1.00  0.00    -0.460 OA
BRANCH  34  35
ATOM     35  C   UNL A   1      33.273  34.244  28.425  1.00  0.00     0.338 C 
ATOM     36  O   UNL A   1      32.501  35.179  28.561  1.00  0.00    -0.246 OA
BRANCH  35  37
ATOM     37  C   UNL A   1      34.407  33.954  29.331  1.00  0.00     0.060 A 
ATOM     38  C   UNL A   1      35.700  34.339  28.952  1.00  0.00     0.016 A 
ATOM     39  C   UNL A   1      34.193  33.314  30.554  1.00  0.00     0.016 A 
ATOM     40  C   UNL A   1      36.790  34.052  29.777  1.00  0.00     0.010 A 
ATOM     41  C   UNL A   1      35.288  32.999  31.366  1.00  0.00     0.010 A 
ATOM     42  C   UNL A   1      36.594  33.336  30.965  1.00  0.00    -0.014 A 
BRANCH  42  43
ATOM     43  C   UNL A   1      37.754  32.745  31.677  1.00  0.00     0.031 A 
ATOM     44  C   UNL A   1      38.435  31.558  31.051  1.00  0.00     0.074 A 
ATOM     45  C   UNL A   1      38.200  33.240  32.844  1.00  0.00     0.049 A 
ATOM     46  N   UNL A   1      39.390  30.797  31.522  1.00  0.00    -0.248 NA
ATOM     47  C   UNL A   1      37.967  31.176  29.708  1.00  0.00     0.031 C 
ATOM     48  C   UNL A   1      37.668  34.419  33.521  1.00  0.00     0.029 A 
ATOM     49  N   UNL A   1      39.199  32.795  33.675  1.00  0.00    -0.354 N 
ATOM     50  C   UNL A   1      39.629  29.845  30.538  1.00  0.00     0.074 A 
ATOM     51  C   UNL A   1      38.700  30.102  29.461  1.00  0.00     0.031 C 
ATOM     52  C   UNL A   1      38.332  34.592  34.678  1.00  0.00     0.029 A 
ATOM     53  C   UNL A   1      39.305  33.513  34.842  1.00  0.00     0.049 A 
ATOM     54  H   UNL A   1      39.784  32.034  33.455  1.00  0.00     0.167 HD
ATOM     55  C   UNL A   1      40.548  28.850  30.532  1.00  0.00     0.037 A 
ATOM     56  C   UNL A   1      40.076  33.296  35.926  1.00  0.00     0.037 A 
ATOM     57  C   UNL A   1      41.463  28.591  31.612  1.00  0.00     0.049 A 
ATOM     58  C   UNL A   1      41.017  32.114  35.941  1.00  0.00     0.074 A 
ATOM     59  C   UNL A   1      42.429  27.606  31.707  1.00  0.00     0.029 A 
ATOM     60  N   UNL A   1      41.516  29.319  32.791  1.00  0.00    -0.354 N 
ATOM     61  N   UNL A   1      41.248  31.224  35.007  1.00  0.00    -0.248 NA
ATOM     62  C   UNL A   1      41.804  31.908  37.167  1.00  0.00     0.031 C 
ATOM     63  C   UNL A   1      43.026  27.700  32.967  1.00  0.00     0.029 A 
ATOM     64  C   UNL A   1      42.482  28.788  33.630  1.00  0.00     0.049 A 
ATOM     65  H   UNL A   1      40.952  30.099  33.001  1.00  0.00     0.167 HD
ATOM     66  C   UNL A   1      42.233  30.382  35.513  1.00  0.00     0.074 A 
ATOM     67  C   UNL A   1      42.561  30.872  36.835  1.00  0.00     0.031 C 
ATOM     68  C   UNL A   1      42.815  29.302  34.934  1.00  0.00     0.037 A 
BRANCH  55  69
ATOM     69  C   UNL A   1      40.585  27.949  29.332  1.00  0.00     0.064 A 
ATOM     70  C   UNL A   1      39.722  26.850  29.206  1.00  0.00     0.173 A 
ATOM     71  C   UNL A   1      41.479  28.204  28.280  1.00  0.00     0.173 A 
ATOM     72  F   UNL A   1      38.860  26.552  30.190  1.00  0.00    -0.203 F 
ATOM     73  C   UNL A   1      39.771  26.025  28.085  1.00  0.00     0.198 A 
ATOM     74  C   UNL A   1      41.501  27.397  27.146  1.00  0.00     0.198 A 
ATOM     75  F   UNL A   1      42.325  29.242  28.347  1.00  0.00    -0.203 F 
ATOM     76  F   UNL A   1      38.974  24.950  28.011  1.00  0.00    -0.200 F 
ATOM     77  C   UNL A   1      40.655  26.303  27.054  1.00  0.00     0.200 A 
ATOM     78  F   UNL A   1      42.346  27.676  26.144  1.00  0.00    -0.200 F 
ATOM     79  F   UNL A   1      40.695  25.512  25.973  1.00  0.00    -0.200 F 
ENDBRANCH  55  69
BRANCH  56  80
ATOM     80  C   UNL A   1      39.982  34.197  37.108  1.00  0.00     0.064 A 
ATOM     81  C   UNL A   1      39.122  33.903  38.175  1.00  0.00     0.173 A 
ATOM     82  C   UNL A   1      40.713  35.392  37.175  1.00  0.00     0.173 A 
ATOM     83  F   UNL A   1      38.378  32.786  38.148  1.00  0.00    -0.203 F 
ATOM     84  C   UNL A   1      38.975  34.781  39.247  1.00  0.00     0.198 A 
ATOM     85  C   UNL A   1      40.592  36.254  38.264  1.00  0.00     0.198 A 
ATOM     86  F   UNL A   1      41.547  35.728  36.179  1.00  0.00    -0.203 F 
ATOM     87  F   UNL A   1      38.097  34.503  40.223  1.00  0.00    -0.200 F 
ATOM     88  C   UNL A   1      39.714  35.953  39.293  1.00  0.00     0.200 A 
ATOM     89  F   UNL A   1      41.316  37.379  38.310  1.00  0.00    -0.200 F 
ATOM     90  F   UNL A   1      39.570  36.799  40.323  1.00  0.00    -0.200 F 
ENDBRANCH  56  80
BRANCH  68  91
ATOM     91  C   UNL A   1      43.912  28.608  35.692  1.00  0.00     0.064 A 
ATOM     92  C   UNL A   1      45.261  28.952  35.530  1.00  0.00     0.173 A 
ATOM     93  C   UNL A   1      43.597  27.624  36.644  1.00  0.00     0.173 A 
ATOM     94  F   UNL A   1      45.620  29.876  34.626  1.00  0.00    -0.203 F 
ATOM     95  C   UNL A   1      46.256  28.321  36.275  1.00  0.00     0.198 A 
ATOM     96  C   UNL A   1      44.589  27.022  37.411  1.00  0.00     0.198 A 
ATOM     97  F   UNL A   1      42.320  27.264  36.846  1.00  0.00    -0.203 F 
ATOM     98  F   UNL A   1      47.543  28.633  36.070  1.00  0.00    -0.200 F 
ATOM     99  C   UNL A   1      45.918  27.365  37.221  1.00  0.00     0.200 A 
ATOM    100  F   UNL A   1      44.258  26.112  38.339  1.00  0.00    -0.200 F 
ATOM    101  F   UNL A   1      46.875  26.771  37.948  1.00  0.00    -0.200 F 
ENDBRANCH  68  91
ENDBRANCH  42  43
ENDBRANCH  35  37
ENDBRANCH  34  35
ENDBRANCH  33  34
ENDBRANCH  32  33
ENDBRANCH  31  32
ENDBRANCH  30  31
ENDBRANCH  29  30
ENDBRANCH   1  29
TORSDOF 22
ENDMDL
MODEL 2
REMARK VINA RESULT:     -10.4      1.195      2.314
REMARK SMILES Cc1cc2cc(-c3ccc([C@@H](C)C(=O)OCCOCCOCCOCCOC(=O)c4ccc(-c5c6nc(c(-c7c(F)c(F)c(F)c(F)c7F)c7ccc([nH]7)c(-c7c(F)c(F)c(F)c(F)c7F)c7nc(c(-c8c(F)c(F)c(F)c(F)c8F)c8ccc5[nH]8)C=C7)C=C6)cc4)cc3)ccc2[nH]1
REMARK SMILES IDX 21 1 20 2 19 3 18 4 17 5 16 6 15 7 13 8 14 9 11 10 12 11
REMARK SMILES IDX 10 12 7 13 8 14 94 15 9 16 93 17 6 18 1 19 2 20 3 21 98 22
REMARK SMILES IDX 4 23 97 24 5 26 96 27 95 28 22 29 23 30 24 31 25 32 26 33
REMARK SMILES IDX 27 34 28 35 29 36 30 37 31 38 92 39 32 40 91 41 33 42 34 43
REMARK SMILES IDX 35 44 85 45 36 46 90 47 84 48 86 49 37 50 89 51 83 52 82 53
REMARK SMILES IDX 38 55 70 56 50 57 69 58 51 59 54 60 68 61 87 62 52 63 53 64
REMARK SMILES IDX 67 66 88 67 55 68 39 69 40 70 48 71 41 72 42 73 46 74 49 75
REMARK SMILES IDX 43 76 44 77 47 78 45 79 71 80 72 81 80 82 73 83 74 84 78 85
REMARK SMILES IDX 81 86 75 87 76 88 79 89 77 90 56 91 57 92 65 93 58 94 59 95
REMARK SMILES IDX 63 96 66 97 60 98 61 99 64 100 62 101
REMARK H PARENT 98 25 86 54 54 65
REMARK Flexibility Score: inf
ROOT
ATOM      1  O   UNL A   1      32.628  26.910  25.523  1.00  0.00    -0.377 OA
ENDROOT
BRANCH   1   2
ATOM      2  C   UNL A   1      33.623  25.920  25.356  1.00  0.00     0.188 C 
BRANCH   2   3
ATOM      3  C   UNL A   1      34.015  25.633  23.900  1.00  0.00     0.188 C 
BRANCH   3   4
ATOM      4  O   UNL A   1      33.753  24.366  23.313  1.00  0.00    -0.376 OA
BRANCH   4   5
ATOM      5  C   UNL A   1      32.439  23.829  23.298  1.00  0.00     0.202 C 
BRANCH   5   6
ATOM      6  C   UNL A   1      32.131  22.424  23.853  1.00  0.00     0.261 C 
BRANCH   6   7
ATOM      7  O   UNL A   1      32.091  22.274  25.288  1.00  0.00    -0.463 OA
BRANCH   7   8
ATOM      8  C   UNL A   1      33.153  21.656  25.856  1.00  0.00     0.313 C 
ATOM      9  O   UNL A   1      33.329  21.604  27.072  1.00  0.00    -0.252 OA
BRANCH   8  10
ATOM     10  C   UNL A   1      34.168  21.037  24.894  1.00  0.00     0.126 C 
ATOM     11  C   UNL A   1      33.755  19.594  24.629  1.00  0.00     0.025 C 
BRANCH  10  12
ATOM     12  C   UNL A   1      35.673  21.139  25.148  1.00  0.00    -0.034 A 
ATOM     13  C   UNL A   1      38.502  21.210  25.600  1.00  0.00    -0.018 A 
ATOM     14  C   UNL A   1      37.684  22.327  25.851  1.00  0.00     0.009 A 
ATOM     15  C   UNL A   1      37.884  20.059  25.100  1.00  0.00     0.009 A 
ATOM     16  C   UNL A   1      36.294  22.294  25.637  1.00  0.00     0.005 A 
ATOM     17  C   UNL A   1      36.495  20.019  24.893  1.00  0.00     0.005 A 
BRANCH  13  18
ATOM     18  C   UNL A   1      39.940  21.233  25.937  1.00  0.00    -0.018 A 
ATOM     19  C   UNL A   1      45.462  23.733  26.890  1.00  0.00     0.064 C 
ATOM     20  C   UNL A   1      44.152  23.069  26.679  1.00  0.00     0.013 A 
ATOM     21  C   UNL A   1      42.929  23.600  26.331  1.00  0.00     0.031 A 
ATOM     22  N   UNL A   1      43.981  21.712  26.821  1.00  0.00    -0.359 N 
ATOM     23  C   UNL A   1      41.994  22.535  26.250  1.00  0.00     0.000 A 
ATOM     24  C   UNL A   1      42.672  21.361  26.565  1.00  0.00     0.046 A 
ATOM     25  H   UNL A   1      44.693  21.079  27.071  1.00  0.00     0.166 HD
ATOM     26  C   UNL A   1      40.622  22.465  25.937  1.00  0.00     0.019 A 
ATOM     27  C   UNL A   1      42.033  20.115  26.587  1.00  0.00     0.027 A 
ATOM     28  C   UNL A   1      40.661  20.076  26.271  1.00  0.00     0.011 A 
ENDBRANCH  13  18
ENDBRANCH  10  12
ENDBRANCH   8  10
ENDBRANCH   7   8
ENDBRANCH   6   7
ENDBRANCH   5   6
ENDBRANCH   4   5
ENDBRANCH   3   4
ENDBRANCH   2   3
ENDBRANCH   1   2
BRANCH   1  29
ATOM     29  C   UNL A   1      33.079  28.242  25.702  1.00  0.00     0.188 C 
BRANCH  29  30
ATOM     30  C   UNL A   1      32.086  29.373  25.380  1.00  0.00     0.188 C 
BRANCH  30  31
ATOM     31  O   UNL A   1      31.844  30.256  26.467  1.00  0.00    -0.376 OA
BRANCH  31  32
ATOM     32  C   UNL A   1      31.459  31.595  26.195  1.00  0.00     0.202 C 
BRANCH  32  33
ATOM     33  C   UNL A   1      31.665  32.661  27.287  1.00  0.00     0.261 C 
BRANCH  33  34
ATOM     34  O   UNL A   1      33.000  33.154  27.483  1.00  0.00    -0.460 OA
BRANCH  34  35
ATOM     35  C   UNL A   1      33.187  34.209  28.300  1.00  0.00     0.338 C 
ATOM     36  O   UNL A   1      32.448  35.169  28.448  1.00  0.00    -0.246 OA
BRANCH  35  37
ATOM     37  C   UNL A   1      34.360  33.915  29.153  1.00  0.00     0.060 A 
ATOM     38  C   UNL A   1      35.638  34.279  28.707  1.00  0.00     0.016 A 
ATOM     39  C   UNL A   1      34.199  33.290  30.392  1.00  0.00     0.016 A 
ATOM     40  C   UNL A   1      36.763  33.987  29.481  1.00  0.00     0.010 A 
ATOM     41  C   UNL A   1      35.328  32.970  31.153  1.00  0.00     0.010 A 
ATOM     42  C   UNL A   1      36.617  33.287  30.685  1.00  0.00    -0.014 A 
BRANCH  42  43
ATOM     43  C   UNL A   1      37.804  32.689  31.346  1.00  0.00     0.031 A 
ATOM     44  C   UNL A   1      38.488  31.539  30.659  1.00  0.00     0.074 A 
ATOM     45  C   UNL A   1      38.270  33.147  32.521  1.00  0.00     0.049 A 
ATOM     46  N   UNL A   1      39.467  30.777  31.077  1.00  0.00    -0.248 NA
ATOM     47  C   UNL A   1      37.995  31.201  29.314  1.00  0.00     0.031 C 
ATOM     48  C   UNL A   1      37.735  34.290  33.255  1.00  0.00     0.029 A 
ATOM     49  N   UNL A   1      39.295  32.687  33.310  1.00  0.00    -0.354 N 
ATOM     50  C   UNL A   1      39.697  29.867  30.052  1.00  0.00     0.074 A 
ATOM     51  C   UNL A   1      38.738  30.149  29.008  1.00  0.00     0.031 C 
ATOM     52  C   UNL A   1      38.424  34.430  34.402  1.00  0.00     0.029 A 
ATOM     53  C   UNL A   1      39.418  33.362  34.501  1.00  0.00     0.049 A 
ATOM     54  H   UNL A   1      39.887  31.946  33.047  1.00  0.00     0.167 HD
ATOM     55  C   UNL A   1      40.632  28.890  29.986  1.00  0.00     0.037 A 
ATOM     56  C   UNL A   1      40.219  33.117  35.557  1.00  0.00     0.037 A 
ATOM     57  C   UNL A   1      41.577  28.605  31.033  1.00  0.00     0.049 A 
ATOM     58  C   UNL A   1      41.179  31.952  35.504  1.00  0.00     0.074 A 
ATOM     59  C   UNL A   1      42.561  27.634  31.067  1.00  0.00     0.029 A 
ATOM     60  N   UNL A   1      41.647  29.289  32.238  1.00  0.00    -0.354 N 
ATOM     61  N   UNL A   1      41.402  31.103  34.532  1.00  0.00    -0.248 NA
ATOM     62  C   UNL A   1      41.999  31.713  36.702  1.00  0.00     0.031 C 
ATOM     63  C   UNL A   1      43.188  27.690  32.316  1.00  0.00     0.029 A 
ATOM     64  C   UNL A   1      42.642  28.743  33.032  1.00  0.00     0.049 A 
ATOM     65  H   UNL A   1      41.076  30.050  32.491  1.00  0.00     0.167 HD
ATOM     66  C   UNL A   1      42.413  30.259  34.981  1.00  0.00     0.074 A 
ATOM     67  C   UNL A   1      42.764  30.703  36.313  1.00  0.00     0.031 C 
ATOM     68  C   UNL A   1      42.998  29.212  34.347  1.00  0.00     0.037 A 
BRANCH  55  69
ATOM     69  C   UNL A   1      40.655  28.036  28.751  1.00  0.00     0.064 A 
ATOM     70  C   UNL A   1      39.917  26.847  28.662  1.00  0.00     0.173 A 
ATOM     71  C   UNL A   1      41.406  28.428  27.631  1.00  0.00     0.173 A 
ATOM     72  F   UNL A   1      39.196  26.419  29.709  1.00  0.00    -0.203 F 
ATOM     73  C   UNL A   1      39.951  26.067  27.508  1.00  0.00     0.198 A 
ATOM     74  C   UNL A   1      41.409  27.663  26.468  1.00  0.00     0.198 A 
ATOM     75  F   UNL A   1      42.128  29.557  27.661  1.00  0.00    -0.203 F 
ATOM     76  F   UNL A   1      39.280  24.907  27.465  1.00  0.00    -0.200 F 
ATOM     77  C   UNL A   1      40.690  26.480  26.410  1.00  0.00     0.200 A 
ATOM     78  F   UNL A   1      42.113  28.071  25.403  1.00  0.00    -0.200 F 
ATOM     79  F   UNL A   1      40.715  25.732  25.299  1.00  0.00    -0.200 F 
ENDBRANCH  55  69
BRANCH  56  80
ATOM     80  C   UNL A   1      40.138  33.970  36.775  1.00  0.00     0.064 A 
ATOM     81  C   UNL A   1      40.990  35.070  36.946  1.00  0.00     0.173 A 
ATOM     82  C   UNL A   1      39.242  33.677  37.813  1.00  0.00     0.173 A 
ATOM     83  F   UNL A   1      41.887  35.377  35.996  1.00  0.00    -0.203 F 
ATOM     84  C   UNL A   1      40.969  35.825  38.117  1.00  0.00     0.198 A 
ATOM     85  C   UNL A   1      39.196  34.454  38.970  1.00  0.00     0.198 A 
ATOM     86  F   UNL A   1      38.406  32.633  37.707  1.00  0.00    -0.203 F 
ATOM     87  F   UNL A   1      41.839  36.833  38.279  1.00  0.00    -0.200 F 
ATOM     88  C   UNL A   1      40.068  35.520  39.126  1.00  0.00     0.200 A 
ATOM     89  F   UNL A   1      38.317  34.162  39.937  1.00  0.00    -0.200 F 
ATOM     90  F   UNL A   1      40.051  36.244  40.253  1.00  0.00    -0.200 F 
ENDBRANCH  56  80
BRANCH  68  91
ATOM     91  C   UNL A   1      44.125  28.509  35.052  1.00  0.00     0.064 A 
ATOM     92  C   UNL A   1      43.915  27.362  35.830  1.00  0.00     0.173 A 
ATOM     93  C   UNL A   1      45.445  28.959  34.891  1.00  0.00     0.173 A 
ATOM     94  F   UNL A   1      42.672  26.897  36.027  1.00  0.00    -0.203 F 
ATOM     95  C   UNL A   1      44.982  26.705  36.439  1.00  0.00     0.198 A 
ATOM     96  C   UNL A   1      46.512  28.279  35.471  1.00  0.00     0.198 A 
ATOM     97  F   UNL A   1      45.704  30.046  34.149  1.00  0.00    -0.203 F 
ATOM     98  F   UNL A   1      44.752  25.638  37.217  1.00  0.00    -0.200 F 
ATOM     99  C   UNL A   1      46.279  27.158  36.251  1.00  0.00     0.200 A 
ATOM    100  F   UNL A   1      47.767  28.708  35.272  1.00  0.00    -0.200 F 
ATOM    101  F   UNL A   1      47.305  26.515  36.825  1.00  0.00    -0.200 F 
ENDBRANCH  68  91
ENDBRANCH  42  43
ENDBRANCH  35  37
ENDBRANCH  34  35
ENDBRANCH  33  34
ENDBRANCH  32  33
ENDBRANCH  31  32
ENDBRANCH  30  31
ENDBRANCH  29  30
ENDBRANCH   1  29
TORSDOF 22
ENDMDL
MODEL 3
REMARK VINA RESULT:      -9.9      5.418      9.157
REMARK SMILES Cc1cc2cc(-c3ccc([C@@H](C)C(=O)OCCOCCOCCOCCOC(=O)c4ccc(-c5c6nc(c(-c7c(F)c(F)c(F)c(F)c7F)c7ccc([nH]7)c(-c7c(F)c(F)c(F)c(F)c7F)c7nc(c(-c8c(F)c(F)c(F)c(F)c8F)c8ccc5[nH]8)C=C7)C=C6)cc4)cc3)ccc2[nH]1
REMARK SMILES IDX 21 1 20 2 19 3 18 4 17 5 16 6 15 7 13 8 14 9 11 10 12 11
REMARK SMILES IDX 10 12 7 13 8 14 94 15 9 16 93 17 6 18 1 19 2 20 3 21 98 22
REMARK SMILES IDX 4 23 97 24 5 26 96 27 95 28 22 29 23 30 24 31 25 32 26 33
REMARK SMILES IDX 27 34 28 35 29 36 30 37 31 38 92 39 32 40 91 41 33 42 34 43
REMARK SMILES IDX 35 44 85 45 36 46 90 47 84 48 86 49 37 50 89 51 83 52 82 53
REMARK SMILES IDX 38 55 70 56 50 57 69 58 51 59 54 60 68 61 87 62 52 63 53 64
REMARK SMILES IDX 67 66 88 67 55 68 39 69 40 70 48 71 41 72 42 73 46 74 49 75
REMARK SMILES IDX 43 76 44 77 47 78 45 79 71 80 72 81 80 82 73 83 74 84 78 85
REMARK SMILES IDX 81 86 75 87 76 88 79 89 77 90 56 91 57 92 65 93 58 94 59 95
REMARK SMILES IDX 63 96 66 97 60 98 61 99 64 100 62 101
REMARK H PARENT 98 25 86 54 54 65
REMARK Flexibility Score: inf
ROOT
ATOM      1  O   UNL A   1      35.267  34.685  30.262  1.00  0.00    -0.377 OA
ENDROOT
BRANCH   1   2
ATOM      2  C   UNL A   1      35.465  34.091  28.995  1.00  0.00     0.188 C 
BRANCH   2   3
ATOM      3  C   UNL A   1      34.188  33.585  28.310  1.00  0.00     0.188 C 
BRANCH   3   4
ATOM      4  O   UNL A   1      33.791  32.226  28.424  1.00  0.00    -0.376 OA
BRANCH   4   5
ATOM      5  C   UNL A   1      34.361  31.229  27.589  1.00  0.00     0.202 C 
BRANCH   5   6
ATOM      6  C   UNL A   1      35.651  30.482  27.983  1.00  0.00     0.261 C 
BRANCH   6   7
ATOM      7  O   UNL A   1      36.313  30.901  29.195  1.00  0.00    -0.463 OA
BRANCH   7   8
ATOM      8  C   UNL A   1      37.634  30.621  29.285  1.00  0.00     0.313 C 
ATOM      9  O   UNL A   1      38.500  31.488  29.388  1.00  0.00    -0.252 OA
BRANCH   8  10
ATOM     10  C   UNL A   1      38.017  29.142  29.218  1.00  0.00     0.126 C 
ATOM     11  C   UNL A   1      37.778  28.524  30.591  1.00  0.00     0.025 C 
BRANCH  10  12
ATOM     12  C   UNL A   1      39.359  28.690  28.640  1.00  0.00    -0.034 A 
ATOM     13  C   UNL A   1      41.834  27.877  27.445  1.00  0.00    -0.018 A 
ATOM     14  C   UNL A   1      41.553  27.636  28.802  1.00  0.00     0.009 A 
ATOM     15  C   UNL A   1      40.863  28.550  26.697  1.00  0.00     0.009 A 
ATOM     16  C   UNL A   1      40.336  28.027  29.391  1.00  0.00     0.005 A 
ATOM     17  C   UNL A   1      39.643  28.936  27.278  1.00  0.00     0.005 A 
BRANCH  13  18
ATOM     18  C   UNL A   1      43.070  27.359  26.823  1.00  0.00    -0.018 A 
ATOM     19  C   UNL A   1      46.754  23.185  24.244  1.00  0.00     0.064 C 
ATOM     20  C   UNL A   1      45.911  24.241  24.856  1.00  0.00     0.013 A 
ATOM     21  C   UNL A   1      44.616  24.188  25.326  1.00  0.00     0.031 A 
ATOM     22  N   UNL A   1      46.360  25.527  25.047  1.00  0.00    -0.359 N 
ATOM     23  C   UNL A   1      44.275  25.473  25.824  1.00  0.00     0.000 A 
ATOM     24  C   UNL A   1      45.380  26.299  25.636  1.00  0.00     0.046 A 
ATOM     25  H   UNL A   1      47.256  25.852  24.799  1.00  0.00     0.166 HD
ATOM     26  C   UNL A   1      43.117  26.011  26.418  1.00  0.00     0.019 A 
ATOM     27  C   UNL A   1      45.375  27.647  26.013  1.00  0.00     0.027 A 
ATOM     28  C   UNL A   1      44.203  28.158  26.604  1.00  0.00     0.011 A 
ENDBRANCH  13  18
ENDBRANCH  10  12
ENDBRANCH   8  10
ENDBRANCH   7   8
ENDBRANCH   6   7
ENDBRANCH   5   6
ENDBRANCH   4   5
ENDBRANCH   3   4
ENDBRANCH   2   3
ENDBRANCH   1   2
BRANCH   1  29
ATOM     29  C   UNL A   1      33.925  34.867  30.677  1.00  0.00     0.188 C 
BRANCH  29  30
ATOM     30  C   UNL A   1      33.671  35.066  32.182  1.00  0.00     0.188 C 
BRANCH  30  31
ATOM     31  O   UNL A   1      33.388  33.863  32.884  1.00  0.00    -0.376 OA
BRANCH  31  32
ATOM     32  C   UNL A   1      34.464  33.120  33.440  1.00  0.00     0.202 C 
BRANCH  32  33
ATOM     33  C   UNL A   1      35.789  33.846  33.735  1.00  0.00     0.261 C 
BRANCH  33  34
ATOM     34  O   UNL A   1      37.004  33.105  33.542  1.00  0.00    -0.460 OA
BRANCH  34  35
ATOM     35  C   UNL A   1      37.531  32.441  34.589  1.00  0.00     0.338 C 
ATOM     36  O   UNL A   1      37.057  32.330  35.707  1.00  0.00    -0.246 OA
BRANCH  35  37
ATOM     37  C   UNL A   1      38.708  31.689  34.098  1.00  0.00     0.060 A 
ATOM     38  C   UNL A   1      39.979  32.008  34.596  1.00  0.00     0.016 A 
ATOM     39  C   UNL A   1      38.557  30.669  33.157  1.00  0.00     0.016 A 
ATOM     40  C   UNL A   1      41.108  31.332  34.129  1.00  0.00     0.010 A 
ATOM     41  C   UNL A   1      39.691  30.013  32.666  1.00  0.00     0.010 A 
ATOM     42  C   UNL A   1      40.973  30.365  33.124  1.00  0.00    -0.014 A 
BRANCH  42  43
ATOM     43  C   UNL A   1      42.171  29.880  32.394  1.00  0.00     0.031 A 
ATOM     44  C   UNL A   1      42.898  28.685  32.949  1.00  0.00     0.074 A 
ATOM     45  C   UNL A   1      42.608  30.473  31.270  1.00  0.00     0.049 A 
ATOM     46  N   UNL A   1      44.024  28.139  32.567  1.00  0.00    -0.248 NA
ATOM     47  C   UNL A   1      42.266  28.018  34.099  1.00  0.00     0.031 C 
ATOM     48  C   UNL A   1      41.959  31.596  30.600  1.00  0.00     0.029 A 
ATOM     49  N   UNL A   1      43.719  30.217  30.505  1.00  0.00    -0.354 N 
ATOM     50  C   UNL A   1      44.238  27.074  33.433  1.00  0.00     0.074 A 
ATOM     51  C   UNL A   1      43.145  27.068  34.380  1.00  0.00     0.031 C 
ATOM     52  C   UNL A   1      42.697  31.949  29.532  1.00  0.00     0.029 A 
ATOM     53  C   UNL A   1      43.890  31.104  29.469  1.00  0.00     0.049 A 
ATOM     54  H   UNL A   1      44.334  29.469  30.680  1.00  0.00     0.167 HD
ATOM     55  C   UNL A   1      45.251  26.175  33.432  1.00  0.00     0.037 A 
ATOM     56  C   UNL A   1      44.911  31.235  28.599  1.00  0.00     0.037 A 
ATOM     57  C   UNL A   1      46.343  26.192  32.496  1.00  0.00     0.049 A 
ATOM     58  C   UNL A   1      46.084  30.289  28.687  1.00  0.00     0.074 A 
ATOM     59  C   UNL A   1      47.422  25.330  32.413  1.00  0.00     0.029 A 
ATOM     60  N   UNL A   1      46.498  27.127  31.483  1.00  0.00    -0.354 N 
ATOM     61  N   UNL A   1      46.277  29.277  29.498  1.00  0.00    -0.248 NA
ATOM     62  C   UNL A   1      47.185  30.505  27.735  1.00  0.00     0.031 C 
ATOM     63  C   UNL A   1      48.261  25.779  31.388  1.00  0.00     0.029 A 
ATOM     64  C   UNL A   1      47.669  26.878  30.786  1.00  0.00     0.049 A 
ATOM     65  H   UNL A   1      45.869  27.859  31.287  1.00  0.00     0.167 HD
ATOM     66  C   UNL A   1      47.494  28.714  29.129  1.00  0.00     0.074 A 
ATOM     67  C   UNL A   1      47.992  29.492  28.015  1.00  0.00     0.031 C 
ATOM     68  C   UNL A   1      48.140  27.647  29.662  1.00  0.00     0.037 A 
BRANCH  55  69
ATOM     69  C   UNL A   1      45.241  25.119  34.499  1.00  0.00     0.064 A 
ATOM     70  C   UNL A   1      44.714  23.840  34.267  1.00  0.00     0.173 A 
ATOM     71  C   UNL A   1      45.793  25.382  35.763  1.00  0.00     0.173 A 
ATOM     72  F   UNL A   1      44.161  23.542  33.083  1.00  0.00    -0.203 F 
ATOM     73  C   UNL A   1      44.713  22.873  35.270  1.00  0.00     0.198 A 
ATOM     74  C   UNL A   1      45.821  24.401  36.751  1.00  0.00     0.198 A 
ATOM     75  F   UNL A   1      46.312  26.587  36.038  1.00  0.00    -0.203 F 
ATOM     76  F   UNL A   1      44.155  21.675  35.043  1.00  0.00    -0.200 F 
ATOM     77  C   UNL A   1      45.273  23.152  36.507  1.00  0.00     0.200 A 
ATOM     78  F   UNL A   1      46.376  24.669  37.941  1.00  0.00    -0.200 F 
ATOM     79  F   UNL A   1      45.278  22.217  37.468  1.00  0.00    -0.200 F 
ENDBRANCH  55  69
BRANCH  56  80
ATOM     80  C   UNL A   1      44.894  32.319  27.578  1.00  0.00     0.064 A 
ATOM     81  C   UNL A   1      45.584  33.521  27.787  1.00  0.00     0.173 A 
ATOM     82  C   UNL A   1      44.152  32.196  26.394  1.00  0.00     0.173 A 
ATOM     83  F   UNL A   1      46.286  33.702  28.916  1.00  0.00    -0.203 F 
ATOM     84  C   UNL A   1      45.509  34.566  26.869  1.00  0.00     0.198 A 
ATOM     85  C   UNL A   1      44.105  33.228  25.459  1.00  0.00     0.198 A 
ATOM     86  F   UNL A   1      43.467  31.069  26.143  1.00  0.00    -0.203 F 
ATOM     87  F   UNL A   1      46.128  35.728  27.126  1.00  0.00    -0.200 F 
ATOM     88  C   UNL A   1      44.774  34.417  25.703  1.00  0.00     0.200 A 
ATOM     89  F   UNL A   1      43.403  33.075  24.328  1.00  0.00    -0.200 F 
ATOM     90  F   UNL A   1      44.700  35.424  24.821  1.00  0.00    -0.200 F 
ENDBRANCH  56  80
BRANCH  68  91
ATOM     91  C   UNL A   1      49.425  27.210  29.015  1.00  0.00     0.064 A 
ATOM     92  C   UNL A   1      50.672  27.688  29.440  1.00  0.00     0.173 A 
ATOM     93  C   UNL A   1      49.406  26.249  27.991  1.00  0.00     0.173 A 
ATOM     94  F   UNL A   1      50.747  28.616  30.405  1.00  0.00    -0.203 F 
ATOM     95  C   UNL A   1      51.851  27.237  28.850  1.00  0.00     0.198 A 
ATOM     96  C   UNL A   1      50.587  25.774  27.429  1.00  0.00     0.198 A 
ATOM     97  F   UNL A   1      48.239  25.751  27.552  1.00  0.00    -0.203 F 
ATOM     98  F   UNL A   1      53.029  27.742  29.241  1.00  0.00    -0.200 F 
ATOM     99  C   UNL A   1      51.807  26.273  27.853  1.00  0.00     0.200 A 
ATOM    100  F   UNL A   1      50.543  24.829  26.479  1.00  0.00    -0.200 F 
ATOM    101  F   UNL A   1      52.944  25.830  27.298  1.00  0.00    -0.200 F 
ENDBRANCH  68  91
ENDBRANCH  42  43
ENDBRANCH  35  37
ENDBRANCH  34  35
ENDBRANCH  33  34
ENDBRANCH  32  33
ENDBRANCH  31  32
ENDBRANCH  30  31
ENDBRANCH  29  30
ENDBRANCH   1  29
TORSDOF 22
ENDMDL
