MODEL 1
REMARK VINA RESULT:     -10.7      0.000      0.000
REMARK SMILES O=C(OCCOCCOCCOCCOC(=O)[C@@H]1CC=CC[C@H]1C(=O)N1CC[NH+](Cc2ccc3c(c2)OCO3)CC1)c1ccc(-c2c3nc(c(-c4c(F)c(F)c(F)c(F)c4F)c4ccc([nH]4)c(-c4c(F)c(F)c(F)c(F)c4F)c4nc(c(-c5c(F)c(F)c(F)c(F)c5F)c5ccc2[nH]5)C=C4)C=C3)cc1
REMARK SMILES IDX 10 1 9 2 8 3 7 4 6 5 5 6 4 7 3 8 2 9 1 10 42 11 43 12 104 13
REMARK SMILES IDX 44 14 103 15 45 16 46 17 47 18 97 19 48 20 102 21 96 22
REMARK SMILES IDX 98 23 49 24 101 25 95 26 94 27 50 29 82 30 62 31 81 32 63 33
REMARK SMILES IDX 66 34 80 35 99 36 64 37 65 38 79 40 100 41 67 42 51 43 52 44
REMARK SMILES IDX 60 45 53 46 54 47 58 48 61 49 55 50 56 51 59 52 57 53 83 54
REMARK SMILES IDX 84 55 92 56 85 57 86 58 90 59 93 60 87 61 88 62 91 63 89 64
REMARK SMILES IDX 68 65 69 66 77 67 70 68 71 69 75 70 78 71 72 72 73 73 76 74
REMARK SMILES IDX 74 75 11 76 12 77 13 78 14 79 15 80 16 81 17 82 18 83 19 84
REMARK SMILES IDX 23 85 20 86 22 87 21 88 24 89 25 90 26 91 27 92 41 93 28 94
REMARK SMILES IDX 40 95 29 96 30 98 31 99 32 100 36 101 33 102 35 103 34 104
REMARK SMILES IDX 37 105 39 106 38 107
REMARK H PARENT 98 28 66 39 29 97
REMARK Flexibility Score: inf
ROOT
ATOM      1  C   UNL A   1      38.813  21.455  25.726  1.00  0.00     0.188 C 
ENDROOT
BRANCH   1   2
ATOM      2  O   UNL A   1      40.198  21.190  25.906  1.00  0.00    -0.377 OA
BRANCH   2   3
ATOM      3  C   UNL A   1      40.604  19.886  26.326  1.00  0.00     0.188 C 
BRANCH   3   4
ATOM      4  C   UNL A   1      42.116  19.721  26.325  1.00  0.00     0.188 C 
BRANCH   4   5
ATOM      5  O   UNL A   1      42.681  20.666  25.431  1.00  0.00    -0.376 OA
BRANCH   5   6
ATOM      6  C   UNL A   1      43.491  21.673  25.999  1.00  0.00     0.202 C 
BRANCH   6   7
ATOM      7  C   UNL A   1      43.960  22.792  25.065  1.00  0.00     0.261 C 
BRANCH   7   8
ATOM      8  O   UNL A   1      44.230  24.074  25.670  1.00  0.00    -0.460 OA
BRANCH   8   9
ATOM      9  C   UNL A   1      43.458  25.189  25.623  1.00  0.00     0.338 C 
ATOM     10  O   UNL A   1      43.016  25.648  24.582  1.00  0.00    -0.246 OA
BRANCH   9  11
ATOM     11  C   UNL A   1      43.207  25.879  26.891  1.00  0.00     0.060 A 
ATOM     12  C   UNL A   1      42.742  25.151  27.973  1.00  0.00     0.016 A 
ATOM     13  C   UNL A   1      43.477  27.234  27.035  1.00  0.00     0.016 A 
ATOM     14  C   UNL A   1      42.210  25.800  29.065  1.00  0.00     0.010 A 
ATOM     15  C   UNL A   1      43.151  27.861  28.238  1.00  0.00     0.010 A 
ATOM     16  C   UNL A   1      42.443  27.162  29.236  1.00  0.00    -0.014 A 
BRANCH  16  17
ATOM     17  C   UNL A   1      41.915  27.858  30.433  1.00  0.00     0.031 A 
ATOM     18  C   UNL A   1      40.606  28.583  30.317  1.00  0.00     0.074 A 
ATOM     19  C   UNL A   1      42.589  27.821  31.601  1.00  0.00     0.049 A 
ATOM     20  N   UNL A   1      40.111  29.525  31.070  1.00  0.00    -0.248 NA
ATOM     21  C   UNL A   1      39.754  28.227  29.167  1.00  0.00     0.031 C 
ATOM     22  C   UNL A   1      43.826  27.072  31.851  1.00  0.00     0.029 A 
ATOM     23  N   UNL A   1      42.330  28.421  32.806  1.00  0.00    -0.354 N 
ATOM     24  C   UNL A   1      38.955  29.951  30.427  1.00  0.00     0.074 A 
ATOM     25  C   UNL A   1      38.799  29.143  29.240  1.00  0.00     0.031 C 
ATOM     26  C   UNL A   1      44.181  27.208  33.135  1.00  0.00     0.029 A 
ATOM     27  C   UNL A   1      43.296  28.178  33.754  1.00  0.00     0.049 A 
ATOM     28  H   UNL A   1      41.531  28.971  32.976  1.00  0.00     0.167 HD
ATOM     29  C   UNL A   1      38.130  30.955  30.801  1.00  0.00     0.037 A 
ATOM     30  C   UNL A   1      43.498  28.750  34.955  1.00  0.00     0.037 A 
ATOM     31  C   UNL A   1      38.291  31.669  32.040  1.00  0.00     0.049 A 
ATOM     32  C   UNL A   1      42.562  29.856  35.354  1.00  0.00     0.074 A 
ATOM     33  C   UNL A   1      37.533  32.702  32.555  1.00  0.00     0.029 A 
ATOM     34  N   UNL A   1      39.283  31.389  32.973  1.00  0.00    -0.354 N 
ATOM     35  N   UNL A   1      41.529  30.336  34.700  1.00  0.00    -0.248 NA
ATOM     36  C   UNL A   1      42.838  30.528  36.627  1.00  0.00     0.031 C 
ATOM     37  C   UNL A   1      38.084  33.066  33.788  1.00  0.00     0.029 A 
ATOM     38  C   UNL A   1      39.164  32.236  34.058  1.00  0.00     0.049 A 
ATOM     39  H   UNL A   1      39.969  30.690  32.875  1.00  0.00     0.167 HD
ATOM     40  C   UNL A   1      41.039  31.375  35.473  1.00  0.00     0.074 A 
ATOM     41  C   UNL A   1      41.863  31.426  36.666  1.00  0.00     0.031 C 
ATOM     42  C   UNL A   1      40.018  32.230  35.218  1.00  0.00     0.037 A 
BRANCH  29  43
ATOM     43  C   UNL A   1      37.051  31.372  29.845  1.00  0.00     0.064 A 
ATOM     44  C   UNL A   1      35.946  30.561  29.552  1.00  0.00     0.173 A 
ATOM     45  C   UNL A   1      37.132  32.620  29.204  1.00  0.00     0.173 A 
ATOM     46  F   UNL A   1      35.830  29.349  30.115  1.00  0.00    -0.203 F 
ATOM     47  C   UNL A   1      34.977  30.970  28.635  1.00  0.00     0.198 A 
ATOM     48  C   UNL A   1      36.151  33.037  28.308  1.00  0.00     0.198 A 
ATOM     49  F   UNL A   1      38.171  33.435  29.441  1.00  0.00    -0.203 F 
ATOM     50  F   UNL A   1      33.957  30.155  28.332  1.00  0.00    -0.200 F 
ATOM     51  C   UNL A   1      35.078  32.209  28.018  1.00  0.00     0.200 A 
ATOM     52  F   UNL A   1      36.250  34.236  27.716  1.00  0.00    -0.200 F 
ATOM     53  F   UNL A   1      34.146  32.599  27.136  1.00  0.00    -0.200 F 
ENDBRANCH  29  43
BRANCH  30  54
ATOM     54  C   UNL A   1      44.675  28.371  35.786  1.00  0.00     0.064 A 
ATOM     55  C   UNL A   1      44.610  27.312  36.700  1.00  0.00     0.173 A 
ATOM     56  C   UNL A   1      45.900  29.052  35.675  1.00  0.00     0.173 A 
ATOM     57  F   UNL A   1      43.460  26.641  36.865  1.00  0.00    -0.203 F 
ATOM     58  C   UNL A   1      45.714  26.955  37.475  1.00  0.00     0.198 A 
ATOM     59  C   UNL A   1      47.015  28.670  36.420  1.00  0.00     0.198 A 
ATOM     60  F   UNL A   1      46.027  30.077  34.818  1.00  0.00    -0.203 F 
ATOM     61  F   UNL A   1      45.607  25.968  38.374  1.00  0.00    -0.200 F 
ATOM     62  C   UNL A   1      46.919  27.628  37.327  1.00  0.00     0.200 A 
ATOM     63  F   UNL A   1      48.181  29.308  36.254  1.00  0.00    -0.200 F 
ATOM     64  F   UNL A   1      47.982  27.275  38.062  1.00  0.00    -0.200 F 
ENDBRANCH  30  54
BRANCH  42  65
ATOM     65  C   UNL A   1      39.753  33.269  36.260  1.00  0.00     0.064 A 
ATOM     66  C   UNL A   1      40.345  34.536  36.185  1.00  0.00     0.173 A 
ATOM     67  C   UNL A   1      38.867  33.005  37.313  1.00  0.00     0.173 A 
ATOM     68  F   UNL A   1      41.214  34.820  35.204  1.00  0.00    -0.203 F 
ATOM     69  C   UNL A   1      40.070  35.504  37.145  1.00  0.00     0.198 A 
ATOM     70  C   UNL A   1      38.574  33.984  38.255  1.00  0.00     0.198 A 
ATOM     71  F   UNL A   1      38.278  31.805  37.417  1.00  0.00    -0.203 F 
ATOM     72  F   UNL A   1      40.676  36.698  37.082  1.00  0.00    -0.200 F 
ATOM     73  C   UNL A   1      39.180  35.229  38.174  1.00  0.00     0.200 A 
ATOM     74  F   UNL A   1      37.708  33.722  39.243  1.00  0.00    -0.200 F 
ATOM     75  F   UNL A   1      38.909  36.167  39.092  1.00  0.00    -0.200 F 
ENDBRANCH  42  65
ENDBRANCH  16  17
ENDBRANCH   9  11
ENDBRANCH   8   9
ENDBRANCH   7   8
ENDBRANCH   6   7
ENDBRANCH   5   6
ENDBRANCH   4   5
ENDBRANCH   3   4
ENDBRANCH   2   3
ENDBRANCH   1   2
BRANCH   1  76
ATOM     76  C   UNL A   1      38.343  22.859  26.102  1.00  0.00     0.188 C 
BRANCH  76  77
ATOM     77  O   UNL A   1      37.216  23.296  25.348  1.00  0.00    -0.376 OA
BRANCH  77  78
ATOM     78  C   UNL A   1      36.225  23.938  26.150  1.00  0.00     0.202 C 
BRANCH  78  79
ATOM     79  C   UNL A   1      35.185  24.816  25.414  1.00  0.00     0.261 C 
BRANCH  79  80
ATOM     80  O   UNL A   1      33.959  25.042  26.141  1.00  0.00    -0.463 OA
BRANCH  80  81
ATOM     81  C   UNL A   1      33.242  26.165  25.905  1.00  0.00     0.310 C 
ATOM     82  O   UNL A   1      32.618  26.754  26.779  1.00  0.00    -0.252 OA
BRANCH  81  83
ATOM     83  C   UNL A   1      33.396  26.664  24.448  1.00  0.00     0.115 C 
ATOM     84  C   UNL A   1      33.866  28.132  24.555  1.00  0.00     0.043 C 
ATOM     85  C   UNL A   1      32.132  26.434  23.588  1.00  0.00     0.097 C 
ATOM     86  C   UNL A   1      33.624  28.983  23.358  1.00  0.00    -0.030 C 
ATOM     87  C   UNL A   1      31.788  27.516  22.537  1.00  0.00     0.041 C 
ATOM     88  C   UNL A   1      32.677  28.710  22.461  1.00  0.00    -0.030 C 
BRANCH  85  89
ATOM     89  C   UNL A   1      32.071  25.048  22.902  1.00  0.00     0.227 C 
ATOM     90  O   UNL A   1      31.774  24.967  21.708  1.00  0.00    -0.275 OA
ATOM     91  N   UNL A   1      32.523  23.925  23.622  1.00  0.00    -0.331 N 
ATOM     92  C   UNL A   1      33.486  23.087  22.910  1.00  0.00     0.181 C 
ATOM     93  C   UNL A   1      31.525  23.138  24.335  1.00  0.00     0.181 C 
ATOM     94  C   UNL A   1      34.040  21.920  23.758  1.00  0.00     0.284 C 
ATOM     95  C   UNL A   1      32.049  21.925  25.125  1.00  0.00     0.284 C 
ATOM     96  N   UNL A   1      33.032  21.094  24.429  1.00  0.00    -0.328 N 
ATOM     97  H   UNL A   1      33.540  20.594  25.159  1.00  0.00     0.348 HD
BRANCH  96  98
ATOM     98  C   UNL A   1      32.560  19.880  23.756  1.00  0.00     0.299 C 
BRANCH  98  99
ATOM     99  C   UNL A   1      33.033  18.522  24.239  1.00  0.00     0.010 A 
ATOM    100  C   UNL A   1      34.395  18.148  24.161  1.00  0.00     0.013 A 
ATOM    101  C   UNL A   1      32.141  17.630  24.851  1.00  0.00     0.060 A 
ATOM    102  C   UNL A   1      34.834  16.864  24.507  1.00  0.00     0.051 A 
ATOM    103  C   UNL A   1      32.610  16.382  25.220  1.00  0.00     0.166 A 
ATOM    104  C   UNL A   1      33.906  15.989  25.011  1.00  0.00     0.165 A 
ATOM    105  O   UNL A   1      31.877  15.399  25.799  1.00  0.00    -0.454 OA
ATOM    106  O   UNL A   1      34.126  14.695  25.367  1.00  0.00    -0.454 OA
ATOM    107  C   UNL A   1      32.790  14.288  25.732  1.00  0.00     0.468 C 
ENDBRANCH  98  99
ENDBRANCH  96  98
ENDBRANCH  85  89
ENDBRANCH  81  83
ENDBRANCH  80  81
ENDBRANCH  79  80
ENDBRANCH  78  79
ENDBRANCH  77  78
ENDBRANCH  76  77
ENDBRANCH   1  76
TORSDOF 23
ENDMDL
MODEL 2
REMARK VINA RESULT:     -10.5      4.454      9.965
REMARK SMILES O=C(OCCOCCOCCOCCOC(=O)[C@@H]1CC=CC[C@H]1C(=O)N1CC[NH+](Cc2ccc3c(c2)OCO3)CC1)c1ccc(-c2c3nc(c(-c4c(F)c(F)c(F)c(F)c4F)c4ccc([nH]4)c(-c4c(F)c(F)c(F)c(F)c4F)c4nc(c(-c5c(F)c(F)c(F)c(F)c5F)c5ccc2[nH]5)C=C4)C=C3)cc1
REMARK SMILES IDX 10 1 9 2 8 3 7 4 6 5 5 6 4 7 3 8 2 9 1 10 42 11 43 12 104 13
REMARK SMILES IDX 44 14 103 15 45 16 46 17 47 18 97 19 48 20 102 21 96 22
REMARK SMILES IDX 98 23 49 24 101 25 95 26 94 27 50 29 82 30 62 31 81 32 63 33
REMARK SMILES IDX 66 34 80 35 99 36 64 37 65 38 79 40 100 41 67 42 51 43 52 44
REMARK SMILES IDX 60 45 53 46 54 47 58 48 61 49 55 50 56 51 59 52 57 53 83 54
REMARK SMILES IDX 84 55 92 56 85 57 86 58 90 59 93 60 87 61 88 62 91 63 89 64
REMARK SMILES IDX 68 65 69 66 77 67 70 68 71 69 75 70 78 71 72 72 73 73 76 74
REMARK SMILES IDX 74 75 11 76 12 77 13 78 14 79 15 80 16 81 17 82 18 83 19 84
REMARK SMILES IDX 23 85 20 86 22 87 21 88 24 89 25 90 26 91 27 92 41 93 28 94
REMARK SMILES IDX 40 95 29 96 30 98 31 99 32 100 36 101 33 102 35 103 34 104
REMARK SMILES IDX 37 105 39 106 38 107
REMARK H PARENT 98 28 66 39 29 97
REMARK Flexibility Score: inf
ROOT
ATOM      1  C   UNL A   1      31.904  29.879  25.843  1.00  0.00     0.188 C 
ENDROOT
BRANCH   1   2
ATOM      2  O   UNL A   1      32.360  30.413  27.080  1.00  0.00    -0.377 OA
BRANCH   2   3
ATOM      3  C   UNL A   1      33.745  30.300  27.413  1.00  0.00     0.188 C 
BRANCH   3   4
ATOM      4  C   UNL A   1      34.391  31.653  27.670  1.00  0.00     0.188 C 
BRANCH   4   5
ATOM      5  O   UNL A   1      33.419  32.531  28.216  1.00  0.00    -0.376 OA
BRANCH   5   6
ATOM      6  C   UNL A   1      33.462  33.873  27.785  1.00  0.00     0.202 C 
BRANCH   6   7
ATOM      7  C   UNL A   1      33.541  34.946  28.875  1.00  0.00     0.261 C 
BRANCH   7   8
ATOM      8  O   UNL A   1      32.570  34.866  29.939  1.00  0.00    -0.460 OA
BRANCH   8   9
ATOM      9  C   UNL A   1      32.786  35.025  31.269  1.00  0.00     0.338 C 
ATOM     10  O   UNL A   1      31.928  35.428  32.039  1.00  0.00    -0.246 OA
BRANCH   9  11
ATOM     11  C   UNL A   1      34.137  34.742  31.764  1.00  0.00     0.060 A 
ATOM     12  C   UNL A   1      34.670  35.542  32.759  1.00  0.00     0.016 A 
ATOM     13  C   UNL A   1      34.861  33.657  31.286  1.00  0.00     0.016 A 
ATOM     14  C   UNL A   1      36.020  35.504  33.028  1.00  0.00     0.010 A 
ATOM     15  C   UNL A   1      36.169  33.473  31.734  1.00  0.00     0.010 A 
ATOM     16  C   UNL A   1      36.786  34.442  32.551  1.00  0.00    -0.014 A 
BRANCH  16  17
ATOM     17  C   UNL A   1      38.229  34.367  32.876  1.00  0.00     0.031 A 
ATOM     18  C   UNL A   1      38.632  34.291  34.319  1.00  0.00     0.074 A 
ATOM     19  C   UNL A   1      39.153  34.348  31.893  1.00  0.00     0.049 A 
ATOM     20  N   UNL A   1      39.781  34.560  34.875  1.00  0.00    -0.248 NA
ATOM     21  C   UNL A   1      37.582  33.897  35.278  1.00  0.00     0.031 C 
ATOM     22  C   UNL A   1      38.871  34.328  30.453  1.00  0.00     0.029 A 
ATOM     23  N   UNL A   1      40.523  34.335  31.951  1.00  0.00    -0.354 N 
ATOM     24  C   UNL A   1      39.563  34.481  36.245  1.00  0.00     0.074 A 
ATOM     25  C   UNL A   1      38.182  34.104  36.442  1.00  0.00     0.031 C 
ATOM     26  C   UNL A   1      40.020  34.245  29.772  1.00  0.00     0.029 A 
ATOM     27  C   UNL A   1      41.120  34.371  30.712  1.00  0.00     0.049 A 
ATOM     28  H   UNL A   1      41.029  34.303  32.795  1.00  0.00     0.167 HD
ATOM     29  C   UNL A   1      40.449  34.737  37.234  1.00  0.00     0.037 A 
ATOM     30  C   UNL A   1      42.405  34.580  30.372  1.00  0.00     0.037 A 
ATOM     31  C   UNL A   1      41.835  35.026  36.976  1.00  0.00     0.049 A 
ATOM     32  C   UNL A   1      43.374  34.851  31.488  1.00  0.00     0.074 A 
ATOM     33  C   UNL A   1      42.849  35.299  37.872  1.00  0.00     0.029 A 
ATOM     34  N   UNL A   1      42.398  35.050  35.705  1.00  0.00    -0.354 N 
ATOM     35  N   UNL A   1      43.151  34.883  32.783  1.00  0.00    -0.248 NA
ATOM     36  C   UNL A   1      44.754  35.157  31.104  1.00  0.00     0.031 C 
ATOM     37  C   UNL A   1      44.022  35.517  37.140  1.00  0.00     0.029 A 
ATOM     38  C   UNL A   1      43.746  35.344  35.791  1.00  0.00     0.049 A 
ATOM     39  H   UNL A   1      41.909  34.883  34.867  1.00  0.00     0.167 HD
ATOM     40  C   UNL A   1      44.357  35.227  33.368  1.00  0.00     0.074 A 
ATOM     41  C   UNL A   1      45.320  35.349  32.289  1.00  0.00     0.031 C 
ATOM     42  C   UNL A   1      44.650  35.446  34.674  1.00  0.00     0.037 A 
BRANCH  29  43
ATOM     43  C   UNL A   1      39.937  34.783  38.643  1.00  0.00     0.064 A 
ATOM     44  C   UNL A   1      39.463  35.961  39.238  1.00  0.00     0.173 A 
ATOM     45  C   UNL A   1      39.924  33.611  39.419  1.00  0.00     0.173 A 
ATOM     46  F   UNL A   1      39.476  37.114  38.553  1.00  0.00    -0.203 F 
ATOM     47  C   UNL A   1      39.020  35.971  40.561  1.00  0.00     0.198 A 
ATOM     48  C   UNL A   1      39.458  33.618  40.731  1.00  0.00     0.198 A 
ATOM     49  F   UNL A   1      40.372  32.456  38.904  1.00  0.00    -0.203 F 
ATOM     50  F   UNL A   1      38.621  37.120  41.124  1.00  0.00    -0.200 F 
ATOM     51  C   UNL A   1      39.014  34.799  41.304  1.00  0.00     0.200 A 
ATOM     52  F   UNL A   1      39.450  32.484  41.445  1.00  0.00    -0.200 F 
ATOM     53  F   UNL A   1      38.590  34.812  42.576  1.00  0.00    -0.200 F 
ENDBRANCH  29  43
BRANCH  30  54
ATOM     54  C   UNL A   1      42.808  34.652  28.939  1.00  0.00     0.064 A 
ATOM     55  C   UNL A   1      43.429  33.570  28.303  1.00  0.00     0.173 A 
ATOM     56  C   UNL A   1      42.566  35.802  28.167  1.00  0.00     0.173 A 
ATOM     57  F   UNL A   1      43.705  32.455  28.995  1.00  0.00    -0.203 F 
ATOM     58  C   UNL A   1      43.802  33.637  26.960  1.00  0.00     0.198 A 
ATOM     59  C   UNL A   1      42.903  35.854  26.816  1.00  0.00     0.198 A 
ATOM     60  F   UNL A   1      41.975  36.873  28.719  1.00  0.00    -0.203 F 
ATOM     61  F   UNL A   1      44.437  32.604  26.391  1.00  0.00    -0.200 F 
ATOM     62  C   UNL A   1      43.529  34.775  26.215  1.00  0.00     0.200 A 
ATOM     63  F   UNL A   1      42.614  36.947  26.097  1.00  0.00    -0.200 F 
ATOM     64  F   UNL A   1      43.876  34.833  24.922  1.00  0.00    -0.200 F 
ENDBRANCH  30  54
BRANCH  42  65
ATOM     65  C   UNL A   1      46.063  35.829  34.978  1.00  0.00     0.064 A 
ATOM     66  C   UNL A   1      47.059  34.855  35.127  1.00  0.00     0.173 A 
ATOM     67  C   UNL A   1      46.425  37.179  35.075  1.00  0.00     0.173 A 
ATOM     68  F   UNL A   1      46.747  33.552  35.060  1.00  0.00    -0.203 F 
ATOM     69  C   UNL A   1      48.375  35.223  35.382  1.00  0.00     0.198 A 
ATOM     70  C   UNL A   1      47.746  37.543  35.303  1.00  0.00     0.198 A 
ATOM     71  F   UNL A   1      45.500  38.139  34.934  1.00  0.00    -0.203 F 
ATOM     72  F   UNL A   1      49.309  34.279  35.563  1.00  0.00    -0.200 F 
ATOM     73  C   UNL A   1      48.719  36.566  35.463  1.00  0.00     0.200 A 
ATOM     74  F   UNL A   1      48.079  38.839  35.372  1.00  0.00    -0.200 F 
ATOM     75  F   UNL A   1      49.989  36.918  35.699  1.00  0.00    -0.200 F 
ENDBRANCH  42  65
ENDBRANCH  16  17
ENDBRANCH   9  11
ENDBRANCH   8   9
ENDBRANCH   7   8
ENDBRANCH   6   7
ENDBRANCH   5   6
ENDBRANCH   4   5
ENDBRANCH   3   4
ENDBRANCH   2   3
ENDBRANCH   1   2
BRANCH   1  76
ATOM     76  C   UNL A   1      32.538  28.560  25.407  1.00  0.00     0.188 C 
BRANCH  76  77
ATOM     77  O   UNL A   1      32.372  28.288  24.018  1.00  0.00    -0.376 OA
BRANCH  77  78
ATOM     78  C   UNL A   1      33.573  27.835  23.392  1.00  0.00     0.202 C 
BRANCH  78  79
ATOM     79  C   UNL A   1      33.630  26.348  22.970  1.00  0.00     0.261 C 
BRANCH  79  80
ATOM     80  O   UNL A   1      33.931  25.425  24.037  1.00  0.00    -0.463 OA
BRANCH  80  81
ATOM     81  C   UNL A   1      32.987  24.546  24.445  1.00  0.00     0.310 C 
ATOM     82  O   UNL A   1      32.004  24.877  25.098  1.00  0.00    -0.252 OA
BRANCH  81  83
ATOM     83  C   UNL A   1      33.239  23.120  23.900  1.00  0.00     0.115 C 
ATOM     84  C   UNL A   1      32.440  23.027  22.580  1.00  0.00     0.043 C 
ATOM     85  C   UNL A   1      32.940  22.010  24.934  1.00  0.00     0.097 C 
ATOM     86  C   UNL A   1      32.110  21.654  22.112  1.00  0.00    -0.030 C 
ATOM     87  C   UNL A   1      32.332  20.692  24.398  1.00  0.00     0.041 C 
ATOM     88  C   UNL A   1      32.047  20.609  22.938  1.00  0.00    -0.030 C 
BRANCH  85  89
ATOM     89  C   UNL A   1      34.134  21.660  25.856  1.00  0.00     0.227 C 
ATOM     90  O   UNL A   1      33.937  21.049  26.909  1.00  0.00    -0.275 OA
ATOM     91  N   UNL A   1      35.437  21.902  25.382  1.00  0.00    -0.331 N 
ATOM     92  C   UNL A   1      36.351  20.767  25.495  1.00  0.00     0.181 C 
ATOM     93  C   UNL A   1      36.068  23.159  25.764  1.00  0.00     0.181 C 
ATOM     94  C   UNL A   1      37.744  21.027  24.879  1.00  0.00     0.284 C 
ATOM     95  C   UNL A   1      37.488  23.403  25.220  1.00  0.00     0.284 C 
ATOM     96  N   UNL A   1      38.402  22.264  25.306  1.00  0.00    -0.328 N 
ATOM     97  H   UNL A   1      39.126  22.437  24.609  1.00  0.00     0.348 HD
BRANCH  96  98
ATOM     98  C   UNL A   1      39.333  22.208  26.438  1.00  0.00     0.299 C 
BRANCH  98  99
ATOM     99  C   UNL A   1      40.732  21.661  26.231  1.00  0.00     0.010 A 
ATOM    100  C   UNL A   1      41.860  22.516  26.212  1.00  0.00     0.013 A 
ATOM    101  C   UNL A   1      40.954  20.280  26.133  1.00  0.00     0.060 A 
ATOM    102  C   UNL A   1      43.146  22.043  25.920  1.00  0.00     0.051 A 
ATOM    103  C   UNL A   1      42.241  19.837  25.885  1.00  0.00     0.166 A 
ATOM    104  C   UNL A   1      43.300  20.694  25.733  1.00  0.00     0.165 A 
ATOM    105  O   UNL A   1      42.620  18.543  25.740  1.00  0.00    -0.454 OA
ATOM    106  O   UNL A   1      44.453  20.050  25.407  1.00  0.00    -0.454 OA
ATOM    107  C   UNL A   1      43.973  18.695  25.273  1.00  0.00     0.468 C 
ENDBRANCH  98  99
ENDBRANCH  96  98
ENDBRANCH  85  89
ENDBRANCH  81  83
ENDBRANCH  80  81
ENDBRANCH  79  80
ENDBRANCH  78  79
ENDBRANCH  77  78
ENDBRANCH  76  77
ENDBRANCH   1  76
TORSDOF 23
ENDMDL
MODEL 3
REMARK VINA RESULT:     -10.2      4.028      9.422
REMARK SMILES O=C(OCCOCCOCCOCCOC(=O)[C@@H]1CC=CC[C@H]1C(=O)N1CC[NH+](Cc2ccc3c(c2)OCO3)CC1)c1ccc(-c2c3nc(c(-c4c(F)c(F)c(F)c(F)c4F)c4ccc([nH]4)c(-c4c(F)c(F)c(F)c(F)c4F)c4nc(c(-c5c(F)c(F)c(F)c(F)c5F)c5ccc2[nH]5)C=C4)C=C3)cc1
REMARK SMILES IDX 10 1 9 2 8 3 7 4 6 5 5 6 4 7 3 8 2 9 1 10 42 11 43 12 104 13
REMARK SMILES IDX 44 14 103 15 45 16 46 17 47 18 97 19 48 20 102 21 96 22
REMARK SMILES IDX 98 23 49 24 101 25 95 26 94 27 50 29 82 30 62 31 81 32 63 33
REMARK SMILES IDX 66 34 80 35 99 36 64 37 65 38 79 40 100 41 67 42 51 43 52 44
REMARK SMILES IDX 60 45 53 46 54 47 58 48 61 49 55 50 56 51 59 52 57 53 83 54
REMARK SMILES IDX 84 55 92 56 85 57 86 58 90 59 93 60 87 61 88 62 91 63 89 64
REMARK SMILES IDX 68 65 69 66 77 67 70 68 71 69 75 70 78 71 72 72 73 73 76 74
REMARK SMILES IDX 74 75 11 76 12 77 13 78 14 79 15 80 16 81 17 82 18 83 19 84
REMARK SMILES IDX 23 85 20 86 22 87 21 88 24 89 25 90 26 91 27 92 41 93 28 94
REMARK SMILES IDX 40 95 29 96 30 98 31 99 32 100 36 101 33 102 35 103 34 104
REMARK SMILES IDX 37 105 39 106 38 107
REMARK H PARENT 98 28 66 39 29 97
REMARK Flexibility Score: inf
ROOT
ATOM      1  C   UNL A   1      34.341  28.855  26.880  1.00  0.00     0.188 C 
ENDROOT
BRANCH   1   2
ATOM      2  O   UNL A   1      35.108  29.984  27.277  1.00  0.00    -0.377 OA
BRANCH   2   3
ATOM      3  C   UNL A   1      34.430  31.180  27.665  1.00  0.00     0.188 C 
BRANCH   3   4
ATOM      4  C   UNL A   1      35.377  32.226  28.231  1.00  0.00     0.188 C 
BRANCH   4   5
ATOM      5  O   UNL A   1      34.696  33.468  28.311  1.00  0.00    -0.376 OA
BRANCH   5   6
ATOM      6  C   UNL A   1      34.192  33.836  29.576  1.00  0.00     0.202 C 
BRANCH   6   7
ATOM      7  C   UNL A   1      34.683  33.024  30.778  1.00  0.00     0.261 C 
BRANCH   7   8
ATOM      8  O   UNL A   1      35.732  33.612  31.576  1.00  0.00    -0.460 OA
BRANCH   8   9
ATOM      9  C   UNL A   1      37.071  33.460  31.422  1.00  0.00     0.338 C 
ATOM     10  O   UNL A   1      37.640  33.625  30.355  1.00  0.00    -0.246 OA
BRANCH   9  11
ATOM     11  C   UNL A   1      37.833  33.028  32.598  1.00  0.00     0.060 A 
ATOM     12  C   UNL A   1      39.041  33.641  32.879  1.00  0.00     0.016 A 
ATOM     13  C   UNL A   1      37.335  32.055  33.455  1.00  0.00     0.016 A 
ATOM     14  C   UNL A   1      39.916  33.067  33.775  1.00  0.00     0.010 A 
ATOM     15  C   UNL A   1      38.130  31.625  34.518  1.00  0.00     0.010 A 
ATOM     16  C   UNL A   1      39.460  32.074  34.639  1.00  0.00    -0.014 A 
BRANCH  16  17
ATOM     17  C   UNL A   1      40.381  31.485  35.639  1.00  0.00     0.031 A 
ATOM     18  C   UNL A   1      40.611  32.229  36.922  1.00  0.00     0.074 A 
ATOM     19  C   UNL A   1      40.980  30.299  35.405  1.00  0.00     0.049 A 
ATOM     20  N   UNL A   1      41.589  32.124  37.778  1.00  0.00    -0.248 NA
ATOM     21  C   UNL A   1      39.622  33.267  37.270  1.00  0.00     0.031 C 
ATOM     22  C   UNL A   1      40.761  29.447  34.231  1.00  0.00     0.029 A 
ATOM     23  N   UNL A   1      41.895  29.595  36.145  1.00  0.00    -0.354 N 
ATOM     24  C   UNL A   1      41.398  33.150  38.695  1.00  0.00     0.074 A 
ATOM     25  C   UNL A   1      40.191  33.848  38.317  1.00  0.00     0.031 C 
ATOM     26  C   UNL A   1      41.467  28.317  34.359  1.00  0.00     0.029 A 
ATOM     27  C   UNL A   1      42.311  28.435  35.535  1.00  0.00     0.049 A 
ATOM     28  H   UNL A   1      42.221  29.890  37.026  1.00  0.00     0.167 HD
ATOM     29  C   UNL A   1      42.195  33.479  39.737  1.00  0.00     0.037 A 
ATOM     30  C   UNL A   1      43.328  27.609  35.840  1.00  0.00     0.037 A 
ATOM     31  C   UNL A   1      43.339  32.694  40.115  1.00  0.00     0.049 A 
ATOM     32  C   UNL A   1      44.192  27.989  37.009  1.00  0.00     0.074 A 
ATOM     33  C   UNL A   1      44.234  32.899  41.146  1.00  0.00     0.029 A 
ATOM     34  N   UNL A   1      43.724  31.524  39.470  1.00  0.00    -0.354 N 
ATOM     35  N   UNL A   1      44.079  29.019  37.817  1.00  0.00    -0.248 NA
ATOM     36  C   UNL A   1      45.345  27.128  37.286  1.00  0.00     0.031 C 
ATOM     37  C   UNL A   1      45.178  31.866  41.108  1.00  0.00     0.029 A 
ATOM     38  C   UNL A   1      44.850  30.999  40.075  1.00  0.00     0.049 A 
ATOM     39  H   UNL A   1      43.262  31.128  38.696  1.00  0.00     0.167 HD
ATOM     40  C   UNL A   1      45.152  28.939  38.688  1.00  0.00     0.074 A 
ATOM     41  C   UNL A   1      45.880  27.734  38.337  1.00  0.00     0.031 C 
ATOM     42  C   UNL A   1      45.524  29.790  39.676  1.00  0.00     0.037 A 
BRANCH  29  43
ATOM     43  C   UNL A   1      41.897  34.752  40.475  1.00  0.00     0.064 A 
ATOM     44  C   UNL A   1      41.102  34.789  41.628  1.00  0.00     0.173 A 
ATOM     45  C   UNL A   1      42.425  35.968  40.008  1.00  0.00     0.173 A 
ATOM     46  F   UNL A   1      40.551  33.663  42.104  1.00  0.00    -0.203 F 
ATOM     47  C   UNL A   1      40.823  35.996  42.271  1.00  0.00     0.198 A 
ATOM     48  C   UNL A   1      42.167  37.167  40.666  1.00  0.00     0.198 A 
ATOM     49  F   UNL A   1      43.189  35.993  38.905  1.00  0.00    -0.203 F 
ATOM     50  F   UNL A   1      40.017  36.012  43.341  1.00  0.00    -0.200 F 
ATOM     51  C   UNL A   1      41.359  37.182  41.792  1.00  0.00     0.200 A 
ATOM     52  F   UNL A   1      42.689  38.312  40.202  1.00  0.00    -0.200 F 
ATOM     53  F   UNL A   1      41.089  38.341  42.411  1.00  0.00    -0.200 F 
ENDBRANCH  29  43
BRANCH  30  54
ATOM     54  C   UNL A   1      43.638  26.436  34.975  1.00  0.00     0.064 A 
ATOM     55  C   UNL A   1      44.487  26.555  33.866  1.00  0.00     0.173 A 
ATOM     56  C   UNL A   1      43.105  25.164  35.244  1.00  0.00     0.173 A 
ATOM     57  F   UNL A   1      45.008  27.749  33.547  1.00  0.00    -0.203 F 
ATOM     58  C   UNL A   1      44.781  25.456  33.059  1.00  0.00     0.198 A 
ATOM     59  C   UNL A   1      43.430  24.058  34.461  1.00  0.00     0.198 A 
ATOM     60  F   UNL A   1      42.284  24.985  36.291  1.00  0.00    -0.203 F 
ATOM     61  F   UNL A   1      45.558  25.610  31.979  1.00  0.00    -0.200 F 
ATOM     62  C   UNL A   1      44.260  24.206  33.363  1.00  0.00     0.200 A 
ATOM     63  F   UNL A   1      42.943  22.850  34.776  1.00  0.00    -0.200 F 
ATOM     64  F   UNL A   1      44.554  23.149  32.594  1.00  0.00    -0.200 F 
ENDBRANCH  30  54
BRANCH  42  65
ATOM     65  C   UNL A   1      46.762  29.423  40.430  1.00  0.00     0.064 A 
ATOM     66  C   UNL A   1      46.709  28.556  41.529  1.00  0.00     0.173 A 
ATOM     67  C   UNL A   1      48.010  29.910  40.020  1.00  0.00     0.173 A 
ATOM     68  F   UNL A   1      45.531  28.085  41.963  1.00  0.00    -0.203 F 
ATOM     69  C   UNL A   1      47.870  28.200  42.205  1.00  0.00     0.198 A 
ATOM     70  C   UNL A   1      49.171  29.530  40.682  1.00  0.00     0.198 A 
ATOM     71  F   UNL A   1      48.101  30.740  38.970  1.00  0.00    -0.203 F 
ATOM     72  F   UNL A   1      47.798  27.401  43.279  1.00  0.00    -0.200 F 
ATOM     73  C   UNL A   1      49.100  28.681  41.777  1.00  0.00     0.200 A 
ATOM     74  F   UNL A   1      50.359  29.988  40.264  1.00  0.00    -0.200 F 
ATOM     75  F   UNL A   1      50.218  28.329  42.426  1.00  0.00    -0.200 F 
ENDBRANCH  42  65
ENDBRANCH  16  17
ENDBRANCH   9  11
ENDBRANCH   8   9
ENDBRANCH   7   8
ENDBRANCH   6   7
ENDBRANCH   5   6
ENDBRANCH   4   5
ENDBRANCH   3   4
ENDBRANCH   2   3
ENDBRANCH   1   2
BRANCH   1  76
ATOM     76  C   UNL A   1      33.192  29.131  25.912  1.00  0.00     0.188 C 
BRANCH  76  77
ATOM     77  O   UNL A   1      31.912  29.115  26.538  1.00  0.00    -0.376 OA
BRANCH  77  78
ATOM     78  C   UNL A   1      31.661  27.910  27.262  1.00  0.00     0.202 C 
BRANCH  78  79
ATOM     79  C   UNL A   1      30.859  26.806  26.532  1.00  0.00     0.261 C 
BRANCH  79  80
ATOM     80  O   UNL A   1      31.642  25.960  25.665  1.00  0.00    -0.463 OA
BRANCH  80  81
ATOM     81  C   UNL A   1      31.983  24.717  26.078  1.00  0.00     0.310 C 
ATOM     82  O   UNL A   1      31.636  24.253  27.157  1.00  0.00    -0.252 OA
BRANCH  81  83
ATOM     83  C   UNL A   1      32.753  23.930  24.991  1.00  0.00     0.115 C 
ATOM     84  C   UNL A   1      32.068  24.283  23.651  1.00  0.00     0.043 C 
ATOM     85  C   UNL A   1      32.868  22.419  25.298  1.00  0.00     0.097 C 
ATOM     86  C   UNL A   1      32.276  23.318  22.537  1.00  0.00    -0.030 C 
ATOM     87  C   UNL A   1      32.799  21.447  24.095  1.00  0.00     0.041 C 
ATOM     88  C   UNL A   1      32.590  22.039  22.743  1.00  0.00    -0.030 C 
BRANCH  85  89
ATOM     89  C   UNL A   1      34.091  22.036  26.167  1.00  0.00     0.227 C 
ATOM     90  O   UNL A   1      33.923  21.430  27.228  1.00  0.00    -0.275 OA
ATOM     91  N   UNL A   1      35.378  22.243  25.637  1.00  0.00    -0.331 N 
ATOM     92  C   UNL A   1      36.266  21.084  25.711  1.00  0.00     0.181 C 
ATOM     93  C   UNL A   1      36.058  23.484  25.990  1.00  0.00     0.181 C 
ATOM     94  C   UNL A   1      37.637  21.308  25.034  1.00  0.00     0.284 C 
ATOM     95  C   UNL A   1      37.459  23.690  25.386  1.00  0.00     0.284 C 
ATOM     96  N   UNL A   1      38.345  22.527  25.432  1.00  0.00    -0.328 N 
ATOM     97  H   UNL A   1      39.044  22.680  24.704  1.00  0.00     0.348 HD
BRANCH  96  98
ATOM     98  C   UNL A   1      39.323  22.445  26.523  1.00  0.00     0.299 C 
BRANCH  98  99
ATOM     99  C   UNL A   1      40.665  21.782  26.278  1.00  0.00     0.010 A 
ATOM    100  C   UNL A   1      41.842  22.548  26.104  1.00  0.00     0.013 A 
ATOM    101  C   UNL A   1      40.788  20.386  26.297  1.00  0.00     0.060 A 
ATOM    102  C   UNL A   1      43.070  21.959  25.775  1.00  0.00     0.051 A 
ATOM    103  C   UNL A   1      42.022  19.830  26.010  1.00  0.00     0.166 A 
ATOM    104  C   UNL A   1      43.122  20.591  25.709  1.00  0.00     0.165 A 
ATOM    105  O   UNL A   1      42.304  18.505  25.964  1.00  0.00    -0.454 OA
ATOM    106  O   UNL A   1      44.204  19.839  25.371  1.00  0.00    -0.454 OA
ATOM    107  C   UNL A   1      43.627  18.516  25.398  1.00  0.00     0.468 C 
ENDBRANCH  98  99
ENDBRANCH  96  98
ENDBRANCH  85  89
ENDBRANCH  81  83
ENDBRANCH  80  81
ENDBRANCH  79  80
ENDBRANCH  78  79
ENDBRANCH  77  78
ENDBRANCH  76  77
ENDBRANCH   1  76
TORSDOF 23
ENDMDL
