MODEL 1
REMARK VINA RESULT:     -10.8      0.000      0.000
REMARK SMILES Cc1ccc(/C=C(\NC(=O)c2cccc(C)c2)C(=O)OCCOCCOCCOCCOC(=O)c2ccc(-c3c4nc(c(-c5c(F)c(F)c(F)c(F)c5F)c5ccc([nH]5)c(-c5c(F)c(F)c(F)c(F)c5F)c5nc(c(-c6c(F)c(F)c(F)c(F)c6F)c6ccc3[nH]6)C=C5)C=C4)cc2)cc1
REMARK SMILES IDX 26 1 25 2 24 3 23 4 22 5 21 6 20 7 18 8 19 9 7 10 6 11 5 12
REMARK SMILES IDX 1 13 2 14 3 15 99 16 4 17 98 18 8 19 9 20 10 22 11 23 12 24
REMARK SMILES IDX 17 25 13 26 15 27 14 28 16 29 27 30 28 31 29 32 30 33 31 34
REMARK SMILES IDX 32 35 33 36 34 37 35 38 36 39 97 40 37 41 96 42 38 43 39 44
REMARK SMILES IDX 40 45 90 46 41 47 95 48 89 49 91 50 42 51 94 52 88 53 87 54
REMARK SMILES IDX 43 56 75 57 55 58 74 59 56 60 59 61 73 62 92 63 57 64 58 65
REMARK SMILES IDX 72 67 93 68 60 69 44 70 45 71 53 72 46 73 47 74 51 75 54 76
REMARK SMILES IDX 48 77 49 78 52 79 50 80 76 81 77 82 85 83 78 84 79 85 83 86
REMARK SMILES IDX 86 87 80 88 81 89 84 90 82 91 61 92 62 93 70 94 63 95 64 96
REMARK SMILES IDX 68 97 71 98 65 99 66 100 69 101 67 102
REMARK H PARENT 8 21 91 55 59 66
REMARK Flexibility Score: inf
ROOT
ATOM      1  O   UNL A   1      32.230  29.529  24.674  1.00  0.00    -0.377 OA
ENDROOT
BRANCH   1   2
ATOM      2  C   UNL A   1      33.053  28.632  23.946  1.00  0.00     0.188 C 
BRANCH   2   3
ATOM      3  C   UNL A   1      32.272  27.863  22.872  1.00  0.00     0.188 C 
BRANCH   3   4
ATOM      4  O   UNL A   1      32.085  26.465  23.092  1.00  0.00    -0.376 OA
BRANCH   4   5
ATOM      5  C   UNL A   1      32.713  25.660  22.102  1.00  0.00     0.202 C 
BRANCH   5   6
ATOM      6  C   UNL A   1      32.641  24.150  22.323  1.00  0.00     0.261 C 
BRANCH   6   7
ATOM      7  O   UNL A   1      33.852  23.674  22.891  1.00  0.00    -0.459 OA
BRANCH   7   8
ATOM      8  C   UNL A   1      33.923  23.264  24.146  1.00  0.00     0.354 C 
ATOM      9  O   UNL A   1      33.079  23.577  24.986  1.00  0.00    -0.244 OA
BRANCH   8  10
ATOM     10  C   UNL A   1      35.021  22.175  24.361  1.00  0.00     0.128 C 
ATOM     11  C   UNL A   1      34.273  21.050  24.636  1.00  0.00     0.042 C 
BRANCH  11  12
ATOM     12  C   UNL A   1      33.879  19.625  24.937  1.00  0.00    -0.023 A 
ATOM     13  C   UNL A   1      33.022  15.352  24.974  1.00  0.00     0.044 C 
ATOM     14  C   UNL A   1      33.400  16.799  25.130  1.00  0.00    -0.051 A 
ATOM     15  C   UNL A   1      32.514  17.749  25.673  1.00  0.00     0.004 A 
ATOM     16  C   UNL A   1      34.613  17.247  24.637  1.00  0.00     0.004 A 
ATOM     17  C   UNL A   1      32.755  19.149  25.591  1.00  0.00     0.008 A 
ATOM     18  C   UNL A   1      34.840  18.623  24.551  1.00  0.00     0.008 A 
ENDBRANCH  11  12
BRANCH  10  19
ATOM     19  N   UNL A   1      36.455  22.492  24.158  1.00  0.00    -0.316 N 
ATOM     20  C   UNL A   1      37.482  22.022  25.184  1.00  0.00     0.255 C 
ATOM     21  H   UNL A   1      36.743  23.003  23.366  1.00  0.00     0.170 HD
ATOM     22  O   UNL A   1      36.769  21.561  26.092  1.00  0.00    -0.269 OA
BRANCH  20  23
ATOM     23  C   UNL A   1      39.353  22.309  25.556  1.00  0.00     0.040 A 
ATOM     24  C   UNL A   1      40.763  21.193  26.495  1.00  0.00     0.014 A 
ATOM     25  C   UNL A   1      38.930  23.812  26.287  1.00  0.00     0.017 A 
ATOM     26  C   UNL A   1      41.316  21.885  28.140  1.00  0.00     0.001 A 
ATOM     27  C   UNL A   1      39.706  24.435  27.625  1.00  0.00    -0.050 A 
ATOM     28  C   UNL A   1      40.847  23.533  28.541  1.00  0.00     0.003 A 
ATOM     29  C   UNL A   1      39.445  25.927  27.613  1.00  0.00     0.044 C 
ENDBRANCH  20  23
ENDBRANCH  10  19
ENDBRANCH   8  10
ENDBRANCH   7   8
ENDBRANCH   6   7
ENDBRANCH   5   6
ENDBRANCH   4   5
ENDBRANCH   3   4
ENDBRANCH   2   3
ENDBRANCH   1   2
BRANCH   1  30
ATOM     30  C   UNL A   1      32.734  29.870  25.962  1.00  0.00     0.188 C 
BRANCH  30  31
ATOM     31  C   UNL A   1      33.284  28.642  26.655  1.00  0.00     0.188 C 
BRANCH  31  32
ATOM     32  O   UNL A   1      34.384  28.986  27.479  1.00  0.00    -0.376 OA
BRANCH  32  33
ATOM     33  C   UNL A   1      34.973  30.258  27.317  1.00  0.00     0.202 C 
BRANCH  33  34
ATOM     34  C   UNL A   1      35.532  30.832  28.622  1.00  0.00     0.261 C 
BRANCH  34  35
ATOM     35  O   UNL A   1      35.461  32.275  28.580  1.00  0.00    -0.460 OA
BRANCH  35  36
ATOM     36  C   UNL A   1      35.317  32.898  29.785  1.00  0.00     0.338 C 
ATOM     37  O   UNL A   1      34.272  32.977  30.414  1.00  0.00    -0.246 OA
BRANCH  36  38
ATOM     38  C   UNL A   1      36.509  33.767  30.066  1.00  0.00     0.060 A 
ATOM     39  C   UNL A   1      37.598  33.720  29.197  1.00  0.00     0.016 A 
ATOM     40  C   UNL A   1      36.776  34.081  31.380  1.00  0.00     0.016 A 
ATOM     41  C   UNL A   1      38.902  33.531  29.717  1.00  0.00     0.010 A 
ATOM     42  C   UNL A   1      38.050  33.771  31.856  1.00  0.00     0.010 A 
ATOM     43  C   UNL A   1      39.121  33.310  31.070  1.00  0.00    -0.014 A 
BRANCH  43  44
ATOM     44  C   UNL A   1      40.426  32.876  31.802  1.00  0.00     0.031 A 
ATOM     45  C   UNL A   1      40.618  31.151  31.080  1.00  0.00     0.074 A 
ATOM     46  C   UNL A   1      41.326  33.985  32.547  1.00  0.00     0.049 A 
ATOM     47  N   UNL A   1      41.605  30.256  31.090  1.00  0.00    -0.248 NA
ATOM     48  C   UNL A   1      39.538  30.474  30.278  1.00  0.00     0.031 C 
ATOM     49  C   UNL A   1      42.992  34.419  32.740  1.00  0.00     0.029 A 
ATOM     50  N   UNL A   1      41.509  33.990  33.993  1.00  0.00    -0.354 N 
ATOM     51  C   UNL A   1      41.477  29.226  30.135  1.00  0.00     0.074 A 
ATOM     52  C   UNL A   1      40.132  29.425  29.665  1.00  0.00     0.031 C 
ATOM     53  C   UNL A   1      43.740  33.970  33.866  1.00  0.00     0.029 A 
ATOM     54  C   UNL A   1      42.897  33.057  34.631  1.00  0.00     0.049 A 
ATOM     55  H   UNL A   1      40.899  34.481  34.590  1.00  0.00     0.167 HD
ATOM     56  C   UNL A   1      42.547  28.429  29.715  1.00  0.00     0.037 A 
ATOM     57  C   UNL A   1      42.516  31.465  35.289  1.00  0.00     0.037 A 
ATOM     58  C   UNL A   1      43.664  28.382  30.651  1.00  0.00     0.049 A 
ATOM     59  C   UNL A   1      43.740  30.428  35.439  1.00  0.00     0.074 A 
ATOM     60  C   UNL A   1      45.010  28.703  30.568  1.00  0.00     0.029 A 
ATOM     61  N   UNL A   1      43.523  27.705  31.841  1.00  0.00    -0.354 N 
ATOM     62  N   UNL A   1      44.370  29.873  34.431  1.00  0.00    -0.248 NA
ATOM     63  C   UNL A   1      44.092  29.756  36.715  1.00  0.00     0.031 C 
ATOM     64  C   UNL A   1      45.590  28.514  31.836  1.00  0.00     0.029 A 
ATOM     65  C   UNL A   1      44.643  27.891  32.619  1.00  0.00     0.049 A 
ATOM     66  H   UNL A   1      42.737  27.169  32.096  1.00  0.00     0.167 HD
ATOM     67  C   UNL A   1      44.679  28.573  34.853  1.00  0.00     0.074 A 
ATOM     68  C   UNL A   1      44.650  28.615  36.291  1.00  0.00     0.031 C 
ATOM     69  C   UNL A   1      44.638  27.498  34.003  1.00  0.00     0.037 A 
BRANCH  56  70
ATOM     70  C   UNL A   1      42.875  27.744  28.333  1.00  0.00     0.064 A 
ATOM     71  C   UNL A   1      42.530  28.409  27.106  1.00  0.00     0.173 A 
ATOM     72  C   UNL A   1      43.215  26.394  28.148  1.00  0.00     0.173 A 
ATOM     73  F   UNL A   1      42.337  29.738  27.064  1.00  0.00    -0.203 F 
ATOM     74  C   UNL A   1      42.362  27.758  25.874  1.00  0.00     0.198 A 
ATOM     75  C   UNL A   1      43.133  25.758  26.882  1.00  0.00     0.198 A 
ATOM     76  F   UNL A   1      43.607  25.641  29.183  1.00  0.00    -0.203 F 
ATOM     77  F   UNL A   1      41.898  28.431  24.808  1.00  0.00    -0.200 F 
ATOM     78  C   UNL A   1      42.662  26.424  25.762  1.00  0.00     0.200 A 
ATOM     79  F   UNL A   1      43.494  24.471  26.756  1.00  0.00    -0.200 F 
ATOM     80  F   UNL A   1      42.523  25.793  24.585  1.00  0.00    -0.200 F 
ENDBRANCH  56  70
BRANCH  57  81
ATOM     81  C   UNL A   1      40.350  31.069  35.272  1.00  0.00     0.064 A 
ATOM     82  C   UNL A   1      39.243  32.091  36.122  1.00  0.00     0.173 A 
ATOM     83  C   UNL A   1      39.288  30.538  34.341  1.00  0.00     0.173 A 
ATOM     84  F   UNL A   1      39.581  32.680  37.312  1.00  0.00    -0.203 F 
ATOM     85  C   UNL A   1      38.126  32.782  35.656  1.00  0.00     0.198 A 
ATOM     86  C   UNL A   1      37.911  31.017  34.173  1.00  0.00     0.198 A 
ATOM     87  F   UNL A   1      39.455  29.483  33.528  1.00  0.00    -0.203 F 
ATOM     88  F   UNL A   1      37.855  34.034  36.073  1.00  0.00    -0.200 F 
ATOM     89  C   UNL A   1      37.383  32.162  34.739  1.00  0.00     0.200 A 
ATOM     90  F   UNL A   1      37.103  30.343  33.342  1.00  0.00    -0.200 F 
ATOM     91  F   UNL A   1      36.194  32.669  34.384  1.00  0.00    -0.200 F 
ENDBRANCH  57  81
BRANCH  69  92
ATOM     92  C   UNL A   1      44.473  26.026  34.378  1.00  0.00     0.064 A 
ATOM     93  C   UNL A   1      43.241  25.423  34.717  1.00  0.00     0.173 A 
ATOM     94  C   UNL A   1      45.548  25.117  34.228  1.00  0.00     0.173 A 
ATOM     95  F   UNL A   1      42.096  26.118  34.723  1.00  0.00    -0.203 F 
ATOM     96  C   UNL A   1      43.110  24.053  34.961  1.00  0.00     0.198 A 
ATOM     97  C   UNL A   1      45.414  23.743  34.471  1.00  0.00     0.198 A 
ATOM     98  F   UNL A   1      46.750  25.534  33.803  1.00  0.00    -0.203 F 
ATOM     99  F   UNL A   1      41.902  23.549  35.255  1.00  0.00    -0.200 F 
ATOM    100  C   UNL A   1      44.200  23.216  34.864  1.00  0.00     0.200 A 
ATOM    101  F   UNL A   1      46.462  22.927  34.297  1.00  0.00    -0.200 F 
ATOM    102  F   UNL A   1      44.073  21.908  35.124  1.00  0.00    -0.200 F 
ENDBRANCH  69  92
ENDBRANCH  43  44
ENDBRANCH  36  38
ENDBRANCH  35  36
ENDBRANCH  34  35
ENDBRANCH  33  34
ENDBRANCH  32  33
ENDBRANCH  31  32
ENDBRANCH  30  31
ENDBRANCH   1  30
TORSDOF 23
ENDMDL
MODEL 2
REMARK VINA RESULT:     -10.3      3.958      8.558
REMARK SMILES Cc1ccc(/C=C(\NC(=O)c2cccc(C)c2)C(=O)OCCOCCOCCOCCOC(=O)c2ccc(-c3c4nc(c(-c5c(F)c(F)c(F)c(F)c5F)c5ccc([nH]5)c(-c5c(F)c(F)c(F)c(F)c5F)c5nc(c(-c6c(F)c(F)c(F)c(F)c6F)c6ccc3[nH]6)C=C5)C=C4)cc2)cc1
REMARK SMILES IDX 26 1 25 2 24 3 23 4 22 5 21 6 20 7 18 8 19 9 7 10 6 11 5 12
REMARK SMILES IDX 1 13 2 14 3 15 99 16 4 17 98 18 8 19 9 20 10 22 11 23 12 24
REMARK SMILES IDX 17 25 13 26 15 27 14 28 16 29 27 30 28 31 29 32 30 33 31 34
REMARK SMILES IDX 32 35 33 36 34 37 35 38 36 39 97 40 37 41 96 42 38 43 39 44
REMARK SMILES IDX 40 45 90 46 41 47 95 48 89 49 91 50 42 51 94 52 88 53 87 54
REMARK SMILES IDX 43 56 75 57 55 58 74 59 56 60 59 61 73 62 92 63 57 64 58 65
REMARK SMILES IDX 72 67 93 68 60 69 44 70 45 71 53 72 46 73 47 74 51 75 54 76
REMARK SMILES IDX 48 77 49 78 52 79 50 80 76 81 77 82 85 83 78 84 79 85 83 86
REMARK SMILES IDX 86 87 80 88 81 89 84 90 82 91 61 92 62 93 70 94 63 95 64 96
REMARK SMILES IDX 68 97 71 98 65 99 66 100 69 101 67 102
REMARK H PARENT 8 21 91 55 59 66
REMARK Flexibility Score: inf
ROOT
ATOM      1  O   UNL A   1      33.674  32.517  27.597  1.00  0.00    -0.377 OA
ENDROOT
BRANCH   1   2
ATOM      2  C   UNL A   1      32.686  31.500  27.534  1.00  0.00     0.188 C 
BRANCH   2   3
ATOM      3  C   UNL A   1      32.564  30.890  26.131  1.00  0.00     0.188 C 
BRANCH   3   4
ATOM      4  O   UNL A   1      32.732  29.476  26.030  1.00  0.00    -0.376 OA
BRANCH   4   5
ATOM      5  C   UNL A   1      32.686  28.821  27.292  1.00  0.00     0.202 C 
BRANCH   5   6
ATOM      6  C   UNL A   1      31.536  27.836  27.494  1.00  0.00     0.261 C 
BRANCH   6   7
ATOM      7  O   UNL A   1      31.781  26.634  26.779  1.00  0.00    -0.459 OA
BRANCH   7   8
ATOM      8  C   UNL A   1      30.835  26.030  26.079  1.00  0.00     0.354 C 
ATOM      9  O   UNL A   1      29.787  25.642  26.595  1.00  0.00    -0.244 OA
BRANCH   8  10
ATOM     10  C   UNL A   1      31.093  26.093  24.540  1.00  0.00     0.128 C 
ATOM     11  C   UNL A   1      30.253  27.111  24.141  1.00  0.00     0.042 C 
BRANCH  11  12
ATOM     12  C   UNL A   1      29.540  28.136  23.295  1.00  0.00    -0.023 A 
ATOM     13  C   UNL A   1      28.084  31.662  21.186  1.00  0.00     0.044 C 
ATOM     14  C   UNL A   1      28.575  30.356  21.747  1.00  0.00    -0.051 A 
ATOM     15  C   UNL A   1      27.706  29.425  22.346  1.00  0.00     0.004 A 
ATOM     16  C   UNL A   1      29.933  30.090  21.775  1.00  0.00     0.004 A 
ATOM     17  C   UNL A   1      28.180  28.317  23.102  1.00  0.00     0.008 A 
ATOM     18  C   UNL A   1      30.393  29.006  22.526  1.00  0.00     0.008 A 
ENDBRANCH  11  12
BRANCH  10  19
ATOM     19  N   UNL A   1      32.122  25.234  23.907  1.00  0.00    -0.316 N 
ATOM     20  C   UNL A   1      31.746  23.829  23.444  1.00  0.00     0.255 C 
ATOM     21  H   UNL A   1      33.041  25.567  23.786  1.00  0.00     0.170 HD
ATOM     22  O   UNL A   1      30.591  23.697  23.881  1.00  0.00    -0.269 OA
BRANCH  20  23
ATOM     23  C   UNL A   1      32.657  22.257  22.795  1.00  0.00     0.040 A 
ATOM     24  C   UNL A   1      32.009  20.424  22.217  1.00  0.00     0.014 A 
ATOM     25  C   UNL A   1      33.670  22.325  24.189  1.00  0.00     0.017 A 
ATOM     26  C   UNL A   1      32.480  19.042  23.383  1.00  0.00     0.001 A 
ATOM     27  C   UNL A   1      34.236  20.971  24.981  1.00  0.00    -0.050 A 
ATOM     28  C   UNL A   1      33.677  19.385  24.627  1.00  0.00     0.003 A 
ATOM     29  C   UNL A   1      35.467  21.409  25.747  1.00  0.00     0.044 C 
ENDBRANCH  20  23
ENDBRANCH  10  19
ENDBRANCH   8  10
ENDBRANCH   7   8
ENDBRANCH   6   7
ENDBRANCH   5   6
ENDBRANCH   4   5
ENDBRANCH   3   4
ENDBRANCH   2   3
ENDBRANCH   1   2
BRANCH   1  30
ATOM     30  C   UNL A   1      33.222  33.735  28.180  1.00  0.00     0.188 C 
BRANCH  30  31
ATOM     31  C   UNL A   1      34.341  34.751  28.215  1.00  0.00     0.188 C 
BRANCH  31  32
ATOM     32  O   UNL A   1      34.269  35.532  29.395  1.00  0.00    -0.376 OA
BRANCH  32  33
ATOM     33  C   UNL A   1      33.011  35.704  30.010  1.00  0.00     0.202 C 
BRANCH  33  34
ATOM     34  C   UNL A   1      33.081  35.675  31.539  1.00  0.00     0.261 C 
BRANCH  34  35
ATOM     35  O   UNL A   1      34.181  34.832  31.952  1.00  0.00    -0.460 OA
BRANCH  35  36
ATOM     36  C   UNL A   1      34.599  34.990  33.241  1.00  0.00     0.338 C 
ATOM     37  O   UNL A   1      34.813  36.064  33.783  1.00  0.00    -0.246 OA
BRANCH  36  38
ATOM     38  C   UNL A   1      35.095  33.683  33.790  1.00  0.00     0.060 A 
ATOM     39  C   UNL A   1      36.021  33.696  34.832  1.00  0.00     0.016 A 
ATOM     40  C   UNL A   1      35.137  32.605  32.934  1.00  0.00     0.016 A 
ATOM     41  C   UNL A   1      37.204  32.924  34.726  1.00  0.00     0.010 A 
ATOM     42  C   UNL A   1      36.364  31.954  32.799  1.00  0.00     0.010 A 
ATOM     43  C   UNL A   1      37.509  32.212  33.574  1.00  0.00    -0.014 A 
BRANCH  43  44
ATOM     44  C   UNL A   1      38.831  31.488  33.180  1.00  0.00     0.031 A 
ATOM     45  C   UNL A   1      39.893  32.989  32.790  1.00  0.00     0.074 A 
ATOM     46  C   UNL A   1      39.020  29.929  33.539  1.00  0.00     0.049 A 
ATOM     47  N   UNL A   1      41.197  33.161  32.576  1.00  0.00    -0.248 NA
ATOM     48  C   UNL A   1      39.331  34.381  32.667  1.00  0.00     0.031 C 
ATOM     49  C   UNL A   1      40.230  28.858  34.165  1.00  0.00     0.029 A 
ATOM     50  N   UNL A   1      39.132  28.905  32.507  1.00  0.00    -0.354 N 
ATOM     51  C   UNL A   1      41.638  34.497  32.663  1.00  0.00     0.074 A 
ATOM     52  C   UNL A   1      40.392  35.217  32.711  1.00  0.00     0.031 C 
ATOM     53  C   UNL A   1      41.068  28.109  33.291  1.00  0.00     0.029 A 
ATOM     54  C   UNL A   1      40.781  28.529  31.923  1.00  0.00     0.049 A 
ATOM     55  H   UNL A   1      38.340  28.444  32.149  1.00  0.00     0.167 HD
ATOM     56  C   UNL A   1      42.976  34.855  32.855  1.00  0.00     0.037 A 
ATOM     57  C   UNL A   1      41.241  29.270  30.389  1.00  0.00     0.037 A 
ATOM     58  C   UNL A   1      43.934  33.825  32.471  1.00  0.00     0.049 A 
ATOM     59  C   UNL A   1      42.817  29.346  30.062  1.00  0.00     0.074 A 
ATOM     60  C   UNL A   1      44.933  33.135  33.140  1.00  0.00     0.029 A 
ATOM     61  N   UNL A   1      44.120  33.535  31.139  1.00  0.00    -0.354 N 
ATOM     62  N   UNL A   1      43.672  30.110  30.699  1.00  0.00    -0.248 NA
ATOM     63  C   UNL A   1      43.423  28.799  28.821  1.00  0.00     0.031 C 
ATOM     64  C   UNL A   1      45.490  32.194  32.257  1.00  0.00     0.029 A 
ATOM     65  C   UNL A   1      44.967  32.458  31.010  1.00  0.00     0.049 A 
ATOM     66  H   UNL A   1      43.708  34.026  30.391  1.00  0.00     0.167 HD
ATOM     67  C   UNL A   1      44.585  30.543  29.729  1.00  0.00     0.074 A 
ATOM     68  C   UNL A   1      44.495  29.585  28.658  1.00  0.00     0.031 C 
ATOM     69  C   UNL A   1      45.120  31.805  29.737  1.00  0.00     0.037 A 
BRANCH  56  70
ATOM     70  C   UNL A   1      43.648  36.069  33.606  1.00  0.00     0.064 A 
ATOM     71  C   UNL A   1      44.755  36.759  33.001  1.00  0.00     0.173 A 
ATOM     72  C   UNL A   1      43.478  36.389  34.963  1.00  0.00     0.173 A 
ATOM     73  F   UNL A   1      44.970  36.704  31.676  1.00  0.00    -0.203 F 
ATOM     74  C   UNL A   1      45.691  37.526  33.711  1.00  0.00     0.198 A 
ATOM     75  C   UNL A   1      44.374  37.240  35.659  1.00  0.00     0.198 A 
ATOM     76  F   UNL A   1      42.464  35.868  35.665  1.00  0.00    -0.203 F 
ATOM     77  F   UNL A   1      46.777  38.017  33.091  1.00  0.00    -0.200 F 
ATOM     78  C   UNL A   1      45.502  37.766  35.049  1.00  0.00     0.200 A 
ATOM     79  F   UNL A   1      44.152  37.532  36.950  1.00  0.00    -0.200 F 
ATOM     80  F   UNL A   1      46.380  38.514  35.735  1.00  0.00    -0.200 F 
ENDBRANCH  56  70
BRANCH  57  81
ATOM     81  C   UNL A   1      39.578  30.402  29.496  1.00  0.00     0.064 A 
ATOM     82  C   UNL A   1      38.086  29.629  29.081  1.00  0.00     0.173 A 
ATOM     83  C   UNL A   1      38.954  31.774  29.568  1.00  0.00     0.173 A 
ATOM     84  F   UNL A   1      38.051  28.341  28.617  1.00  0.00    -0.203 F 
ATOM     85  C   UNL A   1      36.783  29.930  29.477  1.00  0.00     0.198 A 
ATOM     86  C   UNL A   1      37.528  32.122  29.534  1.00  0.00     0.198 A 
ATOM     87  F   UNL A   1      39.651  32.918  29.639  1.00  0.00    -0.203 F 
ATOM     88  F   UNL A   1      35.905  28.957  29.786  1.00  0.00    -0.200 F 
ATOM     89  C   UNL A   1      36.480  31.224  29.588  1.00  0.00     0.200 A 
ATOM     90  F   UNL A   1      37.193  33.420  29.528  1.00  0.00    -0.200 F 
ATOM     91  F   UNL A   1      35.206  31.599  29.771  1.00  0.00    -0.200 F 
ENDBRANCH  57  81
BRANCH  69  92
ATOM     92  C   UNL A   1      45.713  32.568  28.554  1.00  0.00     0.064 A 
ATOM     93  C   UNL A   1      44.979  32.974  27.418  1.00  0.00     0.173 A 
ATOM     94  C   UNL A   1      47.031  33.083  28.614  1.00  0.00     0.173 A 
ATOM     95  F   UNL A   1      43.668  32.720  27.300  1.00  0.00    -0.203 F 
ATOM     96  C   UNL A   1      45.530  33.755  26.398  1.00  0.00     0.198 A 
ATOM     97  C   UNL A   1      47.582  33.867  27.590  1.00  0.00     0.198 A 
ATOM     98  F   UNL A   1      47.808  32.869  29.686  1.00  0.00    -0.203 F 
ATOM     99  F   UNL A   1      44.762  34.121  25.361  1.00  0.00    -0.200 F 
ATOM    100  C   UNL A   1      46.838  34.180  26.470  1.00  0.00     0.200 A 
ATOM    101  F   UNL A   1      48.829  34.341  27.707  1.00  0.00    -0.200 F 
ATOM    102  F   UNL A   1      47.368  34.906  25.478  1.00  0.00    -0.200 F 
ENDBRANCH  69  92
ENDBRANCH  43  44
ENDBRANCH  36  38
ENDBRANCH  35  36
ENDBRANCH  34  35
ENDBRANCH  33  34
ENDBRANCH  32  33
ENDBRANCH  31  32
ENDBRANCH  30  31
ENDBRANCH   1  30
TORSDOF 23
ENDMDL
MODEL 3
REMARK VINA RESULT:     -10.1      1.539      2.538
REMARK SMILES Cc1ccc(/C=C(\NC(=O)c2cccc(C)c2)C(=O)OCCOCCOCCOCCOC(=O)c2ccc(-c3c4nc(c(-c5c(F)c(F)c(F)c(F)c5F)c5ccc([nH]5)c(-c5c(F)c(F)c(F)c(F)c5F)c5nc(c(-c6c(F)c(F)c(F)c(F)c6F)c6ccc3[nH]6)C=C5)C=C4)cc2)cc1
REMARK SMILES IDX 26 1 25 2 24 3 23 4 22 5 21 6 20 7 18 8 19 9 7 10 6 11 5 12
REMARK SMILES IDX 1 13 2 14 3 15 99 16 4 17 98 18 8 19 9 20 10 22 11 23 12 24
REMARK SMILES IDX 17 25 13 26 15 27 14 28 16 29 27 30 28 31 29 32 30 33 31 34
REMARK SMILES IDX 32 35 33 36 34 37 35 38 36 39 97 40 37 41 96 42 38 43 39 44
REMARK SMILES IDX 40 45 90 46 41 47 95 48 89 49 91 50 42 51 94 52 88 53 87 54
REMARK SMILES IDX 43 56 75 57 55 58 74 59 56 60 59 61 73 62 92 63 57 64 58 65
REMARK SMILES IDX 72 67 93 68 60 69 44 70 45 71 53 72 46 73 47 74 51 75 54 76
REMARK SMILES IDX 48 77 49 78 52 79 50 80 76 81 77 82 85 83 78 84 79 85 83 86
REMARK SMILES IDX 86 87 80 88 81 89 84 90 82 91 61 92 62 93 70 94 63 95 64 96
REMARK SMILES IDX 68 97 71 98 65 99 66 100 69 101 67 102
REMARK H PARENT 8 21 91 55 59 66
REMARK Flexibility Score: inf
ROOT
ATOM      1  O   UNL A   1      31.077  29.060  24.279  1.00  0.00    -0.377 OA
ENDROOT
BRANCH   1   2
ATOM      2  C   UNL A   1      32.002  28.597  23.308  1.00  0.00     0.188 C 
BRANCH   2   3
ATOM      3  C   UNL A   1      31.389  27.549  22.370  1.00  0.00     0.188 C 
BRANCH   3   4
ATOM      4  O   UNL A   1      31.622  26.179  22.698  1.00  0.00    -0.376 OA
BRANCH   4   5
ATOM      5  C   UNL A   1      32.560  25.554  21.831  1.00  0.00     0.202 C 
BRANCH   5   6
ATOM      6  C   UNL A   1      32.933  24.113  22.175  1.00  0.00     0.261 C 
BRANCH   6   7
ATOM      7  O   UNL A   1      34.300  24.031  22.548  1.00  0.00    -0.459 OA
BRANCH   7   8
ATOM      8  C   UNL A   1      34.693  24.160  23.804  1.00  0.00     0.354 C 
ATOM      9  O   UNL A   1      34.201  24.997  24.561  1.00  0.00    -0.244 OA
BRANCH   8  10
ATOM     10  C   UNL A   1      35.637  23.003  24.260  1.00  0.00     0.128 C 
ATOM     11  C   UNL A   1      34.782  21.922  24.300  1.00  0.00     0.042 C 
BRANCH  11  12
ATOM     12  C   UNL A   1      34.246  20.520  24.446  1.00  0.00    -0.023 A 
ATOM     13  C   UNL A   1      33.339  16.259  24.286  1.00  0.00     0.044 C 
ATOM     14  C   UNL A   1      33.642  17.712  24.529  1.00  0.00    -0.051 A 
ATOM     15  C   UNL A   1      32.635  18.696  24.526  1.00  0.00     0.004 A 
ATOM     16  C   UNL A   1      34.956  18.125  24.662  1.00  0.00     0.004 A 
ATOM     17  C   UNL A   1      32.931  20.087  24.498  1.00  0.00     0.008 A 
ATOM     18  C   UNL A   1      35.241  19.492  24.625  1.00  0.00     0.008 A 
ENDBRANCH  11  12
BRANCH  10  19
ATOM     19  N   UNL A   1      37.090  23.235  24.441  1.00  0.00    -0.316 N 
ATOM     20  C   UNL A   1      37.632  23.556  25.831  1.00  0.00     0.255 C 
ATOM     21  H   UNL A   1      37.702  23.182  23.670  1.00  0.00     0.170 HD
ATOM     22  O   UNL A   1      36.596  23.689  26.504  1.00  0.00    -0.269 OA
BRANCH  20  23
ATOM     23  C   UNL A   1      39.299  24.144  26.604  1.00  0.00     0.040 A 
ATOM     24  C   UNL A   1      40.610  25.610  26.111  1.00  0.00     0.014 A 
ATOM     25  C   UNL A   1      39.867  22.519  26.500  1.00  0.00     0.017 A 
ATOM     26  C   UNL A   1      42.243  24.987  25.450  1.00  0.00     0.001 A 
ATOM     27  C   UNL A   1      41.448  22.118  26.150  1.00  0.00    -0.050 A 
ATOM     28  C   UNL A   1      42.608  23.276  25.634  1.00  0.00     0.003 A 
ATOM     29  C   UNL A   1      41.658  20.714  26.679  1.00  0.00     0.044 C 
ENDBRANCH  20  23
ENDBRANCH  10  19
ENDBRANCH   8  10
ENDBRANCH   7   8
ENDBRANCH   6   7
ENDBRANCH   5   6
ENDBRANCH   4   5
ENDBRANCH   3   4
ENDBRANCH   2   3
ENDBRANCH   1   2
BRANCH   1  30
ATOM     30  C   UNL A   1      31.678  29.533  25.480  1.00  0.00     0.188 C 
BRANCH  30  31
ATOM     31  C   UNL A   1      31.530  28.510  26.584  1.00  0.00     0.188 C 
BRANCH  31  32
ATOM     32  O   UNL A   1      32.786  27.936  26.904  1.00  0.00    -0.376 OA
BRANCH  32  33
ATOM     33  C   UNL A   1      33.956  28.613  26.498  1.00  0.00     0.202 C 
BRANCH  33  34
ATOM     34  C   UNL A   1      34.689  29.292  27.657  1.00  0.00     0.261 C 
BRANCH  34  35
ATOM     35  O   UNL A   1      34.441  30.717  27.612  1.00  0.00    -0.460 OA
BRANCH  35  36
ATOM     36  C   UNL A   1      35.034  31.455  28.593  1.00  0.00     0.338 C 
ATOM     37  O   UNL A   1      34.442  32.029  29.495  1.00  0.00    -0.246 OA
BRANCH  36  38
ATOM     38  C   UNL A   1      36.458  31.758  28.225  1.00  0.00     0.060 A 
ATOM     39  C   UNL A   1      37.323  30.701  27.947  1.00  0.00     0.016 A 
ATOM     40  C   UNL A   1      37.021  32.903  28.742  1.00  0.00     0.016 A 
ATOM     41  C   UNL A   1      38.583  30.639  28.592  1.00  0.00     0.010 A 
ATOM     42  C   UNL A   1      38.210  32.755  29.456  1.00  0.00     0.010 A 
ATOM     43  C   UNL A   1      38.951  31.564  29.560  1.00  0.00    -0.014 A 
BRANCH  43  44
ATOM     44  C   UNL A   1      40.176  31.552  30.523  1.00  0.00     0.031 A 
ATOM     45  C   UNL A   1      40.811  29.816  30.182  1.00  0.00     0.074 A 
ATOM     46  C   UNL A   1      40.712  32.937  31.146  1.00  0.00     0.049 A 
ATOM     47  N   UNL A   1      41.935  29.171  30.492  1.00  0.00    -0.248 NA
ATOM     48  C   UNL A   1      40.028  28.797  29.396  1.00  0.00     0.031 C 
ATOM     49  C   UNL A   1      42.209  33.749  31.463  1.00  0.00     0.029 A 
ATOM     50  N   UNL A   1      40.648  33.219  32.576  1.00  0.00    -0.354 N 
ATOM     51  C   UNL A   1      42.166  27.996  29.748  1.00  0.00     0.074 A 
ATOM     52  C   UNL A   1      40.904  27.816  29.080  1.00  0.00     0.031 C 
ATOM     53  C   UNL A   1      42.832  33.665  32.740  1.00  0.00     0.029 A 
ATOM     54  C   UNL A   1      42.064  32.729  33.555  1.00  0.00     0.049 A 
ATOM     55  H   UNL A   1      39.866  33.656  32.982  1.00  0.00     0.167 HD
ATOM     56  C   UNL A   1      43.423  27.393  29.631  1.00  0.00     0.037 A 
ATOM     57  C   UNL A   1      41.891  31.222  34.457  1.00  0.00     0.037 A 
ATOM     58  C   UNL A   1      44.358  27.745  30.694  1.00  0.00     0.049 A 
ATOM     59  C   UNL A   1      43.249  30.516  34.960  1.00  0.00     0.074 A 
ATOM     60  C   UNL A   1      45.613  28.333  30.722  1.00  0.00     0.029 A 
ATOM     61  N   UNL A   1      44.154  27.258  31.964  1.00  0.00    -0.354 N 
ATOM     62  N   UNL A   1      44.131  29.954  34.169  1.00  0.00    -0.248 NA
ATOM     63  C   UNL A   1      43.507  30.155  36.377  1.00  0.00     0.031 C 
ATOM     64  C   UNL A   1      46.000  28.486  32.066  1.00  0.00     0.029 A 
ATOM     65  C   UNL A   1      45.074  27.809  32.828  1.00  0.00     0.049 A 
ATOM     66  H   UNL A   1      43.454  26.613  32.217  1.00  0.00     0.167 HD
ATOM     67  C   UNL A   1      44.609  28.840  34.872  1.00  0.00     0.074 A 
ATOM     68  C   UNL A   1      44.335  29.109  36.259  1.00  0.00     0.031 C 
ATOM     69  C   UNL A   1      44.915  27.657  34.250  1.00  0.00     0.037 A 
BRANCH  56  70
ATOM     70  C   UNL A   1      44.100  26.579  28.463  1.00  0.00     0.064 A 
ATOM     71  C   UNL A   1      44.101  25.141  28.501  1.00  0.00     0.173 A 
ATOM     72  C   UNL A   1      44.980  27.102  27.502  1.00  0.00     0.173 A 
ATOM     73  F   UNL A   1      43.207  24.464  29.240  1.00  0.00    -0.203 F 
ATOM     74  C   UNL A   1      45.008  24.333  27.798  1.00  0.00     0.198 A 
ATOM     75  C   UNL A   1      45.833  26.276  26.725  1.00  0.00     0.198 A 
ATOM     76  F   UNL A   1      45.068  28.423  27.304  1.00  0.00    -0.203 F 
ATOM     77  F   UNL A   1      45.032  23.005  28.002  1.00  0.00    -0.200 F 
ATOM     78  C   UNL A   1      45.881  24.903  26.907  1.00  0.00     0.200 A 
ATOM     79  F   UNL A   1      46.638  26.826  25.803  1.00  0.00    -0.200 F 
ATOM     80  F   UNL A   1      46.741  24.139  26.216  1.00  0.00    -0.200 F 
ENDBRANCH  56  70
BRANCH  57  81
ATOM     81  C   UNL A   1      39.874  30.366  34.240  1.00  0.00     0.064 A 
ATOM     82  C   UNL A   1      38.461  31.358  34.347  1.00  0.00     0.173 A 
ATOM     83  C   UNL A   1      39.165  29.279  33.470  1.00  0.00     0.173 A 
ATOM     84  F   UNL A   1      38.403  32.433  35.194  1.00  0.00    -0.203 F 
ATOM     85  C   UNL A   1      37.418  31.529  33.438  1.00  0.00     0.198 A 
ATOM     86  C   UNL A   1      37.826  29.321  32.872  1.00  0.00     0.198 A 
ATOM     87  F   UNL A   1      39.673  28.057  33.248  1.00  0.00    -0.203 F 
ATOM     88  F   UNL A   1      36.886  32.744  33.206  1.00  0.00    -0.200 F 
ATOM     89  C   UNL A   1      37.024  30.442  32.775  1.00  0.00     0.200 A 
ATOM     90  F   UNL A   1      37.353  28.205  32.297  1.00  0.00    -0.200 F 
ATOM     91  F   UNL A   1      35.907  30.478  32.032  1.00  0.00    -0.200 F 
ENDBRANCH  57  81
BRANCH  69  92
ATOM     92  C   UNL A   1      44.974  26.266  34.880  1.00  0.00     0.064 A 
ATOM     93  C   UNL A   1      46.129  25.707  35.471  1.00  0.00     0.173 A 
ATOM     94  C   UNL A   1      43.793  25.509  35.072  1.00  0.00     0.173 A 
ATOM     95  F   UNL A   1      47.285  26.383  35.533  1.00  0.00    -0.203 F 
ATOM     96  C   UNL A   1      46.124  24.472  36.125  1.00  0.00     0.198 A 
ATOM     97  C   UNL A   1      43.790  24.270  35.729  1.00  0.00     0.198 A 
ATOM     98  F   UNL A   1      42.603  25.969  34.659  1.00  0.00    -0.203 F 
ATOM     99  F   UNL A   1      47.255  24.017  36.684  1.00  0.00    -0.200 F 
ATOM    100  C   UNL A   1      44.962  23.741  36.231  1.00  0.00     0.200 A 
ATOM    101  F   UNL A   1      42.639  23.604  35.896  1.00  0.00    -0.200 F 
ATOM    102  F   UNL A   1      44.968  22.545  36.836  1.00  0.00    -0.200 F 
ENDBRANCH  69  92
ENDBRANCH  43  44
ENDBRANCH  36  38
ENDBRANCH  35  36
ENDBRANCH  34  35
ENDBRANCH  33  34
ENDBRANCH  32  33
ENDBRANCH  31  32
ENDBRANCH  30  31
ENDBRANCH   1  30
TORSDOF 23
ENDMDL
