MODEL 1
REMARK VINA RESULT:      -8.3      0.000      0.000
REMARK SMILES CCN(C(=O)C[NH2+][C@](C)(CC)C(=O)OCCOCCOCCOCCOC(=O)c1ccc(-c2c3nc(c(-c4c(F)c(F)c(F)c(F)c4F)c4ccc([nH]4)c(-c4c(F)c(F)c(F)c(F)c4F)c4nc(c(-c5c(F)c(F)c(F)c(F)c5F)c5ccc2[nH]5)C=C4)C=C3)cc1)C1CC1
REMARK SMILES IDX 18 1 17 2 16 3 15 4 14 5 12 6 13 7 8 8 9 9 7 10 6 13 4 14
REMARK SMILES IDX 5 15 3 16 2 17 1 18 92 19 93 20 94 21 10 22 11 23 19 24
REMARK SMILES IDX 20 25 21 26 22 27 23 28 24 29 25 30 26 31 27 32 28 33 29 34
REMARK SMILES IDX 30 35 91 36 31 37 90 38 32 39 33 40 34 41 84 42 35 43 89 44
REMARK SMILES IDX 83 45 85 46 36 47 88 48 82 49 81 50 37 52 69 53 49 54 68 55
REMARK SMILES IDX 50 56 53 57 67 58 86 59 51 60 52 61 66 63 87 64 54 65 38 66
REMARK SMILES IDX 39 67 47 68 40 69 41 70 45 71 48 72 42 73 43 74 46 75 44 76
REMARK SMILES IDX 70 77 71 78 79 79 72 80 73 81 77 82 80 83 74 84 75 85 78 86
REMARK SMILES IDX 76 87 55 88 56 89 64 90 57 91 58 92 62 93 65 94 59 95 60 96
REMARK SMILES IDX 63 97 61 98
REMARK H PARENT 7 11 7 12 85 51 53 62
REMARK Flexibility Score: inf
ROOT
ATOM      1  C   UNL A   1      35.190  33.257  28.236  1.00  0.00     0.188 C 
ENDROOT
BRANCH   1   2
ATOM      2  O   UNL A   1      35.177  32.027  27.532  1.00  0.00    -0.376 OA
BRANCH   2   3
ATOM      3  C   UNL A   1      34.052  31.160  27.684  1.00  0.00     0.202 C 
BRANCH   3   4
ATOM      4  C   UNL A   1      34.049  29.753  27.069  1.00  0.00     0.261 C 
BRANCH   4   5
ATOM      5  O   UNL A   1      33.163  29.600  25.933  1.00  0.00    -0.459 OA
BRANCH   5   6
ATOM      6  C   UNL A   1      32.259  28.583  26.006  1.00  0.00     0.367 C 
ATOM      7  O   UNL A   1      31.823  28.153  27.075  1.00  0.00    -0.245 OA
BRANCH   6   8
ATOM      8  C   UNL A   1      31.941  27.888  24.639  1.00  0.00     0.191 C 
ATOM      9  C   UNL A   1      30.632  27.101  24.876  1.00  0.00     0.092 C 
BRANCH   8  10
ATOM     10  N   UNL A   1      32.989  26.842  24.432  1.00  0.00    -0.325 N 
ATOM     11  H   UNL A   1      33.476  27.049  23.560  1.00  0.00     0.347 HD
ATOM     12  H   UNL A   1      33.597  26.878  25.250  1.00  0.00     0.347 HD
BRANCH  10  13
ATOM     13  C   UNL A   1      32.479  25.465  24.355  1.00  0.00     0.362 C 
BRANCH  13  14
ATOM     14  C   UNL A   1      33.175  24.597  25.407  1.00  0.00     0.277 C 
ATOM     15  O   UNL A   1      33.751  25.143  26.355  1.00  0.00    -0.268 OA
BRANCH  14  16
ATOM     16  N   UNL A   1      33.106  23.205  25.272  1.00  0.00    -0.335 N 
BRANCH  16  17
ATOM     17  C   UNL A   1      32.001  22.487  24.626  1.00  0.00     0.116 C 
ATOM     18  C   UNL A   1      31.898  21.042  25.087  1.00  0.00     0.027 C 
ENDBRANCH  16  17
BRANCH  16  19
ATOM     19  C   UNL A   1      34.263  22.438  25.683  1.00  0.00     0.085 C 
ATOM     20  C   UNL A   1      35.121  21.797  24.622  1.00  0.00     0.027 C 
ATOM     21  C   UNL A   1      35.699  22.855  25.509  1.00  0.00     0.027 C 
ENDBRANCH  16  19
ENDBRANCH  14  16
ENDBRANCH  13  14
ENDBRANCH  10  13
ENDBRANCH   8  10
BRANCH   8  22
ATOM     22  C   UNL A   1      31.854  28.771  23.361  1.00  0.00     0.077 C 
ATOM     23  C   UNL A   1      33.106  28.971  22.506  1.00  0.00     0.011 C 
ENDBRANCH   8  22
ENDBRANCH   6   8
ENDBRANCH   5   6
ENDBRANCH   4   5
ENDBRANCH   3   4
ENDBRANCH   2   3
ENDBRANCH   1   2
BRANCH   1  24
ATOM     24  C   UNL A   1      35.949  33.284  29.564  1.00  0.00     0.188 C 
BRANCH  24  25
ATOM     25  O   UNL A   1      35.812  34.479  30.315  1.00  0.00    -0.377 OA
BRANCH  25  26
ATOM     26  C   UNL A   1      34.539  35.119  30.391  1.00  0.00     0.188 C 
BRANCH  26  27
ATOM     27  C   UNL A   1      33.603  34.763  31.550  1.00  0.00     0.188 C 
BRANCH  27  28
ATOM     28  O   UNL A   1      33.721  33.461  32.128  1.00  0.00    -0.376 OA
BRANCH  28  29
ATOM     29  C   UNL A   1      34.139  33.343  33.485  1.00  0.00     0.202 C 
BRANCH  29  30
ATOM     30  C   UNL A   1      35.645  33.198  33.699  1.00  0.00     0.261 C 
BRANCH  30  31
ATOM     31  O   UNL A   1      36.147  31.939  33.227  1.00  0.00    -0.460 OA
BRANCH  31  32
ATOM     32  C   UNL A   1      37.352  31.581  33.732  1.00  0.00     0.338 C 
ATOM     33  O   UNL A   1      37.728  31.659  34.886  1.00  0.00    -0.246 OA
BRANCH  32  34
ATOM     34  C   UNL A   1      38.154  30.937  32.677  1.00  0.00     0.060 A 
ATOM     35  C   UNL A   1      39.120  29.999  33.061  1.00  0.00     0.016 A 
ATOM     36  C   UNL A   1      38.028  31.324  31.341  1.00  0.00     0.016 A 
ATOM     37  C   UNL A   1      40.007  29.487  32.119  1.00  0.00     0.010 A 
ATOM     38  C   UNL A   1      38.925  30.821  30.397  1.00  0.00     0.010 A 
ATOM     39  C   UNL A   1      39.943  29.937  30.794  1.00  0.00    -0.014 A 
BRANCH  39  40
ATOM     40  C   UNL A   1      41.060  29.643  29.869  1.00  0.00     0.031 A 
ATOM     41  C   UNL A   1      41.117  28.284  29.228  1.00  0.00     0.074 A 
ATOM     42  C   UNL A   1      41.995  30.568  29.601  1.00  0.00     0.049 A 
ATOM     43  N   UNL A   1      42.029  27.772  28.443  1.00  0.00    -0.248 NA
ATOM     44  C   UNL A   1      39.993  27.378  29.518  1.00  0.00     0.031 C 
ATOM     45  C   UNL A   1      42.012  31.928  30.134  1.00  0.00     0.029 A 
ATOM     46  N   UNL A   1      43.119  30.494  28.821  1.00  0.00    -0.354 N 
ATOM     47  C   UNL A   1      41.593  26.486  28.152  1.00  0.00     0.074 A 
ATOM     48  C   UNL A   1      40.351  26.283  28.866  1.00  0.00     0.031 C 
ATOM     49  C   UNL A   1      43.108  32.558  29.677  1.00  0.00     0.029 A 
ATOM     50  C   UNL A   1      43.881  31.635  28.848  1.00  0.00     0.049 A 
ATOM     51  H   UNL A   1      43.357  29.699  28.290  1.00  0.00     0.167 HD
ATOM     52  C   UNL A   1      42.175  25.560  27.354  1.00  0.00     0.037 A 
ATOM     53  C   UNL A   1      45.078  31.888  28.287  1.00  0.00     0.037 A 
ATOM     54  C   UNL A   1      43.411  25.771  26.650  1.00  0.00     0.049 A 
ATOM     55  C   UNL A   1      45.741  30.815  27.461  1.00  0.00     0.074 A 
ATOM     56  C   UNL A   1      44.082  24.906  25.804  1.00  0.00     0.029 A 
ATOM     57  N   UNL A   1      44.168  26.932  26.720  1.00  0.00    -0.354 N 
ATOM     58  N   UNL A   1      45.315  29.610  27.170  1.00  0.00    -0.248 NA
ATOM     59  C   UNL A   1      47.053  31.142  26.882  1.00  0.00     0.031 C 
ATOM     60  C   UNL A   1      45.270  25.526  25.401  1.00  0.00     0.029 A 
ATOM     61  C   UNL A   1      45.312  26.797  25.952  1.00  0.00     0.049 A 
ATOM     62  H   UNL A   1      43.927  27.732  27.239  1.00  0.00     0.167 HD
ATOM     63  C   UNL A   1      46.288  29.045  26.354  1.00  0.00     0.074 A 
ATOM     64  C   UNL A   1      47.320  30.046  26.186  1.00  0.00     0.031 C 
ATOM     65  C   UNL A   1      46.323  27.812  25.792  1.00  0.00     0.037 A 
BRANCH  52  66
ATOM     66  C   UNL A   1      41.494  24.229  27.226  1.00  0.00     0.064 A 
ATOM     67  C   UNL A   1      40.356  24.054  26.426  1.00  0.00     0.173 A 
ATOM     68  C   UNL A   1      42.003  23.105  27.896  1.00  0.00     0.173 A 
ATOM     69  F   UNL A   1      39.820  25.100  25.779  1.00  0.00    -0.203 F 
ATOM     70  C   UNL A   1      39.737  22.811  26.321  1.00  0.00     0.198 A 
ATOM     71  C   UNL A   1      41.399  21.858  27.767  1.00  0.00     0.198 A 
ATOM     72  F   UNL A   1      43.091  23.217  28.674  1.00  0.00    -0.203 F 
ATOM     73  F   UNL A   1      38.621  22.679  25.589  1.00  0.00    -0.200 F 
ATOM     74  C   UNL A   1      40.263  21.713  26.985  1.00  0.00     0.200 A 
ATOM     75  F   UNL A   1      41.915  20.796  28.402  1.00  0.00    -0.200 F 
ATOM     76  F   UNL A   1      39.670  20.516  26.879  1.00  0.00    -0.200 F 
ENDBRANCH  52  66
BRANCH  53  77
ATOM     77  C   UNL A   1      45.734  33.205  28.496  1.00  0.00     0.064 A 
ATOM     78  C   UNL A   1      46.611  33.414  29.568  1.00  0.00     0.173 A 
ATOM     79  C   UNL A   1      45.487  34.284  27.635  1.00  0.00     0.173 A 
ATOM     80  F   UNL A   1      46.860  32.418  30.432  1.00  0.00    -0.203 F 
ATOM     81  C   UNL A   1      47.203  34.656  29.782  1.00  0.00     0.198 A 
ATOM     82  C   UNL A   1      46.102  35.519  27.834  1.00  0.00     0.198 A 
ATOM     83  F   UNL A   1      44.655  34.137  26.594  1.00  0.00    -0.203 F 
ATOM     84  F   UNL A   1      48.003  34.841  30.842  1.00  0.00    -0.200 F 
ATOM     85  C   UNL A   1      46.952  35.706  28.912  1.00  0.00     0.200 A 
ATOM     86  F   UNL A   1      45.865  36.526  26.983  1.00  0.00    -0.200 F 
ATOM     87  F   UNL A   1      47.525  36.900  29.117  1.00  0.00    -0.200 F 
ENDBRANCH  53  77
BRANCH  65  88
ATOM     88  C   UNL A   1      47.495  27.489  24.910  1.00  0.00     0.064 A 
ATOM     89  C   UNL A   1      47.489  27.784  23.539  1.00  0.00     0.173 A 
ATOM     90  C   UNL A   1      48.654  26.919  25.457  1.00  0.00     0.173 A 
ATOM     91  F   UNL A   1      46.398  28.316  22.968  1.00  0.00    -0.203 F 
ATOM     92  C   UNL A   1      48.594  27.495  22.743  1.00  0.00     0.198 A 
ATOM     93  C   UNL A   1      49.769  26.661  24.663  1.00  0.00     0.198 A 
ATOM     94  F   UNL A   1      48.714  26.626  26.764  1.00  0.00    -0.203 F 
ATOM     95  F   UNL A   1      48.550  27.742  21.426  1.00  0.00    -0.200 F 
ATOM     96  C   UNL A   1      49.735  26.943  23.306  1.00  0.00     0.200 A 
ATOM     97  F   UNL A   1      50.875  26.141  25.212  1.00  0.00    -0.200 F 
ATOM     98  F   UNL A   1      50.800  26.674  22.538  1.00  0.00    -0.200 F 
ENDBRANCH  65  88
ENDBRANCH  39  40
ENDBRANCH  32  34
ENDBRANCH  31  32
ENDBRANCH  30  31
ENDBRANCH  29  30
ENDBRANCH  28  29
ENDBRANCH  27  28
ENDBRANCH  26  27
ENDBRANCH  25  26
ENDBRANCH  24  25
ENDBRANCH   1  24
TORSDOF 27
ENDMDL
MODEL 2
REMARK VINA RESULT:      -7.8      1.638      2.378
REMARK SMILES CCN(C(=O)C[NH2+][C@](C)(CC)C(=O)OCCOCCOCCOCCOC(=O)c1ccc(-c2c3nc(c(-c4c(F)c(F)c(F)c(F)c4F)c4ccc([nH]4)c(-c4c(F)c(F)c(F)c(F)c4F)c4nc(c(-c5c(F)c(F)c(F)c(F)c5F)c5ccc2[nH]5)C=C4)C=C3)cc1)C1CC1
REMARK SMILES IDX 18 1 17 2 16 3 15 4 14 5 12 6 13 7 8 8 9 9 7 10 6 13 4 14
REMARK SMILES IDX 5 15 3 16 2 17 1 18 92 19 93 20 94 21 10 22 11 23 19 24
REMARK SMILES IDX 20 25 21 26 22 27 23 28 24 29 25 30 26 31 27 32 28 33 29 34
REMARK SMILES IDX 30 35 91 36 31 37 90 38 32 39 33 40 34 41 84 42 35 43 89 44
REMARK SMILES IDX 83 45 85 46 36 47 88 48 82 49 81 50 37 52 69 53 49 54 68 55
REMARK SMILES IDX 50 56 53 57 67 58 86 59 51 60 52 61 66 63 87 64 54 65 38 66
REMARK SMILES IDX 39 67 47 68 40 69 41 70 45 71 48 72 42 73 43 74 46 75 44 76
REMARK SMILES IDX 70 77 71 78 79 79 72 80 73 81 77 82 80 83 74 84 75 85 78 86
REMARK SMILES IDX 76 87 55 88 56 89 64 90 57 91 58 92 62 93 65 94 59 95 60 96
REMARK SMILES IDX 63 97 61 98
REMARK H PARENT 7 11 7 12 85 51 53 62
REMARK Flexibility Score: inf
ROOT
ATOM      1  C   UNL A   1      35.386  33.041  28.177  1.00  0.00     0.188 C 
ENDROOT
BRANCH   1   2
ATOM      2  O   UNL A   1      35.221  31.776  27.558  1.00  0.00    -0.376 OA
BRANCH   2   3
ATOM      3  C   UNL A   1      34.018  31.046  27.799  1.00  0.00     0.202 C 
BRANCH   3   4
ATOM      4  C   UNL A   1      33.457  30.075  26.748  1.00  0.00     0.261 C 
BRANCH   4   5
ATOM      5  O   UNL A   1      32.010  30.044  26.677  1.00  0.00    -0.459 OA
BRANCH   5   6
ATOM      6  C   UNL A   1      31.463  28.996  26.000  1.00  0.00     0.367 C 
ATOM      7  O   UNL A   1      31.440  27.850  26.450  1.00  0.00    -0.245 OA
BRANCH   6   8
ATOM      8  C   UNL A   1      31.016  29.322  24.534  1.00  0.00     0.191 C 
ATOM      9  C   UNL A   1      30.215  28.086  24.067  1.00  0.00     0.092 C 
BRANCH   8  10
ATOM     10  N   UNL A   1      32.254  29.321  23.694  1.00  0.00    -0.325 N 
ATOM     11  H   UNL A   1      32.557  30.287  23.575  1.00  0.00     0.347 HD
ATOM     12  H   UNL A   1      32.935  28.744  24.188  1.00  0.00     0.347 HD
BRANCH  10  13
ATOM     13  C   UNL A   1      32.092  28.723  22.361  1.00  0.00     0.362 C 
BRANCH  13  14
ATOM     14  C   UNL A   1      33.090  27.575  22.186  1.00  0.00     0.277 C 
ATOM     15  O   UNL A   1      34.246  27.829  21.829  1.00  0.00    -0.268 OA
BRANCH  14  16
ATOM     16  N   UNL A   1      32.661  26.273  22.470  1.00  0.00    -0.335 N 
BRANCH  16  17
ATOM     17  C   UNL A   1      32.005  25.385  21.502  1.00  0.00     0.116 C 
ATOM     18  C   UNL A   1      32.533  25.574  20.089  1.00  0.00     0.027 C 
ENDBRANCH  16  17
BRANCH  16  19
ATOM     19  C   UNL A   1      33.006  25.726  23.765  1.00  0.00     0.085 C 
ATOM     20  C   UNL A   1      34.344  25.051  23.934  1.00  0.00     0.027 C 
ATOM     21  C   UNL A   1      34.030  26.291  24.712  1.00  0.00     0.027 C 
ENDBRANCH  16  19
ENDBRANCH  14  16
ENDBRANCH  13  14
ENDBRANCH  10  13
ENDBRANCH   8  10
BRANCH   8  22
ATOM     22  C   UNL A   1      30.235  30.642  24.275  1.00  0.00     0.077 C 
ATOM     23  C   UNL A   1      28.997  30.613  23.377  1.00  0.00     0.011 C 
ENDBRANCH   8  22
ENDBRANCH   6   8
ENDBRANCH   5   6
ENDBRANCH   4   5
ENDBRANCH   3   4
ENDBRANCH   2   3
ENDBRANCH   1   2
BRANCH   1  24
ATOM     24  C   UNL A   1      36.022  33.050  29.568  1.00  0.00     0.188 C 
BRANCH  24  25
ATOM     25  O   UNL A   1      35.748  34.201  30.350  1.00  0.00    -0.377 OA
BRANCH  25  26
ATOM     26  C   UNL A   1      34.410  34.688  30.439  1.00  0.00     0.188 C 
BRANCH  26  27
ATOM     27  C   UNL A   1      33.544  34.253  31.624  1.00  0.00     0.188 C 
BRANCH  27  28
ATOM     28  O   UNL A   1      34.060  33.242  32.493  1.00  0.00    -0.376 OA
BRANCH  28  29
ATOM     29  C   UNL A   1      34.540  33.617  33.782  1.00  0.00     0.202 C 
BRANCH  29  30
ATOM     30  C   UNL A   1      35.942  34.224  33.809  1.00  0.00     0.261 C 
BRANCH  30  31
ATOM     31  O   UNL A   1      36.945  33.310  33.344  1.00  0.00    -0.460 OA
BRANCH  31  32
ATOM     32  C   UNL A   1      38.186  33.838  33.226  1.00  0.00     0.338 C 
ATOM     33  O   UNL A   1      38.633  34.822  33.785  1.00  0.00    -0.246 OA
BRANCH  32  34
ATOM     34  C   UNL A   1      39.016  32.958  32.385  1.00  0.00     0.060 A 
ATOM     35  C   UNL A   1      39.988  32.168  33.011  1.00  0.00     0.016 A 
ATOM     36  C   UNL A   1      38.910  32.985  30.992  1.00  0.00     0.016 A 
ATOM     37  C   UNL A   1      40.899  31.446  32.246  1.00  0.00     0.010 A 
ATOM     38  C   UNL A   1      39.831  32.272  30.223  1.00  0.00     0.010 A 
ATOM     39  C   UNL A   1      40.853  31.538  30.849  1.00  0.00    -0.014 A 
BRANCH  39  40
ATOM     40  C   UNL A   1      41.990  31.035  30.047  1.00  0.00     0.031 A 
ATOM     41  C   UNL A   1      41.890  29.659  29.450  1.00  0.00     0.074 A 
ATOM     42  C   UNL A   1      43.083  31.792  29.851  1.00  0.00     0.049 A 
ATOM     43  N   UNL A   1      42.778  28.980  28.772  1.00  0.00    -0.248 NA
ATOM     44  C   UNL A   1      40.613  28.954  29.649  1.00  0.00     0.031 C 
ATOM     45  C   UNL A   1      43.267  33.152  30.348  1.00  0.00     0.029 A 
ATOM     46  N   UNL A   1      44.249  31.510  29.187  1.00  0.00    -0.354 N 
ATOM     47  C   UNL A   1      42.171  27.767  28.472  1.00  0.00     0.074 A 
ATOM     48  C   UNL A   1      40.852  27.791  29.064  1.00  0.00     0.031 C 
ATOM     49  C   UNL A   1      44.487  33.584  29.986  1.00  0.00     0.029 A 
ATOM     50  C   UNL A   1      45.177  32.518  29.262  1.00  0.00     0.049 A 
ATOM     51  H   UNL A   1      44.405  30.667  28.703  1.00  0.00     0.167 HD
ATOM     52  C   UNL A   1      42.670  26.730  27.759  1.00  0.00     0.037 A 
ATOM     53  C   UNL A   1      46.447  32.557  28.816  1.00  0.00     0.037 A 
ATOM     54  C   UNL A   1      43.985  26.715  27.176  1.00  0.00     0.049 A 
ATOM     55  C   UNL A   1      47.005  31.361  28.087  1.00  0.00     0.074 A 
ATOM     56  C   UNL A   1      44.586  25.723  26.423  1.00  0.00     0.029 A 
ATOM     57  N   UNL A   1      44.907  27.746  27.291  1.00  0.00    -0.354 N 
ATOM     58  N   UNL A   1      46.421  30.227  27.786  1.00  0.00    -0.248 NA
ATOM     59  C   UNL A   1      48.400  31.455  27.633  1.00  0.00     0.031 C 
ATOM     60  C   UNL A   1      45.890  26.132  26.124  1.00  0.00     0.029 A 
ATOM     61  C   UNL A   1      46.082  27.402  26.644  1.00  0.00     0.049 A 
ATOM     62  H   UNL A   1      44.750  28.595  27.763  1.00  0.00     0.167 HD
ATOM     63  C   UNL A   1      47.363  29.485  27.085  1.00  0.00     0.074 A 
ATOM     64  C   UNL A   1      48.553  30.304  26.995  1.00  0.00     0.031 C 
ATOM     65  C   UNL A   1      47.253  28.239  26.560  1.00  0.00     0.037 A 
BRANCH  52  66
ATOM     66  C   UNL A   1      41.801  25.518  27.598  1.00  0.00     0.064 A 
ATOM     67  C   UNL A   1      40.685  25.515  26.747  1.00  0.00     0.173 A 
ATOM     68  C   UNL A   1      42.102  24.333  28.286  1.00  0.00     0.173 A 
ATOM     69  F   UNL A   1      40.344  26.628  26.080  1.00  0.00    -0.203 F 
ATOM     70  C   UNL A   1      39.889  24.381  26.612  1.00  0.00     0.198 A 
ATOM     71  C   UNL A   1      41.321  23.191  28.127  1.00  0.00     0.198 A 
ATOM     72  F   UNL A   1      43.158  24.280  29.112  1.00  0.00    -0.203 F 
ATOM     73  F   UNL A   1      38.800  24.418  25.831  1.00  0.00    -0.200 F 
ATOM     74  C   UNL A   1      40.211  23.219  27.296  1.00  0.00     0.200 A 
ATOM     75  F   UNL A   1      41.640  22.066  28.781  1.00  0.00    -0.200 F 
ATOM     76  F   UNL A   1      39.448  22.125  27.161  1.00  0.00    -0.200 F 
ENDBRANCH  52  66
BRANCH  53  77
ATOM     77  C   UNL A   1      47.282  33.763  29.056  1.00  0.00     0.064 A 
ATOM     78  C   UNL A   1      47.318  34.813  28.130  1.00  0.00     0.173 A 
ATOM     79  C   UNL A   1      48.070  33.882  30.210  1.00  0.00     0.173 A 
ATOM     80  F   UNL A   1      46.598  34.734  27.001  1.00  0.00    -0.203 F 
ATOM     81  C   UNL A   1      48.123  35.931  28.340  1.00  0.00     0.198 A 
ATOM     82  C   UNL A   1      48.854  35.013  30.432  1.00  0.00     0.198 A 
ATOM     83  F   UNL A   1      48.073  32.904  31.127  1.00  0.00    -0.203 F 
ATOM     84  F   UNL A   1      48.172  36.901  27.417  1.00  0.00    -0.200 F 
ATOM     85  C   UNL A   1      48.887  36.032  29.493  1.00  0.00     0.200 A 
ATOM     86  F   UNL A   1      49.581  35.111  31.554  1.00  0.00    -0.200 F 
ATOM     87  F   UNL A   1      49.658  37.108  29.695  1.00  0.00    -0.200 F 
ENDBRANCH  53  77
BRANCH  65  88
ATOM     88  C   UNL A   1      48.436  27.701  25.808  1.00  0.00     0.064 A 
ATOM     89  C   UNL A   1      48.478  27.697  24.406  1.00  0.00     0.173 A 
ATOM     90  C   UNL A   1      49.559  27.227  26.502  1.00  0.00     0.173 A 
ATOM     91  F   UNL A   1      47.423  28.127  23.698  1.00  0.00    -0.203 F 
ATOM     92  C   UNL A   1      49.593  27.213  23.727  1.00  0.00     0.198 A 
ATOM     93  C   UNL A   1      50.684  26.773  25.820  1.00  0.00     0.198 A 
ATOM     94  F   UNL A   1      49.572  27.217  27.843  1.00  0.00    -0.203 F 
ATOM     95  F   UNL A   1      49.593  27.174  22.387  1.00  0.00    -0.200 F 
ATOM     96  C   UNL A   1      50.697  26.759  24.433  1.00  0.00     0.200 A 
ATOM     97  F   UNL A   1      51.756  26.349  26.504  1.00  0.00    -0.200 F 
ATOM     98  F   UNL A   1      51.772  26.302  23.777  1.00  0.00    -0.200 F 
ENDBRANCH  65  88
ENDBRANCH  39  40
ENDBRANCH  32  34
ENDBRANCH  31  32
ENDBRANCH  30  31
ENDBRANCH  29  30
ENDBRANCH  28  29
ENDBRANCH  27  28
ENDBRANCH  26  27
ENDBRANCH  25  26
ENDBRANCH  24  25
ENDBRANCH   1  24
TORSDOF 27
ENDMDL
MODEL 3
REMARK VINA RESULT:      -7.7      4.182      8.016
REMARK SMILES CCN(C(=O)C[NH2+][C@](C)(CC)C(=O)OCCOCCOCCOCCOC(=O)c1ccc(-c2c3nc(c(-c4c(F)c(F)c(F)c(F)c4F)c4ccc([nH]4)c(-c4c(F)c(F)c(F)c(F)c4F)c4nc(c(-c5c(F)c(F)c(F)c(F)c5F)c5ccc2[nH]5)C=C4)C=C3)cc1)C1CC1
REMARK SMILES IDX 18 1 17 2 16 3 15 4 14 5 12 6 13 7 8 8 9 9 7 10 6 13 4 14
REMARK SMILES IDX 5 15 3 16 2 17 1 18 92 19 93 20 94 21 10 22 11 23 19 24
REMARK SMILES IDX 20 25 21 26 22 27 23 28 24 29 25 30 26 31 27 32 28 33 29 34
REMARK SMILES IDX 30 35 91 36 31 37 90 38 32 39 33 40 34 41 84 42 35 43 89 44
REMARK SMILES IDX 83 45 85 46 36 47 88 48 82 49 81 50 37 52 69 53 49 54 68 55
REMARK SMILES IDX 50 56 53 57 67 58 86 59 51 60 52 61 66 63 87 64 54 65 38 66
REMARK SMILES IDX 39 67 47 68 40 69 41 70 45 71 48 72 42 73 43 74 46 75 44 76
REMARK SMILES IDX 70 77 71 78 79 79 72 80 73 81 77 82 80 83 74 84 75 85 78 86
REMARK SMILES IDX 76 87 55 88 56 89 64 90 57 91 58 92 62 93 65 94 59 95 60 96
REMARK SMILES IDX 63 97 61 98
REMARK H PARENT 7 11 7 12 85 51 53 62
REMARK Flexibility Score: inf
ROOT
ATOM      1  C   UNL A   1      37.278  29.839  28.174  1.00  0.00     0.188 C 
ENDROOT
BRANCH   1   2
ATOM      2  O   UNL A   1      37.957  30.008  29.406  1.00  0.00    -0.376 OA
BRANCH   2   3
ATOM      3  C   UNL A   1      37.264  30.618  30.495  1.00  0.00     0.202 C 
BRANCH   3   4
ATOM      4  C   UNL A   1      36.884  29.809  31.745  1.00  0.00     0.261 C 
BRANCH   4   5
ATOM      5  O   UNL A   1      37.945  28.962  32.251  1.00  0.00    -0.459 OA
BRANCH   5   6
ATOM      6  C   UNL A   1      38.998  29.599  32.836  1.00  0.00     0.367 C 
ATOM      7  O   UNL A   1      38.859  30.438  33.728  1.00  0.00    -0.245 OA
BRANCH   6   8
ATOM      8  C   UNL A   1      40.389  29.312  32.175  1.00  0.00     0.191 C 
ATOM      9  C   UNL A   1      40.763  30.614  31.431  1.00  0.00     0.092 C 
BRANCH   8  10
ATOM     10  N   UNL A   1      40.154  28.304  31.095  1.00  0.00    -0.325 N 
ATOM     11  H   UNL A   1      40.335  27.378  31.482  1.00  0.00     0.347 HD
ATOM     12  H   UNL A   1      39.189  28.429  30.789  1.00  0.00     0.347 HD
BRANCH  10  13
ATOM     13  C   UNL A   1      40.994  28.474  29.901  1.00  0.00     0.362 C 
BRANCH  13  14
ATOM     14  C   UNL A   1      40.536  27.508  28.806  1.00  0.00     0.277 C 
ATOM     15  O   UNL A   1      39.416  26.991  28.886  1.00  0.00    -0.268 OA
BRANCH  14  16
ATOM     16  N   UNL A   1      41.397  27.267  27.729  1.00  0.00    -0.335 N 
BRANCH  16  17
ATOM     17  C   UNL A   1      42.280  26.099  27.615  1.00  0.00     0.116 C 
ATOM     18  C   UNL A   1      41.554  24.871  27.089  1.00  0.00     0.027 C 
ENDBRANCH  16  17
BRANCH  16  19
ATOM     19  C   UNL A   1      41.314  28.164  26.596  1.00  0.00     0.085 C 
ATOM     20  C   UNL A   1      42.411  29.179  26.392  1.00  0.00     0.027 C 
ATOM     21  C   UNL A   1      42.183  28.111  25.368  1.00  0.00     0.027 C 
ENDBRANCH  16  19
ENDBRANCH  14  16
ENDBRANCH  13  14
ENDBRANCH  10  13
ENDBRANCH   8  10
BRANCH   8  22
ATOM     22  C   UNL A   1      41.551  28.816  33.081  1.00  0.00     0.077 C 
ATOM     23  C   UNL A   1      41.340  27.578  33.955  1.00  0.00     0.011 C 
ENDBRANCH   8  22
ENDBRANCH   6   8
ENDBRANCH   5   6
ENDBRANCH   4   5
ENDBRANCH   3   4
ENDBRANCH   2   3
ENDBRANCH   1   2
BRANCH   1  24
ATOM     24  C   UNL A   1      35.776  30.131  28.168  1.00  0.00     0.188 C 
BRANCH  24  25
ATOM     25  O   UNL A   1      35.408  31.395  27.641  1.00  0.00    -0.377 OA
BRANCH  25  26
ATOM     26  C   UNL A   1      34.069  31.861  27.804  1.00  0.00     0.188 C 
BRANCH  26  27
ATOM     27  C   UNL A   1      33.842  33.287  28.315  1.00  0.00     0.188 C 
BRANCH  27  28
ATOM     28  O   UNL A   1      34.745  33.795  29.300  1.00  0.00    -0.376 OA
BRANCH  28  29
ATOM     29  C   UNL A   1      34.434  33.619  30.679  1.00  0.00     0.202 C 
BRANCH  29  30
ATOM     30  C   UNL A   1      35.538  34.020  31.658  1.00  0.00     0.261 C 
BRANCH  30  31
ATOM     31  O   UNL A   1      36.792  34.257  31.002  1.00  0.00    -0.460 OA
BRANCH  31  32
ATOM     32  C   UNL A   1      37.807  34.610  31.826  1.00  0.00     0.338 C 
ATOM     33  O   UNL A   1      37.737  34.937  32.996  1.00  0.00    -0.246 OA
BRANCH  32  34
ATOM     34  C   UNL A   1      39.092  34.424  31.130  1.00  0.00     0.060 A 
ATOM     35  C   UNL A   1      40.244  34.244  31.905  1.00  0.00     0.016 A 
ATOM     36  C   UNL A   1      39.178  34.526  29.739  1.00  0.00     0.016 A 
ATOM     37  C   UNL A   1      41.497  34.226  31.298  1.00  0.00     0.010 A 
ATOM     38  C   UNL A   1      40.433  34.521  29.130  1.00  0.00     0.010 A 
ATOM     39  C   UNL A   1      41.596  34.416  29.913  1.00  0.00    -0.014 A 
BRANCH  39  40
ATOM     40  C   UNL A   1      42.915  34.707  29.310  1.00  0.00     0.031 A 
ATOM     41  C   UNL A   1      43.837  33.555  29.019  1.00  0.00     0.074 A 
ATOM     42  C   UNL A   1      43.277  35.967  29.022  1.00  0.00     0.049 A 
ATOM     43  N   UNL A   1      45.061  33.565  28.559  1.00  0.00    -0.248 NA
ATOM     44  C   UNL A   1      43.304  32.209  29.288  1.00  0.00     0.031 C 
ATOM     45  C   UNL A   1      42.446  37.151  29.224  1.00  0.00     0.029 A 
ATOM     46  N   UNL A   1      44.450  36.458  28.507  1.00  0.00    -0.354 N 
ATOM     47  C   UNL A   1      45.446  32.233  28.491  1.00  0.00     0.074 A 
ATOM     48  C   UNL A   1      44.339  31.442  28.982  1.00  0.00     0.031 C 
ATOM     49  C   UNL A   1      43.144  38.239  28.853  1.00  0.00     0.029 A 
ATOM     50  C   UNL A   1      44.478  37.827  28.419  1.00  0.00     0.049 A 
ATOM     51  H   UNL A   1      45.199  35.883  28.227  1.00  0.00     0.167 HD
ATOM     52  C   UNL A   1      46.617  31.717  28.051  1.00  0.00     0.037 A 
ATOM     53  C   UNL A   1      45.480  38.648  28.054  1.00  0.00     0.037 A 
ATOM     54  C   UNL A   1      47.714  32.512  27.566  1.00  0.00     0.049 A 
ATOM     55  C   UNL A   1      46.800  38.052  27.636  1.00  0.00     0.074 A 
ATOM     56  C   UNL A   1      48.939  32.092  27.083  1.00  0.00     0.029 A 
ATOM     57  N   UNL A   1      47.715  33.899  27.513  1.00  0.00    -0.354 N 
ATOM     58  N   UNL A   1      47.152  36.792  27.551  1.00  0.00    -0.248 NA
ATOM     59  C   UNL A   1      47.862  38.997  27.258  1.00  0.00     0.031 C 
ATOM     60  C   UNL A   1      49.702  33.226  26.784  1.00  0.00     0.029 A 
ATOM     61  C   UNL A   1      48.931  34.351  27.028  1.00  0.00     0.049 A 
ATOM     62  H   UNL A   1      46.964  34.475  27.779  1.00  0.00     0.167 HD
ATOM     63  C   UNL A   1      48.461  36.790  27.086  1.00  0.00     0.074 A 
ATOM     64  C   UNL A   1      48.836  38.175  26.894  1.00  0.00     0.031 C 
ATOM     65  C   UNL A   1      49.279  35.737  26.836  1.00  0.00     0.037 A 
BRANCH  52  66
ATOM     66  C   UNL A   1      46.781  30.226  28.102  1.00  0.00     0.064 A 
ATOM     67  C   UNL A   1      46.417  29.405  27.025  1.00  0.00     0.173 A 
ATOM     68  C   UNL A   1      47.332  29.612  29.238  1.00  0.00     0.173 A 
ATOM     69  F   UNL A   1      45.869  29.940  25.924  1.00  0.00    -0.203 F 
ATOM     70  C   UNL A   1      46.574  28.023  27.093  1.00  0.00     0.198 A 
ATOM     71  C   UNL A   1      47.515  28.233  29.291  1.00  0.00     0.198 A 
ATOM     72  F   UNL A   1      47.698  30.351  30.296  1.00  0.00    -0.203 F 
ATOM     73  F   UNL A   1      46.174  27.253  26.070  1.00  0.00    -0.200 F 
ATOM     74  C   UNL A   1      47.129  27.439  28.221  1.00  0.00     0.200 A 
ATOM     75  F   UNL A   1      48.061  27.672  30.378  1.00  0.00    -0.200 F 
ATOM     76  F   UNL A   1      47.286  26.109  28.283  1.00  0.00    -0.200 F 
ENDBRANCH  52  66
BRANCH  53  77
ATOM     77  C   UNL A   1      45.281  40.120  28.078  1.00  0.00     0.064 A 
ATOM     78  C   UNL A   1      44.795  40.803  26.956  1.00  0.00     0.173 A 
ATOM     79  C   UNL A   1      45.584  40.876  29.221  1.00  0.00     0.173 A 
ATOM     80  F   UNL A   1      44.512  40.126  25.833  1.00  0.00    -0.203 F 
ATOM     81  C   UNL A   1      44.635  42.187  26.968  1.00  0.00     0.198 A 
ATOM     82  C   UNL A   1      45.398  42.257  29.241  1.00  0.00     0.198 A 
ATOM     83  F   UNL A   1      46.054  40.271  30.322  1.00  0.00    -0.203 F 
ATOM     84  F   UNL A   1      44.210  42.819  25.865  1.00  0.00    -0.200 F 
ATOM     85  C   UNL A   1      44.932  42.912  28.112  1.00  0.00     0.200 A 
ATOM     86  F   UNL A   1      45.675  42.951  30.353  1.00  0.00    -0.200 F 
ATOM     87  F   UNL A   1      44.776  44.243  28.123  1.00  0.00    -0.200 F 
ENDBRANCH  53  77
BRANCH  65  88
ATOM     88  C   UNL A   1      50.645  36.039  26.291  1.00  0.00     0.064 A 
ATOM     89  C   UNL A   1      50.865  36.233  24.920  1.00  0.00     0.173 A 
ATOM     90  C   UNL A   1      51.737  36.180  27.161  1.00  0.00     0.173 A 
ATOM     91  F   UNL A   1      49.855  36.094  24.048  1.00  0.00    -0.203 F 
ATOM     92  C   UNL A   1      52.136  36.532  24.437  1.00  0.00     0.198 A 
ATOM     93  C   UNL A   1      53.000  36.510  26.677  1.00  0.00     0.198 A 
ATOM     94  F   UNL A   1      51.578  36.012  28.482  1.00  0.00    -0.203 F 
ATOM     95  F   UNL A   1      52.333  36.667  23.118  1.00  0.00    -0.200 F 
ATOM     96  C   UNL A   1      53.199  36.679  25.315  1.00  0.00     0.200 A 
ATOM     97  F   UNL A   1      54.023  36.666  27.528  1.00  0.00    -0.200 F 
ATOM     98  F   UNL A   1      54.420  36.976  24.848  1.00  0.00    -0.200 F 
ENDBRANCH  65  88
ENDBRANCH  39  40
ENDBRANCH  32  34
ENDBRANCH  31  32
ENDBRANCH  30  31
ENDBRANCH  29  30
ENDBRANCH  28  29
ENDBRANCH  27  28
ENDBRANCH  26  27
ENDBRANCH  25  26
ENDBRANCH  24  25
ENDBRANCH   1  24
TORSDOF 27
ENDMDL
