MODEL 1
REMARK VINA RESULT:     -11.3      0.000      0.000
REMARK SMILES Cc1ccc(-c2ncc(C(=O)OCCOCCOCCOCCOC(=O)c3ccc(-c4c5nc(c(-c6c(F)c(F)c(F)c(F)c6F)c6ccc([nH]6)c(-c6c(F)c(F)c(F)c(F)c6F)c6nc(c(-c7c(F)c(F)c(F)c(F)c7F)c7ccc4[nH]7)C=C6)C=C5)cc3)c(Nc3ccccc3)n2)cc1
REMARK SMILES IDX 18 1 17 2 16 3 15 4 14 5 13 6 12 7 10 8 11 9 9 10 6 11 7 12
REMARK SMILES IDX 98 13 8 14 90 15 5 16 1 17 2 18 3 19 100 20 4 21 99 22 91 23
REMARK SMILES IDX 92 25 93 26 97 27 94 28 96 29 95 30 19 31 20 32 21 33 22 34
REMARK SMILES IDX 23 35 24 36 25 37 26 38 27 39 28 40 89 41 29 42 88 43 30 44
REMARK SMILES IDX 31 45 32 46 82 47 33 48 87 49 81 50 83 51 34 52 86 53 80 54
REMARK SMILES IDX 79 55 35 57 67 58 47 59 66 60 48 61 51 62 65 63 84 64 49 65
REMARK SMILES IDX 50 66 64 68 85 69 52 70 36 71 37 72 45 73 38 74 39 75 43 76
REMARK SMILES IDX 46 77 40 78 41 79 44 80 42 81 68 82 69 83 77 84 70 85 71 86
REMARK SMILES IDX 75 87 78 88 72 89 73 90 76 91 74 92 53 93 54 94 62 95 55 96
REMARK SMILES IDX 56 97 60 98 63 99 57 100 58 101 61 102 59 103
REMARK H PARENT 91 24 83 56 51 67
REMARK Flexibility Score: inf
ROOT
ATOM      1  O   UNL A   1      33.310  27.033  24.195  1.00  0.00    -0.377 OA
ENDROOT
BRANCH   1   2
ATOM      2  C   UNL A   1      33.419  26.387  22.923  1.00  0.00     0.188 C 
BRANCH   2   3
ATOM      3  C   UNL A   1      32.150  25.867  22.210  1.00  0.00     0.188 C 
BRANCH   3   4
ATOM      4  O   UNL A   1      31.029  25.571  23.037  1.00  0.00    -0.376 OA
BRANCH   4   5
ATOM      5  C   UNL A   1      30.866  24.195  23.299  1.00  0.00     0.202 C 
BRANCH   5   6
ATOM      6  C   UNL A   1      30.994  23.979  24.785  1.00  0.00     0.261 C 
BRANCH   6   7
ATOM      7  O   UNL A   1      32.384  23.843  25.072  1.00  0.00    -0.460 OA
BRANCH   7   8
ATOM      8  C   UNL A   1      32.703  22.597  25.439  1.00  0.00     0.343 C 
ATOM      9  O   UNL A   1      31.963  21.662  25.611  1.00  0.00    -0.246 OA
BRANCH   8  10
ATOM     10  C   UNL A   1      34.137  22.543  25.232  1.00  0.00     0.121 A 
ATOM     11  C   UNL A   1      36.769  22.400  25.099  1.00  0.00     0.161 A 
ATOM     12  N   UNL A   1      36.203  23.535  24.638  1.00  0.00    -0.236 NA
ATOM     13  N   UNL A   1      36.112  21.267  25.411  1.00  0.00    -0.210 NA
ATOM     14  C   UNL A   1      34.867  23.576  24.704  1.00  0.00     0.133 A 
ATOM     15  C   UNL A   1      34.779  21.345  25.451  1.00  0.00     0.149 A 
BRANCH  11  16
ATOM     16  C   UNL A   1      38.087  22.515  25.707  1.00  0.00     0.019 A 
ATOM     17  C   UNL A   1      41.566  22.646  28.228  1.00  0.00     0.044 C 
ATOM     18  C   UNL A   1      40.388  22.610  27.306  1.00  0.00    -0.051 A 
ATOM     19  C   UNL A   1      39.531  23.713  27.248  1.00  0.00     0.004 A 
ATOM     20  C   UNL A   1      40.111  21.475  26.539  1.00  0.00     0.004 A 
ATOM     21  C   UNL A   1      38.399  23.669  26.446  1.00  0.00     0.012 A 
ATOM     22  C   UNL A   1      38.967  21.426  25.746  1.00  0.00     0.012 A 
ENDBRANCH  11  16
BRANCH  15  23
ATOM     23  N   UNL A   1      34.042  20.162  25.530  1.00  0.00    -0.339 N 
ATOM     24  H   UNL A   1      33.563  20.045  26.383  1.00  0.00     0.168 HD
BRANCH  23  25
ATOM     25  C   UNL A   1      33.859  19.123  24.632  1.00  0.00     0.040 A 
ATOM     26  C   UNL A   1      34.769  18.060  24.642  1.00  0.00     0.026 A 
ATOM     27  C   UNL A   1      32.807  19.127  23.721  1.00  0.00     0.026 A 
ATOM     28  C   UNL A   1      34.620  17.000  23.755  1.00  0.00     0.002 A 
ATOM     29  C   UNL A   1      32.675  18.084  22.811  1.00  0.00     0.002 A 
ATOM     30  C   UNL A   1      33.571  17.015  22.837  1.00  0.00     0.000 A 
ENDBRANCH  23  25
ENDBRANCH  15  23
ENDBRANCH   8  10
ENDBRANCH   7   8
ENDBRANCH   6   7
ENDBRANCH   5   6
ENDBRANCH   4   5
ENDBRANCH   3   4
ENDBRANCH   2   3
ENDBRANCH   1   2
BRANCH   1  31
ATOM     31  C   UNL A   1      32.834  28.367  24.189  1.00  0.00     0.188 C 
BRANCH  31  32
ATOM     32  C   UNL A   1      31.438  28.632  24.642  1.00  0.00     0.188 C 
BRANCH  32  33
ATOM     33  O   UNL A   1      31.548  29.101  25.973  1.00  0.00    -0.376 OA
BRANCH  33  34
ATOM     34  C   UNL A   1      31.913  30.464  26.076  1.00  0.00     0.202 C 
BRANCH  34  35
ATOM     35  C   UNL A   1      32.834  30.732  27.274  1.00  0.00     0.261 C 
BRANCH  35  36
ATOM     36  O   UNL A   1      34.202  30.530  26.846  1.00  0.00    -0.460 OA
BRANCH  36  37
ATOM     37  C   UNL A   1      34.841  29.426  27.331  1.00  0.00     0.338 C 
ATOM     38  O   UNL A   1      34.422  28.283  27.260  1.00  0.00    -0.246 OA
BRANCH  37  39
ATOM     39  C   UNL A   1      35.968  29.845  28.229  1.00  0.00     0.060 A 
ATOM     40  C   UNL A   1      37.117  30.462  27.702  1.00  0.00     0.016 A 
ATOM     41  C   UNL A   1      36.019  29.325  29.514  1.00  0.00     0.016 A 
ATOM     42  C   UNL A   1      38.359  30.378  28.376  1.00  0.00     0.010 A 
ATOM     43  C   UNL A   1      37.252  29.172  30.123  1.00  0.00     0.010 A 
ATOM     44  C   UNL A   1      38.454  29.639  29.551  1.00  0.00    -0.014 A 
BRANCH  44  45
ATOM     45  C   UNL A   1      39.712  29.203  30.232  1.00  0.00     0.031 A 
ATOM     46  C   UNL A   1      40.474  28.070  29.573  1.00  0.00     0.074 A 
ATOM     47  C   UNL A   1      40.304  30.042  31.138  1.00  0.00     0.049 A 
ATOM     48  N   UNL A   1      41.624  27.603  29.916  1.00  0.00    -0.248 NA
ATOM     49  C   UNL A   1      40.008  27.423  28.346  1.00  0.00     0.031 C 
ATOM     50  C   UNL A   1      41.698  30.096  31.594  1.00  0.00     0.029 A 
ATOM     51  N   UNL A   1      39.779  31.157  31.819  1.00  0.00    -0.354 N 
ATOM     52  C   UNL A   1      42.202  26.938  28.828  1.00  0.00     0.074 A 
ATOM     53  C   UNL A   1      41.114  26.827  27.893  1.00  0.00     0.031 C 
ATOM     54  C   UNL A   1      41.888  31.031  32.544  1.00  0.00     0.029 A 
ATOM     55  C   UNL A   1      40.568  31.383  32.969  1.00  0.00     0.049 A 
ATOM     56  H   UNL A   1      38.998  31.688  31.542  1.00  0.00     0.167 HD
ATOM     57  C   UNL A   1      43.563  26.701  28.819  1.00  0.00     0.037 A 
ATOM     58  C   UNL A   1      40.060  31.088  34.191  1.00  0.00     0.037 A 
ATOM     59  C   UNL A   1      44.151  27.099  30.134  1.00  0.00     0.049 A 
ATOM     60  C   UNL A   1      40.781  29.794  34.638  1.00  0.00     0.074 A 
ATOM     61  C   UNL A   1      45.174  27.940  30.544  1.00  0.00     0.029 A 
ATOM     62  N   UNL A   1      43.456  26.798  31.323  1.00  0.00    -0.354 N 
ATOM     63  N   UNL A   1      41.190  28.835  33.813  1.00  0.00    -0.248 NA
ATOM     64  C   UNL A   1      41.480  29.719  35.922  1.00  0.00     0.031 C 
ATOM     65  C   UNL A   1      44.913  28.338  31.897  1.00  0.00     0.029 A 
ATOM     66  C   UNL A   1      43.792  27.654  32.364  1.00  0.00     0.049 A 
ATOM     67  H   UNL A   1      42.806  26.063  31.405  1.00  0.00     0.167 HD
ATOM     68  C   UNL A   1      42.311  28.213  34.336  1.00  0.00     0.074 A 
ATOM     69  C   UNL A   1      42.396  28.761  35.688  1.00  0.00     0.031 C 
ATOM     70  C   UNL A   1      43.275  27.436  33.718  1.00  0.00     0.037 A 
BRANCH  57  71
ATOM     71  C   UNL A   1      44.424  26.327  27.562  1.00  0.00     0.064 A 
ATOM     72  C   UNL A   1      45.008  25.040  27.400  1.00  0.00     0.173 A 
ATOM     73  C   UNL A   1      44.734  27.184  26.479  1.00  0.00     0.173 A 
ATOM     74  F   UNL A   1      44.753  24.043  28.251  1.00  0.00    -0.203 F 
ATOM     75  C   UNL A   1      45.852  24.685  26.323  1.00  0.00     0.198 A 
ATOM     76  C   UNL A   1      45.572  26.832  25.399  1.00  0.00     0.198 A 
ATOM     77  F   UNL A   1      44.201  28.398  26.359  1.00  0.00    -0.203 F 
ATOM     78  F   UNL A   1      46.367  23.448  26.257  1.00  0.00    -0.200 F 
ATOM     79  C   UNL A   1      46.137  25.584  25.323  1.00  0.00     0.200 A 
ATOM     80  F   UNL A   1      45.801  27.722  24.421  1.00  0.00    -0.200 F 
ATOM     81  F   UNL A   1      46.911  25.243  24.282  1.00  0.00    -0.200 F 
ENDBRANCH  57  71
BRANCH  58  82
ATOM     82  C   UNL A   1      38.711  31.780  34.261  1.00  0.00     0.064 A 
ATOM     83  C   UNL A   1      38.824  33.209  34.275  1.00  0.00     0.173 A 
ATOM     84  C   UNL A   1      37.560  31.283  33.624  1.00  0.00     0.173 A 
ATOM     85  F   UNL A   1      39.878  33.779  34.882  1.00  0.00    -0.203 F 
ATOM     86  C   UNL A   1      38.030  34.034  33.466  1.00  0.00     0.198 A 
ATOM     87  C   UNL A   1      36.723  32.132  32.866  1.00  0.00     0.198 A 
ATOM     88  F   UNL A   1      37.335  29.964  33.571  1.00  0.00    -0.203 F 
ATOM     89  F   UNL A   1      38.350  35.328  33.299  1.00  0.00    -0.200 F 
ATOM     90  C   UNL A   1      37.006  33.485  32.723  1.00  0.00     0.200 A 
ATOM     91  F   UNL A   1      35.702  31.614  32.167  1.00  0.00    -0.200 F 
ATOM     92  F   UNL A   1      36.352  34.233  31.820  1.00  0.00    -0.200 F 
ENDBRANCH  58  82
BRANCH  70  93
ATOM     93  C   UNL A   1      43.884  26.247  34.436  1.00  0.00     0.064 A 
ATOM     94  C   UNL A   1      43.152  25.071  34.649  1.00  0.00     0.173 A 
ATOM     95  C   UNL A   1      45.282  26.153  34.683  1.00  0.00     0.173 A 
ATOM     96  F   UNL A   1      41.849  24.994  34.348  1.00  0.00    -0.203 F 
ATOM     97  C   UNL A   1      43.755  23.909  35.119  1.00  0.00     0.198 A 
ATOM     98  C   UNL A   1      45.888  24.969  35.081  1.00  0.00     0.198 A 
ATOM     99  F   UNL A   1      46.121  27.181  34.503  1.00  0.00    -0.203 F 
ATOM    100  F   UNL A   1      43.000  22.826  35.342  1.00  0.00    -0.200 F 
ATOM    101  C   UNL A   1      45.122  23.852  35.316  1.00  0.00     0.200 A 
ATOM    102  F   UNL A   1      47.223  24.914  35.200  1.00  0.00    -0.200 F 
ATOM    103  F   UNL A   1      45.701  22.712  35.712  1.00  0.00    -0.200 F 
ENDBRANCH  70  93
ENDBRANCH  44  45
ENDBRANCH  37  39
ENDBRANCH  36  37
ENDBRANCH  35  36
ENDBRANCH  34  35
ENDBRANCH  33  34
ENDBRANCH  32  33
ENDBRANCH  31  32
ENDBRANCH   1  31
TORSDOF 23
ENDMDL
MODEL 2
REMARK VINA RESULT:     -10.9      1.340      2.048
REMARK SMILES Cc1ccc(-c2ncc(C(=O)OCCOCCOCCOCCOC(=O)c3ccc(-c4c5nc(c(-c6c(F)c(F)c(F)c(F)c6F)c6ccc([nH]6)c(-c6c(F)c(F)c(F)c(F)c6F)c6nc(c(-c7c(F)c(F)c(F)c(F)c7F)c7ccc4[nH]7)C=C6)C=C5)cc3)c(Nc3ccccc3)n2)cc1
REMARK SMILES IDX 18 1 17 2 16 3 15 4 14 5 13 6 12 7 10 8 11 9 9 10 6 11 7 12
REMARK SMILES IDX 98 13 8 14 90 15 5 16 1 17 2 18 3 19 100 20 4 21 99 22 91 23
REMARK SMILES IDX 92 25 93 26 97 27 94 28 96 29 95 30 19 31 20 32 21 33 22 34
REMARK SMILES IDX 23 35 24 36 25 37 26 38 27 39 28 40 89 41 29 42 88 43 30 44
REMARK SMILES IDX 31 45 32 46 82 47 33 48 87 49 81 50 83 51 34 52 86 53 80 54
REMARK SMILES IDX 79 55 35 57 67 58 47 59 66 60 48 61 51 62 65 63 84 64 49 65
REMARK SMILES IDX 50 66 64 68 85 69 52 70 36 71 37 72 45 73 38 74 39 75 43 76
REMARK SMILES IDX 46 77 40 78 41 79 44 80 42 81 68 82 69 83 77 84 70 85 71 86
REMARK SMILES IDX 75 87 78 88 72 89 73 90 76 91 74 92 53 93 54 94 62 95 55 96
REMARK SMILES IDX 56 97 60 98 63 99 57 100 58 101 61 102 59 103
REMARK H PARENT 91 24 83 56 51 67
REMARK Flexibility Score: inf
ROOT
ATOM      1  O   UNL A   1      33.177  28.131  24.786  1.00  0.00    -0.377 OA
ENDROOT
BRANCH   1   2
ATOM      2  C   UNL A   1      32.998  27.193  23.721  1.00  0.00     0.188 C 
BRANCH   2   3
ATOM      3  C   UNL A   1      31.795  27.334  22.761  1.00  0.00     0.188 C 
BRANCH   3   4
ATOM      4  O   UNL A   1      30.851  26.267  22.760  1.00  0.00    -0.376 OA
BRANCH   4   5
ATOM      5  C   UNL A   1      31.434  24.995  22.938  1.00  0.00     0.202 C 
BRANCH   5   6
ATOM      6  C   UNL A   1      30.655  24.264  24.001  1.00  0.00     0.261 C 
BRANCH   6   7
ATOM      7  O   UNL A   1      31.368  24.418  25.225  1.00  0.00    -0.460 OA
BRANCH   7   8
ATOM      8  C   UNL A   1      31.861  23.257  25.671  1.00  0.00     0.343 C 
ATOM      9  O   UNL A   1      31.253  22.264  25.980  1.00  0.00    -0.246 OA
BRANCH   8  10
ATOM     10  C   UNL A   1      33.273  23.349  25.356  1.00  0.00     0.121 A 
ATOM     11  C   UNL A   1      35.877  23.319  24.930  1.00  0.00     0.161 A 
ATOM     12  N   UNL A   1      35.360  24.467  25.414  1.00  0.00    -0.236 NA
ATOM     13  N   UNL A   1      35.168  22.281  24.446  1.00  0.00    -0.210 NA
ATOM     14  C   UNL A   1      34.035  24.460  25.608  1.00  0.00     0.133 A 
ATOM     15  C   UNL A   1      33.848  22.319  24.646  1.00  0.00     0.149 A 
BRANCH  11  16
ATOM     16  C   UNL A   1      37.234  22.980  25.335  1.00  0.00     0.019 A 
ATOM     17  C   UNL A   1      40.877  21.804  27.291  1.00  0.00     0.044 C 
ATOM     18  C   UNL A   1      39.638  22.219  26.562  1.00  0.00    -0.051 A 
ATOM     19  C   UNL A   1      39.146  23.517  26.731  1.00  0.00     0.004 A 
ATOM     20  C   UNL A   1      38.944  21.315  25.752  1.00  0.00     0.004 A 
ATOM     21  C   UNL A   1      37.963  23.895  26.113  1.00  0.00     0.012 A 
ATOM     22  C   UNL A   1      37.749  21.691  25.144  1.00  0.00     0.012 A 
ENDBRANCH  11  16
BRANCH  15  23
ATOM     23  N   UNL A   1      33.042  21.405  23.966  1.00  0.00    -0.339 N 
ATOM     24  H   UNL A   1      32.272  21.814  23.506  1.00  0.00     0.168 HD
BRANCH  23  25
ATOM     25  C   UNL A   1      33.123  20.031  23.816  1.00  0.00     0.040 A 
ATOM     26  C   UNL A   1      34.017  19.320  24.624  1.00  0.00     0.026 A 
ATOM     27  C   UNL A   1      32.352  19.355  22.875  1.00  0.00     0.026 A 
ATOM     28  C   UNL A   1      34.129  17.940  24.503  1.00  0.00     0.002 A 
ATOM     29  C   UNL A   1      32.487  17.978  22.729  1.00  0.00     0.002 A 
ATOM     30  C   UNL A   1      33.363  17.270  23.551  1.00  0.00     0.000 A 
ENDBRANCH  23  25
ENDBRANCH  15  23
ENDBRANCH   8  10
ENDBRANCH   7   8
ENDBRANCH   6   7
ENDBRANCH   5   6
ENDBRANCH   4   5
ENDBRANCH   3   4
ENDBRANCH   2   3
ENDBRANCH   1   2
BRANCH   1  31
ATOM     31  C   UNL A   1      32.586  29.407  24.612  1.00  0.00     0.188 C 
BRANCH  31  32
ATOM     32  C   UNL A   1      31.405  29.769  25.446  1.00  0.00     0.188 C 
BRANCH  32  33
ATOM     33  O   UNL A   1      31.918  30.066  26.731  1.00  0.00    -0.376 OA
BRANCH  33  34
ATOM     34  C   UNL A   1      32.458  31.368  26.850  1.00  0.00     0.202 C 
BRANCH  34  35
ATOM     35  C   UNL A   1      33.601  31.433  27.872  1.00  0.00     0.261 C 
BRANCH  35  36
ATOM     36  O   UNL A   1      34.800  30.924  27.242  1.00  0.00    -0.460 OA
BRANCH  36  37
ATOM     37  C   UNL A   1      35.304  29.754  27.733  1.00  0.00     0.338 C 
ATOM     38  O   UNL A   1      34.763  28.664  27.644  1.00  0.00    -0.246 OA
BRANCH  37  39
ATOM     39  C   UNL A   1      36.447  30.043  28.661  1.00  0.00     0.060 A 
ATOM     40  C   UNL A   1      37.584  30.737  28.208  1.00  0.00     0.016 A 
ATOM     41  C   UNL A   1      36.524  29.341  29.854  1.00  0.00     0.016 A 
ATOM     42  C   UNL A   1      38.839  30.561  28.838  1.00  0.00     0.010 A 
ATOM     43  C   UNL A   1      37.770  29.106  30.411  1.00  0.00     0.010 A 
ATOM     44  C   UNL A   1      38.959  29.659  29.890  1.00  0.00    -0.014 A 
BRANCH  44  45
ATOM     45  C   UNL A   1      40.232  29.135  30.476  1.00  0.00     0.031 A 
ATOM     46  C   UNL A   1      40.748  27.831  29.899  1.00  0.00     0.074 A 
ATOM     47  C   UNL A   1      41.040  29.985  31.180  1.00  0.00     0.049 A 
ATOM     48  N   UNL A   1      41.866  27.250  30.169  1.00  0.00    -0.248 NA
ATOM     49  C   UNL A   1      40.045  27.111  28.837  1.00  0.00     0.031 C 
ATOM     50  C   UNL A   1      42.479  29.895  31.460  1.00  0.00     0.029 A 
ATOM     51  N   UNL A   1      40.757  31.239  31.754  1.00  0.00    -0.354 N 
ATOM     52  C   UNL A   1      42.204  26.380  29.125  1.00  0.00     0.074 A 
ATOM     53  C   UNL A   1      40.996  26.311  28.348  1.00  0.00     0.031 C 
ATOM     54  C   UNL A   1      42.911  30.902  32.240  1.00  0.00     0.029 A 
ATOM     55  C   UNL A   1      41.715  31.491  32.761  1.00  0.00     0.049 A 
ATOM     56  H   UNL A   1      40.020  31.838  31.497  1.00  0.00     0.167 HD
ATOM     57  C   UNL A   1      43.511  25.951  28.992  1.00  0.00     0.037 A 
ATOM     58  C   UNL A   1      41.342  31.424  34.063  1.00  0.00     0.037 A 
ATOM     59  C   UNL A   1      44.316  26.420  30.162  1.00  0.00     0.049 A 
ATOM     60  C   UNL A   1      41.947  30.106  34.601  1.00  0.00     0.074 A 
ATOM     61  C   UNL A   1      45.482  27.150  30.328  1.00  0.00     0.029 A 
ATOM     62  N   UNL A   1      43.753  26.370  31.453  1.00  0.00    -0.354 N 
ATOM     63  N   UNL A   1      42.117  29.004  33.877  1.00  0.00    -0.248 NA
ATOM     64  C   UNL A   1      42.796  30.091  35.794  1.00  0.00     0.031 C 
ATOM     65  C   UNL A   1      45.457  27.745  31.632  1.00  0.00     0.029 A 
ATOM     66  C   UNL A   1      44.331  27.292  32.317  1.00  0.00     0.049 A 
ATOM     67  H   UNL A   1      43.032  25.752  31.713  1.00  0.00     0.167 HD
ATOM     68  C   UNL A   1      43.210  28.296  34.349  1.00  0.00     0.074 A 
ATOM     69  C   UNL A   1      43.544  28.989  35.592  1.00  0.00     0.031 C 
ATOM     70  C   UNL A   1      43.975  27.319  33.739  1.00  0.00     0.037 A 
BRANCH  57  71
ATOM     71  C   UNL A   1      44.142  25.305  27.709  1.00  0.00     0.064 A 
ATOM     72  C   UNL A   1      44.800  26.082  26.716  1.00  0.00     0.173 A 
ATOM     73  C   UNL A   1      44.129  23.929  27.377  1.00  0.00     0.173 A 
ATOM     74  F   UNL A   1      45.021  27.389  26.882  1.00  0.00    -0.203 F 
ATOM     75  C   UNL A   1      45.315  25.552  25.511  1.00  0.00     0.198 A 
ATOM     76  C   UNL A   1      44.646  23.395  26.177  1.00  0.00     0.198 A 
ATOM     77  F   UNL A   1      43.671  23.001  28.213  1.00  0.00    -0.203 F 
ATOM     78  F   UNL A   1      45.912  26.364  24.625  1.00  0.00    -0.200 F 
ATOM     79  C   UNL A   1      45.234  24.207  25.240  1.00  0.00     0.200 A 
ATOM     80  F   UNL A   1      44.584  22.072  25.960  1.00  0.00    -0.200 F 
ATOM     81  F   UNL A   1      45.750  23.693  24.113  1.00  0.00    -0.200 F 
ENDBRANCH  57  71
BRANCH  58  82
ATOM     82  C   UNL A   1      40.113  32.306  34.191  1.00  0.00     0.064 A 
ATOM     83  C   UNL A   1      39.009  31.629  34.805  1.00  0.00     0.173 A 
ATOM     84  C   UNL A   1      40.183  33.685  34.455  1.00  0.00     0.173 A 
ATOM     85  F   UNL A   1      38.844  30.313  34.592  1.00  0.00    -0.203 F 
ATOM     86  C   UNL A   1      38.243  32.212  35.825  1.00  0.00     0.198 A 
ATOM     87  C   UNL A   1      39.359  34.282  35.436  1.00  0.00     0.198 A 
ATOM     88  F   UNL A   1      41.158  34.427  33.914  1.00  0.00    -0.203 F 
ATOM     89  F   UNL A   1      37.410  31.457  36.560  1.00  0.00    -0.200 F 
ATOM     90  C   UNL A   1      38.453  33.530  36.171  1.00  0.00     0.200 A 
ATOM     91  F   UNL A   1      39.530  35.574  35.757  1.00  0.00    -0.200 F 
ATOM     92  F   UNL A   1      37.847  34.047  37.253  1.00  0.00    -0.200 F 
ENDBRANCH  58  82
BRANCH  70  93
ATOM     93  C   UNL A   1      44.520  26.153  34.543  1.00  0.00     0.064 A 
ATOM     94  C   UNL A   1      43.759  24.995  34.754  1.00  0.00     0.173 A 
ATOM     95  C   UNL A   1      45.897  26.053  34.884  1.00  0.00     0.173 A 
ATOM     96  F   UNL A   1      42.478  24.921  34.371  1.00  0.00    -0.203 F 
ATOM     97  C   UNL A   1      44.314  23.846  35.307  1.00  0.00     0.198 A 
ATOM     98  C   UNL A   1      46.460  24.879  35.366  1.00  0.00     0.198 A 
ATOM     99  F   UNL A   1      46.761  27.063  34.718  1.00  0.00    -0.203 F 
ATOM    100  F   UNL A   1      43.530  22.782  35.523  1.00  0.00    -0.200 F 
ATOM    101  C   UNL A   1      45.664  23.781  35.595  1.00  0.00     0.200 A 
ATOM    102  F   UNL A   1      47.783  24.813  35.575  1.00  0.00    -0.200 F 
ATOM    103  F   UNL A   1      46.199  22.651  36.073  1.00  0.00    -0.200 F 
ENDBRANCH  70  93
ENDBRANCH  44  45
ENDBRANCH  37  39
ENDBRANCH  36  37
ENDBRANCH  35  36
ENDBRANCH  34  35
ENDBRANCH  33  34
ENDBRANCH  32  33
ENDBRANCH  31  32
ENDBRANCH   1  31
TORSDOF 23
ENDMDL
MODEL 3
REMARK VINA RESULT:     -10.2      1.860      4.324
REMARK SMILES Cc1ccc(-c2ncc(C(=O)OCCOCCOCCOCCOC(=O)c3ccc(-c4c5nc(c(-c6c(F)c(F)c(F)c(F)c6F)c6ccc([nH]6)c(-c6c(F)c(F)c(F)c(F)c6F)c6nc(c(-c7c(F)c(F)c(F)c(F)c7F)c7ccc4[nH]7)C=C6)C=C5)cc3)c(Nc3ccccc3)n2)cc1
REMARK SMILES IDX 18 1 17 2 16 3 15 4 14 5 13 6 12 7 10 8 11 9 9 10 6 11 7 12
REMARK SMILES IDX 98 13 8 14 90 15 5 16 1 17 2 18 3 19 100 20 4 21 99 22 91 23
REMARK SMILES IDX 92 25 93 26 97 27 94 28 96 29 95 30 19 31 20 32 21 33 22 34
REMARK SMILES IDX 23 35 24 36 25 37 26 38 27 39 28 40 89 41 29 42 88 43 30 44
REMARK SMILES IDX 31 45 32 46 82 47 33 48 87 49 81 50 83 51 34 52 86 53 80 54
REMARK SMILES IDX 79 55 35 57 67 58 47 59 66 60 48 61 51 62 65 63 84 64 49 65
REMARK SMILES IDX 50 66 64 68 85 69 52 70 36 71 37 72 45 73 38 74 39 75 43 76
REMARK SMILES IDX 46 77 40 78 41 79 44 80 42 81 68 82 69 83 77 84 70 85 71 86
REMARK SMILES IDX 75 87 78 88 72 89 73 90 76 91 74 92 53 93 54 94 62 95 55 96
REMARK SMILES IDX 56 97 60 98 63 99 57 100 58 101 61 102 59 103
REMARK H PARENT 91 24 83 56 51 67
REMARK Flexibility Score: inf
ROOT
ATOM      1  O   UNL A   1      31.632  33.399  27.251  1.00  0.00    -0.377 OA
ENDROOT
BRANCH   1   2
ATOM      2  C   UNL A   1      31.497  32.286  26.362  1.00  0.00     0.188 C 
BRANCH   2   3
ATOM      3  C   UNL A   1      31.658  30.845  26.897  1.00  0.00     0.188 C 
BRANCH   3   4
ATOM      4  O   UNL A   1      32.816  30.133  26.474  1.00  0.00    -0.376 OA
BRANCH   4   5
ATOM      5  C   UNL A   1      33.066  28.962  27.217  1.00  0.00     0.202 C 
BRANCH   5   6
ATOM      6  C   UNL A   1      32.347  27.817  26.550  1.00  0.00     0.261 C 
BRANCH   6   7
ATOM      7  O   UNL A   1      33.327  26.832  26.234  1.00  0.00    -0.460 OA
BRANCH   7   8
ATOM      8  C   UNL A   1      33.701  26.887  24.951  1.00  0.00     0.343 C 
ATOM      9  O   UNL A   1      34.035  27.856  24.317  1.00  0.00    -0.246 OA
BRANCH   8  10
ATOM     10  C   UNL A   1      33.953  25.499  24.614  1.00  0.00     0.121 A 
ATOM     11  C   UNL A   1      34.187  22.922  24.098  1.00  0.00     0.161 A 
ATOM     12  N   UNL A   1      35.165  23.478  24.844  1.00  0.00    -0.236 NA
ATOM     13  N   UNL A   1      33.237  23.595  23.422  1.00  0.00    -0.210 NA
ATOM     14  C   UNL A   1      35.028  24.789  25.079  1.00  0.00     0.133 A 
ATOM     15  C   UNL A   1      33.144  24.903  23.673  1.00  0.00     0.149 A 
BRANCH  11  16
ATOM     16  C   UNL A   1      33.858  21.530  24.368  1.00  0.00     0.019 A 
ATOM     17  C   UNL A   1      33.010  17.316  24.320  1.00  0.00     0.044 C 
ATOM     18  C   UNL A   1      33.300  18.782  24.393  1.00  0.00    -0.051 A 
ATOM     19  C   UNL A   1      32.302  19.694  24.038  1.00  0.00     0.004 A 
ATOM     20  C   UNL A   1      34.564  19.247  24.767  1.00  0.00     0.004 A 
ATOM     21  C   UNL A   1      32.577  21.055  24.039  1.00  0.00     0.012 A 
ATOM     22  C   UNL A   1      34.843  20.611  24.753  1.00  0.00     0.012 A 
ENDBRANCH  11  16
BRANCH  15  23
ATOM     23  N   UNL A   1      32.350  25.690  22.836  1.00  0.00    -0.339 N 
ATOM     24  H   UNL A   1      32.727  25.823  21.935  1.00  0.00     0.168 HD
BRANCH  23  25
ATOM     25  C   UNL A   1      31.132  26.317  23.036  1.00  0.00     0.040 A 
ATOM     26  C   UNL A   1      30.921  27.574  22.458  1.00  0.00     0.026 A 
ATOM     27  C   UNL A   1      30.131  25.732  23.806  1.00  0.00     0.026 A 
ATOM     28  C   UNL A   1      29.712  28.236  22.638  1.00  0.00     0.002 A 
ATOM     29  C   UNL A   1      28.933  26.407  24.015  1.00  0.00     0.002 A 
ATOM     30  C   UNL A   1      28.719  27.651  23.420  1.00  0.00     0.000 A 
ENDBRANCH  23  25
ENDBRANCH  15  23
ENDBRANCH   8  10
ENDBRANCH   7   8
ENDBRANCH   6   7
ENDBRANCH   5   6
ENDBRANCH   4   5
ENDBRANCH   3   4
ENDBRANCH   2   3
ENDBRANCH   1   2
BRANCH   1  31
ATOM     31  C   UNL A   1      32.952  33.751  27.627  1.00  0.00     0.188 C 
BRANCH  31  32
ATOM     32  C   UNL A   1      33.152  34.583  28.848  1.00  0.00     0.188 C 
BRANCH  32  33
ATOM     33  O   UNL A   1      34.524  34.931  28.856  1.00  0.00    -0.376 OA
BRANCH  33  34
ATOM     34  C   UNL A   1      35.299  34.199  29.785  1.00  0.00     0.202 C 
BRANCH  34  35
ATOM     35  C   UNL A   1      34.594  32.918  30.251  1.00  0.00     0.261 C 
BRANCH  35  36
ATOM     36  O   UNL A   1      35.531  31.820  30.140  1.00  0.00    -0.460 OA
BRANCH  36  37
ATOM     37  C   UNL A   1      35.843  31.404  28.878  1.00  0.00     0.338 C 
ATOM     38  O   UNL A   1      35.204  31.666  27.873  1.00  0.00    -0.246 OA
BRANCH  37  39
ATOM     39  C   UNL A   1      36.892  30.331  28.941  1.00  0.00     0.060 A 
ATOM     40  C   UNL A   1      36.761  29.249  29.831  1.00  0.00     0.016 A 
ATOM     41  C   UNL A   1      38.130  30.582  28.371  1.00  0.00     0.016 A 
ATOM     42  C   UNL A   1      37.901  28.556  30.300  1.00  0.00     0.010 A 
ATOM     43  C   UNL A   1      39.247  29.957  28.900  1.00  0.00     0.010 A 
ATOM     44  C   UNL A   1      39.169  28.975  29.910  1.00  0.00    -0.014 A 
BRANCH  44  45
ATOM     45  C   UNL A   1      40.473  28.561  30.517  1.00  0.00     0.031 A 
ATOM     46  C   UNL A   1      41.299  27.570  29.720  1.00  0.00     0.074 A 
ATOM     47  C   UNL A   1      41.022  29.333  31.504  1.00  0.00     0.049 A 
ATOM     48  N   UNL A   1      42.488  27.155  29.990  1.00  0.00    -0.248 NA
ATOM     49  C   UNL A   1      40.853  27.034  28.434  1.00  0.00     0.031 C 
ATOM     50  C   UNL A   1      42.419  29.440  31.943  1.00  0.00     0.029 A 
ATOM     51  N   UNL A   1      40.434  30.321  32.318  1.00  0.00    -0.354 N 
ATOM     52  C   UNL A   1      43.087  26.664  28.824  1.00  0.00     0.074 A 
ATOM     53  C   UNL A   1      41.989  26.579  27.899  1.00  0.00     0.031 C 
ATOM     54  C   UNL A   1      42.563  30.272  32.991  1.00  0.00     0.029 A 
ATOM     55  C   UNL A   1      41.231  30.474  33.473  1.00  0.00     0.049 A 
ATOM     56  H   UNL A   1      39.610  30.819  32.115  1.00  0.00     0.167 HD
ATOM     57  C   UNL A   1      44.461  26.533  28.767  1.00  0.00     0.037 A 
ATOM     58  C   UNL A   1      40.775  30.004  34.661  1.00  0.00     0.037 A 
ATOM     59  C   UNL A   1      45.050  26.822  30.110  1.00  0.00     0.049 A 
ATOM     60  C   UNL A   1      41.599  28.725  34.945  1.00  0.00     0.074 A 
ATOM     61  C   UNL A   1      46.018  27.686  30.599  1.00  0.00     0.029 A 
ATOM     62  N   UNL A   1      44.407  26.336  31.267  1.00  0.00    -0.354 N 
ATOM     63  N   UNL A   1      42.057  27.900  34.009  1.00  0.00    -0.248 NA
ATOM     64  C   UNL A   1      42.332  28.558  36.202  1.00  0.00     0.031 C 
ATOM     65  C   UNL A   1      45.761  27.906  31.992  1.00  0.00     0.029 A 
ATOM     66  C   UNL A   1      44.704  27.091  32.394  1.00  0.00     0.049 A 
ATOM     67  H   UNL A   1      43.814  25.549  31.274  1.00  0.00     0.167 HD
ATOM     68  C   UNL A   1      43.233  27.308  34.440  1.00  0.00     0.074 A 
ATOM     69  C   UNL A   1      43.310  27.704  35.844  1.00  0.00     0.031 C 
ATOM     70  C   UNL A   1      44.236  26.682  33.721  1.00  0.00     0.037 A 
BRANCH  57  71
ATOM     71  C   UNL A   1      45.318  26.371  27.462  1.00  0.00     0.064 A 
ATOM     72  C   UNL A   1      46.267  25.323  27.305  1.00  0.00     0.173 A 
ATOM     73  C   UNL A   1      45.273  27.214  26.326  1.00  0.00     0.173 A 
ATOM     74  F   UNL A   1      46.392  24.350  28.212  1.00  0.00    -0.203 F 
ATOM     75  C   UNL A   1      47.111  25.184  26.181  1.00  0.00     0.198 A 
ATOM     76  C   UNL A   1      46.111  27.075  25.199  1.00  0.00     0.198 A 
ATOM     77  F   UNL A   1      44.378  28.190  26.201  1.00  0.00    -0.203 F 
ATOM     78  F   UNL A   1      47.986  24.168  26.124  1.00  0.00    -0.200 F 
ATOM     79  C   UNL A   1      47.036  26.064  25.128  1.00  0.00     0.200 A 
ATOM     80  F   UNL A   1      45.987  27.931  24.172  1.00  0.00    -0.200 F 
ATOM     81  F   UNL A   1      47.813  25.919  24.044  1.00  0.00    -0.200 F 
ENDBRANCH  57  71
BRANCH  58  82
ATOM     82  C   UNL A   1      39.381  30.580  34.831  1.00  0.00     0.064 A 
ATOM     83  C   UNL A   1      39.398  31.965  35.199  1.00  0.00     0.173 A 
ATOM     84  C   UNL A   1      38.289  30.191  34.036  1.00  0.00     0.173 A 
ATOM     85  F   UNL A   1      40.390  32.427  35.979  1.00  0.00    -0.203 F 
ATOM     86  C   UNL A   1      38.578  32.918  34.577  1.00  0.00     0.198 A 
ATOM     87  C   UNL A   1      37.423  31.153  33.466  1.00  0.00     0.198 A 
ATOM     88  F   UNL A   1      38.154  28.916  33.651  1.00  0.00    -0.203 F 
ATOM     89  F   UNL A   1      38.816  34.229  34.747  1.00  0.00    -0.200 F 
ATOM     90  C   UNL A   1      37.620  32.512  33.673  1.00  0.00     0.200 A 
ATOM     91  F   UNL A   1      36.463  30.766  32.612  1.00  0.00    -0.200 F 
ATOM     92  F   UNL A   1      36.948  33.422  32.948  1.00  0.00    -0.200 F 
ENDBRANCH  58  82
BRANCH  70  93
ATOM     93  C   UNL A   1      44.948  25.468  34.289  1.00  0.00     0.064 A 
ATOM     94  C   UNL A   1      46.031  25.604  35.168  1.00  0.00     0.173 A 
ATOM     95  C   UNL A   1      44.400  24.159  34.187  1.00  0.00     0.173 A 
ATOM     96  F   UNL A   1      46.565  26.801  35.439  1.00  0.00    -0.203 F 
ATOM     97  C   UNL A   1      46.558  24.513  35.852  1.00  0.00     0.198 A 
ATOM     98  C   UNL A   1      44.885  23.090  34.929  1.00  0.00     0.198 A 
ATOM     99  F   UNL A   1      43.348  23.871  33.409  1.00  0.00    -0.203 F 
ATOM    100  F   UNL A   1      47.619  24.694  36.648  1.00  0.00    -0.200 F 
ATOM    101  C   UNL A   1      45.976  23.265  35.748  1.00  0.00     0.200 A 
ATOM    102  F   UNL A   1      44.265  21.903  34.868  1.00  0.00    -0.200 F 
ATOM    103  F   UNL A   1      46.455  22.234  36.455  1.00  0.00    -0.200 F 
ENDBRANCH  70  93
ENDBRANCH  44  45
ENDBRANCH  37  39
ENDBRANCH  36  37
ENDBRANCH  35  36
ENDBRANCH  34  35
ENDBRANCH  33  34
ENDBRANCH  32  33
ENDBRANCH  31  32
ENDBRANCH   1  31
TORSDOF 23
ENDMDL
