MODEL 1
REMARK VINA RESULT:     -11.7      0.000      0.000
REMARK SMILES Cc1ccc(-c2nc(C)cc(N3CCCC[C@H]3C(=O)OCCOCCOCCOCCOC(=O)c3ccc(-c4c5nc(c(-c6c(F)c(F)c(F)c(F)c6F)c6ccc([nH]6)c(-c6c(F)c(F)c(F)c(F)c6F)c6nc(c(-c7c(F)c(F)c(F)c(F)c7F)c7ccc4[nH]7)C=C6)C=C5)cc3)n2)cc1
REMARK SMILES IDX 26 1 25 2 24 3 23 4 22 5 21 6 20 7 18 8 19 9 17 10 12 11
REMARK SMILES IDX 13 12 14 13 16 14 15 15 11 16 6 17 7 18 98 19 8 20 9 21
REMARK SMILES IDX 10 22 5 23 1 24 2 25 3 26 100 27 4 28 99 29 27 30 28 31
REMARK SMILES IDX 29 32 30 33 31 34 32 35 33 36 34 37 35 38 36 39 97 40 37 41
REMARK SMILES IDX 96 42 38 43 39 44 40 45 90 46 41 47 95 48 89 49 91 50 42 51
REMARK SMILES IDX 94 52 88 53 87 54 43 56 75 57 55 58 74 59 56 60 59 61 73 62
REMARK SMILES IDX 92 63 57 64 58 65 72 67 93 68 60 69 44 70 45 71 53 72 46 73
REMARK SMILES IDX 47 74 51 75 54 76 48 77 49 78 52 79 50 80 76 81 77 82 85 83
REMARK SMILES IDX 78 84 79 85 83 86 86 87 80 88 81 89 84 90 82 91 61 92 62 93
REMARK SMILES IDX 70 94 63 95 64 96 68 97 71 98 65 99 66 100 69 101 67 102
REMARK H PARENT 91 55 59 66
REMARK Flexibility Score: inf
ROOT
ATOM      1  O   UNL A   1      31.792  33.268  27.285  1.00  0.00    -0.377 OA
ENDROOT
BRANCH   1   2
ATOM      2  C   UNL A   1      31.785  31.910  26.872  1.00  0.00     0.188 C 
BRANCH   2   3
ATOM      3  C   UNL A   1      33.019  30.991  27.083  1.00  0.00     0.188 C 
BRANCH   3   4
ATOM      4  O   UNL A   1      32.923  29.574  27.085  1.00  0.00    -0.376 OA
BRANCH   4   5
ATOM      5  C   UNL A   1      31.762  29.039  26.485  1.00  0.00     0.202 C 
BRANCH   5   6
ATOM      6  C   UNL A   1      31.376  27.618  26.891  1.00  0.00     0.261 C 
BRANCH   6   7
ATOM      7  O   UNL A   1      32.408  26.682  26.554  1.00  0.00    -0.462 OA
BRANCH   7   8
ATOM      8  C   UNL A   1      32.111  25.708  25.656  1.00  0.00     0.328 C 
ATOM      9  O   UNL A   1      31.191  24.911  25.788  1.00  0.00    -0.250 OA
BRANCH   8  10
ATOM     10  C   UNL A   1      32.922  25.900  24.345  1.00  0.00     0.193 C 
ATOM     11  N   UNL A   1      33.173  24.595  23.696  1.00  0.00    -0.343 N 
ATOM     12  C   UNL A   1      33.280  24.441  22.237  1.00  0.00     0.119 C 
ATOM     13  C   UNL A   1      32.513  25.437  21.378  1.00  0.00     0.022 C 
ATOM     14  C   UNL A   1      32.344  26.970  23.411  1.00  0.00     0.037 C 
ATOM     15  C   UNL A   1      31.731  26.521  22.093  1.00  0.00     0.005 C 
BRANCH  11  16
ATOM     16  C   UNL A   1      34.133  23.837  24.382  1.00  0.00     0.133 A 
ATOM     17  C   UNL A   1      34.808  21.727  24.948  1.00  0.00     0.161 A 
ATOM     18  N   UNL A   1      35.943  22.105  25.548  1.00  0.00    -0.233 NA
ATOM     19  N   UNL A   1      33.913  22.540  24.389  1.00  0.00    -0.211 NA
ATOM     20  C   UNL A   1      36.172  23.434  25.535  1.00  0.00     0.043 A 
ATOM     21  C   UNL A   1      37.475  23.923  26.101  1.00  0.00     0.067 C 
ATOM     22  C   UNL A   1      35.281  24.333  24.970  1.00  0.00     0.070 A 
BRANCH  17  23
ATOM     23  C   UNL A   1      34.391  20.344  24.833  1.00  0.00     0.019 A 
ATOM     24  C   UNL A   1      33.452  16.299  23.722  1.00  0.00     0.044 C 
ATOM     25  C   UNL A   1      33.785  17.701  24.120  1.00  0.00    -0.051 A 
ATOM     26  C   UNL A   1      32.783  18.684  24.147  1.00  0.00     0.004 A 
ATOM     27  C   UNL A   1      35.095  18.040  24.453  1.00  0.00     0.004 A 
ATOM     28  C   UNL A   1      33.082  19.997  24.507  1.00  0.00     0.012 A 
ATOM     29  C   UNL A   1      35.391  19.346  24.811  1.00  0.00     0.012 A 
ENDBRANCH  17  23
ENDBRANCH  11  16
ENDBRANCH   8  10
ENDBRANCH   7   8
ENDBRANCH   6   7
ENDBRANCH   5   6
ENDBRANCH   4   5
ENDBRANCH   3   4
ENDBRANCH   2   3
ENDBRANCH   1   2
BRANCH   1  30
ATOM     30  C   UNL A   1      33.084  33.700  27.649  1.00  0.00     0.188 C 
BRANCH  30  31
ATOM     31  C   UNL A   1      32.919  34.768  28.692  1.00  0.00     0.188 C 
BRANCH  31  32
ATOM     32  O   UNL A   1      33.221  34.216  29.957  1.00  0.00    -0.376 OA
BRANCH  32  33
ATOM     33  C   UNL A   1      34.611  34.293  30.279  1.00  0.00     0.202 C 
BRANCH  33  34
ATOM     34  C   UNL A   1      35.230  32.956  30.779  1.00  0.00     0.261 C 
BRANCH  34  35
ATOM     35  O   UNL A   1      35.126  31.925  29.740  1.00  0.00    -0.460 OA
BRANCH  35  36
ATOM     36  C   UNL A   1      36.139  31.884  28.808  1.00  0.00     0.338 C 
ATOM     37  O   UNL A   1      36.355  32.759  28.004  1.00  0.00    -0.246 OA
BRANCH  36  38
ATOM     38  C   UNL A   1      36.708  30.473  28.674  1.00  0.00     0.060 A 
ATOM     39  C   UNL A   1      36.710  29.657  29.817  1.00  0.00     0.016 A 
ATOM     40  C   UNL A   1      37.580  30.140  27.638  1.00  0.00     0.016 A 
ATOM     41  C   UNL A   1      37.743  28.715  30.035  1.00  0.00     0.010 A 
ATOM     42  C   UNL A   1      38.673  29.302  27.918  1.00  0.00     0.010 A 
ATOM     43  C   UNL A   1      38.823  28.631  29.150  1.00  0.00    -0.014 A 
BRANCH  43  44
ATOM     44  C   UNL A   1      40.183  28.105  29.525  1.00  0.00     0.031 A 
ATOM     45  C   UNL A   1      40.640  26.719  29.089  1.00  0.00     0.074 A 
ATOM     46  C   UNL A   1      41.148  28.972  29.957  1.00  0.00     0.049 A 
ATOM     47  N   UNL A   1      41.834  26.229  29.236  1.00  0.00    -0.248 NA
ATOM     48  C   UNL A   1      39.775  25.759  28.415  1.00  0.00     0.031 C 
ATOM     49  C   UNL A   1      42.595  28.804  29.770  1.00  0.00     0.029 A 
ATOM     50  N   UNL A   1      41.080  30.269  30.519  1.00  0.00    -0.354 N 
ATOM     51  C   UNL A   1      41.988  25.096  28.454  1.00  0.00     0.074 A 
ATOM     52  C   UNL A   1      40.642  24.816  28.021  1.00  0.00     0.031 C 
ATOM     53  C   UNL A   1      43.280  29.852  30.233  1.00  0.00     0.029 A 
ATOM     54  C   UNL A   1      42.361  30.559  31.068  1.00  0.00     0.049 A 
ATOM     55  H   UNL A   1      40.293  30.861  30.528  1.00  0.00     0.167 HD
ATOM     56  C   UNL A   1      43.252  24.608  28.203  1.00  0.00     0.037 A 
ATOM     57  C   UNL A   1      42.575  30.667  32.413  1.00  0.00     0.037 A 
ATOM     58  C   UNL A   1      44.266  25.262  29.070  1.00  0.00     0.049 A 
ATOM     59  C   UNL A   1      43.449  29.551  32.966  1.00  0.00     0.074 A 
ATOM     60  C   UNL A   1      45.481  25.907  28.872  1.00  0.00     0.029 A 
ATOM     61  N   UNL A   1      43.982  25.439  30.428  1.00  0.00    -0.354 N 
ATOM     62  N   UNL A   1      43.624  28.418  32.326  1.00  0.00    -0.248 NA
ATOM     63  C   UNL A   1      44.252  29.601  34.184  1.00  0.00     0.031 C 
ATOM     64  C   UNL A   1      45.842  26.579  30.073  1.00  0.00     0.029 A 
ATOM     65  C   UNL A   1      44.914  26.246  31.045  1.00  0.00     0.049 A 
ATOM     66  H   UNL A   1      43.210  25.037  30.888  1.00  0.00     0.167 HD
ATOM     67  C   UNL A   1      44.532  27.633  32.971  1.00  0.00     0.074 A 
ATOM     68  C   UNL A   1      44.879  28.407  34.148  1.00  0.00     0.031 C 
ATOM     69  C   UNL A   1      44.918  26.412  32.490  1.00  0.00     0.037 A 
BRANCH  56  70
ATOM     70  C   UNL A   1      43.662  23.622  27.075  1.00  0.00     0.064 A 
ATOM     71  C   UNL A   1      44.466  24.039  25.978  1.00  0.00     0.173 A 
ATOM     72  C   UNL A   1      43.248  22.276  26.959  1.00  0.00     0.173 A 
ATOM     73  F   UNL A   1      45.013  25.259  25.928  1.00  0.00    -0.203 F 
ATOM     74  C   UNL A   1      44.767  23.221  24.874  1.00  0.00     0.198 A 
ATOM     75  C   UNL A   1      43.587  21.442  25.878  1.00  0.00     0.198 A 
ATOM     76  F   UNL A   1      42.480  21.685  27.872  1.00  0.00    -0.203 F 
ATOM     77  F   UNL A   1      45.487  23.713  23.855  1.00  0.00    -0.200 F 
ATOM     78  C   UNL A   1      44.331  21.918  24.826  1.00  0.00     0.200 A 
ATOM     79  F   UNL A   1      43.166  20.168  25.870  1.00  0.00    -0.200 F 
ATOM     80  F   UNL A   1      44.627  21.128  23.784  1.00  0.00    -0.200 F 
ENDBRANCH  56  70
BRANCH  57  81
ATOM     81  C   UNL A   1      41.597  31.611  33.027  1.00  0.00     0.064 A 
ATOM     82  C   UNL A   1      41.759  32.933  32.551  1.00  0.00     0.173 A 
ATOM     83  C   UNL A   1      40.279  31.167  33.230  1.00  0.00     0.173 A 
ATOM     84  F   UNL A   1      42.995  33.435  32.399  1.00  0.00    -0.203 F 
ATOM     85  C   UNL A   1      40.689  33.623  31.978  1.00  0.00     0.198 A 
ATOM     86  C   UNL A   1      39.204  31.883  32.689  1.00  0.00     0.198 A 
ATOM     87  F   UNL A   1      40.051  29.946  33.737  1.00  0.00    -0.203 F 
ATOM     88  F   UNL A   1      40.916  34.752  31.290  1.00  0.00    -0.200 F 
ATOM     89  C   UNL A   1      39.424  33.066  31.994  1.00  0.00     0.200 A 
ATOM     90  F   UNL A   1      37.970  31.357  32.712  1.00  0.00    -0.200 F 
ATOM     91  F   UNL A   1      38.433  33.627  31.286  1.00  0.00    -0.200 F 
ENDBRANCH  57  81
BRANCH  69  92
ATOM     92  C   UNL A   1      45.402  25.242  33.322  1.00  0.00     0.064 A 
ATOM     93  C   UNL A   1      46.757  24.903  33.453  1.00  0.00     0.173 A 
ATOM     94  C   UNL A   1      44.522  24.564  34.211  1.00  0.00     0.173 A 
ATOM     95  F   UNL A   1      47.710  25.540  32.759  1.00  0.00    -0.203 F 
ATOM     96  C   UNL A   1      47.194  23.938  34.363  1.00  0.00     0.198 A 
ATOM     97  C   UNL A   1      44.971  23.647  35.158  1.00  0.00     0.198 A 
ATOM     98  F   UNL A   1      43.203  24.800  34.230  1.00  0.00    -0.203 F 
ATOM     99  F   UNL A   1      48.497  23.636  34.425  1.00  0.00    -0.200 F 
ATOM    100  C   UNL A   1      46.306  23.323  35.225  1.00  0.00     0.200 A 
ATOM    101  F   UNL A   1      44.102  23.112  36.028  1.00  0.00    -0.200 F 
ATOM    102  F   UNL A   1      46.741  22.441  36.134  1.00  0.00    -0.200 F 
ENDBRANCH  69  92
ENDBRANCH  43  44
ENDBRANCH  36  38
ENDBRANCH  35  36
ENDBRANCH  34  35
ENDBRANCH  33  34
ENDBRANCH  32  33
ENDBRANCH  31  32
ENDBRANCH  30  31
ENDBRANCH   1  30
TORSDOF 22
ENDMDL
MODEL 2
REMARK VINA RESULT:     -11.1      1.764      4.031
REMARK SMILES Cc1ccc(-c2nc(C)cc(N3CCCC[C@H]3C(=O)OCCOCCOCCOCCOC(=O)c3ccc(-c4c5nc(c(-c6c(F)c(F)c(F)c(F)c6F)c6ccc([nH]6)c(-c6c(F)c(F)c(F)c(F)c6F)c6nc(c(-c7c(F)c(F)c(F)c(F)c7F)c7ccc4[nH]7)C=C6)C=C5)cc3)n2)cc1
REMARK SMILES IDX 26 1 25 2 24 3 23 4 22 5 21 6 20 7 18 8 19 9 17 10 12 11
REMARK SMILES IDX 13 12 14 13 16 14 15 15 11 16 6 17 7 18 98 19 8 20 9 21
REMARK SMILES IDX 10 22 5 23 1 24 2 25 3 26 100 27 4 28 99 29 27 30 28 31
REMARK SMILES IDX 29 32 30 33 31 34 32 35 33 36 34 37 35 38 36 39 97 40 37 41
REMARK SMILES IDX 96 42 38 43 39 44 40 45 90 46 41 47 95 48 89 49 91 50 42 51
REMARK SMILES IDX 94 52 88 53 87 54 43 56 75 57 55 58 74 59 56 60 59 61 73 62
REMARK SMILES IDX 92 63 57 64 58 65 72 67 93 68 60 69 44 70 45 71 53 72 46 73
REMARK SMILES IDX 47 74 51 75 54 76 48 77 49 78 52 79 50 80 76 81 77 82 85 83
REMARK SMILES IDX 78 84 79 85 83 86 86 87 80 88 81 89 84 90 82 91 61 92 62 93
REMARK SMILES IDX 70 94 63 95 64 96 68 97 71 98 65 99 66 100 69 101 67 102
REMARK H PARENT 91 55 59 66
REMARK Flexibility Score: inf
ROOT
ATOM      1  O   UNL A   1      32.460  34.098  27.996  1.00  0.00    -0.377 OA
ENDROOT
BRANCH   1   2
ATOM      2  C   UNL A   1      32.201  32.928  27.236  1.00  0.00     0.188 C 
BRANCH   2   3
ATOM      3  C   UNL A   1      33.181  31.723  27.241  1.00  0.00     0.188 C 
BRANCH   3   4
ATOM      4  O   UNL A   1      32.832  30.454  26.706  1.00  0.00    -0.376 OA
BRANCH   4   5
ATOM      5  C   UNL A   1      32.896  29.371  27.609  1.00  0.00     0.202 C 
BRANCH   5   6
ATOM      6  C   UNL A   1      33.578  28.101  27.104  1.00  0.00     0.261 C 
BRANCH   6   7
ATOM      7  O   UNL A   1      32.742  27.394  26.180  1.00  0.00    -0.462 OA
BRANCH   7   8
ATOM      8  C   UNL A   1      33.193  26.208  25.697  1.00  0.00     0.328 C 
ATOM      9  O   UNL A   1      34.377  25.925  25.569  1.00  0.00    -0.250 OA
BRANCH   8  10
ATOM     10  C   UNL A   1      32.030  25.185  25.570  1.00  0.00     0.193 C 
ATOM     11  N   UNL A   1      32.200  24.358  24.355  1.00  0.00    -0.343 N 
ATOM     12  C   UNL A   1      31.741  22.963  24.274  1.00  0.00     0.119 C 
ATOM     13  C   UNL A   1      31.695  22.174  25.575  1.00  0.00     0.022 C 
ATOM     14  C   UNL A   1      31.770  24.382  26.850  1.00  0.00     0.037 C 
ATOM     15  C   UNL A   1      32.093  22.896  26.847  1.00  0.00     0.005 C 
BRANCH  11  16
ATOM     16  C   UNL A   1      31.925  25.077  23.182  1.00  0.00     0.133 A 
ATOM     17  C   UNL A   1      30.951  26.954  22.312  1.00  0.00     0.161 A 
ATOM     18  N   UNL A   1      31.356  26.744  21.054  1.00  0.00    -0.233 NA
ATOM     19  N   UNL A   1      31.201  26.161  23.353  1.00  0.00    -0.211 NA
ATOM     20  C   UNL A   1      32.104  25.636  20.879  1.00  0.00     0.043 A 
ATOM     21  C   UNL A   1      32.677  25.390  19.512  1.00  0.00     0.067 C 
ATOM     22  C   UNL A   1      32.399  24.770  21.921  1.00  0.00     0.070 A 
BRANCH  17  23
ATOM     23  C   UNL A   1      30.160  28.100  22.714  1.00  0.00     0.019 A 
ATOM     24  C   UNL A   1      27.414  31.372  23.196  1.00  0.00     0.044 C 
ATOM     25  C   UNL A   1      28.367  30.229  23.041  1.00  0.00    -0.051 A 
ATOM     26  C   UNL A   1      29.686  30.461  22.623  1.00  0.00     0.004 A 
ATOM     27  C   UNL A   1      27.942  28.926  23.299  1.00  0.00     0.004 A 
ATOM     28  C   UNL A   1      30.582  29.404  22.466  1.00  0.00     0.012 A 
ATOM     29  C   UNL A   1      28.833  27.876  23.142  1.00  0.00     0.012 A 
ENDBRANCH  17  23
ENDBRANCH  11  16
ENDBRANCH   8  10
ENDBRANCH   7   8
ENDBRANCH   6   7
ENDBRANCH   5   6
ENDBRANCH   4   5
ENDBRANCH   3   4
ENDBRANCH   2   3
ENDBRANCH   1   2
BRANCH   1  30
ATOM     30  C   UNL A   1      33.776  34.115  28.504  1.00  0.00     0.188 C 
BRANCH  30  31
ATOM     31  C   UNL A   1      33.727  34.793  29.843  1.00  0.00     0.188 C 
BRANCH  31  32
ATOM     32  O   UNL A   1      33.840  33.811  30.853  1.00  0.00    -0.376 OA
BRANCH  32  33
ATOM     33  C   UNL A   1      35.164  33.703  31.377  1.00  0.00     0.202 C 
BRANCH  33  34
ATOM     34  C   UNL A   1      35.719  32.250  31.425  1.00  0.00     0.261 C 
BRANCH  34  35
ATOM     35  O   UNL A   1      35.462  31.563  30.153  1.00  0.00    -0.460 OA
BRANCH  35  36
ATOM     36  C   UNL A   1      36.484  31.572  29.230  1.00  0.00     0.338 C 
ATOM     37  O   UNL A   1      36.722  32.499  28.493  1.00  0.00    -0.246 OA
BRANCH  36  38
ATOM     38  C   UNL A   1      37.031  30.165  29.000  1.00  0.00     0.060 A 
ATOM     39  C   UNL A   1      37.052  29.284  30.094  1.00  0.00     0.016 A 
ATOM     40  C   UNL A   1      37.873  29.883  27.924  1.00  0.00     0.016 A 
ATOM     41  C   UNL A   1      38.079  28.320  30.230  1.00  0.00     0.010 A 
ATOM     42  C   UNL A   1      38.962  29.019  28.127  1.00  0.00     0.010 A 
ATOM     43  C   UNL A   1      39.134  28.276  29.314  1.00  0.00    -0.014 A 
BRANCH  43  44
ATOM     44  C   UNL A   1      40.497  27.714  29.622  1.00  0.00     0.031 A 
ATOM     45  C   UNL A   1      40.933  26.360  29.079  1.00  0.00     0.074 A 
ATOM     46  C   UNL A   1      41.479  28.541  30.095  1.00  0.00     0.049 A 
ATOM     47  N   UNL A   1      42.125  25.851  29.167  1.00  0.00    -0.248 NA
ATOM     48  C   UNL A   1      40.046  25.456  28.357  1.00  0.00     0.031 C 
ATOM     49  C   UNL A   1      42.920  28.376  29.867  1.00  0.00     0.029 A 
ATOM     50  N   UNL A   1      41.433  29.795  30.749  1.00  0.00    -0.354 N 
ATOM     51  C   UNL A   1      42.254  24.776  28.303  1.00  0.00     0.074 A 
ATOM     52  C   UNL A   1      40.896  24.537  27.879  1.00  0.00     0.031 C 
ATOM     53  C   UNL A   1      43.624  29.383  30.389  1.00  0.00     0.029 A 
ATOM     54  C   UNL A   1      42.727  30.035  31.291  1.00  0.00     0.049 A 
ATOM     55  H   UNL A   1      40.652  30.391  30.817  1.00  0.00     0.167 HD
ATOM     56  C   UNL A   1      43.508  24.298  27.992  1.00  0.00     0.037 A 
ATOM     57  C   UNL A   1      42.970  30.046  32.635  1.00  0.00     0.037 A 
ATOM     58  C   UNL A   1      44.545  24.881  28.882  1.00  0.00     0.049 A 
ATOM     59  C   UNL A   1      43.845  28.887  33.090  1.00  0.00     0.074 A 
ATOM     60  C   UNL A   1      45.761  25.529  28.706  1.00  0.00     0.029 A 
ATOM     61  N   UNL A   1      44.290  24.963  30.255  1.00  0.00    -0.354 N 
ATOM     62  N   UNL A   1      43.997  27.801  32.367  1.00  0.00    -0.248 NA
ATOM     63  C   UNL A   1      44.672  28.843  34.292  1.00  0.00     0.031 C 
ATOM     64  C   UNL A   1      46.152  26.111  29.944  1.00  0.00     0.029 A 
ATOM     65  C   UNL A   1      45.241  25.717  30.908  1.00  0.00     0.049 A 
ATOM     66  H   UNL A   1      43.524  24.534  30.701  1.00  0.00     0.167 HD
ATOM     67  C   UNL A   1      44.909  26.965  32.936  1.00  0.00     0.074 A 
ATOM     68  C   UNL A   1      45.287  27.650  34.158  1.00  0.00     0.031 C 
ATOM     69  C   UNL A   1      45.275  25.779  32.362  1.00  0.00     0.037 A 
BRANCH  56  70
ATOM     70  C   UNL A   1      43.886  23.392  26.788  1.00  0.00     0.064 A 
ATOM     71  C   UNL A   1      43.437  22.045  26.701  1.00  0.00     0.173 A 
ATOM     72  C   UNL A   1      44.741  23.746  25.720  1.00  0.00     0.173 A 
ATOM     73  F   UNL A   1      42.568  21.533  27.580  1.00  0.00    -0.203 F 
ATOM     74  C   UNL A   1      43.844  21.148  25.696  1.00  0.00     0.198 A 
ATOM     75  C   UNL A   1      45.113  22.864  24.689  1.00  0.00     0.198 A 
ATOM     76  F   UNL A   1      45.284  24.956  25.612  1.00  0.00    -0.203 F 
ATOM     77  F   UNL A   1      43.415  19.878  25.720  1.00  0.00    -0.200 F 
ATOM     78  C   UNL A   1      44.680  21.560  24.685  1.00  0.00     0.200 A 
ATOM     79  F   UNL A   1      45.911  23.301  23.703  1.00  0.00    -0.200 F 
ATOM     80  F   UNL A   1      45.060  20.715  23.716  1.00  0.00    -0.200 F 
ENDBRANCH  56  70
BRANCH  57  81
ATOM     81  C   UNL A   1      42.012  30.951  33.336  1.00  0.00     0.064 A 
ATOM     82  C   UNL A   1      42.182  32.303  32.958  1.00  0.00     0.173 A 
ATOM     83  C   UNL A   1      40.693  30.506  33.526  1.00  0.00     0.173 A 
ATOM     84  F   UNL A   1      43.422  32.802  32.823  1.00  0.00    -0.203 F 
ATOM     85  C   UNL A   1      41.112  33.046  32.456  1.00  0.00     0.198 A 
ATOM     86  C   UNL A   1      39.617  31.273  33.058  1.00  0.00     0.198 A 
ATOM     87  F   UNL A   1      40.459  29.253  33.943  1.00  0.00    -0.203 F 
ATOM     88  F   UNL A   1      41.341  34.220  31.852  1.00  0.00    -0.200 F 
ATOM     89  C   UNL A   1      39.840  32.502  32.452  1.00  0.00     0.200 A 
ATOM     90  F   UNL A   1      38.378  30.759  33.062  1.00  0.00    -0.200 F 
ATOM     91  F   UNL A   1      38.845  33.125  31.804  1.00  0.00    -0.200 F 
ENDBRANCH  57  81
BRANCH  69  92
ATOM     92  C   UNL A   1      45.766  24.549  33.098  1.00  0.00     0.064 A 
ATOM     93  C   UNL A   1      47.043  24.456  33.670  1.00  0.00     0.173 A 
ATOM     94  C   UNL A   1      44.867  23.506  33.456  1.00  0.00     0.173 A 
ATOM     95  F   UNL A   1      47.956  25.423  33.509  1.00  0.00    -0.203 F 
ATOM     96  C   UNL A   1      47.409  23.390  34.495  1.00  0.00     0.198 A 
ATOM     97  C   UNL A   1      45.217  22.478  34.328  1.00  0.00     0.198 A 
ATOM     98  F   UNL A   1      43.601  23.469  33.016  1.00  0.00    -0.203 F 
ATOM     99  F   UNL A   1      48.651  23.340  34.991  1.00  0.00    -0.200 F 
ATOM    100  C   UNL A   1      46.493  22.412  34.837  1.00  0.00     0.200 A 
ATOM    101  F   UNL A   1      44.296  21.577  34.698  1.00  0.00    -0.200 F 
ATOM    102  F   UNL A   1      46.835  21.425  35.674  1.00  0.00    -0.200 F 
ENDBRANCH  69  92
ENDBRANCH  43  44
ENDBRANCH  36  38
ENDBRANCH  35  36
ENDBRANCH  34  35
ENDBRANCH  33  34
ENDBRANCH  32  33
ENDBRANCH  31  32
ENDBRANCH  30  31
ENDBRANCH   1  30
TORSDOF 22
ENDMDL
MODEL 3
REMARK VINA RESULT:     -11.1      1.342      2.189
REMARK SMILES Cc1ccc(-c2nc(C)cc(N3CCCC[C@H]3C(=O)OCCOCCOCCOCCOC(=O)c3ccc(-c4c5nc(c(-c6c(F)c(F)c(F)c(F)c6F)c6ccc([nH]6)c(-c6c(F)c(F)c(F)c(F)c6F)c6nc(c(-c7c(F)c(F)c(F)c(F)c7F)c7ccc4[nH]7)C=C6)C=C5)cc3)n2)cc1
REMARK SMILES IDX 26 1 25 2 24 3 23 4 22 5 21 6 20 7 18 8 19 9 17 10 12 11
REMARK SMILES IDX 13 12 14 13 16 14 15 15 11 16 6 17 7 18 98 19 8 20 9 21
REMARK SMILES IDX 10 22 5 23 1 24 2 25 3 26 100 27 4 28 99 29 27 30 28 31
REMARK SMILES IDX 29 32 30 33 31 34 32 35 33 36 34 37 35 38 36 39 97 40 37 41
REMARK SMILES IDX 96 42 38 43 39 44 40 45 90 46 41 47 95 48 89 49 91 50 42 51
REMARK SMILES IDX 94 52 88 53 87 54 43 56 75 57 55 58 74 59 56 60 59 61 73 62
REMARK SMILES IDX 92 63 57 64 58 65 72 67 93 68 60 69 44 70 45 71 53 72 46 73
REMARK SMILES IDX 47 74 51 75 54 76 48 77 49 78 52 79 50 80 76 81 77 82 85 83
REMARK SMILES IDX 78 84 79 85 83 86 86 87 80 88 81 89 84 90 82 91 61 92 62 93
REMARK SMILES IDX 70 94 63 95 64 96 68 97 71 98 65 99 66 100 69 101 67 102
REMARK H PARENT 91 55 59 66
REMARK Flexibility Score: inf
ROOT
ATOM      1  O   UNL A   1      31.950  33.679  27.311  1.00  0.00    -0.377 OA
ENDROOT
BRANCH   1   2
ATOM      2  C   UNL A   1      31.689  32.348  26.895  1.00  0.00     0.188 C 
BRANCH   2   3
ATOM      3  C   UNL A   1      32.640  31.178  27.270  1.00  0.00     0.188 C 
BRANCH   3   4
ATOM      4  O   UNL A   1      32.589  29.916  26.620  1.00  0.00    -0.376 OA
BRANCH   4   5
ATOM      5  C   UNL A   1      32.197  29.942  25.264  1.00  0.00     0.202 C 
BRANCH   5   6
ATOM      6  C   UNL A   1      31.367  28.758  24.771  1.00  0.00     0.261 C 
BRANCH   6   7
ATOM      7  O   UNL A   1      32.191  27.615  24.515  1.00  0.00    -0.462 OA
BRANCH   7   8
ATOM      8  C   UNL A   1      31.656  26.598  23.792  1.00  0.00     0.328 C 
ATOM      9  O   UNL A   1      30.455  26.391  23.683  1.00  0.00    -0.250 OA
BRANCH   8  10
ATOM     10  C   UNL A   1      32.746  25.899  22.932  1.00  0.00     0.193 C 
ATOM     11  N   UNL A   1      32.486  24.445  22.850  1.00  0.00    -0.343 N 
ATOM     12  C   UNL A   1      32.851  23.639  21.675  1.00  0.00     0.119 C 
ATOM     13  C   UNL A   1      32.887  24.353  20.330  1.00  0.00     0.022 C 
ATOM     14  C   UNL A   1      32.995  26.575  21.579  1.00  0.00     0.037 C 
ATOM     15  C   UNL A   1      32.577  25.836  20.317  1.00  0.00     0.005 C 
BRANCH  11  16
ATOM     16  C   UNL A   1      32.769  23.786  24.055  1.00  0.00     0.133 A 
ATOM     17  C   UNL A   1      34.417  22.907  25.374  1.00  0.00     0.161 A 
ATOM     18  N   UNL A   1      33.617  22.601  26.403  1.00  0.00    -0.233 NA
ATOM     19  N   UNL A   1      34.033  23.467  24.228  1.00  0.00    -0.211 NA
ATOM     20  C   UNL A   1      32.322  22.935  26.229  1.00  0.00     0.043 A 
ATOM     21  C   UNL A   1      31.384  22.712  27.381  1.00  0.00     0.067 C 
ATOM     22  C   UNL A   1      31.859  23.519  25.060  1.00  0.00     0.070 A 
BRANCH  17  23
ATOM     23  C   UNL A   1      35.844  22.655  25.373  1.00  0.00     0.019 A 
ATOM     24  C   UNL A   1      39.925  21.493  26.066  1.00  0.00     0.044 C 
ATOM     25  C   UNL A   1      38.506  21.893  25.812  1.00  0.00    -0.051 A 
ATOM     26  C   UNL A   1      38.074  23.193  26.115  1.00  0.00     0.004 A 
ATOM     27  C   UNL A   1      37.604  20.970  25.285  1.00  0.00     0.004 A 
ATOM     28  C   UNL A   1      36.752  23.576  25.891  1.00  0.00     0.012 A 
ATOM     29  C   UNL A   1      36.290  21.351  25.064  1.00  0.00     0.012 A 
ENDBRANCH  17  23
ENDBRANCH  11  16
ENDBRANCH   8  10
ENDBRANCH   7   8
ENDBRANCH   6   7
ENDBRANCH   5   6
ENDBRANCH   4   5
ENDBRANCH   3   4
ENDBRANCH   2   3
ENDBRANCH   1   2
BRANCH   1  30
ATOM     30  C   UNL A   1      33.277  33.838  27.762  1.00  0.00     0.188 C 
BRANCH  30  31
ATOM     31  C   UNL A   1      33.235  34.750  28.955  1.00  0.00     0.188 C 
BRANCH  31  32
ATOM     32  O   UNL A   1      33.371  33.971  30.126  1.00  0.00    -0.376 OA
BRANCH  32  33
ATOM     33  C   UNL A   1      34.689  34.022  30.676  1.00  0.00     0.202 C 
BRANCH  33  34
ATOM     34  C   UNL A   1      35.289  32.632  31.034  1.00  0.00     0.261 C 
BRANCH  34  35
ATOM     35  O   UNL A   1      35.185  31.720  29.889  1.00  0.00    -0.460 OA
BRANCH  35  36
ATOM     36  C   UNL A   1      36.263  31.680  29.033  1.00  0.00     0.338 C 
ATOM     37  O   UNL A   1      36.558  32.573  28.275  1.00  0.00    -0.246 OA
BRANCH  36  38
ATOM     38  C   UNL A   1      36.806  30.259  28.895  1.00  0.00     0.060 A 
ATOM     39  C   UNL A   1      36.858  29.464  30.052  1.00  0.00     0.016 A 
ATOM     40  C   UNL A   1      37.618  29.895  27.821  1.00  0.00     0.016 A 
ATOM     41  C   UNL A   1      37.889  28.512  30.232  1.00  0.00     0.010 A 
ATOM     42  C   UNL A   1      38.713  29.049  28.059  1.00  0.00     0.010 A 
ATOM     43  C   UNL A   1      38.919  28.397  29.294  1.00  0.00    -0.014 A 
BRANCH  43  44
ATOM     44  C   UNL A   1      40.291  27.860  29.606  1.00  0.00     0.031 A 
ATOM     45  C   UNL A   1      40.747  26.508  29.075  1.00  0.00     0.074 A 
ATOM     46  C   UNL A   1      41.259  28.706  30.072  1.00  0.00     0.049 A 
ATOM     47  N   UNL A   1      41.947  26.019  29.167  1.00  0.00    -0.248 NA
ATOM     48  C   UNL A   1      39.874  25.584  28.361  1.00  0.00     0.031 C 
ATOM     49  C   UNL A   1      42.703  28.562  29.844  1.00  0.00     0.029 A 
ATOM     50  N   UNL A   1      41.195  29.965  30.714  1.00  0.00    -0.354 N 
ATOM     51  C   UNL A   1      42.092  24.938  28.312  1.00  0.00     0.074 A 
ATOM     52  C   UNL A   1      40.738  24.674  27.892  1.00  0.00     0.031 C 
ATOM     53  C   UNL A   1      43.391  29.584  30.356  1.00  0.00     0.029 A 
ATOM     54  C   UNL A   1      42.485  30.230  31.253  1.00  0.00     0.049 A 
ATOM     55  H   UNL A   1      40.404  30.549  30.777  1.00  0.00     0.167 HD
ATOM     56  C   UNL A   1      43.353  24.476  28.005  1.00  0.00     0.037 A 
ATOM     57  C   UNL A   1      42.728  30.257  32.597  1.00  0.00     0.037 A 
ATOM     58  C   UNL A   1      44.381  25.083  28.889  1.00  0.00     0.049 A 
ATOM     59  C   UNL A   1      43.621  29.115  33.061  1.00  0.00     0.074 A 
ATOM     60  C   UNL A   1      45.588  25.749  28.707  1.00  0.00     0.029 A 
ATOM     61  N   UNL A   1      44.126  25.173  30.261  1.00  0.00    -0.354 N 
ATOM     62  N   UNL A   1      43.790  28.025  32.348  1.00  0.00    -0.248 NA
ATOM     63  C   UNL A   1      44.449  29.096  34.263  1.00  0.00     0.031 C 
ATOM     64  C   UNL A   1      45.970  26.347  29.939  1.00  0.00     0.029 A 
ATOM     65  C   UNL A   1      45.065  25.948  30.908  1.00  0.00     0.049 A 
ATOM     66  H   UNL A   1      43.367  24.737  30.712  1.00  0.00     0.167 HD
ATOM     67  C   UNL A   1      44.716  27.209  32.924  1.00  0.00     0.074 A 
ATOM     68  C   UNL A   1      45.083  27.911  34.139  1.00  0.00     0.031 C 
ATOM     69  C   UNL A   1      45.099  26.024  32.360  1.00  0.00     0.037 A 
BRANCH  56  70
ATOM     70  C   UNL A   1      43.745  23.565  26.809  1.00  0.00     0.064 A 
ATOM     71  C   UNL A   1      43.397  22.187  26.779  1.00  0.00     0.173 A 
ATOM     72  C   UNL A   1      44.521  23.950  25.693  1.00  0.00     0.173 A 
ATOM     73  F   UNL A   1      42.611  21.637  27.712  1.00  0.00    -0.203 F 
ATOM     74  C   UNL A   1      43.826  21.293  25.780  1.00  0.00     0.198 A 
ATOM     75  C   UNL A   1      44.912  23.069  24.669  1.00  0.00     0.198 A 
ATOM     76  F   UNL A   1      44.963  25.195  25.526  1.00  0.00    -0.203 F 
ATOM     77  F   UNL A   1      43.498  19.996  25.859  1.00  0.00    -0.200 F 
ATOM     78  C   UNL A   1      44.581  21.736  24.720  1.00  0.00     0.200 A 
ATOM     79  F   UNL A   1      45.629  23.534  23.634  1.00  0.00    -0.200 F 
ATOM     80  F   UNL A   1      44.980  20.894  23.757  1.00  0.00    -0.200 F 
ENDBRANCH  56  70
BRANCH  57  81
ATOM     81  C   UNL A   1      41.757  31.153  33.290  1.00  0.00     0.064 A 
ATOM     82  C   UNL A   1      41.881  32.499  32.873  1.00  0.00     0.173 A 
ATOM     83  C   UNL A   1      40.454  30.677  33.515  1.00  0.00     0.173 A 
ATOM     84  F   UNL A   1      43.104  33.029  32.703  1.00  0.00    -0.203 F 
ATOM     85  C   UNL A   1      40.782  33.197  32.371  1.00  0.00     0.198 A 
ATOM     86  C   UNL A   1      39.350  31.399  33.046  1.00  0.00     0.198 A 
ATOM     87  F   UNL A   1      40.263  29.429  33.969  1.00  0.00    -0.203 F 
ATOM     88  F   UNL A   1      40.967  34.361  31.731  1.00  0.00    -0.200 F 
ATOM     89  C   UNL A   1      39.527  32.617  32.403  1.00  0.00     0.200 A 
ATOM     90  F   UNL A   1      38.126  30.851  33.086  1.00  0.00    -0.200 F 
ATOM     91  F   UNL A   1      38.503  33.195  31.757  1.00  0.00    -0.200 F 
ENDBRANCH  57  81
BRANCH  69  92
ATOM     92  C   UNL A   1      45.609  24.808  33.107  1.00  0.00     0.064 A 
ATOM     93  C   UNL A   1      46.888  24.739  33.678  1.00  0.00     0.173 A 
ATOM     94  C   UNL A   1      44.727  23.755  33.476  1.00  0.00     0.173 A 
ATOM     95  F   UNL A   1      47.786  25.718  33.507  1.00  0.00    -0.203 F 
ATOM     96  C   UNL A   1      47.271  23.687  34.512  1.00  0.00     0.198 A 
ATOM     97  C   UNL A   1      45.094  22.740  34.357  1.00  0.00     0.198 A 
ATOM     98  F   UNL A   1      43.461  23.695  33.038  1.00  0.00    -0.203 F 
ATOM     99  F   UNL A   1      48.515  23.660  35.008  1.00  0.00    -0.200 F 
ATOM    100  C   UNL A   1      46.371  22.698  34.865  1.00  0.00     0.200 A 
ATOM    101  F   UNL A   1      44.186  21.829  34.736  1.00  0.00    -0.200 F 
ATOM    102  F   UNL A   1      46.729  21.724  35.711  1.00  0.00    -0.200 F 
ENDBRANCH  69  92
ENDBRANCH  43  44
ENDBRANCH  36  38
ENDBRANCH  35  36
ENDBRANCH  34  35
ENDBRANCH  33  34
ENDBRANCH  32  33
ENDBRANCH  31  32
ENDBRANCH  30  31
ENDBRANCH   1  30
TORSDOF 22
ENDMDL
