MODEL 1
REMARK VINA RESULT:     -10.6      0.000      0.000
REMARK SMILES CC(C)c1cc2c(cc1Cl)C=C(C(=O)OCCOCCOCCOCCOC(=O)c1ccc(-c3c4nc(c(-c5c(F)c(F)c(F)c(F)c5F)c5ccc([nH]5)c(-c5c(F)c(F)c(F)c(F)c5F)c5nc(c(-c6c(F)c(F)c(F)c(F)c6F)c6ccc3[nH]6)C=C5)C=C4)cc1)[C@@H](C(F)(F)F)O2
REMARK SMILES IDX 22 1 21 2 20 3 19 4 18 5 17 6 16 7 15 8 13 9 14 10 12 11
REMARK SMILES IDX 4 12 5 13 9 14 6 15 8 16 10 17 7 18 98 19 11 20 93 21 2 22
REMARK SMILES IDX 1 23 3 24 94 25 95 26 96 27 97 28 23 29 24 30 25 31 26 32
REMARK SMILES IDX 27 33 28 34 29 35 30 36 31 37 92 38 32 39 91 40 33 41 34 42
REMARK SMILES IDX 35 43 85 44 36 45 90 46 84 47 86 48 37 49 89 50 83 51 82 52
REMARK SMILES IDX 38 54 70 55 50 56 69 57 51 58 54 59 68 60 87 61 52 62 53 63
REMARK SMILES IDX 67 65 88 66 55 67 39 68 40 69 48 70 41 71 42 72 46 73 49 74
REMARK SMILES IDX 43 75 44 76 47 77 45 78 71 79 72 80 80 81 73 82 74 83 78 84
REMARK SMILES IDX 81 85 75 86 76 87 79 88 77 89 56 90 57 91 65 92 58 93 59 94
REMARK SMILES IDX 63 95 66 96 60 97 61 98 64 99 62 100
REMARK H PARENT 86 53 54 64
REMARK Flexibility Score: inf
ROOT
ATOM      1  C   UNL A   1      41.725  21.851  26.269  1.00  0.00     0.188 C 
ENDROOT
BRANCH   1   2
ATOM      2  O   UNL A   1      40.460  22.479  26.060  1.00  0.00    -0.377 OA
BRANCH   2   3
ATOM      3  C   UNL A   1      39.299  21.795  26.507  1.00  0.00     0.188 C 
BRANCH   3   4
ATOM      4  C   UNL A   1      38.062  22.061  25.629  1.00  0.00     0.188 C 
BRANCH   4   5
ATOM      5  O   UNL A   1      37.777  23.450  25.472  1.00  0.00    -0.376 OA
BRANCH   5   6
ATOM      6  C   UNL A   1      36.462  23.881  25.801  1.00  0.00     0.202 C 
BRANCH   6   7
ATOM      7  C   UNL A   1      35.318  22.906  25.483  1.00  0.00     0.261 C 
BRANCH   7   8
ATOM      8  O   UNL A   1      34.171  23.504  24.860  1.00  0.00    -0.460 OA
BRANCH   8   9
ATOM      9  C   UNL A   1      33.210  23.988  25.671  1.00  0.00     0.338 C 
ATOM     10  O   UNL A   1      33.027  23.697  26.839  1.00  0.00    -0.246 OA
BRANCH   9  11
ATOM     11  C   UNL A   1      32.507  25.071  24.950  1.00  0.00     0.087 C 
ATOM     12  C   UNL A   1      30.241  29.407  23.636  1.00  0.00    -0.023 A 
ATOM     13  C   UNL A   1      30.349  28.102  23.089  1.00  0.00     0.052 A 
ATOM     14  C   UNL A   1      31.033  29.666  24.773  1.00  0.00     0.045 A 
ATOM     15  C   UNL A   1      31.146  27.103  23.660  1.00  0.00     0.128 A 
ATOM     16  C   UNL A   1      31.815  28.651  25.357  1.00  0.00     0.032 A 
ATOM     17  Cl  UNL A   1      31.139  31.184  25.592  1.00  0.00    -0.084 Cl
ATOM     18  C   UNL A   1      31.840  27.361  24.830  1.00  0.00     0.019 A 
ATOM     19  O   UNL A   1      31.144  25.896  23.026  1.00  0.00    -0.475 OA
ATOM     20  C   UNL A   1      32.515  26.280  25.526  1.00  0.00     0.027 C 
ATOM     21  C   UNL A   1      31.904  24.793  23.597  1.00  0.00     0.316 C 
BRANCH  12  22
ATOM     22  C   UNL A   1      29.181  30.323  23.001  1.00  0.00     0.014 C 
ATOM     23  C   UNL A   1      29.165  30.517  21.481  1.00  0.00     0.012 C 
ATOM     24  C   UNL A   1      27.742  29.962  23.424  1.00  0.00     0.012 C 
ENDBRANCH  12  22
BRANCH  21  25
ATOM     25  C   UNL A   1      30.988  23.559  23.598  1.00  0.00     0.430 C 
ATOM     26  F   UNL A   1      30.544  23.280  24.848  1.00  0.00    -0.167 F 
ATOM     27  F   UNL A   1      29.888  23.734  22.829  1.00  0.00    -0.167 F 
ATOM     28  F   UNL A   1      31.629  22.459  23.140  1.00  0.00    -0.167 F 
ENDBRANCH  21  25
ENDBRANCH   9  11
ENDBRANCH   8   9
ENDBRANCH   7   8
ENDBRANCH   6   7
ENDBRANCH   5   6
ENDBRANCH   4   5
ENDBRANCH   3   4
ENDBRANCH   2   3
ENDBRANCH   1   2
BRANCH   1  29
ATOM     29  C   UNL A   1      42.049  21.056  27.555  1.00  0.00     0.188 C 
BRANCH  29  30
ATOM     30  O   UNL A   1      42.043  19.641  27.381  1.00  0.00    -0.376 OA
BRANCH  30  31
ATOM     31  C   UNL A   1      41.992  19.160  26.045  1.00  0.00     0.202 C 
BRANCH  31  32
ATOM     32  C   UNL A   1      43.331  18.615  25.538  1.00  0.00     0.261 C 
BRANCH  32  33
ATOM     33  O   UNL A   1      43.792  19.192  24.305  1.00  0.00    -0.460 OA
BRANCH  33  34
ATOM     34  C   UNL A   1      45.070  19.627  24.253  1.00  0.00     0.338 C 
ATOM     35  O   UNL A   1      46.024  19.062  23.748  1.00  0.00    -0.246 OA
BRANCH  34  36
ATOM     36  C   UNL A   1      45.079  21.019  24.746  1.00  0.00     0.060 A 
ATOM     37  C   UNL A   1      45.438  21.297  26.067  1.00  0.00     0.016 A 
ATOM     38  C   UNL A   1      44.676  22.049  23.887  1.00  0.00     0.016 A 
ATOM     39  C   UNL A   1      45.422  22.616  26.522  1.00  0.00     0.010 A 
ATOM     40  C   UNL A   1      44.652  23.369  24.348  1.00  0.00     0.010 A 
ATOM     41  C   UNL A   1      45.046  23.661  25.662  1.00  0.00    -0.014 A 
BRANCH  41  42
ATOM     42  C   UNL A   1      45.236  25.066  26.092  1.00  0.00     0.031 A 
ATOM     43  C   UNL A   1      44.116  25.887  26.649  1.00  0.00     0.074 A 
ATOM     44  C   UNL A   1      46.467  25.595  25.970  1.00  0.00     0.049 A 
ATOM     45  N   UNL A   1      44.154  27.103  27.138  1.00  0.00    -0.248 NA
ATOM     46  C   UNL A   1      42.781  25.275  26.656  1.00  0.00     0.031 C 
ATOM     47  C   UNL A   1      47.626  24.892  25.419  1.00  0.00     0.029 A 
ATOM     48  N   UNL A   1      46.952  26.833  26.304  1.00  0.00    -0.354 N 
ATOM     49  C   UNL A   1      42.858  27.394  27.535  1.00  0.00     0.074 A 
ATOM     50  C   UNL A   1      42.045  26.245  27.185  1.00  0.00     0.031 C 
ATOM     51  C   UNL A   1      48.694  25.700  25.473  1.00  0.00     0.029 A 
ATOM     52  C   UNL A   1      48.290  26.982  26.043  1.00  0.00     0.049 A 
ATOM     53  H   UNL A   1      46.394  27.544  26.695  1.00  0.00     0.167 HD
ATOM     54  C   UNL A   1      42.399  28.510  28.152  1.00  0.00     0.037 A 
ATOM     55  C   UNL A   1      49.106  28.034  26.245  1.00  0.00     0.037 A 
ATOM     56  C   UNL A   1      43.213  29.658  28.476  1.00  0.00     0.049 A 
ATOM     57  C   UNL A   1      48.557  29.279  26.879  1.00  0.00     0.074 A 
ATOM     58  C   UNL A   1      42.844  30.818  29.137  1.00  0.00     0.029 A 
ATOM     59  N   UNL A   1      44.555  29.799  28.151  1.00  0.00    -0.354 N 
ATOM     60  N   UNL A   1      47.346  29.517  27.319  1.00  0.00    -0.248 NA
ATOM     61  C   UNL A   1      49.491  30.400  27.050  1.00  0.00     0.031 C 
ATOM     62  C   UNL A   1      43.945  31.680  29.163  1.00  0.00     0.029 A 
ATOM     63  C   UNL A   1      45.018  31.040  28.566  1.00  0.00     0.049 A 
ATOM     64  H   UNL A   1      45.099  29.118  27.692  1.00  0.00     0.167 HD
ATOM     65  C   UNL A   1      47.374  30.806  27.831  1.00  0.00     0.074 A 
ATOM     66  C   UNL A   1      48.729  31.292  27.668  1.00  0.00     0.031 C 
ATOM     67  C   UNL A   1      46.364  31.522  28.382  1.00  0.00     0.037 A 
BRANCH  54  68
ATOM     68  C   UNL A   1      40.948  28.554  28.533  1.00  0.00     0.064 A 
ATOM     69  C   UNL A   1      40.524  28.202  29.823  1.00  0.00     0.173 A 
ATOM     70  C   UNL A   1      39.983  29.031  27.633  1.00  0.00     0.173 A 
ATOM     71  F   UNL A   1      41.406  27.739  30.721  1.00  0.00    -0.203 F 
ATOM     72  C   UNL A   1      39.185  28.311  30.193  1.00  0.00     0.198 A 
ATOM     73  C   UNL A   1      38.649  29.162  28.014  1.00  0.00     0.198 A 
ATOM     74  F   UNL A   1      40.337  29.392  26.390  1.00  0.00    -0.203 F 
ATOM     75  F   UNL A   1      38.799  27.942  31.423  1.00  0.00    -0.200 F 
ATOM     76  C   UNL A   1      38.252  28.799  29.291  1.00  0.00     0.200 A 
ATOM     77  F   UNL A   1      37.751  29.649  27.147  1.00  0.00    -0.200 F 
ATOM     78  F   UNL A   1      36.966  28.919  29.654  1.00  0.00    -0.200 F 
ENDBRANCH  54  68
BRANCH  55  79
ATOM     79  C   UNL A   1      50.538  27.924  25.875  1.00  0.00     0.064 A 
ATOM     80  C   UNL A   1      51.506  27.632  26.844  1.00  0.00     0.173 A 
ATOM     81  C   UNL A   1      50.961  28.064  24.545  1.00  0.00     0.173 A 
ATOM     82  F   UNL A   1      51.149  27.505  28.130  1.00  0.00    -0.203 F 
ATOM     83  C   UNL A   1      52.847  27.489  26.497  1.00  0.00     0.198 A 
ATOM     84  C   UNL A   1      52.299  27.896  24.196  1.00  0.00     0.198 A 
ATOM     85  F   UNL A   1      50.068  28.336  23.582  1.00  0.00    -0.203 F 
ATOM     86  F   UNL A   1      53.758  27.236  27.446  1.00  0.00    -0.200 F 
ATOM     87  C   UNL A   1      53.241  27.612  25.173  1.00  0.00     0.200 A 
ATOM     88  F   UNL A   1      52.672  28.000  22.914  1.00  0.00    -0.200 F 
ATOM     89  F   UNL A   1      54.530  27.459  24.839  1.00  0.00    -0.200 F 
ENDBRANCH  55  79
BRANCH  67  90
ATOM     90  C   UNL A   1      46.682  32.916  28.845  1.00  0.00     0.064 A 
ATOM     91  C   UNL A   1      46.568  34.016  27.981  1.00  0.00     0.173 A 
ATOM     92  C   UNL A   1      47.063  33.162  30.173  1.00  0.00     0.173 A 
ATOM     93  F   UNL A   1      46.224  33.834  26.697  1.00  0.00    -0.203 F 
ATOM     94  C   UNL A   1      46.845  35.307  28.425  1.00  0.00     0.198 A 
ATOM     95  C   UNL A   1      47.309  34.457  30.621  1.00  0.00     0.198 A 
ATOM     96  F   UNL A   1      47.182  32.146  31.041  1.00  0.00    -0.203 F 
ATOM     97  F   UNL A   1      46.773  36.337  27.571  1.00  0.00    -0.200 F 
ATOM     98  C   UNL A   1      47.207  35.527  29.745  1.00  0.00     0.200 A 
ATOM     99  F   UNL A   1      47.647  34.670  31.901  1.00  0.00    -0.200 F 
ATOM    100  F   UNL A   1      47.462  36.771  30.173  1.00  0.00    -0.200 F 
ENDBRANCH  67  90
ENDBRANCH  41  42
ENDBRANCH  34  36
ENDBRANCH  33  34
ENDBRANCH  32  33
ENDBRANCH  31  32
ENDBRANCH  30  31
ENDBRANCH  29  30
ENDBRANCH   1  29
TORSDOF 22
ENDMDL
MODEL 2
REMARK VINA RESULT:     -10.2      0.560      6.980
REMARK SMILES CC(C)c1cc2c(cc1Cl)C=C(C(=O)OCCOCCOCCOCCOC(=O)c1ccc(-c3c4nc(c(-c5c(F)c(F)c(F)c(F)c5F)c5ccc([nH]5)c(-c5c(F)c(F)c(F)c(F)c5F)c5nc(c(-c6c(F)c(F)c(F)c(F)c6F)c6ccc3[nH]6)C=C5)C=C4)cc1)[C@@H](C(F)(F)F)O2
REMARK SMILES IDX 22 1 21 2 20 3 19 4 18 5 17 6 16 7 15 8 13 9 14 10 12 11
REMARK SMILES IDX 4 12 5 13 9 14 6 15 8 16 10 17 7 18 98 19 11 20 93 21 2 22
REMARK SMILES IDX 1 23 3 24 94 25 95 26 96 27 97 28 23 29 24 30 25 31 26 32
REMARK SMILES IDX 27 33 28 34 29 35 30 36 31 37 92 38 32 39 91 40 33 41 34 42
REMARK SMILES IDX 35 43 85 44 36 45 90 46 84 47 86 48 37 49 89 50 83 51 82 52
REMARK SMILES IDX 38 54 70 55 50 56 69 57 51 58 54 59 68 60 87 61 52 62 53 63
REMARK SMILES IDX 67 65 88 66 55 67 39 68 40 69 48 70 41 71 42 72 46 73 49 74
REMARK SMILES IDX 43 75 44 76 47 77 45 78 71 79 72 80 80 81 73 82 74 83 78 84
REMARK SMILES IDX 81 85 75 86 76 87 79 88 77 89 56 90 57 91 65 92 58 93 59 94
REMARK SMILES IDX 63 95 66 96 60 97 61 98 64 99 62 100
REMARK H PARENT 86 53 54 64
REMARK Flexibility Score: inf
ROOT
ATOM      1  C   UNL A   1      41.685  21.748  26.618  1.00  0.00     0.188 C 
ENDROOT
BRANCH   1   2
ATOM      2  O   UNL A   1      40.645  22.608  26.153  1.00  0.00    -0.377 OA
BRANCH   2   3
ATOM      3  C   UNL A   1      39.781  23.185  27.120  1.00  0.00     0.188 C 
BRANCH   3   4
ATOM      4  C   UNL A   1      38.567  23.902  26.501  1.00  0.00     0.188 C 
BRANCH   4   5
ATOM      5  O   UNL A   1      37.926  23.135  25.483  1.00  0.00    -0.376 OA
BRANCH   5   6
ATOM      6  C   UNL A   1      36.760  23.694  24.890  1.00  0.00     0.202 C 
BRANCH   6   7
ATOM      7  C   UNL A   1      35.591  24.008  25.836  1.00  0.00     0.261 C 
BRANCH   7   8
ATOM      8  O   UNL A   1      34.462  23.128  25.715  1.00  0.00    -0.460 OA
BRANCH   8   9
ATOM      9  C   UNL A   1      33.320  23.502  26.323  1.00  0.00     0.338 C 
ATOM     10  O   UNL A   1      32.928  23.147  27.420  1.00  0.00    -0.246 OA
BRANCH   9  11
ATOM     11  C   UNL A   1      32.691  24.559  25.503  1.00  0.00     0.087 C 
ATOM     12  C   UNL A   1      30.591  28.856  23.829  1.00  0.00    -0.023 A 
ATOM     13  C   UNL A   1      30.729  27.527  23.347  1.00  0.00     0.052 A 
ATOM     14  C   UNL A   1      31.291  29.156  25.016  1.00  0.00     0.045 A 
ATOM     15  C   UNL A   1      31.464  26.547  24.022  1.00  0.00     0.128 A 
ATOM     16  C   UNL A   1      32.011  28.159  25.703  1.00  0.00     0.032 A 
ATOM     17  Cl  UNL A   1      31.348  30.705  25.777  1.00  0.00    -0.084 Cl
ATOM     18  C   UNL A   1      32.063  26.848  25.234  1.00  0.00     0.019 A 
ATOM     19  O   UNL A   1      31.500  25.315  23.441  1.00  0.00    -0.475 OA
ATOM     20  C   UNL A   1      32.666  25.792  26.026  1.00  0.00     0.027 C 
ATOM     21  C   UNL A   1      32.197  24.229  24.118  1.00  0.00     0.316 C 
BRANCH  12  22
ATOM     22  C   UNL A   1      29.597  29.753  23.072  1.00  0.00     0.014 C 
ATOM     23  C   UNL A   1      29.928  30.209  21.647  1.00  0.00     0.012 C 
ATOM     24  C   UNL A   1      28.169  29.174  23.039  1.00  0.00     0.012 C 
ENDBRANCH  12  22
BRANCH  21  25
ATOM     25  C   UNL A   1      31.270  23.005  24.094  1.00  0.00     0.430 C 
ATOM     26  F   UNL A   1      30.539  22.922  25.233  1.00  0.00    -0.167 F 
ATOM     27  F   UNL A   1      30.384  23.049  23.072  1.00  0.00    -0.167 F 
ATOM     28  F   UNL A   1      31.967  21.851  23.975  1.00  0.00    -0.167 F 
ENDBRANCH  21  25
ENDBRANCH   9  11
ENDBRANCH   8   9
ENDBRANCH   7   8
ENDBRANCH   6   7
ENDBRANCH   5   6
ENDBRANCH   4   5
ENDBRANCH   3   4
ENDBRANCH   2   3
ENDBRANCH   1   2
BRANCH   1  29
ATOM     29  C   UNL A   1      41.436  20.648  27.676  1.00  0.00     0.188 C 
BRANCH  29  30
ATOM     30  O   UNL A   1      42.116  19.424  27.414  1.00  0.00    -0.376 OA
BRANCH  30  31
ATOM     31  C   UNL A   1      42.048  18.925  26.085  1.00  0.00     0.202 C 
BRANCH  31  32
ATOM     32  C   UNL A   1      43.420  18.622  25.472  1.00  0.00     0.261 C 
BRANCH  32  33
ATOM     33  O   UNL A   1      43.763  19.424  24.331  1.00  0.00    -0.460 OA
BRANCH  33  34
ATOM     34  C   UNL A   1      45.042  19.846  24.221  1.00  0.00     0.338 C 
ATOM     35  O   UNL A   1      45.955  19.298  23.630  1.00  0.00    -0.246 OA
BRANCH  34  36
ATOM     36  C   UNL A   1      45.102  21.212  24.782  1.00  0.00     0.060 A 
ATOM     37  C   UNL A   1      45.409  21.407  26.131  1.00  0.00     0.016 A 
ATOM     38  C   UNL A   1      44.799  22.302  23.957  1.00  0.00     0.016 A 
ATOM     39  C   UNL A   1      45.442  22.703  26.649  1.00  0.00     0.010 A 
ATOM     40  C   UNL A   1      44.823  23.598  24.480  1.00  0.00     0.010 A 
ATOM     41  C   UNL A   1      45.166  23.806  25.824  1.00  0.00    -0.014 A 
BRANCH  41  42
ATOM     42  C   UNL A   1      45.410  25.176  26.331  1.00  0.00     0.031 A 
ATOM     43  C   UNL A   1      46.761  25.816  26.280  1.00  0.00     0.074 A 
ATOM     44  C   UNL A   1      44.363  25.846  26.848  1.00  0.00     0.049 A 
ATOM     45  N   UNL A   1      47.105  27.036  26.616  1.00  0.00    -0.248 NA
ATOM     46  C   UNL A   1      47.873  24.987  25.797  1.00  0.00     0.031 C 
ATOM     47  C   UNL A   1      43.007  25.309  26.968  1.00  0.00     0.029 A 
ATOM     48  N   UNL A   1      44.270  27.115  27.358  1.00  0.00    -0.354 N 
ATOM     49  C   UNL A   1      48.465  27.132  26.362  1.00  0.00     0.074 A 
ATOM     50  C   UNL A   1      48.895  25.830  25.889  1.00  0.00     0.031 C 
ATOM     51  C   UNL A   1      42.210  26.250  27.496  1.00  0.00     0.029 A 
ATOM     52  C   UNL A   1      43.003  27.445  27.769  1.00  0.00     0.049 A 
ATOM     53  H   UNL A   1      45.036  27.729  27.422  1.00  0.00     0.167 HD
ATOM     54  C   UNL A   1      49.270  28.214  26.494  1.00  0.00     0.037 A 
ATOM     55  C   UNL A   1      42.529  28.586  28.302  1.00  0.00     0.037 A 
ATOM     56  C   UNL A   1      48.836  29.500  26.986  1.00  0.00     0.049 A 
ATOM     57  C   UNL A   1      43.457  29.751  28.490  1.00  0.00     0.074 A 
ATOM     58  C   UNL A   1      49.571  30.667  27.117  1.00  0.00     0.029 A 
ATOM     59  N   UNL A   1      47.557  29.786  27.444  1.00  0.00    -0.354 N 
ATOM     60  N   UNL A   1      44.725  29.856  28.177  1.00  0.00    -0.248 NA
ATOM     61  C   UNL A   1      42.885  30.960  29.099  1.00  0.00     0.031 C 
ATOM     62  C   UNL A   1      48.755  31.640  27.702  1.00  0.00     0.029 A 
ATOM     63  C   UNL A   1      47.494  31.099  27.889  1.00  0.00     0.049 A 
ATOM     64  H   UNL A   1      46.805  29.151  27.452  1.00  0.00     0.167 HD
ATOM     65  C   UNL A   1      45.101  31.142  28.538  1.00  0.00     0.074 A 
ATOM     66  C   UNL A   1      43.920  31.789  29.071  1.00  0.00     0.031 C 
ATOM     67  C   UNL A   1      46.318  31.730  28.437  1.00  0.00     0.037 A 
BRANCH  54  68
ATOM     68  C   UNL A   1      50.708  28.070  26.092  1.00  0.00     0.064 A 
ATOM     69  C   UNL A   1      51.712  27.847  27.047  1.00  0.00     0.173 A 
ATOM     70  C   UNL A   1      51.080  28.068  24.739  1.00  0.00     0.173 A 
ATOM     71  F   UNL A   1      51.410  27.841  28.354  1.00  0.00    -0.203 F 
ATOM     72  C   UNL A   1      53.036  27.644  26.663  1.00  0.00     0.198 A 
ATOM     73  C   UNL A   1      52.400  27.840  24.357  1.00  0.00     0.198 A 
ATOM     74  F   UNL A   1      50.158  28.265  23.784  1.00  0.00    -0.203 F 
ATOM     75  F   UNL A   1      53.981  27.461  27.596  1.00  0.00    -0.200 F 
ATOM     76  C   UNL A   1      53.376  27.632  25.319  1.00  0.00     0.200 A 
ATOM     77  F   UNL A   1      52.725  27.812  23.057  1.00  0.00    -0.200 F 
ATOM     78  F   UNL A   1      54.648  27.420  24.951  1.00  0.00    -0.200 F 
ENDBRANCH  54  68
BRANCH  55  79
ATOM     79  C   UNL A   1      41.091  28.682  28.654  1.00  0.00     0.064 A 
ATOM     80  C   UNL A   1      40.149  29.092  27.703  1.00  0.00     0.173 A 
ATOM     81  C   UNL A   1      40.626  28.324  29.928  1.00  0.00     0.173 A 
ATOM     82  F   UNL A   1      40.550  29.459  26.477  1.00  0.00    -0.203 F 
ATOM     83  C   UNL A   1      38.793  29.147  28.014  1.00  0.00     0.198 A 
ATOM     84  C   UNL A   1      39.267  28.355  30.230  1.00  0.00     0.198 A 
ATOM     85  F   UNL A   1      41.491  27.916  30.868  1.00  0.00    -0.203 F 
ATOM     86  F   UNL A   1      37.914  29.569  27.096  1.00  0.00    -0.200 F 
ATOM     87  C   UNL A   1      38.352  28.770  29.274  1.00  0.00     0.200 A 
ATOM     88  F   UNL A   1      38.844  27.974  31.443  1.00  0.00    -0.200 F 
ATOM     89  F   UNL A   1      37.045  28.809  29.568  1.00  0.00    -0.200 F 
ENDBRANCH  55  79
BRANCH  67  90
ATOM     90  C   UNL A   1      46.440  33.146  28.923  1.00  0.00     0.064 A 
ATOM     91  C   UNL A   1      46.180  34.234  28.075  1.00  0.00     0.173 A 
ATOM     92  C   UNL A   1      46.778  33.421  30.257  1.00  0.00     0.173 A 
ATOM     93  F   UNL A   1      45.870  34.027  26.786  1.00  0.00    -0.203 F 
ATOM     94  C   UNL A   1      46.275  35.544  28.540  1.00  0.00     0.198 A 
ATOM     95  C   UNL A   1      46.843  34.730  30.726  1.00  0.00     0.198 A 
ATOM     96  F   UNL A   1      47.032  32.417  31.110  1.00  0.00    -0.203 F 
ATOM     97  F   UNL A   1      46.066  36.567  27.701  1.00  0.00    -0.200 F 
ATOM     98  C   UNL A   1      46.598  35.789  29.866  1.00  0.00     0.200 A 
ATOM     99  F   UNL A   1      47.143  34.966  32.011  1.00  0.00    -0.200 F 
ATOM    100  F   UNL A   1      46.679  37.050  30.314  1.00  0.00    -0.200 F 
ENDBRANCH  67  90
ENDBRANCH  41  42
ENDBRANCH  34  36
ENDBRANCH  33  34
ENDBRANCH  32  33
ENDBRANCH  31  32
ENDBRANCH  30  31
ENDBRANCH  29  30
ENDBRANCH   1  29
TORSDOF 22
ENDMDL
MODEL 3
REMARK VINA RESULT:      -9.9      1.591      7.185
REMARK SMILES CC(C)c1cc2c(cc1Cl)C=C(C(=O)OCCOCCOCCOCCOC(=O)c1ccc(-c3c4nc(c(-c5c(F)c(F)c(F)c(F)c5F)c5ccc([nH]5)c(-c5c(F)c(F)c(F)c(F)c5F)c5nc(c(-c6c(F)c(F)c(F)c(F)c6F)c6ccc3[nH]6)C=C5)C=C4)cc1)[C@@H](C(F)(F)F)O2
REMARK SMILES IDX 22 1 21 2 20 3 19 4 18 5 17 6 16 7 15 8 13 9 14 10 12 11
REMARK SMILES IDX 4 12 5 13 9 14 6 15 8 16 10 17 7 18 98 19 11 20 93 21 2 22
REMARK SMILES IDX 1 23 3 24 94 25 95 26 96 27 97 28 23 29 24 30 25 31 26 32
REMARK SMILES IDX 27 33 28 34 29 35 30 36 31 37 92 38 32 39 91 40 33 41 34 42
REMARK SMILES IDX 35 43 85 44 36 45 90 46 84 47 86 48 37 49 89 50 83 51 82 52
REMARK SMILES IDX 38 54 70 55 50 56 69 57 51 58 54 59 68 60 87 61 52 62 53 63
REMARK SMILES IDX 67 65 88 66 55 67 39 68 40 69 48 70 41 71 42 72 46 73 49 74
REMARK SMILES IDX 43 75 44 76 47 77 45 78 71 79 72 80 80 81 73 82 74 83 78 84
REMARK SMILES IDX 81 85 75 86 76 87 79 88 77 89 56 90 57 91 65 92 58 93 59 94
REMARK SMILES IDX 63 95 66 96 60 97 61 98 64 99 62 100
REMARK H PARENT 86 53 54 64
REMARK Flexibility Score: inf
ROOT
ATOM      1  C   UNL A   1      41.748  21.868  26.936  1.00  0.00     0.188 C 
ENDROOT
BRANCH   1   2
ATOM      2  O   UNL A   1      40.884  22.695  26.157  1.00  0.00    -0.377 OA
BRANCH   2   3
ATOM      3  C   UNL A   1      39.663  23.118  26.745  1.00  0.00     0.188 C 
BRANCH   3   4
ATOM      4  C   UNL A   1      38.419  22.537  26.049  1.00  0.00     0.188 C 
BRANCH   4   5
ATOM      5  O   UNL A   1      38.543  21.146  25.755  1.00  0.00    -0.376 OA
BRANCH   5   6
ATOM      6  C   UNL A   1      37.766  20.642  24.676  1.00  0.00     0.202 C 
BRANCH   6   7
ATOM      7  C   UNL A   1      36.322  20.230  25.002  1.00  0.00     0.261 C 
BRANCH   7   8
ATOM      8  O   UNL A   1      35.467  21.303  25.425  1.00  0.00    -0.460 OA
BRANCH   8   9
ATOM      9  C   UNL A   1      34.238  21.366  24.878  1.00  0.00     0.338 C 
ATOM     10  O   UNL A   1      33.617  20.449  24.371  1.00  0.00    -0.246 OA
BRANCH   9  11
ATOM     11  C   UNL A   1      33.687  22.711  25.147  1.00  0.00     0.087 C 
ATOM     12  C   UNL A   1      32.721  27.685  25.194  1.00  0.00    -0.023 A 
ATOM     13  C   UNL A   1      32.359  26.564  25.986  1.00  0.00     0.052 A 
ATOM     14  C   UNL A   1      33.435  27.399  24.012  1.00  0.00     0.045 A 
ATOM     15  C   UNL A   1      32.726  25.254  25.660  1.00  0.00     0.128 A 
ATOM     16  C   UNL A   1      33.821  26.081  23.701  1.00  0.00     0.032 A 
ATOM     17  Cl  UNL A   1      33.937  28.566  22.841  1.00  0.00    -0.084 Cl
ATOM     18  C   UNL A   1      33.507  25.015  24.542  1.00  0.00     0.019 A 
ATOM     19  O   UNL A   1      32.311  24.281  26.521  1.00  0.00    -0.475 OA
ATOM     20  C   UNL A   1      34.044  23.688  24.303  1.00  0.00     0.027 C 
ATOM     21  C   UNL A   1      32.707  22.900  26.277  1.00  0.00     0.316 C 
BRANCH  12  22
ATOM     22  C   UNL A   1      32.405  29.067  25.789  1.00  0.00     0.014 C 
ATOM     23  C   UNL A   1      31.352  29.954  25.117  1.00  0.00     0.012 C 
ATOM     24  C   UNL A   1      32.054  29.011  27.289  1.00  0.00     0.012 C 
ENDBRANCH  12  22
BRANCH  21  25
ATOM     25  C   UNL A   1      33.218  22.329  27.608  1.00  0.00     0.430 C 
ATOM     26  F   UNL A   1      34.425  22.854  27.935  1.00  0.00    -0.167 F 
ATOM     27  F   UNL A   1      32.387  22.603  28.639  1.00  0.00    -0.167 F 
ATOM     28  F   UNL A   1      33.362  20.984  27.553  1.00  0.00    -0.167 F 
ENDBRANCH  21  25
ENDBRANCH   9  11
ENDBRANCH   8   9
ENDBRANCH   7   8
ENDBRANCH   6   7
ENDBRANCH   5   6
ENDBRANCH   4   5
ENDBRANCH   3   4
ENDBRANCH   2   3
ENDBRANCH   1   2
BRANCH   1  29
ATOM     29  C   UNL A   1      41.322  20.467  27.434  1.00  0.00     0.188 C 
BRANCH  29  30
ATOM     30  O   UNL A   1      42.403  19.554  27.596  1.00  0.00    -0.376 OA
BRANCH  30  31
ATOM     31  C   UNL A   1      42.377  18.381  26.795  1.00  0.00     0.202 C 
BRANCH  31  32
ATOM     32  C   UNL A   1      43.433  18.372  25.685  1.00  0.00     0.261 C 
BRANCH  32  33
ATOM     33  O   UNL A   1      43.405  19.513  24.814  1.00  0.00    -0.460 OA
BRANCH  33  34
ATOM     34  C   UNL A   1      44.556  19.863  24.198  1.00  0.00     0.338 C 
ATOM     35  O   UNL A   1      45.123  19.272  23.297  1.00  0.00    -0.246 OA
BRANCH  34  36
ATOM     36  C   UNL A   1      44.914  21.215  24.677  1.00  0.00     0.060 A 
ATOM     37  C   UNL A   1      44.930  22.295  23.791  1.00  0.00     0.016 A 
ATOM     38  C   UNL A   1      45.283  21.388  26.016  1.00  0.00     0.016 A 
ATOM     39  C   UNL A   1      45.290  23.560  24.255  1.00  0.00     0.010 A 
ATOM     40  C   UNL A   1      45.652  22.655  26.477  1.00  0.00     0.010 A 
ATOM     41  C   UNL A   1      45.636  23.752  25.603  1.00  0.00    -0.014 A 
BRANCH  41  42
ATOM     42  C   UNL A   1      45.808  25.128  26.125  1.00  0.00     0.031 A 
ATOM     43  C   UNL A   1      47.130  25.828  26.103  1.00  0.00     0.074 A 
ATOM     44  C   UNL A   1      44.723  25.746  26.626  1.00  0.00     0.049 A 
ATOM     45  N   UNL A   1      47.412  27.059  26.454  1.00  0.00    -0.248 NA
ATOM     46  C   UNL A   1      48.287  25.053  25.636  1.00  0.00     0.031 C 
ATOM     47  C   UNL A   1      43.391  25.148  26.716  1.00  0.00     0.029 A 
ATOM     48  N   UNL A   1      44.563  27.005  27.142  1.00  0.00    -0.354 N 
ATOM     49  C   UNL A   1      48.771  27.218  26.227  1.00  0.00     0.074 A 
ATOM     50  C   UNL A   1      49.268  25.940  25.754  1.00  0.00     0.031 C 
ATOM     51  C   UNL A   1      42.542  26.048  27.235  1.00  0.00     0.029 A 
ATOM     52  C   UNL A   1      43.275  27.275  27.531  1.00  0.00     0.049 A 
ATOM     53  H   UNL A   1      45.300  27.653  27.225  1.00  0.00     0.167 HD
ATOM     54  C   UNL A   1      49.524  28.335  26.381  1.00  0.00     0.037 A 
ATOM     55  C   UNL A   1      42.741  28.390  28.063  1.00  0.00     0.037 A 
ATOM     56  C   UNL A   1      49.023  29.596  26.874  1.00  0.00     0.049 A 
ATOM     57  C   UNL A   1      43.611  29.594  28.276  1.00  0.00     0.074 A 
ATOM     58  C   UNL A   1      49.703  30.793  27.027  1.00  0.00     0.029 A 
ATOM     59  N   UNL A   1      47.724  29.821  27.309  1.00  0.00    -0.354 N 
ATOM     60  N   UNL A   1      44.879  29.758  27.988  1.00  0.00    -0.248 NA
ATOM     61  C   UNL A   1      42.974  30.771  28.882  1.00  0.00     0.031 C 
ATOM     62  C   UNL A   1      48.833  31.725  27.602  1.00  0.00     0.029 A 
ATOM     63  C   UNL A   1      47.594  31.127  27.762  1.00  0.00     0.049 A 
ATOM     64  H   UNL A   1      47.002  29.152  27.298  1.00  0.00     0.167 HD
ATOM     65  C   UNL A   1      45.190  31.057  28.364  1.00  0.00     0.074 A 
ATOM     66  C   UNL A   1      43.971  31.646  28.879  1.00  0.00     0.031 C 
ATOM     67  C   UNL A   1      46.381  31.699  28.291  1.00  0.00     0.037 A 
BRANCH  54  68
ATOM     68  C   UNL A   1      50.975  28.258  26.007  1.00  0.00     0.064 A 
ATOM     69  C   UNL A   1      51.964  28.011  26.970  1.00  0.00     0.173 A 
ATOM     70  C   UNL A   1      51.376  28.347  24.664  1.00  0.00     0.173 A 
ATOM     71  F   UNL A   1      51.634  27.918  28.267  1.00  0.00    -0.203 F 
ATOM     72  C   UNL A   1      53.301  27.871  26.607  1.00  0.00     0.198 A 
ATOM     73  C   UNL A   1      52.711  28.181  24.301  1.00  0.00     0.198 A 
ATOM     74  F   UNL A   1      50.469  28.571  23.701  1.00  0.00    -0.203 F 
ATOM     75  F   UNL A   1      54.232  27.663  27.550  1.00  0.00    -0.200 F 
ATOM     76  C   UNL A   1      53.672  27.948  25.273  1.00  0.00     0.200 A 
ATOM     77  F   UNL A   1      53.065  28.240  23.011  1.00  0.00    -0.200 F 
ATOM     78  F   UNL A   1      54.957  27.796  24.923  1.00  0.00    -0.200 F 
ENDBRANCH  54  68
BRANCH  55  79
ATOM     79  C   UNL A   1      41.294  28.418  28.387  1.00  0.00     0.064 A 
ATOM     80  C   UNL A   1      40.834  27.998  29.642  1.00  0.00     0.173 A 
ATOM     81  C   UNL A   1      40.350  28.904  27.471  1.00  0.00     0.173 A 
ATOM     82  F   UNL A   1      41.699  27.511  30.543  1.00  0.00    -0.203 F 
ATOM     83  C   UNL A   1      39.481  28.057  29.966  1.00  0.00     0.198 A 
ATOM     84  C   UNL A   1      39.000  28.988  27.807  1.00  0.00     0.198 A 
ATOM     85  F   UNL A   1      40.744  29.326  26.260  1.00  0.00    -0.203 F 
ATOM     86  F   UNL A   1      39.063  27.625  31.163  1.00  0.00    -0.200 F 
ATOM     87  C   UNL A   1      38.567  28.560  29.053  1.00  0.00     0.200 A 
ATOM     88  F   UNL A   1      38.124  29.490  26.927  1.00  0.00    -0.200 F 
ATOM     89  F   UNL A   1      37.268  28.632  29.372  1.00  0.00    -0.200 F 
ENDBRANCH  55  79
BRANCH  67  90
ATOM     90  C   UNL A   1      46.430  33.116  28.789  1.00  0.00     0.064 A 
ATOM     91  C   UNL A   1      46.080  34.194  27.960  1.00  0.00     0.173 A 
ATOM     92  C   UNL A   1      46.788  33.399  30.116  1.00  0.00     0.173 A 
ATOM     93  F   UNL A   1      45.747  33.979  26.678  1.00  0.00    -0.203 F 
ATOM     94  C   UNL A   1      46.108  35.502  28.436  1.00  0.00     0.198 A 
ATOM     95  C   UNL A   1      46.786  34.705  30.597  1.00  0.00     0.198 A 
ATOM     96  F   UNL A   1      47.126  32.405  30.951  1.00  0.00    -0.203 F 
ATOM     97  F   UNL A   1      45.814  36.519  27.615  1.00  0.00    -0.200 F 
ATOM     98  C   UNL A   1      46.453  35.756  29.756  1.00  0.00     0.200 A 
ATOM     99  F   UNL A   1      47.107  34.948  31.876  1.00  0.00    -0.200 F 
ATOM    100  F   UNL A   1      46.469  37.014  30.215  1.00  0.00    -0.200 F 
ENDBRANCH  67  90
ENDBRANCH  41  42
ENDBRANCH  34  36
ENDBRANCH  33  34
ENDBRANCH  32  33
ENDBRANCH  31  32
ENDBRANCH  30  31
ENDBRANCH  29  30
ENDBRANCH   1  29
TORSDOF 22
ENDMDL
