MODEL 1
REMARK VINA RESULT:      -9.6      0.000      0.000
REMARK SMILES O=C(CSc1ccc2ccccc2n1)NCc1ccc(C(=O)OCCOCCOCCOCCOC(=O)c2ccc(-c3c4nc(c(-c5c(F)c(F)c(F)c(F)c5F)c5ccc([nH]5)c(-c5c(F)c(F)c(F)c(F)c5F)c5nc(c(-c6c(F)c(F)c(F)c(F)c6F)c6ccc3[nH]6)C=C5)C=C4)cc2)cc1
REMARK SMILES IDX 27 1 26 2 25 3 24 4 23 5 21 6 22 7 20 8 17 9 18 10 102 11
REMARK SMILES IDX 19 12 101 13 16 14 15 15 1 16 2 17 3 19 4 20 5 21 6 22 14 23
REMARK SMILES IDX 7 24 13 25 8 26 12 27 9 28 11 29 10 30 28 31 29 32 30 33
REMARK SMILES IDX 31 34 32 35 33 36 34 37 35 38 36 39 37 40 38 41 39 42 100 43
REMARK SMILES IDX 40 44 99 45 41 46 42 47 43 48 93 49 44 50 98 51 92 52 94 53
REMARK SMILES IDX 45 54 97 55 91 56 90 57 46 59 78 60 58 61 77 62 59 63 62 64
REMARK SMILES IDX 76 65 95 66 60 67 61 68 75 70 96 71 63 72 47 73 48 74 56 75
REMARK SMILES IDX 49 76 50 77 54 78 57 79 51 80 52 81 55 82 53 83 79 84 80 85
REMARK SMILES IDX 88 86 81 87 82 88 86 89 89 90 83 91 84 92 87 93 85 94 64 95
REMARK SMILES IDX 65 96 73 97 66 98 67 99 71 100 74 101 68 102 69 103 72 104
REMARK SMILES IDX 70 105
REMARK H PARENT 15 18 94 58 62 69
REMARK Flexibility Score: inf
ROOT
ATOM      1  C   UNL A   1      33.408  28.812  24.940  1.00  0.00     0.188 C 
ENDROOT
BRANCH   1   2
ATOM      2  O   UNL A   1      34.063  27.736  24.289  1.00  0.00    -0.376 OA
BRANCH   2   3
ATOM      3  C   UNL A   1      33.329  26.556  24.027  1.00  0.00     0.202 C 
BRANCH   3   4
ATOM      4  C   UNL A   1      33.424  25.416  25.053  1.00  0.00     0.261 C 
BRANCH   4   5
ATOM      5  O   UNL A   1      32.568  24.290  24.815  1.00  0.00    -0.460 OA
BRANCH   5   6
ATOM      6  C   UNL A   1      32.903  23.497  23.774  1.00  0.00     0.338 C 
ATOM      7  O   UNL A   1      32.304  23.402  22.717  1.00  0.00    -0.246 OA
BRANCH   6   8
ATOM      8  C   UNL A   1      34.235  22.898  24.033  1.00  0.00     0.060 A 
ATOM      9  C   UNL A   1      36.737  21.781  24.671  1.00  0.00    -0.029 A 
ATOM     10  C   UNL A   1      35.568  21.335  25.309  1.00  0.00     0.006 A 
ATOM     11  C   UNL A   1      36.620  22.738  23.652  1.00  0.00     0.006 A 
ATOM     12  C   UNL A   1      34.327  21.897  25.005  1.00  0.00     0.016 A 
ATOM     13  C   UNL A   1      35.375  23.291  23.326  1.00  0.00     0.016 A 
BRANCH   9  14
ATOM     14  C   UNL A   1      38.061  21.239  25.168  1.00  0.00     0.151 C 
BRANCH  14  15
ATOM     15  N   UNL A   1      38.909  22.214  25.810  1.00  0.00    -0.351 N 
ATOM     16  O   UNL A   1      40.425  20.699  26.636  1.00  0.00    -0.274 OA
ATOM     17  C   UNL A   1      40.064  21.862  26.471  1.00  0.00     0.230 C 
ATOM     18  H   UNL A   1      38.652  23.163  25.775  1.00  0.00     0.163 HD
BRANCH  17  19
ATOM     19  C   UNL A   1      40.815  23.018  27.107  1.00  0.00     0.176 C 
BRANCH  19  20
ATOM     20  S   UNL A   1      42.618  22.809  27.032  1.00  0.00    -0.096 SA
BRANCH  20  21
ATOM     21  C   UNL A   1      43.110  24.407  27.642  1.00  0.00     0.097 A 
ATOM     22  C   UNL A   1      42.860  24.763  28.958  1.00  0.00     0.036 A 
ATOM     23  N   UNL A   1      43.676  25.240  26.742  1.00  0.00    -0.241 NA
ATOM     24  C   UNL A   1      43.198  26.047  29.372  1.00  0.00     0.013 A 
ATOM     25  C   UNL A   1      43.999  26.484  27.144  1.00  0.00     0.072 A 
ATOM     26  C   UNL A   1      43.770  26.940  28.459  1.00  0.00     0.000 A 
ATOM     27  C   UNL A   1      44.567  27.370  26.237  1.00  0.00     0.029 A 
ATOM     28  C   UNL A   1      44.101  28.256  28.824  1.00  0.00     0.010 A 
ATOM     29  C   UNL A   1      44.896  28.681  26.595  1.00  0.00     0.002 A 
ATOM     30  C   UNL A   1      44.660  29.126  27.890  1.00  0.00     0.001 A 
ENDBRANCH  20  21
ENDBRANCH  19  20
ENDBRANCH  17  19
ENDBRANCH  14  15
ENDBRANCH   9  14
ENDBRANCH   6   8
ENDBRANCH   5   6
ENDBRANCH   4   5
ENDBRANCH   3   4
ENDBRANCH   2   3
ENDBRANCH   1   2
BRANCH   1  31
ATOM     31  C   UNL A   1      33.714  28.917  26.450  1.00  0.00     0.188 C 
BRANCH  31  32
ATOM     32  O   UNL A   1      34.388  30.062  26.956  1.00  0.00    -0.377 OA
BRANCH  32  33
ATOM     33  C   UNL A   1      33.654  31.085  27.622  1.00  0.00     0.188 C 
BRANCH  33  34
ATOM     34  C   UNL A   1      34.339  32.378  28.124  1.00  0.00     0.188 C 
BRANCH  34  35
ATOM     35  O   UNL A   1      33.506  33.524  28.106  1.00  0.00    -0.376 OA
BRANCH  35  36
ATOM     36  C   UNL A   1      33.976  34.698  28.739  1.00  0.00     0.202 C 
BRANCH  36  37
ATOM     37  C   UNL A   1      32.939  35.586  29.439  1.00  0.00     0.261 C 
BRANCH  37  38
ATOM     38  O   UNL A   1      33.329  36.157  30.695  1.00  0.00    -0.460 OA
BRANCH  38  39
ATOM     39  C   UNL A   1      32.887  35.564  31.822  1.00  0.00     0.338 C 
ATOM     40  O   UNL A   1      31.736  35.473  32.215  1.00  0.00    -0.246 OA
BRANCH  39  41
ATOM     41  C   UNL A   1      34.049  34.888  32.432  1.00  0.00     0.060 A 
ATOM     42  C   UNL A   1      35.326  35.457  32.333  1.00  0.00     0.016 A 
ATOM     43  C   UNL A   1      33.854  33.695  33.130  1.00  0.00     0.016 A 
ATOM     44  C   UNL A   1      36.423  34.818  32.916  1.00  0.00     0.010 A 
ATOM     45  C   UNL A   1      34.951  33.045  33.690  1.00  0.00     0.010 A 
ATOM     46  C   UNL A   1      36.243  33.585  33.557  1.00  0.00    -0.014 A 
BRANCH  46  47
ATOM     47  C   UNL A   1      37.399  32.718  33.881  1.00  0.00     0.031 A 
ATOM     48  C   UNL A   1      38.133  32.998  35.161  1.00  0.00     0.074 A 
ATOM     49  C   UNL A   1      37.828  31.760  33.042  1.00  0.00     0.049 A 
ATOM     50  N   UNL A   1      39.283  32.541  35.582  1.00  0.00    -0.248 NA
ATOM     51  C   UNL A   1      37.483  33.942  36.086  1.00  0.00     0.031 C 
ATOM     52  C   UNL A   1      37.170  31.363  31.801  1.00  0.00     0.029 A 
ATOM     53  N   UNL A   1      38.950  30.970  33.101  1.00  0.00    -0.354 N 
ATOM     54  C   UNL A   1      39.504  33.161  36.805  1.00  0.00     0.074 A 
ATOM     55  C   UNL A   1      38.383  34.041  37.049  1.00  0.00     0.031 C 
ATOM     56  C   UNL A   1      37.917  30.421  31.198  1.00  0.00     0.029 A 
ATOM     57  C   UNL A   1      39.127  30.190  31.986  1.00  0.00     0.049 A 
ATOM     58  H   UNL A   1      39.566  30.963  33.869  1.00  0.00     0.167 HD
ATOM     59  C   UNL A   1      40.553  33.010  37.646  1.00  0.00     0.037 A 
ATOM     60  C   UNL A   1      40.172  29.415  31.629  1.00  0.00     0.037 A 
ATOM     61  C   UNL A   1      41.665  32.136  37.390  1.00  0.00     0.049 A 
ATOM     62  C   UNL A   1      41.371  29.324  32.544  1.00  0.00     0.074 A 
ATOM     63  C   UNL A   1      42.776  31.900  38.179  1.00  0.00     0.029 A 
ATOM     64  N   UNL A   1      41.811  31.363  36.248  1.00  0.00    -0.354 N 
ATOM     65  N   UNL A   1      41.577  29.904  33.703  1.00  0.00    -0.248 NA
ATOM     66  C   UNL A   1      42.484  28.472  32.100  1.00  0.00     0.031 C 
ATOM     67  C   UNL A   1      43.623  31.029  37.487  1.00  0.00     0.029 A 
ATOM     68  C   UNL A   1      43.004  30.664  36.301  1.00  0.00     0.049 A 
ATOM     69  H   UNL A   1      41.161  31.317  35.508  1.00  0.00     0.167 HD
ATOM     70  C   UNL A   1      42.814  29.451  34.145  1.00  0.00     0.074 A 
ATOM     71  C   UNL A   1      43.317  28.551  33.128  1.00  0.00     0.031 C 
ATOM     72  C   UNL A   1      43.472  29.745  35.294  1.00  0.00     0.037 A 
BRANCH  59  73
ATOM     73  C   UNL A   1      40.564  33.837  38.898  1.00  0.00     0.064 A 
ATOM     74  C   UNL A   1      40.038  33.359  40.107  1.00  0.00     0.173 A 
ATOM     75  C   UNL A   1      41.129  35.121  38.891  1.00  0.00     0.173 A 
ATOM     76  F   UNL A   1      39.470  32.145  40.165  1.00  0.00    -0.203 F 
ATOM     77  C   UNL A   1      40.052  34.146  41.256  1.00  0.00     0.198 A 
ATOM     78  C   UNL A   1      41.174  35.892  40.050  1.00  0.00     0.198 A 
ATOM     79  F   UNL A   1      41.647  35.628  37.762  1.00  0.00    -0.203 F 
ATOM     80  F   UNL A   1      39.495  33.691  42.386  1.00  0.00    -0.200 F 
ATOM     81  C   UNL A   1      40.628  35.408  41.228  1.00  0.00     0.200 A 
ATOM     82  F   UNL A   1      41.744  37.105  40.023  1.00  0.00    -0.200 F 
ATOM     83  F   UNL A   1      40.649  36.161  42.336  1.00  0.00    -0.200 F 
ENDBRANCH  59  73
BRANCH  60  84
ATOM     84  C   UNL A   1      40.150  28.680  30.336  1.00  0.00     0.064 A 
ATOM     85  C   UNL A   1      40.718  29.236  29.180  1.00  0.00     0.173 A 
ATOM     86  C   UNL A   1      39.537  27.423  30.218  1.00  0.00     0.173 A 
ATOM     87  F   UNL A   1      41.290  30.447  29.232  1.00  0.00    -0.203 F 
ATOM     88  C   UNL A   1      40.654  28.574  27.954  1.00  0.00     0.198 A 
ATOM     89  C   UNL A   1      39.504  26.747  29.000  1.00  0.00     0.198 A 
ATOM     90  F   UNL A   1      38.975  26.846  31.291  1.00  0.00    -0.203 F 
ATOM     91  F   UNL A   1      41.156  29.155  26.856  1.00  0.00    -0.200 F 
ATOM     92  C   UNL A   1      40.052  27.328  27.867  1.00  0.00     0.200 A 
ATOM     93  F   UNL A   1      38.932  25.538  28.922  1.00  0.00    -0.200 F 
ATOM     94  F   UNL A   1      39.993  26.692  26.689  1.00  0.00    -0.200 F 
ENDBRANCH  60  84
BRANCH  72  95
ATOM     95  C   UNL A   1      44.767  29.035  35.567  1.00  0.00     0.064 A 
ATOM     96  C   UNL A   1      44.810  27.744  36.111  1.00  0.00     0.173 A 
ATOM     97  C   UNL A   1      45.983  29.632  35.194  1.00  0.00     0.173 A 
ATOM     98  F   UNL A   1      43.678  27.134  36.494  1.00  0.00    -0.203 F 
ATOM     99  C   UNL A   1      46.023  27.081  36.284  1.00  0.00     0.198 A 
ATOM    100  C   UNL A   1      47.189  28.954  35.337  1.00  0.00     0.198 A 
ATOM    101  F   UNL A   1      45.995  30.863  34.661  1.00  0.00    -0.203 F 
ATOM    102  F   UNL A   1      46.045  25.861  36.838  1.00  0.00    -0.200 F 
ATOM    103  C   UNL A   1      47.209  27.682  35.885  1.00  0.00     0.200 A 
ATOM    104  F   UNL A   1      48.330  29.528  34.932  1.00  0.00    -0.200 F 
ATOM    105  F   UNL A   1      48.373  27.033  36.032  1.00  0.00    -0.200 F 
ENDBRANCH  72  95
ENDBRANCH  46  47
ENDBRANCH  39  41
ENDBRANCH  38  39
ENDBRANCH  37  38
ENDBRANCH  36  37
ENDBRANCH  35  36
ENDBRANCH  34  35
ENDBRANCH  33  34
ENDBRANCH  32  33
ENDBRANCH  31  32
ENDBRANCH   1  31
TORSDOF 25
ENDMDL
MODEL 2
REMARK VINA RESULT:      -8.9      7.404     11.256
REMARK SMILES O=C(CSc1ccc2ccccc2n1)NCc1ccc(C(=O)OCCOCCOCCOCCOC(=O)c2ccc(-c3c4nc(c(-c5c(F)c(F)c(F)c(F)c5F)c5ccc([nH]5)c(-c5c(F)c(F)c(F)c(F)c5F)c5nc(c(-c6c(F)c(F)c(F)c(F)c6F)c6ccc3[nH]6)C=C5)C=C4)cc2)cc1
REMARK SMILES IDX 27 1 26 2 25 3 24 4 23 5 21 6 22 7 20 8 17 9 18 10 102 11
REMARK SMILES IDX 19 12 101 13 16 14 15 15 1 16 2 17 3 19 4 20 5 21 6 22 14 23
REMARK SMILES IDX 7 24 13 25 8 26 12 27 9 28 11 29 10 30 28 31 29 32 30 33
REMARK SMILES IDX 31 34 32 35 33 36 34 37 35 38 36 39 37 40 38 41 39 42 100 43
REMARK SMILES IDX 40 44 99 45 41 46 42 47 43 48 93 49 44 50 98 51 92 52 94 53
REMARK SMILES IDX 45 54 97 55 91 56 90 57 46 59 78 60 58 61 77 62 59 63 62 64
REMARK SMILES IDX 76 65 95 66 60 67 61 68 75 70 96 71 63 72 47 73 48 74 56 75
REMARK SMILES IDX 49 76 50 77 54 78 57 79 51 80 52 81 55 82 53 83 79 84 80 85
REMARK SMILES IDX 88 86 81 87 82 88 86 89 89 90 83 91 84 92 87 93 85 94 64 95
REMARK SMILES IDX 65 96 73 97 66 98 67 99 71 100 74 101 68 102 69 103 72 104
REMARK SMILES IDX 70 105
REMARK H PARENT 15 18 94 58 62 69
REMARK Flexibility Score: inf
ROOT
ATOM      1  C   UNL A   1      40.271  29.621  28.682  1.00  0.00     0.188 C 
ENDROOT
BRANCH   1   2
ATOM      2  O   UNL A   1      41.542  29.592  29.311  1.00  0.00    -0.376 OA
BRANCH   2   3
ATOM      3  C   UNL A   1      42.583  28.857  28.698  1.00  0.00     0.202 C 
BRANCH   3   4
ATOM      4  C   UNL A   1      42.389  28.432  27.235  1.00  0.00     0.261 C 
BRANCH   4   5
ATOM      5  O   UNL A   1      43.398  27.567  26.698  1.00  0.00    -0.460 OA
BRANCH   5   6
ATOM      6  C   UNL A   1      43.194  27.124  25.438  1.00  0.00     0.338 C 
ATOM      7  O   UNL A   1      42.740  27.772  24.510  1.00  0.00    -0.246 OA
BRANCH   6   8
ATOM      8  C   UNL A   1      43.793  25.775  25.297  1.00  0.00     0.060 A 
ATOM      9  C   UNL A   1      44.818  23.162  25.111  1.00  0.00    -0.029 A 
ATOM     10  C   UNL A   1      43.472  23.429  24.808  1.00  0.00     0.006 A 
ATOM     11  C   UNL A   1      45.659  24.238  25.430  1.00  0.00     0.006 A 
ATOM     12  C   UNL A   1      42.958  24.722  24.913  1.00  0.00     0.016 A 
ATOM     13  C   UNL A   1      45.154  25.542  25.516  1.00  0.00     0.016 A 
BRANCH   9  14
ATOM     14  C   UNL A   1      45.261  21.714  25.130  1.00  0.00     0.151 C 
BRANCH  14  15
ATOM     15  N   UNL A   1      44.426  20.838  25.916  1.00  0.00    -0.351 N 
ATOM     16  O   UNL A   1      43.738  19.529  24.158  1.00  0.00    -0.274 OA
ATOM     17  C   UNL A   1      43.750  19.773  25.363  1.00  0.00     0.230 C 
ATOM     18  H   UNL A   1      44.336  21.008  26.881  1.00  0.00     0.163 HD
BRANCH  17  19
ATOM     19  C   UNL A   1      42.901  18.977  26.338  1.00  0.00     0.176 C 
BRANCH  19  20
ATOM     20  S   UNL A   1      41.129  19.346  26.187  1.00  0.00    -0.096 SA
BRANCH  20  21
ATOM     21  C   UNL A   1      41.131  21.001  26.841  1.00  0.00     0.097 A 
ATOM     22  C   UNL A   1      40.138  21.899  26.481  1.00  0.00     0.036 A 
ATOM     23  N   UNL A   1      42.169  21.324  27.643  1.00  0.00    -0.241 NA
ATOM     24  C   UNL A   1      40.220  23.202  26.961  1.00  0.00     0.013 A 
ATOM     25  C   UNL A   1      42.248  22.586  28.103  1.00  0.00     0.072 A 
ATOM     26  C   UNL A   1      41.292  23.572  27.780  1.00  0.00     0.000 A 
ATOM     27  C   UNL A   1      43.313  22.953  28.917  1.00  0.00     0.029 A 
ATOM     28  C   UNL A   1      41.431  24.885  28.265  1.00  0.00     0.010 A 
ATOM     29  C   UNL A   1      43.456  24.258  29.399  1.00  0.00     0.002 A 
ATOM     30  C   UNL A   1      42.515  25.226  29.070  1.00  0.00     0.001 A 
ENDBRANCH  20  21
ENDBRANCH  19  20
ENDBRANCH  17  19
ENDBRANCH  14  15
ENDBRANCH   9  14
ENDBRANCH   6   8
ENDBRANCH   5   6
ENDBRANCH   4   5
ENDBRANCH   3   4
ENDBRANCH   2   3
ENDBRANCH   1   2
BRANCH   1  31
ATOM     31  C   UNL A   1      39.088  29.341  29.636  1.00  0.00     0.188 C 
BRANCH  31  32
ATOM     32  O   UNL A   1      37.831  28.947  29.103  1.00  0.00    -0.377 OA
BRANCH  32  33
ATOM     33  C   UNL A   1      37.073  29.861  28.314  1.00  0.00     0.188 C 
BRANCH  33  34
ATOM     34  C   UNL A   1      35.623  30.246  28.689  1.00  0.00     0.188 C 
BRANCH  34  35
ATOM     35  O   UNL A   1      35.477  31.569  29.173  1.00  0.00    -0.376 OA
BRANCH  35  36
ATOM     36  C   UNL A   1      36.617  32.208  29.715  1.00  0.00     0.202 C 
BRANCH  36  37
ATOM     37  C   UNL A   1      36.380  33.297  30.770  1.00  0.00     0.261 C 
BRANCH  37  38
ATOM     38  O   UNL A   1      37.276  34.415  30.748  1.00  0.00    -0.460 OA
BRANCH  38  39
ATOM     39  C   UNL A   1      38.222  34.486  31.706  1.00  0.00     0.338 C 
ATOM     40  O   UNL A   1      38.068  34.392  32.913  1.00  0.00    -0.246 OA
BRANCH  39  41
ATOM     41  C   UNL A   1      39.526  34.536  31.017  1.00  0.00     0.060 A 
ATOM     42  C   UNL A   1      40.713  34.375  31.745  1.00  0.00     0.016 A 
ATOM     43  C   UNL A   1      39.559  34.716  29.634  1.00  0.00     0.016 A 
ATOM     44  C   UNL A   1      41.946  34.418  31.089  1.00  0.00     0.010 A 
ATOM     45  C   UNL A   1      40.789  34.784  28.983  1.00  0.00     0.010 A 
ATOM     46  C   UNL A   1      41.986  34.669  29.711  1.00  0.00    -0.014 A 
BRANCH  46  47
ATOM     47  C   UNL A   1      43.250  35.060  29.044  1.00  0.00     0.031 A 
ATOM     48  C   UNL A   1      44.214  33.962  28.696  1.00  0.00     0.074 A 
ATOM     49  C   UNL A   1      43.565  36.346  28.815  1.00  0.00     0.049 A 
ATOM     50  N   UNL A   1      45.459  34.036  28.306  1.00  0.00    -0.248 NA
ATOM     51  C   UNL A   1      43.702  32.587  28.825  1.00  0.00     0.031 C 
ATOM     52  C   UNL A   1      42.693  37.490  29.060  1.00  0.00     0.029 A 
ATOM     53  N   UNL A   1      44.733  36.901  28.350  1.00  0.00    -0.354 N 
ATOM     54  C   UNL A   1      45.885  32.721  28.170  1.00  0.00     0.074 A 
ATOM     55  C   UNL A   1      44.775  31.870  28.538  1.00  0.00     0.031 C 
ATOM     56  C   UNL A   1      43.367  38.618  28.772  1.00  0.00     0.029 A 
ATOM     57  C   UNL A   1      44.731  38.273  28.372  1.00  0.00     0.049 A 
ATOM     58  H   UNL A   1      45.496  36.366  28.033  1.00  0.00     0.167 HD
ATOM     59  C   UNL A   1      47.096  32.267  27.775  1.00  0.00     0.037 A 
ATOM     60  C   UNL A   1      45.734  39.144  28.138  1.00  0.00     0.037 A 
ATOM     61  C   UNL A   1      48.195  33.123  27.417  1.00  0.00     0.049 A 
ATOM     62  C   UNL A   1      47.103  38.615  27.778  1.00  0.00     0.074 A 
ATOM     63  C   UNL A   1      49.462  32.768  26.994  1.00  0.00     0.029 A 
ATOM     64  N   UNL A   1      48.155  34.509  27.453  1.00  0.00    -0.354 N 
ATOM     65  N   UNL A   1      47.503  37.373  27.642  1.00  0.00    -0.248 NA
ATOM     66  C   UNL A   1      48.160  39.609  27.542  1.00  0.00     0.031 C 
ATOM     67  C   UNL A   1      50.209  33.938  26.831  1.00  0.00     0.029 A 
ATOM     68  C   UNL A   1      49.384  35.024  27.079  1.00  0.00     0.049 A 
ATOM     69  H   UNL A   1      47.370  35.047  27.705  1.00  0.00     0.167 HD
ATOM     70  C   UNL A   1      48.838  37.438  27.260  1.00  0.00     0.074 A 
ATOM     71  C   UNL A   1      49.183  38.842  27.191  1.00  0.00     0.031 C 
ATOM     72  C   UNL A   1      49.699  36.428  26.982  1.00  0.00     0.037 A 
BRANCH  59  73
ATOM     73  C   UNL A   1      47.307  30.782  27.752  1.00  0.00     0.064 A 
ATOM     74  C   UNL A   1      46.931  29.997  26.651  1.00  0.00     0.173 A 
ATOM     75  C   UNL A   1      47.914  30.137  28.839  1.00  0.00     0.173 A 
ATOM     76  F   UNL A   1      46.331  30.561  25.592  1.00  0.00    -0.203 F 
ATOM     77  C   UNL A   1      47.130  28.619  26.652  1.00  0.00     0.198 A 
ATOM     78  C   UNL A   1      48.144  28.763  28.823  1.00  0.00     0.198 A 
ATOM     79  F   UNL A   1      48.294  30.839  29.918  1.00  0.00    -0.203 F 
ATOM     80  F   UNL A   1      46.713  27.882  25.614  1.00  0.00    -0.200 F 
ATOM     81  C   UNL A   1      47.743  28.005  27.734  1.00  0.00     0.200 A 
ATOM     82  F   UNL A   1      48.750  28.175  29.864  1.00  0.00    -0.200 F 
ATOM     83  F   UNL A   1      47.942  26.679  27.731  1.00  0.00    -0.200 F 
ENDBRANCH  59  73
BRANCH  60  84
ATOM     84  C   UNL A   1      45.497  40.608  28.257  1.00  0.00     0.064 A 
ATOM     85  C   UNL A   1      45.680  41.271  29.479  1.00  0.00     0.173 A 
ATOM     86  C   UNL A   1      45.054  41.369  27.164  1.00  0.00     0.173 A 
ATOM     87  F   UNL A   1      46.075  40.583  30.560  1.00  0.00    -0.203 F 
ATOM     88  C   UNL A   1      45.409  42.632  29.609  1.00  0.00     0.198 A 
ATOM     89  C   UNL A   1      44.815  42.736  27.287  1.00  0.00     0.198 A 
ATOM     90  F   UNL A   1      44.858  40.785  25.973  1.00  0.00    -0.203 F 
ATOM     91  F   UNL A   1      45.540  43.227  30.802  1.00  0.00    -0.200 F 
ATOM     92  C   UNL A   1      44.983  43.365  28.512  1.00  0.00     0.200 A 
ATOM     93  F   UNL A   1      44.415  43.443  26.222  1.00  0.00    -0.200 F 
ATOM     94  F   UNL A   1      44.724  44.674  28.637  1.00  0.00    -0.200 F 
ENDBRANCH  60  84
BRANCH  72  95
ATOM     95  C   UNL A   1      51.074  36.786  26.496  1.00  0.00     0.064 A 
ATOM     96  C   UNL A   1      52.153  36.964  27.373  1.00  0.00     0.173 A 
ATOM     97  C   UNL A   1      51.328  36.867  25.117  1.00  0.00     0.173 A 
ATOM     98  F   UNL A   1      51.962  36.909  28.700  1.00  0.00    -0.203 F 
ATOM     99  C   UNL A   1      53.433  37.223  26.888  1.00  0.00     0.198 A 
ATOM    100  C   UNL A   1      52.614  37.092  24.635  1.00  0.00     0.198 A 
ATOM    101  F   UNL A   1      50.331  36.695  24.235  1.00  0.00    -0.203 F 
ATOM    102  F   UNL A   1      54.444  37.425  27.744  1.00  0.00    -0.200 F 
ATOM    103  C   UNL A   1      53.664  37.274  25.520  1.00  0.00     0.200 A 
ATOM    104  F   UNL A   1      52.837  37.120  23.314  1.00  0.00    -0.200 F 
ATOM    105  F   UNL A   1      54.900  37.501  25.056  1.00  0.00    -0.200 F 
ENDBRANCH  72  95
ENDBRANCH  46  47
ENDBRANCH  39  41
ENDBRANCH  38  39
ENDBRANCH  37  38
ENDBRANCH  36  37
ENDBRANCH  35  36
ENDBRANCH  34  35
ENDBRANCH  33  34
ENDBRANCH  32  33
ENDBRANCH  31  32
ENDBRANCH   1  31
TORSDOF 25
ENDMDL
MODEL 3
REMARK VINA RESULT:      -8.6      4.849      8.490
REMARK SMILES O=C(CSc1ccc2ccccc2n1)NCc1ccc(C(=O)OCCOCCOCCOCCOC(=O)c2ccc(-c3c4nc(c(-c5c(F)c(F)c(F)c(F)c5F)c5ccc([nH]5)c(-c5c(F)c(F)c(F)c(F)c5F)c5nc(c(-c6c(F)c(F)c(F)c(F)c6F)c6ccc3[nH]6)C=C5)C=C4)cc2)cc1
REMARK SMILES IDX 27 1 26 2 25 3 24 4 23 5 21 6 22 7 20 8 17 9 18 10 102 11
REMARK SMILES IDX 19 12 101 13 16 14 15 15 1 16 2 17 3 19 4 20 5 21 6 22 14 23
REMARK SMILES IDX 7 24 13 25 8 26 12 27 9 28 11 29 10 30 28 31 29 32 30 33
REMARK SMILES IDX 31 34 32 35 33 36 34 37 35 38 36 39 37 40 38 41 39 42 100 43
REMARK SMILES IDX 40 44 99 45 41 46 42 47 43 48 93 49 44 50 98 51 92 52 94 53
REMARK SMILES IDX 45 54 97 55 91 56 90 57 46 59 78 60 58 61 77 62 59 63 62 64
REMARK SMILES IDX 76 65 95 66 60 67 61 68 75 70 96 71 63 72 47 73 48 74 56 75
REMARK SMILES IDX 49 76 50 77 54 78 57 79 51 80 52 81 55 82 53 83 79 84 80 85
REMARK SMILES IDX 88 86 81 87 82 88 86 89 89 90 83 91 84 92 87 93 85 94 64 95
REMARK SMILES IDX 65 96 73 97 66 98 67 99 71 100 74 101 68 102 69 103 72 104
REMARK SMILES IDX 70 105
REMARK H PARENT 15 18 94 58 62 69
REMARK Flexibility Score: inf
ROOT
ATOM      1  C   UNL A   1      36.655  33.803  28.783  1.00  0.00     0.188 C 
ENDROOT
BRANCH   1   2
ATOM      2  O   UNL A   1      37.069  33.520  30.110  1.00  0.00    -0.376 OA
BRANCH   2   3
ATOM      3  C   UNL A   1      38.423  33.733  30.457  1.00  0.00     0.202 C 
BRANCH   3   4
ATOM      4  C   UNL A   1      39.219  32.533  30.992  1.00  0.00     0.261 C 
BRANCH   4   5
ATOM      5  O   UNL A   1      39.858  31.717  30.001  1.00  0.00    -0.460 OA
BRANCH   5   6
ATOM      6  C   UNL A   1      39.615  30.390  30.074  1.00  0.00     0.338 C 
ATOM      7  O   UNL A   1      40.284  29.566  30.672  1.00  0.00    -0.246 OA
BRANCH   6   8
ATOM      8  C   UNL A   1      38.287  30.110  29.477  1.00  0.00     0.060 A 
ATOM      9  C   UNL A   1      35.789  29.691  28.251  1.00  0.00    -0.029 A 
ATOM     10  C   UNL A   1      36.955  29.826  27.478  1.00  0.00     0.006 A 
ATOM     11  C   UNL A   1      35.909  29.689  29.649  1.00  0.00     0.006 A 
ATOM     12  C   UNL A   1      38.193  30.048  28.083  1.00  0.00     0.016 A 
ATOM     13  C   UNL A   1      37.152  29.889  30.263  1.00  0.00     0.016 A 
BRANCH   9  14
ATOM     14  C   UNL A   1      34.466  29.615  27.519  1.00  0.00     0.151 C 
BRANCH  14  15
ATOM     15  N   UNL A   1      34.524  28.963  26.233  1.00  0.00    -0.351 N 
ATOM     16  O   UNL A   1      33.000  27.319  26.735  1.00  0.00    -0.274 OA
ATOM     17  C   UNL A   1      33.743  27.871  25.926  1.00  0.00     0.230 C 
ATOM     18  H   UNL A   1      35.143  29.311  25.552  1.00  0.00     0.163 HD
BRANCH  17  19
ATOM     19  C   UNL A   1      33.957  27.302  24.535  1.00  0.00     0.176 C 
BRANCH  19  20
ATOM     20  S   UNL A   1      32.593  26.229  23.999  1.00  0.00    -0.096 SA
BRANCH  20  21
ATOM     21  C   UNL A   1      33.336  24.646  24.331  1.00  0.00     0.097 A 
ATOM     22  C   UNL A   1      34.693  24.551  24.599  1.00  0.00     0.036 A 
ATOM     23  N   UNL A   1      32.518  23.574  24.248  1.00  0.00    -0.241 NA
ATOM     24  C   UNL A   1      35.243  23.287  24.782  1.00  0.00     0.013 A 
ATOM     25  C   UNL A   1      33.054  22.352  24.422  1.00  0.00     0.072 A 
ATOM     26  C   UNL A   1      34.426  22.155  24.686  1.00  0.00     0.000 A 
ATOM     27  C   UNL A   1      32.241  21.228  24.326  1.00  0.00     0.029 A 
ATOM     28  C   UNL A   1      34.943  20.857  24.835  1.00  0.00     0.010 A 
ATOM     29  C   UNL A   1      32.752  19.935  24.471  1.00  0.00     0.002 A 
ATOM     30  C   UNL A   1      34.106  19.749  24.723  1.00  0.00     0.001 A 
ENDBRANCH  20  21
ENDBRANCH  19  20
ENDBRANCH  17  19
ENDBRANCH  14  15
ENDBRANCH   9  14
ENDBRANCH   6   8
ENDBRANCH   5   6
ENDBRANCH   4   5
ENDBRANCH   3   4
ENDBRANCH   2   3
ENDBRANCH   1   2
BRANCH   1  31
ATOM     31  C   UNL A   1      35.301  33.169  28.395  1.00  0.00     0.188 C 
BRANCH  31  32
ATOM     32  O   UNL A   1      34.220  34.002  27.998  1.00  0.00    -0.377 OA
BRANCH  32  33
ATOM     33  C   UNL A   1      34.216  35.382  28.354  1.00  0.00     0.188 C 
BRANCH  33  34
ATOM     34  C   UNL A   1      32.918  36.101  28.792  1.00  0.00     0.188 C 
BRANCH  34  35
ATOM     35  O   UNL A   1      33.021  36.792  30.024  1.00  0.00    -0.376 OA
BRANCH  35  36
ATOM     36  C   UNL A   1      32.681  36.097  31.207  1.00  0.00     0.202 C 
BRANCH  36  37
ATOM     37  C   UNL A   1      33.814  35.379  31.954  1.00  0.00     0.261 C 
BRANCH  37  38
ATOM     38  O   UNL A   1      33.474  34.141  32.593  1.00  0.00    -0.460 OA
BRANCH  38  39
ATOM     39  C   UNL A   1      34.281  33.082  32.383  1.00  0.00     0.338 C 
ATOM     40  O   UNL A   1      34.262  32.305  31.443  1.00  0.00    -0.246 OA
BRANCH  39  41
ATOM     41  C   UNL A   1      35.318  33.121  33.433  1.00  0.00     0.060 A 
ATOM     42  C   UNL A   1      35.271  34.103  34.433  1.00  0.00     0.016 A 
ATOM     43  C   UNL A   1      36.325  32.154  33.432  1.00  0.00     0.016 A 
ATOM     44  C   UNL A   1      36.251  34.134  35.427  1.00  0.00     0.010 A 
ATOM     45  C   UNL A   1      37.316  32.201  34.410  1.00  0.00     0.010 A 
ATOM     46  C   UNL A   1      37.302  33.209  35.390  1.00  0.00    -0.014 A 
BRANCH  46  47
ATOM     47  C   UNL A   1      38.526  33.411  36.201  1.00  0.00     0.031 A 
ATOM     48  C   UNL A   1      38.441  33.096  37.667  1.00  0.00     0.074 A 
ATOM     49  C   UNL A   1      39.652  33.920  35.674  1.00  0.00     0.049 A 
ATOM     50  N   UNL A   1      39.278  33.374  38.631  1.00  0.00    -0.248 NA
ATOM     51  C   UNL A   1      37.229  32.383  38.106  1.00  0.00     0.031 C 
ATOM     52  C   UNL A   1      39.871  34.214  34.262  1.00  0.00     0.029 A 
ATOM     53  N   UNL A   1      40.818  34.309  36.288  1.00  0.00    -0.354 N 
ATOM     54  C   UNL A   1      38.683  32.894  39.790  1.00  0.00     0.074 A 
ATOM     55  C   UNL A   1      37.407  32.328  39.415  1.00  0.00     0.031 C 
ATOM     56  C   UNL A   1      41.088  34.768  34.118  1.00  0.00     0.029 A 
ATOM     57  C   UNL A   1      41.709  34.912  35.435  1.00  0.00     0.049 A 
ATOM     58  H   UNL A   1      40.997  34.170  37.246  1.00  0.00     0.167 HD
ATOM     59  C   UNL A   1      39.161  32.927  41.056  1.00  0.00     0.037 A 
ATOM     60  C   UNL A   1      42.869  35.545  35.701  1.00  0.00     0.037 A 
ATOM     61  C   UNL A   1      40.429  33.499  41.418  1.00  0.00     0.049 A 
ATOM     62  C   UNL A   1      43.346  35.643  37.132  1.00  0.00     0.074 A 
ATOM     63  C   UNL A   1      41.014  33.576  42.668  1.00  0.00     0.029 A 
ATOM     64  N   UNL A   1      41.304  34.101  40.526  1.00  0.00    -0.354 N 
ATOM     65  N   UNL A   1      42.787  35.183  38.226  1.00  0.00    -0.248 NA
ATOM     66  C   UNL A   1      44.613  36.351  37.364  1.00  0.00     0.031 C 
ATOM     67  C   UNL A   1      42.215  34.280  42.542  1.00  0.00     0.029 A 
ATOM     68  C   UNL A   1      42.415  34.573  41.202  1.00  0.00     0.049 A 
ATOM     69  H   UNL A   1      41.157  34.181  39.555  1.00  0.00     0.167 HD
ATOM     70  C   UNL A   1      43.655  35.503  39.264  1.00  0.00     0.074 A 
ATOM     71  C   UNL A   1      44.775  36.201  38.671  1.00  0.00     0.031 C 
ATOM     72  C   UNL A   1      43.538  35.235  40.589  1.00  0.00     0.037 A 
BRANCH  59  73
ATOM     73  C   UNL A   1      38.289  32.368  42.141  1.00  0.00     0.064 A 
ATOM     74  C   UNL A   1      38.475  31.072  42.648  1.00  0.00     0.173 A 
ATOM     75  C   UNL A   1      37.266  33.149  42.699  1.00  0.00     0.173 A 
ATOM     76  F   UNL A   1      39.428  30.278  42.138  1.00  0.00    -0.203 F 
ATOM     77  C   UNL A   1      37.650  30.571  43.651  1.00  0.00     0.198 A 
ATOM     78  C   UNL A   1      36.466  32.657  43.727  1.00  0.00     0.198 A 
ATOM     79  F   UNL A   1      37.044  34.395  42.253  1.00  0.00    -0.203 F 
ATOM     80  F   UNL A   1      37.810  29.311  44.081  1.00  0.00    -0.200 F 
ATOM     81  C   UNL A   1      36.652  31.366  44.195  1.00  0.00     0.200 A 
ATOM     82  F   UNL A   1      35.512  33.433  44.261  1.00  0.00    -0.200 F 
ATOM     83  F   UNL A   1      35.865  30.885  45.167  1.00  0.00    -0.200 F 
ENDBRANCH  59  73
BRANCH  60  84
ATOM     84  C   UNL A   1      43.657  36.158  34.598  1.00  0.00     0.064 A 
ATOM     85  C   UNL A   1      43.374  37.455  34.145  1.00  0.00     0.173 A 
ATOM     86  C   UNL A   1      44.686  35.454  33.953  1.00  0.00     0.173 A 
ATOM     87  F   UNL A   1      42.381  38.158  34.708  1.00  0.00    -0.203 F 
ATOM     88  C   UNL A   1      44.074  38.015  33.077  1.00  0.00     0.198 A 
ATOM     89  C   UNL A   1      45.407  36.027  32.908  1.00  0.00     0.198 A 
ATOM     90  F   UNL A   1      44.996  34.209  34.343  1.00  0.00    -0.203 F 
ATOM     91  F   UNL A   1      43.745  39.234  32.630  1.00  0.00    -0.200 F 
ATOM     92  C   UNL A   1      45.094  37.303  32.464  1.00  0.00     0.200 A 
ATOM     93  F   UNL A   1      46.400  35.342  32.326  1.00  0.00    -0.200 F 
ATOM     94  F   UNL A   1      45.767  37.843  31.439  1.00  0.00    -0.200 F 
ENDBRANCH  60  84
BRANCH  72  95
ATOM     95  C   UNL A   1      44.680  35.616  41.488  1.00  0.00     0.064 A 
ATOM     96  C   UNL A   1      44.717  36.840  42.170  1.00  0.00     0.173 A 
ATOM     97  C   UNL A   1      45.712  34.695  41.734  1.00  0.00     0.173 A 
ATOM     98  F   UNL A   1      43.761  37.759  41.961  1.00  0.00    -0.203 F 
ATOM     99  C   UNL A   1      45.752  37.134  43.054  1.00  0.00     0.198 A 
ATOM    100  C   UNL A   1      46.725  34.979  42.644  1.00  0.00     0.198 A 
ATOM    101  F   UNL A   1      45.719  33.505  41.114  1.00  0.00    -0.203 F 
ATOM    102  F   UNL A   1      45.787  38.324  43.670  1.00  0.00    -0.200 F 
ATOM    103  C   UNL A   1      46.748  36.199  43.300  1.00  0.00     0.200 A 
ATOM    104  F   UNL A   1      47.674  34.066  42.894  1.00  0.00    -0.200 F 
ATOM    105  F   UNL A   1      47.730  36.476  44.168  1.00  0.00    -0.200 F 
ENDBRANCH  72  95
ENDBRANCH  46  47
ENDBRANCH  39  41
ENDBRANCH  38  39
ENDBRANCH  37  38
ENDBRANCH  36  37
ENDBRANCH  35  36
ENDBRANCH  34  35
ENDBRANCH  33  34
ENDBRANCH  32  33
ENDBRANCH  31  32
ENDBRANCH   1  31
TORSDOF 25
ENDMDL
