MODEL 1
REMARK VINA RESULT:      -7.9      0.000      0.000
REMARK SMILES COc1cccc(/C=C2/C(=O)N(c3cccc(C(=O)OCCOCCOCCOCCOC(=O)c4ccc(-c5c6nc(c(-c7c(F)c(F)c(F)c(F)c7F)c7ccc([nH]7)c(-c7c(F)c(F)c(F)c(F)c7F)c7nc(c(-c8c(F)c(F)c(F)c(F)c8F)c8ccc5[nH]8)C=C7)C=C6)cc4)c3)N=C2C)c1
REMARK SMILES IDX 25 1 24 2 23 3 22 4 21 5 20 6 18 7 19 8 17 9 13 10 14 11
REMARK SMILES IDX 98 12 15 13 16 14 12 15 8 16 9 17 10 18 100 19 11 20 99 21
REMARK SMILES IDX 101 22 7 23 3 24 4 25 102 26 5 27 6 28 2 29 1 30 26 31 27 32
REMARK SMILES IDX 28 33 29 34 30 35 31 36 32 37 33 38 34 39 35 40 36 41 97 42
REMARK SMILES IDX 37 43 96 44 38 45 39 46 40 47 90 48 41 49 95 50 89 51 91 52
REMARK SMILES IDX 42 53 94 54 88 55 87 56 43 58 75 59 55 60 74 61 56 62 59 63
REMARK SMILES IDX 73 64 92 65 57 66 58 67 72 69 93 70 60 71 44 72 45 73 53 74
REMARK SMILES IDX 46 75 47 76 51 77 54 78 48 79 49 80 52 81 50 82 76 83 77 84
REMARK SMILES IDX 85 85 78 86 79 87 83 88 86 89 80 90 81 91 84 92 82 93 61 94
REMARK SMILES IDX 62 95 70 96 63 97 64 98 68 99 71 100 65 101 66 102 69 103
REMARK SMILES IDX 67 104
REMARK H PARENT 91 57 59 68
REMARK Flexibility Score: inf
ROOT
ATOM      1  C   UNL A   1      36.390  33.881  35.427  1.00  0.00     0.188 C 
ENDROOT
BRANCH   1   2
ATOM      2  C   UNL A   1      36.380  33.097  34.096  1.00  0.00     0.188 C 
BRANCH   2   3
ATOM      3  O   UNL A   1      35.087  32.912  33.543  1.00  0.00    -0.376 OA
BRANCH   3   4
ATOM      4  C   UNL A   1      34.976  32.751  32.141  1.00  0.00     0.202 C 
BRANCH   4   5
ATOM      5  C   UNL A   1      35.786  31.615  31.503  1.00  0.00     0.261 C 
BRANCH   5   6
ATOM      6  O   UNL A   1      35.724  31.539  30.073  1.00  0.00    -0.460 OA
BRANCH   6   7
ATOM      7  C   UNL A   1      36.419  32.455  29.358  1.00  0.00     0.338 C 
ATOM      8  O   UNL A   1      35.982  33.481  28.865  1.00  0.00    -0.246 OA
BRANCH   7   9
ATOM      9  C   UNL A   1      37.855  32.115  29.504  1.00  0.00     0.062 A 
ATOM     10  C   UNL A   1      39.638  30.469  29.381  1.00  0.00     0.070 A 
ATOM     11  C   UNL A   1      40.435  31.310  30.172  1.00  0.00     0.028 A 
ATOM     12  C   UNL A   1      38.341  30.880  29.057  1.00  0.00     0.044 A 
ATOM     13  C   UNL A   1      39.970  32.566  30.576  1.00  0.00     0.003 A 
ATOM     14  C   UNL A   1      38.683  32.976  30.232  1.00  0.00     0.016 A 
BRANCH  10  15
ATOM     15  N   UNL A   1      40.131  29.223  28.937  1.00  0.00    -0.196 N 
ATOM     16  C   UNL A   1      41.632  26.037  29.135  1.00  0.00     0.024 C 
ATOM     17  C   UNL A   1      41.071  27.187  28.741  1.00  0.00     0.065 C 
ATOM     18  C   UNL A   1      40.757  28.249  29.725  1.00  0.00     0.280 C 
ATOM     19  C   UNL A   1      40.605  27.731  27.452  1.00  0.00     0.071 C 
ATOM     20  O   UNL A   1      40.989  28.200  30.919  1.00  0.00    -0.267 OA
ATOM     21  N   UNL A   1      40.032  28.898  27.588  1.00  0.00    -0.169 NA
ATOM     22  C   UNL A   1      40.778  27.067  26.126  1.00  0.00     0.069 C 
BRANCH  16  23
ATOM     23  C   UNL A   1      41.997  24.926  28.263  1.00  0.00    -0.021 A 
ATOM     24  C   UNL A   1      43.606  23.856  26.804  1.00  0.00     0.119 A 
ATOM     25  C   UNL A   1      42.668  22.863  26.518  1.00  0.00     0.046 A 
ATOM     26  C   UNL A   1      43.271  24.883  27.684  1.00  0.00     0.054 A 
ATOM     27  C   UNL A   1      41.414  22.873  27.131  1.00  0.00     0.004 A 
ATOM     28  C   UNL A   1      41.078  23.906  28.004  1.00  0.00     0.008 A 
BRANCH  24  29
ATOM     29  O   UNL A   1      44.790  23.763  26.125  1.00  0.00    -0.497 OA
ATOM     30  C   UNL A   1      45.956  23.651  26.933  1.00  0.00     0.278 C 
ENDBRANCH  24  29
ENDBRANCH  16  23
ENDBRANCH  10  15
ENDBRANCH   7   9
ENDBRANCH   6   7
ENDBRANCH   5   6
ENDBRANCH   4   5
ENDBRANCH   3   4
ENDBRANCH   2   3
ENDBRANCH   1   2
BRANCH   1  31
ATOM     31  O   UNL A   1      36.306  33.188  36.666  1.00  0.00    -0.377 OA
BRANCH  31  32
ATOM     32  C   UNL A   1      37.233  33.477  37.707  1.00  0.00     0.188 C 
BRANCH  32  33
ATOM     33  C   UNL A   1      38.300  32.440  38.130  1.00  0.00     0.188 C 
BRANCH  33  34
ATOM     34  O   UNL A   1      39.090  32.833  39.239  1.00  0.00    -0.376 OA
BRANCH  34  35
ATOM     35  C   UNL A   1      38.536  33.774  40.138  1.00  0.00     0.202 C 
BRANCH  35  36
ATOM     36  C   UNL A   1      39.316  35.081  40.343  1.00  0.00     0.261 C 
BRANCH  36  37
ATOM     37  O   UNL A   1      40.368  35.345  39.404  1.00  0.00    -0.460 OA
BRANCH  37  38
ATOM     38  C   UNL A   1      40.072  36.116  38.334  1.00  0.00     0.338 C 
ATOM     39  O   UNL A   1      39.514  37.196  38.330  1.00  0.00    -0.246 OA
BRANCH  38  40
ATOM     40  C   UNL A   1      40.712  35.490  37.157  1.00  0.00     0.060 A 
ATOM     41  C   UNL A   1      39.914  35.021  36.105  1.00  0.00     0.016 A 
ATOM     42  C   UNL A   1      42.103  35.390  37.092  1.00  0.00     0.016 A 
ATOM     43  C   UNL A   1      40.508  34.426  34.990  1.00  0.00     0.010 A 
ATOM     44  C   UNL A   1      42.695  34.774  35.989  1.00  0.00     0.010 A 
ATOM     45  C   UNL A   1      41.900  34.263  34.947  1.00  0.00    -0.014 A 
BRANCH  45  46
ATOM     46  C   UNL A   1      42.517  33.383  33.926  1.00  0.00     0.031 A 
ATOM     47  C   UNL A   1      42.853  33.983  32.589  1.00  0.00     0.074 A 
ATOM     48  C   UNL A   1      42.771  32.086  34.171  1.00  0.00     0.049 A 
ATOM     49  N   UNL A   1      43.302  33.407  31.503  1.00  0.00    -0.248 NA
ATOM     50  C   UNL A   1      42.647  35.436  32.459  1.00  0.00     0.031 C 
ATOM     51  C   UNL A   1      42.539  31.403  35.440  1.00  0.00     0.029 A 
ATOM     52  N   UNL A   1      43.272  31.109  33.346  1.00  0.00    -0.354 N 
ATOM     53  C   UNL A   1      43.428  34.423  30.565  1.00  0.00     0.074 A 
ATOM     54  C   UNL A   1      42.972  35.644  31.193  1.00  0.00     0.031 C 
ATOM     55  C   UNL A   1      42.884  30.109  35.306  1.00  0.00     0.029 A 
ATOM     56  C   UNL A   1      43.322  29.867  33.932  1.00  0.00     0.049 A 
ATOM     57  H   UNL A   1      43.567  31.281  32.422  1.00  0.00     0.167 HD
ATOM     58  C   UNL A   1      43.893  34.346  29.295  1.00  0.00     0.037 A 
ATOM     59  C   UNL A   1      43.657  28.673  33.404  1.00  0.00     0.037 A 
ATOM     60  C   UNL A   1      44.335  33.128  28.672  1.00  0.00     0.049 A 
ATOM     61  C   UNL A   1      44.072  28.597  31.954  1.00  0.00     0.074 A 
ATOM     62  C   UNL A   1      44.820  32.942  27.390  1.00  0.00     0.029 A 
ATOM     63  N   UNL A   1      44.338  31.884  29.285  1.00  0.00    -0.354 N 
ATOM     64  N   UNL A   1      44.202  29.560  31.074  1.00  0.00    -0.248 NA
ATOM     65  C   UNL A   1      44.385  27.261  31.423  1.00  0.00     0.031 C 
ATOM     66  C   UNL A   1      45.062  31.577  27.209  1.00  0.00     0.029 A 
ATOM     67  C   UNL A   1      44.793  30.922  28.400  1.00  0.00     0.049 A 
ATOM     68  H   UNL A   1      44.059  31.711  30.213  1.00  0.00     0.167 HD
ATOM     69  C   UNL A   1      44.652  28.957  29.905  1.00  0.00     0.074 A 
ATOM     70  C   UNL A   1      44.779  27.543  30.190  1.00  0.00     0.031 C 
ATOM     71  C   UNL A   1      44.936  29.521  28.705  1.00  0.00     0.037 A 
BRANCH  58  72
ATOM     72  C   UNL A   1      43.920  35.613  28.490  1.00  0.00     0.064 A 
ATOM     73  C   UNL A   1      45.104  36.341  28.299  1.00  0.00     0.173 A 
ATOM     74  C   UNL A   1      42.752  36.090  27.877  1.00  0.00     0.173 A 
ATOM     75  F   UNL A   1      46.246  35.937  28.878  1.00  0.00    -0.203 F 
ATOM     76  C   UNL A   1      45.112  37.512  27.547  1.00  0.00     0.198 A 
ATOM     77  C   UNL A   1      42.770  37.243  27.098  1.00  0.00     0.198 A 
ATOM     78  F   UNL A   1      41.592  35.432  28.025  1.00  0.00    -0.203 F 
ATOM     79  F   UNL A   1      46.245  38.218  27.422  1.00  0.00    -0.200 F 
ATOM     80  C   UNL A   1      43.947  37.958  26.940  1.00  0.00     0.200 A 
ATOM     81  F   UNL A   1      41.646  37.665  26.500  1.00  0.00    -0.200 F 
ATOM     82  F   UNL A   1      43.959  39.080  26.209  1.00  0.00    -0.200 F 
ENDBRANCH  58  72
BRANCH  59  83
ATOM     83  C   UNL A   1      43.600  27.440  34.236  1.00  0.00     0.064 A 
ATOM     84  C   UNL A   1      42.386  26.771  34.454  1.00  0.00     0.173 A 
ATOM     85  C   UNL A   1      44.744  26.933  34.869  1.00  0.00     0.173 A 
ATOM     86  F   UNL A   1      41.258  27.233  33.895  1.00  0.00    -0.203 F 
ATOM     87  C   UNL A   1      42.315  25.662  35.295  1.00  0.00     0.198 A 
ATOM     88  C   UNL A   1      44.677  25.803  35.683  1.00  0.00     0.198 A 
ATOM     89  F   UNL A   1      45.929  27.537  34.702  1.00  0.00    -0.203 F 
ATOM     90  F   UNL A   1      41.130  25.082  35.535  1.00  0.00    -0.200 F 
ATOM     91  C   UNL A   1      43.461  25.176  35.905  1.00  0.00     0.200 A 
ATOM     92  F   UNL A   1      45.789  25.332  36.264  1.00  0.00    -0.200 F 
ATOM     93  F   UNL A   1      43.391  24.112  36.718  1.00  0.00    -0.200 F 
ENDBRANCH  59  83
BRANCH  71  94
ATOM     94  C   UNL A   1      45.469  28.625  27.623  1.00  0.00     0.064 A 
ATOM     95  C   UNL A   1      44.654  28.144  26.587  1.00  0.00     0.173 A 
ATOM     96  C   UNL A   1      46.833  28.290  27.592  1.00  0.00     0.173 A 
ATOM     97  F   UNL A   1      43.342  28.425  26.575  1.00  0.00    -0.203 F 
ATOM     98  C   UNL A   1      45.178  27.340  25.578  1.00  0.00     0.198 A 
ATOM     99  C   UNL A   1      47.360  27.516  26.563  1.00  0.00     0.198 A 
ATOM    100  F   UNL A   1      47.658  28.732  28.552  1.00  0.00    -0.203 F 
ATOM    101  F   UNL A   1      44.371  26.852  24.626  1.00  0.00    -0.200 F 
ATOM    102  C   UNL A   1      46.531  27.034  25.561  1.00  0.00     0.200 A 
ATOM    103  F   UNL A   1      48.670  27.238  26.540  1.00  0.00    -0.200 F 
ATOM    104  F   UNL A   1      47.035  26.272  24.583  1.00  0.00    -0.200 F 
ENDBRANCH  71  94
ENDBRANCH  45  46
ENDBRANCH  38  40
ENDBRANCH  37  38
ENDBRANCH  36  37
ENDBRANCH  35  36
ENDBRANCH  34  35
ENDBRANCH  33  34
ENDBRANCH  32  33
ENDBRANCH  31  32
ENDBRANCH   1  31
TORSDOF 23
ENDMDL
MODEL 2
REMARK VINA RESULT:      -7.6      5.658     10.194
REMARK SMILES COc1cccc(/C=C2/C(=O)N(c3cccc(C(=O)OCCOCCOCCOCCOC(=O)c4ccc(-c5c6nc(c(-c7c(F)c(F)c(F)c(F)c7F)c7ccc([nH]7)c(-c7c(F)c(F)c(F)c(F)c7F)c7nc(c(-c8c(F)c(F)c(F)c(F)c8F)c8ccc5[nH]8)C=C7)C=C6)cc4)c3)N=C2C)c1
REMARK SMILES IDX 25 1 24 2 23 3 22 4 21 5 20 6 18 7 19 8 17 9 13 10 14 11
REMARK SMILES IDX 98 12 15 13 16 14 12 15 8 16 9 17 10 18 100 19 11 20 99 21
REMARK SMILES IDX 101 22 7 23 3 24 4 25 102 26 5 27 6 28 2 29 1 30 26 31 27 32
REMARK SMILES IDX 28 33 29 34 30 35 31 36 32 37 33 38 34 39 35 40 36 41 97 42
REMARK SMILES IDX 37 43 96 44 38 45 39 46 40 47 90 48 41 49 95 50 89 51 91 52
REMARK SMILES IDX 42 53 94 54 88 55 87 56 43 58 75 59 55 60 74 61 56 62 59 63
REMARK SMILES IDX 73 64 92 65 57 66 58 67 72 69 93 70 60 71 44 72 45 73 53 74
REMARK SMILES IDX 46 75 47 76 51 77 54 78 48 79 49 80 52 81 50 82 76 83 77 84
REMARK SMILES IDX 85 85 78 86 79 87 83 88 86 89 80 90 81 91 84 92 82 93 61 94
REMARK SMILES IDX 62 95 70 96 63 97 64 98 68 99 71 100 65 101 66 102 69 103
REMARK SMILES IDX 67 104
REMARK H PARENT 91 57 59 68
REMARK Flexibility Score: inf
ROOT
ATOM      1  C   UNL A   1      38.160  30.629  29.339  1.00  0.00     0.188 C 
ENDROOT
BRANCH   1   2
ATOM      2  C   UNL A   1      37.422  31.853  28.753  1.00  0.00     0.188 C 
BRANCH   2   3
ATOM      3  O   UNL A   1      36.288  31.525  27.968  1.00  0.00    -0.376 OA
BRANCH   3   4
ATOM      4  C   UNL A   1      35.371  30.577  28.480  1.00  0.00     0.202 C 
BRANCH   4   5
ATOM      5  C   UNL A   1      34.798  29.555  27.489  1.00  0.00     0.261 C 
BRANCH   5   6
ATOM      6  O   UNL A   1      34.010  30.101  26.423  1.00  0.00    -0.460 OA
BRANCH   6   7
ATOM      7  C   UNL A   1      32.679  30.242  26.628  1.00  0.00     0.338 C 
ATOM      8  O   UNL A   1      32.127  31.130  27.255  1.00  0.00    -0.246 OA
BRANCH   7   9
ATOM      9  C   UNL A   1      32.000  29.270  25.736  1.00  0.00     0.062 A 
ATOM     10  C   UNL A   1      31.923  27.064  24.720  1.00  0.00     0.070 A 
ATOM     11  C   UNL A   1      31.030  27.565  23.762  1.00  0.00     0.028 A 
ATOM     12  C   UNL A   1      32.410  27.932  25.705  1.00  0.00     0.044 A 
ATOM     13  C   UNL A   1      30.580  28.888  23.823  1.00  0.00     0.003 A 
ATOM     14  C   UNL A   1      31.056  29.741  24.818  1.00  0.00     0.016 A 
BRANCH  10  15
ATOM     15  N   UNL A   1      32.336  25.716  24.681  1.00  0.00    -0.196 N 
ATOM     16  C   UNL A   1      32.753  22.386  25.770  1.00  0.00     0.024 C 
ATOM     17  C   UNL A   1      32.787  23.553  25.114  1.00  0.00     0.065 C 
ATOM     18  C   UNL A   1      32.143  24.759  25.685  1.00  0.00     0.280 C 
ATOM     19  C   UNL A   1      33.329  24.004  23.819  1.00  0.00     0.071 C 
ATOM     20  O   UNL A   1      31.575  24.817  26.760  1.00  0.00    -0.267 OA
ATOM     21  N   UNL A   1      33.030  25.252  23.568  1.00  0.00    -0.169 NA
ATOM     22  C   UNL A   1      34.151  23.170  22.893  1.00  0.00     0.069 C 
BRANCH  16  23
ATOM     23  C   UNL A   1      33.358  21.139  25.319  1.00  0.00    -0.021 A 
ATOM     24  C   UNL A   1      33.111  18.887  24.460  1.00  0.00     0.119 A 
ATOM     25  C   UNL A   1      34.494  18.715  24.549  1.00  0.00     0.046 A 
ATOM     26  C   UNL A   1      32.546  20.104  24.838  1.00  0.00     0.054 A 
ATOM     27  C   UNL A   1      35.312  19.760  24.981  1.00  0.00     0.004 A 
ATOM     28  C   UNL A   1      34.745  20.973  25.366  1.00  0.00     0.008 A 
BRANCH  24  29
ATOM     29  O   UNL A   1      32.404  17.789  24.053  1.00  0.00    -0.497 OA
ATOM     30  C   UNL A   1      33.157  16.589  23.915  1.00  0.00     0.278 C 
ENDBRANCH  24  29
ENDBRANCH  16  23
ENDBRANCH  10  15
ENDBRANCH   7   9
ENDBRANCH   6   7
ENDBRANCH   5   6
ENDBRANCH   4   5
ENDBRANCH   3   4
ENDBRANCH   2   3
ENDBRANCH   1   2
BRANCH   1  31
ATOM     31  O   UNL A   1      38.910  29.772  28.487  1.00  0.00    -0.377 OA
BRANCH  31  32
ATOM     32  C   UNL A   1      38.629  28.377  28.455  1.00  0.00     0.188 C 
BRANCH  32  33
ATOM     33  C   UNL A   1      39.606  27.355  29.082  1.00  0.00     0.188 C 
BRANCH  33  34
ATOM     34  O   UNL A   1      39.316  26.003  28.773  1.00  0.00    -0.376 OA
BRANCH  34  35
ATOM     35  C   UNL A   1      39.620  25.548  27.468  1.00  0.00     0.202 C 
BRANCH  35  36
ATOM     36  C   UNL A   1      40.218  24.139  27.345  1.00  0.00     0.261 C 
BRANCH  36  37
ATOM     37  O   UNL A   1      41.051  23.902  26.200  1.00  0.00    -0.460 OA
BRANCH  37  38
ATOM     38  C   UNL A   1      42.318  23.490  26.423  1.00  0.00     0.338 C 
ATOM     39  O   UNL A   1      42.742  22.351  26.402  1.00  0.00    -0.246 OA
BRANCH  38  40
ATOM     40  C   UNL A   1      43.157  24.703  26.530  1.00  0.00     0.060 A 
ATOM     41  C   UNL A   1      43.431  25.457  25.381  1.00  0.00     0.016 A 
ATOM     42  C   UNL A   1      43.651  25.101  27.774  1.00  0.00     0.016 A 
ATOM     43  C   UNL A   1      44.223  26.603  25.471  1.00  0.00     0.010 A 
ATOM     44  C   UNL A   1      44.462  26.232  27.859  1.00  0.00     0.010 A 
ATOM     45  C   UNL A   1      44.776  26.972  26.705  1.00  0.00    -0.014 A 
BRANCH  45  46
ATOM     46  C   UNL A   1      45.843  28.000  26.768  1.00  0.00     0.031 A 
ATOM     47  C   UNL A   1      45.435  29.426  27.008  1.00  0.00     0.074 A 
ATOM     48  C   UNL A   1      47.140  27.682  26.613  1.00  0.00     0.049 A 
ATOM     49  N   UNL A   1      46.160  30.515  27.006  1.00  0.00    -0.248 NA
ATOM     50  C   UNL A   1      44.006  29.655  27.282  1.00  0.00     0.031 C 
ATOM     51  C   UNL A   1      47.664  26.332  26.426  1.00  0.00     0.029 A 
ATOM     52  N   UNL A   1      48.252  28.486  26.576  1.00  0.00    -0.354 N 
ATOM     53  C   UNL A   1      45.278  31.554  27.274  1.00  0.00     0.074 A 
ATOM     54  C   UNL A   1      43.959  30.973  27.394  1.00  0.00     0.031 C 
ATOM     55  C   UNL A   1      49.001  26.401  26.280  1.00  0.00     0.029 A 
ATOM     56  C   UNL A   1      49.417  27.803  26.322  1.00  0.00     0.049 A 
ATOM     57  H   UNL A   1      48.219  29.460  26.717  1.00  0.00     0.167 HD
ATOM     58  C   UNL A   1      45.547  32.873  27.417  1.00  0.00     0.037 A 
ATOM     59  C   UNL A   1      50.666  28.266  26.119  1.00  0.00     0.037 A 
ATOM     60  C   UNL A   1      46.859  33.447  27.285  1.00  0.00     0.049 A 
ATOM     61  C   UNL A   1      50.922  29.753  26.179  1.00  0.00     0.074 A 
ATOM     62  C   UNL A   1      47.237  34.772  27.408  1.00  0.00     0.029 A 
ATOM     63  N   UNL A   1      48.008  32.728  26.993  1.00  0.00    -0.354 N 
ATOM     64  N   UNL A   1      50.089  30.730  26.447  1.00  0.00    -0.248 NA
ATOM     65  C   UNL A   1      52.296  30.202  25.909  1.00  0.00     0.031 C 
ATOM     66  C   UNL A   1      48.605  34.862  27.133  1.00  0.00     0.029 A 
ATOM     67  C   UNL A   1      49.092  33.585  26.906  1.00  0.00     0.049 A 
ATOM     68  H   UNL A   1      48.047  31.752  26.866  1.00  0.00     0.167 HD
ATOM     69  C   UNL A   1      50.842  31.898  26.418  1.00  0.00     0.074 A 
ATOM     70  C   UNL A   1      52.203  31.507  26.116  1.00  0.00     0.031 C 
ATOM     71  C   UNL A   1      50.446  33.178  26.626  1.00  0.00     0.037 A 
BRANCH  58  72
ATOM     72  C   UNL A   1      44.392  33.787  27.706  1.00  0.00     0.064 A 
ATOM     73  C   UNL A   1      43.782  34.548  26.697  1.00  0.00     0.173 A 
ATOM     74  C   UNL A   1      43.868  33.882  29.004  1.00  0.00     0.173 A 
ATOM     75  F   UNL A   1      44.255  34.507  25.441  1.00  0.00    -0.203 F 
ATOM     76  C   UNL A   1      42.710  35.389  26.982  1.00  0.00     0.198 A 
ATOM     77  C   UNL A   1      42.774  34.698  29.279  1.00  0.00     0.198 A 
ATOM     78  F   UNL A   1      44.412  33.175  30.007  1.00  0.00    -0.203 F 
ATOM     79  F   UNL A   1      42.178  36.145  26.011  1.00  0.00    -0.200 F 
ATOM     80  C   UNL A   1      42.202  35.457  28.270  1.00  0.00     0.200 A 
ATOM     81  F   UNL A   1      42.276  34.752  30.522  1.00  0.00    -0.200 F 
ATOM     82  F   UNL A   1      41.164  36.260  28.540  1.00  0.00    -0.200 F 
ENDBRANCH  58  72
BRANCH  59  83
ATOM     83  C   UNL A   1      51.779  27.323  25.819  1.00  0.00     0.064 A 
ATOM     84  C   UNL A   1      52.075  26.952  24.499  1.00  0.00     0.173 A 
ATOM     85  C   UNL A   1      52.536  26.737  26.844  1.00  0.00     0.173 A 
ATOM     86  F   UNL A   1      51.361  27.461  23.484  1.00  0.00    -0.203 F 
ATOM     87  C   UNL A   1      53.064  26.011  24.219  1.00  0.00     0.198 A 
ATOM     88  C   UNL A   1      53.547  25.821  26.560  1.00  0.00     0.198 A 
ATOM     89  F   UNL A   1      52.290  27.050  28.124  1.00  0.00    -0.203 F 
ATOM     90  F   UNL A   1      53.281  25.627  22.953  1.00  0.00    -0.200 F 
ATOM     91  C   UNL A   1      53.803  25.450  25.249  1.00  0.00     0.200 A 
ATOM     92  F   UNL A   1      54.264  25.288  27.559  1.00  0.00    -0.200 F 
ATOM     93  F   UNL A   1      54.750  24.540  24.980  1.00  0.00    -0.200 F 
ENDBRANCH  59  83
BRANCH  71  94
ATOM     94  C   UNL A   1      51.500  34.248  26.594  1.00  0.00     0.064 A 
ATOM     95  C   UNL A   1      52.193  34.645  27.747  1.00  0.00     0.173 A 
ATOM     96  C   UNL A   1      51.861  34.847  25.375  1.00  0.00     0.173 A 
ATOM     97  F   UNL A   1      51.879  34.113  28.938  1.00  0.00    -0.203 F 
ATOM     98  C   UNL A   1      53.187  35.617  27.687  1.00  0.00     0.198 A 
ATOM     99  C   UNL A   1      52.879  35.793  25.313  1.00  0.00     0.198 A 
ATOM    100  F   UNL A   1      51.238  34.497  24.240  1.00  0.00    -0.203 F 
ATOM    101  F   UNL A   1      53.802  36.015  28.809  1.00  0.00    -0.200 F 
ATOM    102  C   UNL A   1      53.536  36.184  26.470  1.00  0.00     0.200 A 
ATOM    103  F   UNL A   1      53.226  36.325  24.133  1.00  0.00    -0.200 F 
ATOM    104  F   UNL A   1      54.502  37.110  26.412  1.00  0.00    -0.200 F 
ENDBRANCH  71  94
ENDBRANCH  45  46
ENDBRANCH  38  40
ENDBRANCH  37  38
ENDBRANCH  36  37
ENDBRANCH  35  36
ENDBRANCH  34  35
ENDBRANCH  33  34
ENDBRANCH  32  33
ENDBRANCH  31  32
ENDBRANCH   1  31
TORSDOF 23
ENDMDL
MODEL 3
REMARK VINA RESULT:      -7.3      3.827      8.928
REMARK SMILES COc1cccc(/C=C2/C(=O)N(c3cccc(C(=O)OCCOCCOCCOCCOC(=O)c4ccc(-c5c6nc(c(-c7c(F)c(F)c(F)c(F)c7F)c7ccc([nH]7)c(-c7c(F)c(F)c(F)c(F)c7F)c7nc(c(-c8c(F)c(F)c(F)c(F)c8F)c8ccc5[nH]8)C=C7)C=C6)cc4)c3)N=C2C)c1
REMARK SMILES IDX 25 1 24 2 23 3 22 4 21 5 20 6 18 7 19 8 17 9 13 10 14 11
REMARK SMILES IDX 98 12 15 13 16 14 12 15 8 16 9 17 10 18 100 19 11 20 99 21
REMARK SMILES IDX 101 22 7 23 3 24 4 25 102 26 5 27 6 28 2 29 1 30 26 31 27 32
REMARK SMILES IDX 28 33 29 34 30 35 31 36 32 37 33 38 34 39 35 40 36 41 97 42
REMARK SMILES IDX 37 43 96 44 38 45 39 46 40 47 90 48 41 49 95 50 89 51 91 52
REMARK SMILES IDX 42 53 94 54 88 55 87 56 43 58 75 59 55 60 74 61 56 62 59 63
REMARK SMILES IDX 73 64 92 65 57 66 58 67 72 69 93 70 60 71 44 72 45 73 53 74
REMARK SMILES IDX 46 75 47 76 51 77 54 78 48 79 49 80 52 81 50 82 76 83 77 84
REMARK SMILES IDX 85 85 78 86 79 87 83 88 86 89 80 90 81 91 84 92 82 93 61 94
REMARK SMILES IDX 62 95 70 96 63 97 64 98 68 99 71 100 65 101 66 102 69 103
REMARK SMILES IDX 67 104
REMARK H PARENT 91 57 59 68
REMARK Flexibility Score: inf
ROOT
ATOM      1  C   UNL A   1      45.665  32.026  35.233  1.00  0.00     0.188 C 
ENDROOT
BRANCH   1   2
ATOM      2  C   UNL A   1      45.238  31.870  33.757  1.00  0.00     0.188 C 
BRANCH   2   3
ATOM      3  O   UNL A   1      45.168  33.094  33.042  1.00  0.00    -0.376 OA
BRANCH   3   4
ATOM      4  C   UNL A   1      44.216  34.056  33.455  1.00  0.00     0.202 C 
BRANCH   4   5
ATOM      5  C   UNL A   1      42.736  33.701  33.261  1.00  0.00     0.261 C 
BRANCH   5   6
ATOM      6  O   UNL A   1      42.169  34.077  31.999  1.00  0.00    -0.460 OA
BRANCH   6   7
ATOM      7  C   UNL A   1      41.818  33.090  31.142  1.00  0.00     0.338 C 
ATOM      8  O   UNL A   1      40.844  32.362  31.227  1.00  0.00    -0.246 OA
BRANCH   7   9
ATOM      9  C   UNL A   1      42.688  33.226  29.949  1.00  0.00     0.062 A 
ATOM     10  C   UNL A   1      44.323  32.262  28.432  1.00  0.00     0.070 A 
ATOM     11  C   UNL A   1      44.648  33.556  27.999  1.00  0.00     0.028 A 
ATOM     12  C   UNL A   1      43.341  32.108  29.417  1.00  0.00     0.044 A 
ATOM     13  C   UNL A   1      43.960  34.670  28.493  1.00  0.00     0.003 A 
ATOM     14  C   UNL A   1      42.970  34.506  29.461  1.00  0.00     0.016 A 
BRANCH  10  15
ATOM     15  N   UNL A   1      44.988  31.139  27.895  1.00  0.00    -0.196 N 
ATOM     16  C   UNL A   1      46.559  29.113  25.472  1.00  0.00     0.024 C 
ATOM     17  C   UNL A   1      45.999  29.618  26.578  1.00  0.00     0.065 C 
ATOM     18  C   UNL A   1      45.376  30.962  26.561  1.00  0.00     0.280 C 
ATOM     19  C   UNL A   1      45.840  29.157  27.970  1.00  0.00     0.071 C 
ATOM     20  O   UNL A   1      45.289  31.692  25.590  1.00  0.00    -0.267 OA
ATOM     21  N   UNL A   1      45.282  30.064  28.728  1.00  0.00    -0.169 NA
ATOM     22  C   UNL A   1      46.233  27.810  28.480  1.00  0.00     0.069 C 
BRANCH  16  23
ATOM     23  C   UNL A   1      47.190  27.803  25.361  1.00  0.00    -0.021 A 
ATOM     24  C   UNL A   1      47.024  25.437  24.869  1.00  0.00     0.119 A 
ATOM     25  C   UNL A   1      48.359  25.278  25.242  1.00  0.00     0.046 A 
ATOM     26  C   UNL A   1      46.443  26.703  24.922  1.00  0.00     0.054 A 
ATOM     27  C   UNL A   1      49.123  26.379  25.634  1.00  0.00     0.004 A 
ATOM     28  C   UNL A   1      48.538  27.643  25.694  1.00  0.00     0.008 A 
BRANCH  24  29
ATOM     29  O   UNL A   1      46.364  24.287  24.531  1.00  0.00    -0.497 OA
ATOM     30  C   UNL A   1      45.208  23.991  25.307  1.00  0.00     0.278 C 
ENDBRANCH  24  29
ENDBRANCH  16  23
ENDBRANCH  10  15
ENDBRANCH   7   9
ENDBRANCH   6   7
ENDBRANCH   5   6
ENDBRANCH   4   5
ENDBRANCH   3   4
ENDBRANCH   2   3
ENDBRANCH   1   2
BRANCH   1  31
ATOM     31  O   UNL A   1      46.818  31.349  35.719  1.00  0.00    -0.377 OA
BRANCH  31  32
ATOM     32  C   UNL A   1      47.520  31.861  36.847  1.00  0.00     0.188 C 
BRANCH  32  33
ATOM     33  C   UNL A   1      46.940  31.723  38.273  1.00  0.00     0.188 C 
BRANCH  33  34
ATOM     34  O   UNL A   1      47.508  30.673  39.037  1.00  0.00    -0.376 OA
BRANCH  34  35
ATOM     35  C   UNL A   1      47.473  29.369  38.487  1.00  0.00     0.202 C 
BRANCH  35  36
ATOM     36  C   UNL A   1      46.125  28.636  38.522  1.00  0.00     0.261 C 
BRANCH  36  37
ATOM     37  O   UNL A   1      46.184  27.202  38.556  1.00  0.00    -0.460 OA
BRANCH  37  38
ATOM     38  C   UNL A   1      46.514  26.562  37.413  1.00  0.00     0.338 C 
ATOM     39  O   UNL A   1      47.343  25.685  37.267  1.00  0.00    -0.246 OA
BRANCH  38  40
ATOM     40  C   UNL A   1      45.552  26.998  36.378  1.00  0.00     0.060 A 
ATOM     41  C   UNL A   1      45.953  27.928  35.410  1.00  0.00     0.016 A 
ATOM     42  C   UNL A   1      44.261  26.466  36.359  1.00  0.00     0.016 A 
ATOM     43  C   UNL A   1      45.052  28.348  34.430  1.00  0.00     0.010 A 
ATOM     44  C   UNL A   1      43.354  26.904  35.394  1.00  0.00     0.010 A 
ATOM     45  C   UNL A   1      43.735  27.868  34.444  1.00  0.00    -0.014 A 
BRANCH  45  46
ATOM     46  C   UNL A   1      42.696  28.514  33.606  1.00  0.00     0.031 A 
ATOM     47  C   UNL A   1      41.766  29.493  34.266  1.00  0.00     0.074 A 
ATOM     48  C   UNL A   1      42.574  28.240  32.296  1.00  0.00     0.049 A 
ATOM     49  N   UNL A   1      40.720  30.111  33.780  1.00  0.00    -0.248 NA
ATOM     50  C   UNL A   1      42.055  29.814  35.675  1.00  0.00     0.031 C 
ATOM     51  C   UNL A   1      43.444  27.350  31.532  1.00  0.00     0.029 A 
ATOM     52  N   UNL A   1      41.651  28.680  31.379  1.00  0.00    -0.354 N 
ATOM     53  C   UNL A   1      40.227  30.888  34.821  1.00  0.00     0.074 A 
ATOM     54  C   UNL A   1      41.061  30.636  35.975  1.00  0.00     0.031 C 
ATOM     55  C   UNL A   1      43.005  27.298  30.261  1.00  0.00     0.029 A 
ATOM     56  C   UNL A   1      41.800  28.118  30.134  1.00  0.00     0.049 A 
ATOM     57  H   UNL A   1      40.948  29.336  31.594  1.00  0.00     0.167 HD
ATOM     58  C   UNL A   1      39.177  31.743  34.811  1.00  0.00     0.037 A 
ATOM     59  C   UNL A   1      41.032  28.235  29.033  1.00  0.00     0.037 A 
ATOM     60  C   UNL A   1      38.344  31.982  33.663  1.00  0.00     0.049 A 
ATOM     61  C   UNL A   1      39.805  29.114  29.079  1.00  0.00     0.074 A 
ATOM     62  C   UNL A   1      37.253  32.826  33.550  1.00  0.00     0.029 A 
ATOM     63  N   UNL A   1      38.505  31.368  32.430  1.00  0.00    -0.354 N 
ATOM     64  N   UNL A   1      39.350  29.857  30.059  1.00  0.00    -0.248 NA
ATOM     65  C   UNL A   1      38.983  29.170  27.860  1.00  0.00     0.031 C 
ATOM     66  C   UNL A   1      36.720  32.679  32.266  1.00  0.00     0.029 A 
ATOM     67  C   UNL A   1      37.518  31.796  31.557  1.00  0.00     0.049 A 
ATOM     68  H   UNL A   1      39.215  30.724  32.208  1.00  0.00     0.167 HD
ATOM     69  C   UNL A   1      38.219  30.498  29.564  1.00  0.00     0.074 A 
ATOM     70  C   UNL A   1      38.061  30.062  28.192  1.00  0.00     0.031 C 
ATOM     71  C   UNL A   1      37.388  31.369  30.187  1.00  0.00     0.037 A 
BRANCH  58  72
ATOM     72  C   UNL A   1      38.858  32.462  36.089  1.00  0.00     0.064 A 
ATOM     73  C   UNL A   1      38.089  31.865  37.099  1.00  0.00     0.173 A 
ATOM     74  C   UNL A   1      39.351  33.755  36.320  1.00  0.00     0.173 A 
ATOM     75  F   UNL A   1      37.579  30.636  36.923  1.00  0.00    -0.203 F 
ATOM     76  C   UNL A   1      37.805  32.545  38.281  1.00  0.00     0.198 A 
ATOM     77  C   UNL A   1      39.093  34.418  37.516  1.00  0.00     0.198 A 
ATOM     78  F   UNL A   1      40.093  34.372  35.387  1.00  0.00    -0.203 F 
ATOM     79  F   UNL A   1      37.025  31.972  39.209  1.00  0.00    -0.200 F 
ATOM     80  C   UNL A   1      38.313  33.817  38.491  1.00  0.00     0.200 A 
ATOM     81  F   UNL A   1      39.597  35.643  37.723  1.00  0.00    -0.200 F 
ATOM     82  F   UNL A   1      38.046  34.466  39.632  1.00  0.00    -0.200 F 
ENDBRANCH  58  72
BRANCH  59  83
ATOM     83  C   UNL A   1      41.378  27.491  27.792  1.00  0.00     0.064 A 
ATOM     84  C   UNL A   1      40.986  26.155  27.617  1.00  0.00     0.173 A 
ATOM     85  C   UNL A   1      42.147  28.079  26.777  1.00  0.00     0.173 A 
ATOM     86  F   UNL A   1      40.274  25.537  28.571  1.00  0.00    -0.203 F 
ATOM     87  C   UNL A   1      41.374  25.430  26.492  1.00  0.00     0.198 A 
ATOM     88  C   UNL A   1      42.506  27.363  25.637  1.00  0.00     0.198 A 
ATOM     89  F   UNL A   1      42.556  29.351  26.896  1.00  0.00    -0.203 F 
ATOM     90  F   UNL A   1      41.038  24.137  26.382  1.00  0.00    -0.200 F 
ATOM     91  C   UNL A   1      42.129  26.036  25.500  1.00  0.00     0.200 A 
ATOM     92  F   UNL A   1      43.230  27.956  24.677  1.00  0.00    -0.200 F 
ATOM     93  F   UNL A   1      42.507  25.337  24.420  1.00  0.00    -0.200 F 
ENDBRANCH  59  83
BRANCH  71  94
ATOM     94  C   UNL A   1      36.265  31.960  29.380  1.00  0.00     0.064 A 
ATOM     95  C   UNL A   1      35.180  31.188  28.940  1.00  0.00     0.173 A 
ATOM     96  C   UNL A   1      36.252  33.334  29.091  1.00  0.00     0.173 A 
ATOM     97  F   UNL A   1      35.150  29.868  29.180  1.00  0.00    -0.203 F 
ATOM     98  C   UNL A   1      34.136  31.764  28.221  1.00  0.00     0.198 A 
ATOM     99  C   UNL A   1      35.190  33.913  28.403  1.00  0.00     0.198 A 
ATOM    100  F   UNL A   1      37.260  34.120  29.498  1.00  0.00    -0.203 F 
ATOM    101  F   UNL A   1      33.134  30.998  27.769  1.00  0.00    -0.200 F 
ATOM    102  C   UNL A   1      34.137  33.126  27.960  1.00  0.00     0.200 A 
ATOM    103  F   UNL A   1      35.185  35.232  28.169  1.00  0.00    -0.200 F 
ATOM    104  F   UNL A   1      33.126  33.681  27.278  1.00  0.00    -0.200 F 
ENDBRANCH  71  94
ENDBRANCH  45  46
ENDBRANCH  38  40
ENDBRANCH  37  38
ENDBRANCH  36  37
ENDBRANCH  35  36
ENDBRANCH  34  35
ENDBRANCH  33  34
ENDBRANCH  32  33
ENDBRANCH  31  32
ENDBRANCH   1  31
TORSDOF 23
ENDMDL
