MODEL 1
REMARK VINA RESULT:     -10.2      0.000      0.000
REMARK SMILES CC[C@@H](C)[C@H](NC(=O)C1CCN(C(=O)OC(C)(C)C)CC1)C(=O)OCCOCCOCCOCCOC(=O)c1ccc(-c2c3nc(c(-c4c(F)c(F)c(F)c(F)c4F)c4ccc([nH]4)c(-c4c(F)c(F)c(F)c(F)c4F)c4nc(c(-c5c(F)c(F)c(F)c(F)c5F)c5ccc2[nH]5)C=C4)C=C3)cc1
REMARK SMILES IDX 29 1 28 2 27 3 26 4 25 5 24 6 22 7 23 8 5 9 3 10 4 11 2 12
REMARK SMILES IDX 1 13 6 14 7 15 8 17 9 18 10 19 21 20 11 21 20 22 12 23 13 24
REMARK SMILES IDX 14 25 15 26 16 27 17 28 18 29 19 30 30 31 31 32 32 33 33 34
REMARK SMILES IDX 34 35 35 36 36 37 37 38 38 39 39 40 40 41 101 42 41 43
REMARK SMILES IDX 100 44 42 45 43 46 44 47 94 48 45 49 99 50 93 51 95 52 46 53
REMARK SMILES IDX 98 54 92 55 91 56 47 58 79 59 59 60 78 61 60 62 63 63 77 64
REMARK SMILES IDX 96 65 61 66 62 67 76 69 97 70 64 71 48 72 49 73 57 74 50 75
REMARK SMILES IDX 51 76 55 77 58 78 52 79 53 80 56 81 54 82 80 83 81 84 89 85
REMARK SMILES IDX 82 86 83 87 87 88 90 89 84 90 85 91 88 92 86 93 65 94 66 95
REMARK SMILES IDX 74 96 67 97 68 98 72 99 75 100 69 101 70 102 73 103 71 104
REMARK H PARENT 6 16 95 57 63 68
REMARK Flexibility Score: inf
ROOT
ATOM      1  C   UNL A   1      35.502  33.429  28.666  1.00  0.00     0.188 C 
ENDROOT
BRANCH   1   2
ATOM      2  C   UNL A   1      34.482  32.472  28.035  1.00  0.00     0.188 C 
BRANCH   2   3
ATOM      3  O   UNL A   1      34.391  31.115  28.438  1.00  0.00    -0.376 OA
BRANCH   3   4
ATOM      4  C   UNL A   1      34.827  30.050  27.607  1.00  0.00     0.202 C 
BRANCH   4   5
ATOM      5  C   UNL A   1      34.017  28.754  27.437  1.00  0.00     0.261 C 
BRANCH   5   6
ATOM      6  O   UNL A   1      34.041  28.161  26.128  1.00  0.00    -0.462 OA
BRANCH   6   7
ATOM      7  C   UNL A   1      32.834  28.000  25.532  1.00  0.00     0.328 C 
ATOM      8  O   UNL A   1      32.015  28.902  25.378  1.00  0.00    -0.250 OA
BRANCH   7   9
ATOM      9  C   UNL A   1      32.522  26.528  25.157  1.00  0.00     0.195 C 
BRANCH   9  10
ATOM     10  C   UNL A   1      31.021  26.555  24.771  1.00  0.00     0.019 C 
ATOM     11  C   UNL A   1      30.154  25.721  25.723  1.00  0.00     0.010 C 
BRANCH  10  12
ATOM     12  C   UNL A   1      30.841  26.180  23.298  1.00  0.00     0.002 C 
ATOM     13  C   UNL A   1      30.664  27.406  22.416  1.00  0.00     0.004 C 
ENDBRANCH  10  12
ENDBRANCH   9  10
BRANCH   9  14
ATOM     14  N   UNL A   1      32.815  25.494  26.169  1.00  0.00    -0.342 N 
ATOM     15  C   UNL A   1      33.426  24.273  26.112  1.00  0.00     0.223 C 
ATOM     16  H   UNL A   1      32.506  25.734  27.072  1.00  0.00     0.164 HD
ATOM     17  O   UNL A   1      33.538  23.660  27.177  1.00  0.00    -0.275 OA
BRANCH  15  18
ATOM     18  C   UNL A   1      33.978  23.689  24.803  1.00  0.00     0.082 C 
ATOM     19  C   UNL A   1      32.834  23.187  23.893  1.00  0.00     0.035 C 
ATOM     20  C   UNL A   1      35.004  22.555  25.002  1.00  0.00     0.035 C 
ATOM     21  C   UNL A   1      32.254  21.835  24.320  1.00  0.00     0.124 C 
ATOM     22  C   UNL A   1      34.389  21.192  25.358  1.00  0.00     0.124 C 
ATOM     23  N   UNL A   1      33.299  20.832  24.460  1.00  0.00    -0.308 N 
ATOM     24  C   UNL A   1      33.114  19.580  23.880  1.00  0.00     0.410 C 
ATOM     25  O   UNL A   1      32.128  19.299  23.209  1.00  0.00    -0.224 OA
BRANCH  24  26
ATOM     26  O   UNL A   1      34.133  18.705  24.120  1.00  0.00    -0.444 OA
BRANCH  26  27
ATOM     27  C   UNL A   1      33.841  17.358  24.605  1.00  0.00     0.106 C 
ATOM     28  C   UNL A   1      32.858  17.369  25.785  1.00  0.00     0.056 C 
ATOM     29  C   UNL A   1      33.352  16.440  23.476  1.00  0.00     0.056 C 
ATOM     30  C   UNL A   1      35.184  16.804  25.116  1.00  0.00     0.056 C 
ENDBRANCH  26  27
ENDBRANCH  24  26
ENDBRANCH  15  18
ENDBRANCH   9  14
ENDBRANCH   7   9
ENDBRANCH   6   7
ENDBRANCH   5   6
ENDBRANCH   4   5
ENDBRANCH   3   4
ENDBRANCH   2   3
ENDBRANCH   1   2
BRANCH   1  31
ATOM     31  O   UNL A   1      35.157  34.797  28.627  1.00  0.00    -0.377 OA
BRANCH  31  32
ATOM     32  C   UNL A   1      33.768  35.103  28.580  1.00  0.00     0.188 C 
BRANCH  32  33
ATOM     33  C   UNL A   1      33.110  35.648  29.865  1.00  0.00     0.188 C 
BRANCH  33  34
ATOM     34  O   UNL A   1      33.027  34.705  30.923  1.00  0.00    -0.376 OA
BRANCH  34  35
ATOM     35  C   UNL A   1      33.855  34.858  32.067  1.00  0.00     0.202 C 
BRANCH  35  36
ATOM     36  C   UNL A   1      34.343  33.604  32.813  1.00  0.00     0.261 C 
BRANCH  36  37
ATOM     37  O   UNL A   1      35.464  32.906  32.249  1.00  0.00    -0.460 OA
BRANCH  37  38
ATOM     38  C   UNL A   1      36.350  32.336  33.086  1.00  0.00     0.338 C 
ATOM     39  O   UNL A   1      36.303  32.310  34.305  1.00  0.00    -0.246 OA
BRANCH  38  40
ATOM     40  C   UNL A   1      37.298  31.549  32.269  1.00  0.00     0.060 A 
ATOM     41  C   UNL A   1      38.308  30.825  32.916  1.00  0.00     0.016 A 
ATOM     42  C   UNL A   1      37.195  31.526  30.876  1.00  0.00     0.016 A 
ATOM     43  C   UNL A   1      39.248  30.115  32.171  1.00  0.00     0.010 A 
ATOM     44  C   UNL A   1      38.153  30.836  30.128  1.00  0.00     0.010 A 
ATOM     45  C   UNL A   1      39.207  30.162  30.772  1.00  0.00    -0.014 A 
BRANCH  45  46
ATOM     46  C   UNL A   1      40.379  29.699  29.992  1.00  0.00     0.031 A 
ATOM     47  C   UNL A   1      41.490  30.679  29.732  1.00  0.00     0.074 A 
ATOM     48  C   UNL A   1      40.477  28.433  29.551  1.00  0.00     0.049 A 
ATOM     49  N   UNL A   1      42.586  30.533  29.033  1.00  0.00    -0.248 NA
ATOM     50  C   UNL A   1      41.340  32.009  30.346  1.00  0.00     0.031 C 
ATOM     51  C   UNL A   1      39.492  27.380  29.782  1.00  0.00     0.029 A 
ATOM     52  N   UNL A   1      41.454  27.825  28.803  1.00  0.00    -0.354 N 
ATOM     53  C   UNL A   1      43.249  31.751  29.117  1.00  0.00     0.074 A 
ATOM     54  C   UNL A   1      42.419  32.636  29.904  1.00  0.00     0.031 C 
ATOM     55  C   UNL A   1      39.907  26.256  29.171  1.00  0.00     0.029 A 
ATOM     56  C   UNL A   1      41.166  26.524  28.476  1.00  0.00     0.049 A 
ATOM     57  H   UNL A   1      42.284  28.280  28.528  1.00  0.00     0.167 HD
ATOM     58  C   UNL A   1      44.449  32.097  28.594  1.00  0.00     0.037 A 
ATOM     59  C   UNL A   1      41.831  25.662  27.680  1.00  0.00     0.037 A 
ATOM     60  C   UNL A   1      45.268  31.215  27.804  1.00  0.00     0.049 A 
ATOM     61  C   UNL A   1      43.122  26.098  27.034  1.00  0.00     0.074 A 
ATOM     62  C   UNL A   1      46.503  31.466  27.232  1.00  0.00     0.029 A 
ATOM     63  N   UNL A   1      44.927  29.914  27.466  1.00  0.00    -0.354 N 
ATOM     64  N   UNL A   1      43.755  27.243  27.133  1.00  0.00    -0.248 NA
ATOM     65  C   UNL A   1      43.795  25.119  26.169  1.00  0.00     0.031 C 
ATOM     66  C   UNL A   1      46.880  30.339  26.496  1.00  0.00     0.029 A 
ATOM     67  C   UNL A   1      45.915  29.359  26.669  1.00  0.00     0.049 A 
ATOM     68  H   UNL A   1      44.106  29.453  27.751  1.00  0.00     0.167 HD
ATOM     69  C   UNL A   1      44.912  27.109  26.373  1.00  0.00     0.074 A 
ATOM     70  C   UNL A   1      44.901  25.767  25.831  1.00  0.00     0.031 C 
ATOM     71  C   UNL A   1      45.895  28.016  26.146  1.00  0.00     0.037 A 
BRANCH  58  72
ATOM     72  C   UNL A   1      44.932  33.499  28.831  1.00  0.00     0.064 A 
ATOM     73  C   UNL A   1      45.734  33.830  29.934  1.00  0.00     0.173 A 
ATOM     74  C   UNL A   1      44.610  34.522  27.927  1.00  0.00     0.173 A 
ATOM     75  F   UNL A   1      46.059  32.893  30.839  1.00  0.00    -0.203 F 
ATOM     76  C   UNL A   1      46.170  35.137  30.138  1.00  0.00     0.198 A 
ATOM     77  C   UNL A   1      45.077  35.820  28.115  1.00  0.00     0.198 A 
ATOM     78  F   UNL A   1      43.848  34.263  26.854  1.00  0.00    -0.203 F 
ATOM     79  F   UNL A   1      46.890  35.438  31.228  1.00  0.00    -0.200 F 
ATOM     80  C   UNL A   1      45.850  36.128  29.224  1.00  0.00     0.200 A 
ATOM     81  F   UNL A   1      44.777  36.774  27.223  1.00  0.00    -0.200 F 
ATOM     82  F   UNL A   1      46.277  37.383  29.417  1.00  0.00    -0.200 F 
ENDBRANCH  58  72
BRANCH  59  83
ATOM     83  C   UNL A   1      41.277  24.304  27.427  1.00  0.00     0.064 A 
ATOM     84  C   UNL A   1      40.162  24.116  26.598  1.00  0.00     0.173 A 
ATOM     85  C   UNL A   1      41.834  23.168  28.033  1.00  0.00     0.173 A 
ATOM     86  F   UNL A   1      39.575  25.173  26.015  1.00  0.00    -0.203 F 
ATOM     87  C   UNL A   1      39.613  22.850  26.405  1.00  0.00     0.198 A 
ATOM     88  C   UNL A   1      41.306  21.899  27.811  1.00  0.00     0.198 A 
ATOM     89  F   UNL A   1      42.900  23.290  28.838  1.00  0.00    -0.203 F 
ATOM     90  F   UNL A   1      38.513  22.706  25.652  1.00  0.00    -0.200 F 
ATOM     91  C   UNL A   1      40.189  21.741  27.006  1.00  0.00     0.200 A 
ATOM     92  F   UNL A   1      41.875  20.828  28.384  1.00  0.00    -0.200 F 
ATOM     93  F   UNL A   1      39.662  20.524  26.818  1.00  0.00    -0.200 F 
ENDBRANCH  59  83
BRANCH  71  94
ATOM     94  C   UNL A   1      47.068  27.575  25.314  1.00  0.00     0.064 A 
ATOM     95  C   UNL A   1      47.140  27.831  23.937  1.00  0.00     0.173 A 
ATOM     96  C   UNL A   1      48.157  26.924  25.917  1.00  0.00     0.173 A 
ATOM     97  F   UNL A   1      46.123  28.440  23.308  1.00  0.00    -0.203 F 
ATOM     98  C   UNL A   1      48.244  27.427  23.189  1.00  0.00     0.198 A 
ATOM     99  C   UNL A   1      49.274  26.554  25.173  1.00  0.00     0.198 A 
ATOM    100  F   UNL A   1      48.145  26.662  27.231  1.00  0.00    -0.203 F 
ATOM    101  F   UNL A   1      48.267  27.635  21.865  1.00  0.00    -0.200 F 
ATOM    102  C   UNL A   1      49.313  26.796  23.809  1.00  0.00     0.200 A 
ATOM    103  F   UNL A   1      50.313  25.963  25.778  1.00  0.00    -0.200 F 
ATOM    104  F   UNL A   1      50.378  26.417  23.090  1.00  0.00    -0.200 F 
ENDBRANCH  71  94
ENDBRANCH  45  46
ENDBRANCH  38  40
ENDBRANCH  37  38
ENDBRANCH  36  37
ENDBRANCH  35  36
ENDBRANCH  34  35
ENDBRANCH  33  34
ENDBRANCH  32  33
ENDBRANCH  31  32
ENDBRANCH   1  31
TORSDOF 26
ENDMDL
MODEL 2
REMARK VINA RESULT:      -9.3      0.798      2.037
REMARK SMILES CC[C@@H](C)[C@H](NC(=O)C1CCN(C(=O)OC(C)(C)C)CC1)C(=O)OCCOCCOCCOCCOC(=O)c1ccc(-c2c3nc(c(-c4c(F)c(F)c(F)c(F)c4F)c4ccc([nH]4)c(-c4c(F)c(F)c(F)c(F)c4F)c4nc(c(-c5c(F)c(F)c(F)c(F)c5F)c5ccc2[nH]5)C=C4)C=C3)cc1
REMARK SMILES IDX 29 1 28 2 27 3 26 4 25 5 24 6 22 7 23 8 5 9 3 10 4 11 2 12
REMARK SMILES IDX 1 13 6 14 7 15 8 17 9 18 10 19 21 20 11 21 20 22 12 23 13 24
REMARK SMILES IDX 14 25 15 26 16 27 17 28 18 29 19 30 30 31 31 32 32 33 33 34
REMARK SMILES IDX 34 35 35 36 36 37 37 38 38 39 39 40 40 41 101 42 41 43
REMARK SMILES IDX 100 44 42 45 43 46 44 47 94 48 45 49 99 50 93 51 95 52 46 53
REMARK SMILES IDX 98 54 92 55 91 56 47 58 79 59 59 60 78 61 60 62 63 63 77 64
REMARK SMILES IDX 96 65 61 66 62 67 76 69 97 70 64 71 48 72 49 73 57 74 50 75
REMARK SMILES IDX 51 76 55 77 58 78 52 79 53 80 56 81 54 82 80 83 81 84 89 85
REMARK SMILES IDX 82 86 83 87 87 88 90 89 84 90 85 91 88 92 86 93 65 94 66 95
REMARK SMILES IDX 74 96 67 97 68 98 72 99 75 100 69 101 70 102 73 103 71 104
REMARK H PARENT 6 16 95 57 63 68
REMARK Flexibility Score: inf
ROOT
ATOM      1  C   UNL A   1      35.816  33.070  28.718  1.00  0.00     0.188 C 
ENDROOT
BRANCH   1   2
ATOM      2  C   UNL A   1      35.009  32.166  27.776  1.00  0.00     0.188 C 
BRANCH   2   3
ATOM      3  O   UNL A   1      34.634  30.851  28.151  1.00  0.00    -0.376 OA
BRANCH   3   4
ATOM      4  C   UNL A   1      34.994  29.715  27.382  1.00  0.00     0.202 C 
BRANCH   4   5
ATOM      5  C   UNL A   1      34.000  28.584  27.067  1.00  0.00     0.261 C 
BRANCH   5   6
ATOM      6  O   UNL A   1      34.196  27.899  25.819  1.00  0.00    -0.462 OA
BRANCH   6   7
ATOM      7  C   UNL A   1      33.155  27.944  24.952  1.00  0.00     0.328 C 
ATOM      8  O   UNL A   1      32.602  28.978  24.591  1.00  0.00    -0.250 OA
BRANCH   7   9
ATOM      9  C   UNL A   1      32.637  26.542  24.537  1.00  0.00     0.195 C 
BRANCH   9  10
ATOM     10  C   UNL A   1      31.289  26.839  23.832  1.00  0.00     0.019 C 
ATOM     11  C   UNL A   1      30.161  25.915  24.307  1.00  0.00     0.010 C 
BRANCH  10  12
ATOM     12  C   UNL A   1      31.471  26.848  22.312  1.00  0.00     0.002 C 
ATOM     13  C   UNL A   1      32.621  25.958  21.871  1.00  0.00     0.004 C 
ENDBRANCH  10  12
ENDBRANCH   9  10
BRANCH   9  14
ATOM     14  N   UNL A   1      32.494  25.529  25.601  1.00  0.00    -0.342 N 
ATOM     15  C   UNL A   1      32.963  24.255  25.752  1.00  0.00     0.223 C 
ATOM     16  H   UNL A   1      31.946  25.836  26.359  1.00  0.00     0.164 HD
ATOM     17  O   UNL A   1      32.676  23.680  26.805  1.00  0.00    -0.275 OA
BRANCH  15  18
ATOM     18  C   UNL A   1      33.831  23.566  24.688  1.00  0.00     0.082 C 
ATOM     19  C   UNL A   1      32.956  22.938  23.579  1.00  0.00     0.035 C 
ATOM     20  C   UNL A   1      34.785  22.494  25.250  1.00  0.00     0.035 C 
ATOM     21  C   UNL A   1      32.301  21.614  23.986  1.00  0.00     0.124 C 
ATOM     22  C   UNL A   1      34.115  21.151  25.582  1.00  0.00     0.124 C 
ATOM     23  N   UNL A   1      33.288  20.667  24.484  1.00  0.00    -0.308 N 
ATOM     24  C   UNL A   1      33.265  19.358  24.008  1.00  0.00     0.410 C 
ATOM     25  O   UNL A   1      32.481  18.979  23.147  1.00  0.00    -0.224 OA
BRANCH  24  26
ATOM     26  O   UNL A   1      34.201  18.548  24.582  1.00  0.00    -0.444 OA
BRANCH  26  27
ATOM     27  C   UNL A   1      33.988  17.103  24.625  1.00  0.00     0.106 C 
ATOM     28  C   UNL A   1      35.149  16.368  25.310  1.00  0.00     0.056 C 
ATOM     29  C   UNL A   1      32.641  16.745  25.268  1.00  0.00     0.056 C 
ATOM     30  C   UNL A   1      33.945  16.649  23.154  1.00  0.00     0.056 C 
ENDBRANCH  26  27
ENDBRANCH  24  26
ENDBRANCH  15  18
ENDBRANCH   9  14
ENDBRANCH   7   9
ENDBRANCH   6   7
ENDBRANCH   5   6
ENDBRANCH   4   5
ENDBRANCH   3   4
ENDBRANCH   2   3
ENDBRANCH   1   2
BRANCH   1  31
ATOM     31  O   UNL A   1      35.522  34.449  28.637  1.00  0.00    -0.377 OA
BRANCH  31  32
ATOM     32  C   UNL A   1      34.170  34.796  28.366  1.00  0.00     0.188 C 
BRANCH  32  33
ATOM     33  C   UNL A   1      33.335  35.388  29.521  1.00  0.00     0.188 C 
BRANCH  33  34
ATOM     34  O   UNL A   1      33.199  34.528  30.643  1.00  0.00    -0.376 OA
BRANCH  34  35
ATOM     35  C   UNL A   1      33.700  34.939  31.907  1.00  0.00     0.202 C 
BRANCH  35  36
ATOM     36  C   UNL A   1      34.589  33.974  32.712  1.00  0.00     0.261 C 
BRANCH  36  37
ATOM     37  O   UNL A   1      35.897  33.704  32.186  1.00  0.00    -0.460 OA
BRANCH  37  38
ATOM     38  C   UNL A   1      36.893  33.442  33.053  1.00  0.00     0.338 C 
ATOM     39  O   UNL A   1      36.933  33.723  34.239  1.00  0.00    -0.246 OA
BRANCH  38  40
ATOM     40  C   UNL A   1      37.860  32.554  32.372  1.00  0.00     0.060 A 
ATOM     41  C   UNL A   1      39.054  32.226  33.029  1.00  0.00     0.016 A 
ATOM     42  C   UNL A   1      37.595  32.051  31.096  1.00  0.00     0.016 A 
ATOM     43  C   UNL A   1      40.008  31.434  32.392  1.00  0.00     0.010 A 
ATOM     44  C   UNL A   1      38.562  31.278  30.448  1.00  0.00     0.010 A 
ATOM     45  C   UNL A   1      39.789  31.002  31.078  1.00  0.00    -0.014 A 
BRANCH  45  46
ATOM     46  C   UNL A   1      40.922  30.458  30.291  1.00  0.00     0.031 A 
ATOM     47  C   UNL A   1      42.088  31.364  30.007  1.00  0.00     0.074 A 
ATOM     48  C   UNL A   1      40.936  29.183  29.866  1.00  0.00     0.049 A 
ATOM     49  N   UNL A   1      43.165  31.143  29.298  1.00  0.00    -0.248 NA
ATOM     50  C   UNL A   1      42.027  32.708  30.605  1.00  0.00     0.031 C 
ATOM     51  C   UNL A   1      39.892  28.195  30.121  1.00  0.00     0.029 A 
ATOM     52  N   UNL A   1      41.866  28.507  29.115  1.00  0.00    -0.354 N 
ATOM     53  C   UNL A   1      43.902  32.318  29.359  1.00  0.00     0.074 A 
ATOM     54  C   UNL A   1      43.137  33.262  30.143  1.00  0.00     0.031 C 
ATOM     55  C   UNL A   1      40.230  27.041  29.521  1.00  0.00     0.029 A 
ATOM     56  C   UNL A   1      41.495  27.222  28.808  1.00  0.00     0.049 A 
ATOM     57  H   UNL A   1      42.719  28.907  28.826  1.00  0.00     0.167 HD
ATOM     58  C   UNL A   1      45.115  32.583  28.818  1.00  0.00     0.037 A 
ATOM     59  C   UNL A   1      42.096  26.311  28.017  1.00  0.00     0.037 A 
ATOM     60  C   UNL A   1      45.869  31.643  28.032  1.00  0.00     0.049 A 
ATOM     61  C   UNL A   1      43.404  26.659  27.351  1.00  0.00     0.074 A 
ATOM     62  C   UNL A   1      47.110  31.810  27.443  1.00  0.00     0.029 A 
ATOM     63  N   UNL A   1      45.445  30.361  27.714  1.00  0.00    -0.354 N 
ATOM     64  N   UNL A   1      44.107  27.763  27.428  1.00  0.00    -0.248 NA
ATOM     65  C   UNL A   1      44.006  25.630  26.491  1.00  0.00     0.031 C 
ATOM     66  C   UNL A   1      47.409  30.653  26.718  1.00  0.00     0.029 A 
ATOM     67  C   UNL A   1      46.388  29.736  26.914  1.00  0.00     0.049 A 
ATOM     68  H   UNL A   1      44.600  29.955  28.014  1.00  0.00     0.167 HD
ATOM     69  C   UNL A   1      45.245  27.550  26.658  1.00  0.00     0.074 A 
ATOM     70  C   UNL A   1      45.145  26.204  26.134  1.00  0.00     0.031 C 
ATOM     71  C   UNL A   1      46.279  28.391  26.408  1.00  0.00     0.037 A 
BRANCH  58  72
ATOM     72  C   UNL A   1      45.686  33.956  29.033  1.00  0.00     0.064 A 
ATOM     73  C   UNL A   1      45.432  35.011  28.144  1.00  0.00     0.173 A 
ATOM     74  C   UNL A   1      46.478  34.225  30.159  1.00  0.00     0.173 A 
ATOM     75  F   UNL A   1      44.695  34.803  27.042  1.00  0.00    -0.203 F 
ATOM     76  C   UNL A   1      45.973  36.276  28.359  1.00  0.00     0.198 A 
ATOM     77  C   UNL A   1      46.988  35.501  30.390  1.00  0.00     0.198 A 
ATOM     78  F   UNL A   1      46.752  33.255  31.043  1.00  0.00    -0.203 F 
ATOM     79  F   UNL A   1      45.760  37.254  27.467  1.00  0.00    -0.200 F 
ATOM     80  C   UNL A   1      46.742  36.523  29.486  1.00  0.00     0.200 A 
ATOM     81  F   UNL A   1      47.719  35.739  31.487  1.00  0.00    -0.200 F 
ATOM     82  F   UNL A   1      47.254  37.742  29.696  1.00  0.00    -0.200 F 
ENDBRANCH  58  72
BRANCH  59  83
ATOM     83  C   UNL A   1      41.457  24.986  27.787  1.00  0.00     0.064 A 
ATOM     84  C   UNL A   1      41.963  23.822  28.381  1.00  0.00     0.173 A 
ATOM     85  C   UNL A   1      40.343  24.854  26.944  1.00  0.00     0.173 A 
ATOM     86  F   UNL A   1      43.042  23.890  29.175  1.00  0.00    -0.203 F 
ATOM     87  C   UNL A   1      41.395  22.576  28.122  1.00  0.00     0.198 A 
ATOM     88  C   UNL A   1      39.756  23.613  26.713  1.00  0.00     0.198 A 
ATOM     89  F   UNL A   1      39.819  25.935  26.348  1.00  0.00    -0.203 F 
ATOM     90  F   UNL A   1      41.934  21.472  28.659  1.00  0.00    -0.200 F 
ATOM     91  C   UNL A   1      40.288  22.473  27.294  1.00  0.00     0.200 A 
ATOM     92  F   UNL A   1      38.677  23.520  25.923  1.00  0.00    -0.200 F 
ATOM     93  F   UNL A   1      39.742  21.274  27.047  1.00  0.00    -0.200 F 
ENDBRANCH  59  83
BRANCH  71  94
ATOM     94  C   UNL A   1      47.413  27.868  25.570  1.00  0.00     0.064 A 
ATOM     95  C   UNL A   1      48.584  27.351  26.142  1.00  0.00     0.173 A 
ATOM     96  C   UNL A   1      47.303  27.845  24.169  1.00  0.00     0.173 A 
ATOM     97  F   UNL A   1      48.746  27.359  27.474  1.00  0.00    -0.203 F 
ATOM     98  C   UNL A   1      49.615  26.858  25.345  1.00  0.00     0.198 A 
ATOM     99  C   UNL A   1      48.320  27.318  23.378  1.00  0.00     0.198 A 
ATOM    100  F   UNL A   1      46.202  28.318  23.569  1.00  0.00    -0.203 F 
ATOM    101  F   UNL A   1      50.747  26.420  25.913  1.00  0.00    -0.200 F 
ATOM    102  C   UNL A   1      49.479  26.834  23.965  1.00  0.00     0.200 A 
ATOM    103  F   UNL A   1      48.178  27.279  22.046  1.00  0.00    -0.200 F 
ATOM    104  F   UNL A   1      50.467  26.351  23.200  1.00  0.00    -0.200 F 
ENDBRANCH  71  94
ENDBRANCH  45  46
ENDBRANCH  38  40
ENDBRANCH  37  38
ENDBRANCH  36  37
ENDBRANCH  35  36
ENDBRANCH  34  35
ENDBRANCH  33  34
ENDBRANCH  32  33
ENDBRANCH  31  32
ENDBRANCH   1  31
TORSDOF 26
ENDMDL
MODEL 3
REMARK VINA RESULT:      -8.4      3.824      9.715
REMARK SMILES CC[C@@H](C)[C@H](NC(=O)C1CCN(C(=O)OC(C)(C)C)CC1)C(=O)OCCOCCOCCOCCOC(=O)c1ccc(-c2c3nc(c(-c4c(F)c(F)c(F)c(F)c4F)c4ccc([nH]4)c(-c4c(F)c(F)c(F)c(F)c4F)c4nc(c(-c5c(F)c(F)c(F)c(F)c5F)c5ccc2[nH]5)C=C4)C=C3)cc1
REMARK SMILES IDX 29 1 28 2 27 3 26 4 25 5 24 6 22 7 23 8 5 9 3 10 4 11 2 12
REMARK SMILES IDX 1 13 6 14 7 15 8 17 9 18 10 19 21 20 11 21 20 22 12 23 13 24
REMARK SMILES IDX 14 25 15 26 16 27 17 28 18 29 19 30 30 31 31 32 32 33 33 34
REMARK SMILES IDX 34 35 35 36 36 37 37 38 38 39 39 40 40 41 101 42 41 43
REMARK SMILES IDX 100 44 42 45 43 46 44 47 94 48 45 49 99 50 93 51 95 52 46 53
REMARK SMILES IDX 98 54 92 55 91 56 47 58 79 59 59 60 78 61 60 62 63 63 77 64
REMARK SMILES IDX 96 65 61 66 62 67 76 69 97 70 64 71 48 72 49 73 57 74 50 75
REMARK SMILES IDX 51 76 55 77 58 78 52 79 53 80 56 81 54 82 80 83 81 84 89 85
REMARK SMILES IDX 82 86 83 87 87 88 90 89 84 90 85 91 88 92 86 93 65 94 66 95
REMARK SMILES IDX 74 96 67 97 68 98 72 99 75 100 69 101 70 102 73 103 71 104
REMARK H PARENT 6 16 95 57 63 68
REMARK Flexibility Score: inf
ROOT
ATOM      1  C   UNL A   1      39.875  27.315  27.557  1.00  0.00     0.188 C 
ENDROOT
BRANCH   1   2
ATOM      2  C   UNL A   1      40.074  28.018  28.907  1.00  0.00     0.188 C 
BRANCH   2   3
ATOM      3  O   UNL A   1      38.991  28.233  29.797  1.00  0.00    -0.376 OA
BRANCH   3   4
ATOM      4  C   UNL A   1      38.918  29.375  30.636  1.00  0.00     0.202 C 
BRANCH   4   5
ATOM      5  C   UNL A   1      38.098  30.621  30.262  1.00  0.00     0.261 C 
BRANCH   5   6
ATOM      6  O   UNL A   1      37.123  30.446  29.220  1.00  0.00    -0.462 OA
BRANCH   6   7
ATOM      7  C   UNL A   1      35.946  31.093  29.401  1.00  0.00     0.328 C 
ATOM      8  O   UNL A   1      35.442  31.316  30.499  1.00  0.00    -0.250 OA
BRANCH   7   9
ATOM      9  C   UNL A   1      35.218  31.433  28.074  1.00  0.00     0.195 C 
BRANCH   9  10
ATOM     10  C   UNL A   1      35.442  32.958  27.910  1.00  0.00     0.019 C 
ATOM     11  C   UNL A   1      36.761  33.430  28.535  1.00  0.00     0.010 C 
BRANCH  10  12
ATOM     12  C   UNL A   1      34.220  33.734  28.407  1.00  0.00     0.002 C 
ATOM     13  C   UNL A   1      34.374  35.232  28.200  1.00  0.00     0.004 C 
ENDBRANCH  10  12
ENDBRANCH   9  10
BRANCH   9  14
ATOM     14  N   UNL A   1      33.791  31.069  27.971  1.00  0.00    -0.342 N 
ATOM     15  C   UNL A   1      33.102  30.189  27.186  1.00  0.00     0.223 C 
ATOM     16  H   UNL A   1      33.217  31.564  28.600  1.00  0.00     0.164 HD
ATOM     17  O   UNL A   1      31.887  30.105  27.382  1.00  0.00    -0.275 OA
BRANCH  15  18
ATOM     18  C   UNL A   1      33.792  29.317  26.126  1.00  0.00     0.082 C 
ATOM     19  C   UNL A   1      33.051  29.395  24.773  1.00  0.00     0.035 C 
ATOM     20  C   UNL A   1      33.952  27.839  26.533  1.00  0.00     0.035 C 
ATOM     21  C   UNL A   1      31.773  28.551  24.720  1.00  0.00     0.124 C 
ATOM     22  C   UNL A   1      32.673  26.997  26.401  1.00  0.00     0.124 C 
ATOM     23  N   UNL A   1      32.036  27.172  25.102  1.00  0.00    -0.308 N 
ATOM     24  C   UNL A   1      31.531  26.145  24.308  1.00  0.00     0.410 C 
ATOM     25  O   UNL A   1      30.917  26.351  23.268  1.00  0.00    -0.224 OA
BRANCH  24  26
ATOM     26  O   UNL A   1      31.793  24.896  24.790  1.00  0.00    -0.444 OA
BRANCH  26  27
ATOM     27  C   UNL A   1      32.790  24.054  24.133  1.00  0.00     0.106 C 
ATOM     28  C   UNL A   1      32.161  23.123  23.085  1.00  0.00     0.056 C 
ATOM     29  C   UNL A   1      33.930  24.887  23.530  1.00  0.00     0.056 C 
ATOM     30  C   UNL A   1      33.386  23.174  25.247  1.00  0.00     0.056 C 
ENDBRANCH  26  27
ENDBRANCH  24  26
ENDBRANCH  15  18
ENDBRANCH   9  14
ENDBRANCH   7   9
ENDBRANCH   6   7
ENDBRANCH   5   6
ENDBRANCH   4   5
ENDBRANCH   3   4
ENDBRANCH   2   3
ENDBRANCH   1   2
BRANCH   1  31
ATOM     31  O   UNL A   1      39.243  26.054  27.616  1.00  0.00    -0.377 OA
BRANCH  31  32
ATOM     32  C   UNL A   1      39.974  24.951  27.095  1.00  0.00     0.188 C 
BRANCH  32  33
ATOM     33  C   UNL A   1      39.292  23.567  27.108  1.00  0.00     0.188 C 
BRANCH  33  34
ATOM     34  O   UNL A   1      40.015  22.554  26.424  1.00  0.00    -0.376 OA
BRANCH  34  35
ATOM     35  C   UNL A   1      40.508  21.434  27.146  1.00  0.00     0.202 C 
BRANCH  35  36
ATOM     36  C   UNL A   1      42.028  21.267  27.325  1.00  0.00     0.261 C 
BRANCH  36  37
ATOM     37  O   UNL A   1      42.823  22.461  27.277  1.00  0.00    -0.460 OA
BRANCH  37  38
ATOM     38  C   UNL A   1      43.287  22.873  26.082  1.00  0.00     0.338 C 
ATOM     39  O   UNL A   1      43.147  22.319  25.005  1.00  0.00    -0.246 OA
BRANCH  38  40
ATOM     40  C   UNL A   1      43.822  24.240  26.256  1.00  0.00     0.060 A 
ATOM     41  C   UNL A   1      43.860  25.096  25.146  1.00  0.00     0.016 A 
ATOM     42  C   UNL A   1      44.286  24.676  27.499  1.00  0.00     0.016 A 
ATOM     43  C   UNL A   1      44.406  26.373  25.266  1.00  0.00     0.010 A 
ATOM     44  C   UNL A   1      44.856  25.946  27.613  1.00  0.00     0.010 A 
ATOM     45  C   UNL A   1      44.957  26.783  26.486  1.00  0.00    -0.014 A 
BRANCH  45  46
ATOM     46  C   UNL A   1      45.826  27.984  26.528  1.00  0.00     0.031 A 
ATOM     47  C   UNL A   1      47.305  27.796  26.327  1.00  0.00     0.074 A 
ATOM     48  C   UNL A   1      45.318  29.215  26.704  1.00  0.00     0.049 A 
ATOM     49  N   UNL A   1      48.272  28.674  26.375  1.00  0.00    -0.248 NA
ATOM     50  C   UNL A   1      47.751  26.424  26.035  1.00  0.00     0.031 C 
ATOM     51  C   UNL A   1      43.901  29.531  26.858  1.00  0.00     0.029 A 
ATOM     52  N   UNL A   1      45.948  30.431  26.796  1.00  0.00    -0.354 N 
ATOM     53  C   UNL A   1      49.439  27.962  26.127  1.00  0.00     0.074 A 
ATOM     54  C   UNL A   1      49.064  26.575  25.964  1.00  0.00     0.031 C 
ATOM     55  C   UNL A   1      43.768  30.856  27.044  1.00  0.00     0.029 A 
ATOM     56  C   UNL A   1      45.095  31.474  27.059  1.00  0.00     0.049 A 
ATOM     57  H   UNL A   1      46.920  30.545  26.682  1.00  0.00     0.167 HD
ATOM     58  C   UNL A   1      50.708  28.425  26.033  1.00  0.00     0.037 A 
ATOM     59  C   UNL A   1      45.361  32.770  27.314  1.00  0.00     0.037 A 
ATOM     60  C   UNL A   1      51.076  29.806  26.204  1.00  0.00     0.049 A 
ATOM     61  C   UNL A   1      46.792  33.248  27.291  1.00  0.00     0.074 A 
ATOM     62  C   UNL A   1      52.331  30.380  26.123  1.00  0.00     0.029 A 
ATOM     63  N   UNL A   1      50.187  30.828  26.503  1.00  0.00    -0.354 N 
ATOM     64  N   UNL A   1      47.889  32.575  27.037  1.00  0.00    -0.248 NA
ATOM     65  C   UNL A   1      47.022  34.670  27.588  1.00  0.00     0.031 C 
ATOM     66  C   UNL A   1      52.212  31.737  26.434  1.00  0.00     0.029 A 
ATOM     67  C   UNL A   1      50.871  32.025  26.637  1.00  0.00     0.049 A 
ATOM     68  H   UNL A   1      49.213  30.719  26.603  1.00  0.00     0.167 HD
ATOM     69  C   UNL A   1      48.929  33.495  27.109  1.00  0.00     0.074 A 
ATOM     70  C   UNL A   1      48.331  34.776  27.417  1.00  0.00     0.031 C 
ATOM     71  C   UNL A   1      50.260  33.296  26.934  1.00  0.00     0.037 A 
BRANCH  58  72
ATOM     72  C   UNL A   1      51.794  27.424  25.763  1.00  0.00     0.064 A 
ATOM     73  C   UNL A   1      52.529  26.830  26.800  1.00  0.00     0.173 A 
ATOM     74  C   UNL A   1      52.086  27.033  24.447  1.00  0.00     0.173 A 
ATOM     75  F   UNL A   1      52.300  27.180  28.076  1.00  0.00    -0.203 F 
ATOM     76  C   UNL A   1      53.534  25.905  26.530  1.00  0.00     0.198 A 
ATOM     77  C   UNL A   1      53.068  26.082  24.183  1.00  0.00     0.198 A 
ATOM     78  F   UNL A   1      51.414  27.567  23.417  1.00  0.00    -0.203 F 
ATOM     79  F   UNL A   1      54.258  25.392  27.534  1.00  0.00    -0.200 F 
ATOM     80  C   UNL A   1      53.797  25.525  25.223  1.00  0.00     0.200 A 
ATOM     81  F   UNL A   1      53.311  25.706  22.919  1.00  0.00    -0.200 F 
ATOM     82  F   UNL A   1      54.758  24.629  24.964  1.00  0.00    -0.200 F 
ENDBRANCH  58  72
BRANCH  59  83
ATOM     83  C   UNL A   1      44.253  33.710  27.637  1.00  0.00     0.064 A 
ATOM     84  C   UNL A   1      43.746  34.595  26.675  1.00  0.00     0.173 A 
ATOM     85  C   UNL A   1      43.698  33.762  28.925  1.00  0.00     0.173 A 
ATOM     86  F   UNL A   1      44.260  34.603  25.436  1.00  0.00    -0.203 F 
ATOM     87  C   UNL A   1      42.745  35.510  26.995  1.00  0.00     0.198 A 
ATOM     88  C   UNL A   1      42.673  34.653  29.233  1.00  0.00     0.198 A 
ATOM     89  F   UNL A   1      44.147  32.939  29.884  1.00  0.00    -0.203 F 
ATOM     90  F   UNL A   1      42.317  36.382  26.071  1.00  0.00    -0.200 F 
ATOM     91  C   UNL A   1      42.205  35.534  28.272  1.00  0.00     0.200 A 
ATOM     92  F   UNL A   1      42.145  34.663  30.465  1.00  0.00    -0.200 F 
ATOM     93  F   UNL A   1      41.240  36.413  28.578  1.00  0.00    -0.200 F 
ENDBRANCH  59  83
BRANCH  71  94
ATOM     94  C   UNL A   1      51.160  34.498  27.023  1.00  0.00     0.064 A 
ATOM     95  C   UNL A   1      51.438  35.301  25.907  1.00  0.00     0.173 A 
ATOM     96  C   UNL A   1      51.715  34.875  28.257  1.00  0.00     0.173 A 
ATOM     97  F   UNL A   1      50.943  34.980  24.703  1.00  0.00    -0.203 F 
ATOM     98  C   UNL A   1      52.263  36.419  26.017  1.00  0.00     0.198 A 
ATOM     99  C   UNL A   1      52.508  36.013  28.369  1.00  0.00     0.198 A 
ATOM    100  F   UNL A   1      51.474  34.149  29.358  1.00  0.00    -0.203 F 
ATOM    101  F   UNL A   1      52.559  37.140  24.927  1.00  0.00    -0.200 F 
ATOM    102  C   UNL A   1      52.790  36.779  27.249  1.00  0.00     0.200 A 
ATOM    103  F   UNL A   1      53.000  36.369  29.564  1.00  0.00    -0.200 F 
ATOM    104  F   UNL A   1      53.574  37.859  27.354  1.00  0.00    -0.200 F 
ENDBRANCH  71  94
ENDBRANCH  45  46
ENDBRANCH  38  40
ENDBRANCH  37  38
ENDBRANCH  36  37
ENDBRANCH  35  36
ENDBRANCH  34  35
ENDBRANCH  33  34
ENDBRANCH  32  33
ENDBRANCH  31  32
ENDBRANCH   1  31
TORSDOF 26
ENDMDL
