MODEL 1
REMARK VINA RESULT:     -10.7      0.000      0.000
REMARK SMILES C[C@@H](C(=O)OCCOCCOCCOCCOC(=O)c1ccc(-c2c3nc(c(-c4c(F)c(F)c(F)c(F)c4F)c4ccc([nH]4)c(-c4c(F)c(F)c(F)c(F)c4F)c4nc(c(-c5c(F)c(F)c(F)c(F)c5F)c5ccc2[nH]5)C=C4)C=C3)cc1)c1ccc(-c2ccc3[nH]ccc3c2)cc1
REMARK SMILES IDX 11 1 10 2 9 3 8 4 7 5 6 6 5 7 3 8 4 9 2 10 1 11 83 12 84 13
REMARK SMILES IDX 97 14 85 15 96 16 86 17 87 18 88 19 95 20 89 21 94 22 90 23
REMARK SMILES IDX 93 24 91 25 92 26 12 28 13 29 14 30 15 31 16 32 17 33 18 34
REMARK SMILES IDX 19 35 20 36 21 37 82 38 22 39 81 40 23 41 24 42 25 43 75 44
REMARK SMILES IDX 26 45 80 46 74 47 76 48 27 49 79 50 73 51 72 52 28 54 60 55
REMARK SMILES IDX 40 56 59 57 41 58 44 59 58 60 77 61 42 62 43 63 57 65 78 66
REMARK SMILES IDX 45 67 29 68 30 69 38 70 31 71 32 72 36 73 39 74 33 75 34 76
REMARK SMILES IDX 37 77 35 78 61 79 62 80 70 81 63 82 64 83 68 84 71 85 65 86
REMARK SMILES IDX 66 87 69 88 67 89 46 90 47 91 55 92 48 93 49 94 53 95 56 96
REMARK SMILES IDX 50 97 51 98 54 99 52 100
REMARK H PARENT 91 27 76 53 44 64
REMARK Flexibility Score: inf
ROOT
ATOM      1  O   UNL A   1      34.076  27.605  26.154  1.00  0.00    -0.377 OA
ENDROOT
BRANCH   1   2
ATOM      2  C   UNL A   1      33.755  27.362  24.796  1.00  0.00     0.188 C 
BRANCH   2   3
ATOM      3  C   UNL A   1      34.030  28.513  23.817  1.00  0.00     0.188 C 
BRANCH   3   4
ATOM      4  O   UNL A   1      33.220  28.512  22.661  1.00  0.00    -0.376 OA
BRANCH   4   5
ATOM      5  C   UNL A   1      32.535  27.338  22.254  1.00  0.00     0.202 C 
BRANCH   5   6
ATOM      6  C   UNL A   1      31.021  27.073  22.400  1.00  0.00     0.261 C 
BRANCH   6   7
ATOM      7  O   UNL A   1      30.395  27.489  23.618  1.00  0.00    -0.463 OA
BRANCH   7   8
ATOM      8  C   UNL A   1      29.480  26.662  24.173  1.00  0.00     0.313 C 
ATOM      9  O   UNL A   1      28.393  26.404  23.664  1.00  0.00    -0.252 OA
BRANCH   8  10
ATOM     10  C   UNL A   1      29.976  26.010  25.476  1.00  0.00     0.126 C 
ATOM     11  C   UNL A   1      30.713  26.987  26.411  1.00  0.00     0.025 C 
BRANCH  10  12
ATOM     12  C   UNL A   1      30.620  24.641  25.228  1.00  0.00    -0.034 A 
ATOM     13  C   UNL A   1      30.752  24.038  23.968  1.00  0.00     0.005 A 
ATOM     14  C   UNL A   1      31.150  23.947  26.331  1.00  0.00     0.005 A 
ATOM     15  C   UNL A   1      31.404  22.803  23.819  1.00  0.00     0.009 A 
ATOM     16  C   UNL A   1      31.802  22.720  26.184  1.00  0.00     0.009 A 
ATOM     17  C   UNL A   1      31.966  22.146  24.921  1.00  0.00    -0.018 A 
BRANCH  17  18
ATOM     18  C   UNL A   1      32.835  20.976  24.753  1.00  0.00    -0.018 A 
ATOM     19  C   UNL A   1      34.204  21.113  25.035  1.00  0.00     0.011 A 
ATOM     20  C   UNL A   1      32.337  19.717  24.372  1.00  0.00     0.019 A 
ATOM     21  C   UNL A   1      35.083  20.029  25.001  1.00  0.00     0.027 A 
ATOM     22  C   UNL A   1      33.216  18.615  24.278  1.00  0.00    -0.000 A 
ATOM     23  C   UNL A   1      34.556  18.792  24.626  1.00  0.00     0.045 A 
ATOM     24  C   UNL A   1      33.074  17.261  23.864  1.00  0.00     0.028 A 
ATOM     25  N   UNL A   1      35.170  17.565  24.523  1.00  0.00    -0.361 N 
ATOM     26  C   UNL A   1      34.300  16.648  23.996  1.00  0.00     0.083 A 
ATOM     27  H   UNL A   1      36.098  17.375  24.788  1.00  0.00     0.166 HD
ENDBRANCH  17  18
ENDBRANCH  10  12
ENDBRANCH   8  10
ENDBRANCH   7   8
ENDBRANCH   6   7
ENDBRANCH   5   6
ENDBRANCH   4   5
ENDBRANCH   3   4
ENDBRANCH   2   3
ENDBRANCH   1   2
BRANCH   1  28
ATOM     28  C   UNL A   1      34.403  28.927  26.563  1.00  0.00     0.188 C 
BRANCH  28  29
ATOM     29  C   UNL A   1      33.340  29.893  27.129  1.00  0.00     0.188 C 
BRANCH  29  30
ATOM     30  O   UNL A   1      32.802  30.816  26.197  1.00  0.00    -0.376 OA
BRANCH  30  31
ATOM     31  C   UNL A   1      31.625  31.527  26.548  1.00  0.00     0.202 C 
BRANCH  31  32
ATOM     32  C   UNL A   1      31.777  33.016  26.897  1.00  0.00     0.261 C 
BRANCH  32  33
ATOM     33  O   UNL A   1      33.105  33.458  27.223  1.00  0.00    -0.460 OA
BRANCH  33  34
ATOM     34  C   UNL A   1      33.252  34.283  28.279  1.00  0.00     0.338 C 
ATOM     35  O   UNL A   1      32.529  35.211  28.600  1.00  0.00    -0.246 OA
BRANCH  34  36
ATOM     36  C   UNL A   1      34.349  33.755  29.113  1.00  0.00     0.060 A 
ATOM     37  C   UNL A   1      35.658  34.193  28.871  1.00  0.00     0.016 A 
ATOM     38  C   UNL A   1      34.088  32.835  30.132  1.00  0.00     0.016 A 
ATOM     39  C   UNL A   1      36.716  33.680  29.621  1.00  0.00     0.010 A 
ATOM     40  C   UNL A   1      35.151  32.306  30.867  1.00  0.00     0.010 A 
ATOM     41  C   UNL A   1      36.474  32.698  30.591  1.00  0.00    -0.014 A 
BRANCH  41  42
ATOM     42  C   UNL A   1      37.609  31.933  31.161  1.00  0.00     0.031 A 
ATOM     43  C   UNL A   1      38.059  32.263  32.557  1.00  0.00     0.074 A 
ATOM     44  C   UNL A   1      38.213  30.951  30.471  1.00  0.00     0.049 A 
ATOM     45  N   UNL A   1      39.060  31.782  33.249  1.00  0.00    -0.248 NA
ATOM     46  C   UNL A   1      37.271  33.283  33.269  1.00  0.00     0.031 C 
ATOM     47  C   UNL A   1      37.839  30.504  29.132  1.00  0.00     0.029 A 
ATOM     48  N   UNL A   1      39.283  30.158  30.807  1.00  0.00    -0.354 N 
ATOM     49  C   UNL A   1      39.025  32.443  34.470  1.00  0.00     0.074 A 
ATOM     50  C   UNL A   1      37.929  33.385  34.413  1.00  0.00     0.031 C 
ATOM     51  C   UNL A   1      38.680  29.527  28.749  1.00  0.00     0.029 A 
ATOM     52  C   UNL A   1      39.671  29.305  29.803  1.00  0.00     0.049 A 
ATOM     53  H   UNL A   1      39.730  30.197  31.683  1.00  0.00     0.167 HD
ATOM     54  C   UNL A   1      39.827  32.271  35.547  1.00  0.00     0.037 A 
ATOM     55  C   UNL A   1      40.723  28.465  29.734  1.00  0.00     0.037 A 
ATOM     56  C   UNL A   1      40.922  31.338  35.596  1.00  0.00     0.049 A 
ATOM     57  C   UNL A   1      41.658  28.354  30.914  1.00  0.00     0.074 A 
ATOM     58  C   UNL A   1      41.792  31.083  36.642  1.00  0.00     0.029 A 
ATOM     59  N   UNL A   1      41.304  30.514  34.547  1.00  0.00    -0.354 N 
ATOM     60  N   UNL A   1      41.609  28.965  32.074  1.00  0.00    -0.248 NA
ATOM     61  C   UNL A   1      42.793  27.430  30.777  1.00  0.00     0.031 C 
ATOM     62  C   UNL A   1      42.738  30.151  36.205  1.00  0.00     0.029 A 
ATOM     63  C   UNL A   1      42.416  29.770  34.912  1.00  0.00     0.049 A 
ATOM     64  H   UNL A   1      40.852  30.464  33.674  1.00  0.00     0.167 HD
ATOM     65  C   UNL A   1      42.682  28.478  32.811  1.00  0.00     0.074 A 
ATOM     66  C   UNL A   1      43.356  27.509  31.974  1.00  0.00     0.031 C 
ATOM     67  C   UNL A   1      43.072  28.802  34.069  1.00  0.00     0.037 A 
BRANCH  54  68
ATOM     68  C   UNL A   1      39.570  33.138  36.747  1.00  0.00     0.064 A 
ATOM     69  C   UNL A   1      38.665  32.763  37.751  1.00  0.00     0.173 A 
ATOM     70  C   UNL A   1      40.257  34.351  36.906  1.00  0.00     0.173 A 
ATOM     71  F   UNL A   1      37.969  31.620  37.641  1.00  0.00    -0.203 F 
ATOM     72  C   UNL A   1      38.434  33.584  38.852  1.00  0.00     0.198 A 
ATOM     73  C   UNL A   1      40.051  35.152  38.025  1.00  0.00     0.198 A 
ATOM     74  F   UNL A   1      41.137  34.757  35.978  1.00  0.00    -0.203 F 
ATOM     75  F   UNL A   1      37.522  33.231  39.768  1.00  0.00    -0.200 F 
ATOM     76  C   UNL A   1      39.132  34.773  38.992  1.00  0.00     0.200 A 
ATOM     77  F   UNL A   1      40.737  36.294  38.166  1.00  0.00    -0.200 F 
ATOM     78  F   UNL A   1      38.914  35.559  40.055  1.00  0.00    -0.200 F 
ENDBRANCH  54  68
BRANCH  55  79
ATOM     79  C   UNL A   1      40.967  27.676  28.497  1.00  0.00     0.064 A 
ATOM     80  C   UNL A   1      41.817  28.149  27.488  1.00  0.00     0.173 A 
ATOM     81  C   UNL A   1      40.333  26.442  28.287  1.00  0.00     0.173 A 
ATOM     82  F   UNL A   1      42.425  29.337  27.627  1.00  0.00    -0.203 F 
ATOM     83  C   UNL A   1      42.007  27.430  26.309  1.00  0.00     0.198 A 
ATOM     84  C   UNL A   1      40.549  25.708  27.122  1.00  0.00     0.198 A 
ATOM     85  F   UNL A   1      39.505  25.944  29.217  1.00  0.00    -0.203 F 
ATOM     86  F   UNL A   1      42.781  27.933  25.338  1.00  0.00    -0.200 F 
ATOM     87  C   UNL A   1      41.379  26.207  26.130  1.00  0.00     0.200 A 
ATOM     88  F   UNL A   1      39.951  24.521  26.960  1.00  0.00    -0.200 F 
ATOM     89  F   UNL A   1      41.564  25.515  24.998  1.00  0.00    -0.200 F 
ENDBRANCH  55  79
BRANCH  67  90
ATOM     90  C   UNL A   1      44.256  28.071  34.641  1.00  0.00     0.064 A 
ATOM     91  C   UNL A   1      45.557  28.587  34.561  1.00  0.00     0.173 A 
ATOM     92  C   UNL A   1      44.076  26.854  35.319  1.00  0.00     0.173 A 
ATOM     93  F   UNL A   1      45.787  29.740  33.914  1.00  0.00    -0.203 F 
ATOM     94  C   UNL A   1      46.636  27.901  35.112  1.00  0.00     0.198 A 
ATOM     95  C   UNL A   1      45.151  26.189  35.900  1.00  0.00     0.198 A 
ATOM     96  F   UNL A   1      42.852  26.318  35.435  1.00  0.00    -0.203 F 
ATOM     97  F   UNL A   1      47.878  28.388  34.976  1.00  0.00    -0.200 F 
ATOM     98  C   UNL A   1      46.432  26.707  35.787  1.00  0.00     0.200 A 
ATOM     99  F   UNL A   1      44.948  25.046  36.570  1.00  0.00    -0.200 F 
ATOM    100  F   UNL A   1      47.471  26.053  36.325  1.00  0.00    -0.200 F 
ENDBRANCH  67  90
ENDBRANCH  41  42
ENDBRANCH  34  36
ENDBRANCH  33  34
ENDBRANCH  32  33
ENDBRANCH  31  32
ENDBRANCH  30  31
ENDBRANCH  29  30
ENDBRANCH  28  29
ENDBRANCH   1  28
TORSDOF 22
ENDMDL
MODEL 2
REMARK VINA RESULT:     -10.6      0.706      7.100
REMARK SMILES C[C@@H](C(=O)OCCOCCOCCOCCOC(=O)c1ccc(-c2c3nc(c(-c4c(F)c(F)c(F)c(F)c4F)c4ccc([nH]4)c(-c4c(F)c(F)c(F)c(F)c4F)c4nc(c(-c5c(F)c(F)c(F)c(F)c5F)c5ccc2[nH]5)C=C4)C=C3)cc1)c1ccc(-c2ccc3[nH]ccc3c2)cc1
REMARK SMILES IDX 11 1 10 2 9 3 8 4 7 5 6 6 5 7 3 8 4 9 2 10 1 11 83 12 84 13
REMARK SMILES IDX 97 14 85 15 96 16 86 17 87 18 88 19 95 20 89 21 94 22 90 23
REMARK SMILES IDX 93 24 91 25 92 26 12 28 13 29 14 30 15 31 16 32 17 33 18 34
REMARK SMILES IDX 19 35 20 36 21 37 82 38 22 39 81 40 23 41 24 42 25 43 75 44
REMARK SMILES IDX 26 45 80 46 74 47 76 48 27 49 79 50 73 51 72 52 28 54 60 55
REMARK SMILES IDX 40 56 59 57 41 58 44 59 58 60 77 61 42 62 43 63 57 65 78 66
REMARK SMILES IDX 45 67 29 68 30 69 38 70 31 71 32 72 36 73 39 74 33 75 34 76
REMARK SMILES IDX 37 77 35 78 61 79 62 80 70 81 63 82 64 83 68 84 71 85 65 86
REMARK SMILES IDX 66 87 69 88 67 89 46 90 47 91 55 92 48 93 49 94 53 95 56 96
REMARK SMILES IDX 50 97 51 98 54 99 52 100
REMARK H PARENT 91 27 76 53 44 64
REMARK Flexibility Score: inf
ROOT
ATOM      1  O   UNL A   1      33.643  27.314  25.865  1.00  0.00    -0.377 OA
ENDROOT
BRANCH   1   2
ATOM      2  C   UNL A   1      33.783  27.042  24.482  1.00  0.00     0.188 C 
BRANCH   2   3
ATOM      3  C   UNL A   1      34.084  28.248  23.579  1.00  0.00     0.188 C 
BRANCH   3   4
ATOM      4  O   UNL A   1      32.958  28.791  22.923  1.00  0.00    -0.376 OA
BRANCH   4   5
ATOM      5  C   UNL A   1      31.953  27.947  22.385  1.00  0.00     0.202 C 
BRANCH   5   6
ATOM      6  C   UNL A   1      30.437  28.049  22.662  1.00  0.00     0.261 C 
BRANCH   6   7
ATOM      7  O   UNL A   1      29.994  27.796  23.998  1.00  0.00    -0.463 OA
BRANCH   7   8
ATOM      8  C   UNL A   1      29.399  26.608  24.254  1.00  0.00     0.313 C 
ATOM      9  O   UNL A   1      28.543  26.103  23.534  1.00  0.00    -0.252 OA
BRANCH   8  10
ATOM     10  C   UNL A   1      29.969  25.912  25.502  1.00  0.00     0.126 C 
ATOM     11  C   UNL A   1      30.708  26.868  26.457  1.00  0.00     0.025 C 
BRANCH  10  12
ATOM     12  C   UNL A   1      30.649  24.581  25.162  1.00  0.00    -0.034 A 
ATOM     13  C   UNL A   1      31.268  24.292  23.936  1.00  0.00     0.005 A 
ATOM     14  C   UNL A   1      30.692  23.584  26.153  1.00  0.00     0.005 A 
ATOM     15  C   UNL A   1      31.918  23.066  23.722  1.00  0.00     0.009 A 
ATOM     16  C   UNL A   1      31.340  22.365  25.943  1.00  0.00     0.009 A 
ATOM     17  C   UNL A   1      31.991  22.101  24.734  1.00  0.00    -0.018 A 
BRANCH  17  18
ATOM     18  C   UNL A   1      32.847  20.917  24.604  1.00  0.00    -0.018 A 
ATOM     19  C   UNL A   1      34.202  21.029  24.956  1.00  0.00     0.011 A 
ATOM     20  C   UNL A   1      32.347  19.668  24.193  1.00  0.00     0.019 A 
ATOM     21  C   UNL A   1      35.063  19.930  24.960  1.00  0.00     0.027 A 
ATOM     22  C   UNL A   1      33.212  18.552  24.138  1.00  0.00    -0.000 A 
ATOM     23  C   UNL A   1      34.535  18.705  24.553  1.00  0.00     0.045 A 
ATOM     24  C   UNL A   1      33.068  17.202  23.711  1.00  0.00     0.028 A 
ATOM     25  N   UNL A   1      35.133  17.468  24.475  1.00  0.00    -0.361 N 
ATOM     26  C   UNL A   1      34.275  16.568  23.902  1.00  0.00     0.083 A 
ATOM     27  H   UNL A   1      36.043  17.261  24.785  1.00  0.00     0.166 HD
ENDBRANCH  17  18
ENDBRANCH  10  12
ENDBRANCH   8  10
ENDBRANCH   7   8
ENDBRANCH   6   7
ENDBRANCH   5   6
ENDBRANCH   4   5
ENDBRANCH   3   4
ENDBRANCH   2   3
ENDBRANCH   1   2
BRANCH   1  28
ATOM     28  C   UNL A   1      34.201  28.509  26.395  1.00  0.00     0.188 C 
BRANCH  28  29
ATOM     29  C   UNL A   1      33.344  29.540  27.162  1.00  0.00     0.188 C 
BRANCH  29  30
ATOM     30  O   UNL A   1      33.010  30.710  26.435  1.00  0.00    -0.376 OA
BRANCH  30  31
ATOM     31  C   UNL A   1      31.779  31.357  26.718  1.00  0.00     0.202 C 
BRANCH  31  32
ATOM     32  C   UNL A   1      31.839  32.820  27.181  1.00  0.00     0.261 C 
BRANCH  32  33
ATOM     33  O   UNL A   1      33.151  33.355  27.420  1.00  0.00    -0.460 OA
BRANCH  33  34
ATOM     34  C   UNL A   1      33.273  34.336  28.337  1.00  0.00     0.338 C 
ATOM     35  O   UNL A   1      32.521  35.279  28.517  1.00  0.00    -0.246 OA
BRANCH  34  36
ATOM     36  C   UNL A   1      34.388  33.977  29.235  1.00  0.00     0.060 A 
ATOM     37  C   UNL A   1      35.676  34.443  28.939  1.00  0.00     0.016 A 
ATOM     38  C   UNL A   1      34.164  33.188  30.365  1.00  0.00     0.016 A 
ATOM     39  C   UNL A   1      36.752  34.086  29.752  1.00  0.00     0.010 A 
ATOM     40  C   UNL A   1      35.246  32.813  31.165  1.00  0.00     0.010 A 
ATOM     41  C   UNL A   1      36.550  33.230  30.841  1.00  0.00    -0.014 A 
BRANCH  41  42
ATOM     42  C   UNL A   1      37.716  32.603  31.509  1.00  0.00     0.031 A 
ATOM     43  C   UNL A   1      38.387  31.442  30.827  1.00  0.00     0.074 A 
ATOM     44  C   UNL A   1      38.190  33.064  32.679  1.00  0.00     0.049 A 
ATOM     45  N   UNL A   1      39.378  30.692  31.235  1.00  0.00    -0.248 NA
ATOM     46  C   UNL A   1      37.860  31.075  29.502  1.00  0.00     0.031 C 
ATOM     47  C   UNL A   1      37.659  34.210  33.414  1.00  0.00     0.029 A 
ATOM     48  N   UNL A   1      39.224  32.610  33.460  1.00  0.00    -0.354 N 
ATOM     49  C   UNL A   1      39.588  29.764  30.223  1.00  0.00     0.074 A 
ATOM     50  C   UNL A   1      38.599  30.020  29.199  1.00  0.00     0.031 C 
ATOM     51  C   UNL A   1      38.361  34.359  34.551  1.00  0.00     0.029 A 
ATOM     52  C   UNL A   1      39.365  33.298  34.640  1.00  0.00     0.049 A 
ATOM     53  H   UNL A   1      39.809  31.861  33.199  1.00  0.00     0.167 HD
ATOM     54  C   UNL A   1      40.528  28.793  30.149  1.00  0.00     0.037 A 
ATOM     55  C   UNL A   1      40.191  33.077  35.682  1.00  0.00     0.037 A 
ATOM     56  C   UNL A   1      41.505  28.537  31.174  1.00  0.00     0.049 A 
ATOM     57  C   UNL A   1      41.173  31.932  35.616  1.00  0.00     0.074 A 
ATOM     58  C   UNL A   1      42.507  27.581  31.192  1.00  0.00     0.029 A 
ATOM     59  N   UNL A   1      41.596  29.236  32.370  1.00  0.00    -0.354 N 
ATOM     60  N   UNL A   1      41.382  31.070  34.648  1.00  0.00    -0.248 NA
ATOM     61  C   UNL A   1      42.040  31.733  36.787  1.00  0.00     0.031 C 
ATOM     62  C   UNL A   1      43.162  27.659  32.425  1.00  0.00     0.029 A 
ATOM     63  C   UNL A   1      42.618  28.711  33.146  1.00  0.00     0.049 A 
ATOM     64  H   UNL A   1      41.021  29.991  32.628  1.00  0.00     0.167 HD
ATOM     65  C   UNL A   1      42.420  30.253  35.079  1.00  0.00     0.074 A 
ATOM     66  C   UNL A   1      42.809  30.729  36.389  1.00  0.00     0.031 C 
ATOM     67  C   UNL A   1      43.000  29.203  34.446  1.00  0.00     0.037 A 
BRANCH  54  68
ATOM     68  C   UNL A   1      40.521  27.914  28.930  1.00  0.00     0.064 A 
ATOM     69  C   UNL A   1      41.290  28.213  27.796  1.00  0.00     0.173 A 
ATOM     70  C   UNL A   1      39.750  26.741  28.907  1.00  0.00     0.173 A 
ATOM     71  F   UNL A   1      42.033  29.330  27.759  1.00  0.00    -0.203 F 
ATOM     72  C   UNL A   1      41.263  27.390  26.673  1.00  0.00     0.198 A 
ATOM     73  C   UNL A   1      39.753  25.902  27.797  1.00  0.00     0.198 A 
ATOM     74  F   UNL A   1      38.998  26.405  29.966  1.00  0.00    -0.203 F 
ATOM     75  F   UNL A   1      41.962  27.727  25.581  1.00  0.00    -0.200 F 
ATOM     76  C   UNL A   1      40.502  26.232  26.678  1.00  0.00     0.200 A 
ATOM     77  F   UNL A   1      39.027  24.776  27.809  1.00  0.00    -0.200 F 
ATOM     78  F   UNL A   1      40.481  25.436  25.599  1.00  0.00    -0.200 F 
ENDBRANCH  54  68
BRANCH  55  79
ATOM     79  C   UNL A   1      40.113  33.940  36.891  1.00  0.00     0.064 A 
ATOM     80  C   UNL A   1      39.239  33.641  37.944  1.00  0.00     0.173 A 
ATOM     81  C   UNL A   1      40.896  35.099  37.005  1.00  0.00     0.173 A 
ATOM     82  F   UNL A   1      38.448  32.560  37.871  1.00  0.00    -0.203 F 
ATOM     83  C   UNL A   1      39.134  34.477  39.054  1.00  0.00     0.198 A 
ATOM     84  C   UNL A   1      40.815  35.917  38.131  1.00  0.00     0.198 A 
ATOM     85  F   UNL A   1      41.746  35.436  36.025  1.00  0.00    -0.203 F 
ATOM     86  F   UNL A   1      38.249  34.196  40.020  1.00  0.00    -0.200 F 
ATOM     87  C   UNL A   1      39.927  35.611  39.150  1.00  0.00     0.200 A 
ATOM     88  F   UNL A   1      41.592  37.004  38.224  1.00  0.00    -0.200 F 
ATOM     89  F   UNL A   1      39.827  36.413  40.219  1.00  0.00    -0.200 F 
ENDBRANCH  55  79
BRANCH  67  90
ATOM     90  C   UNL A   1      44.151  28.523  35.137  1.00  0.00     0.064 A 
ATOM     91  C   UNL A   1      45.482  28.892  34.900  1.00  0.00     0.173 A 
ATOM     92  C   UNL A   1      43.910  27.516  36.086  1.00  0.00     0.173 A 
ATOM     93  F   UNL A   1      45.769  29.840  33.994  1.00  0.00    -0.203 F 
ATOM     94  C   UNL A   1      46.531  28.260  35.563  1.00  0.00     0.198 A 
ATOM     95  C   UNL A   1      44.958  26.911  36.774  1.00  0.00     0.198 A 
ATOM     96  F   UNL A   1      42.656  27.130  36.360  1.00  0.00    -0.203 F 
ATOM     97  F   UNL A   1      47.798  28.593  35.280  1.00  0.00    -0.200 F 
ATOM     98  C   UNL A   1      46.269  27.276  36.505  1.00  0.00     0.200 A 
ATOM     99  F   UNL A   1      44.700  25.976  37.698  1.00  0.00    -0.200 F 
ATOM    100  F   UNL A   1      47.278  26.676  37.149  1.00  0.00    -0.200 F 
ENDBRANCH  67  90
ENDBRANCH  41  42
ENDBRANCH  34  36
ENDBRANCH  33  34
ENDBRANCH  32  33
ENDBRANCH  31  32
ENDBRANCH  30  31
ENDBRANCH  29  30
ENDBRANCH  28  29
ENDBRANCH   1  28
TORSDOF 22
ENDMDL
MODEL 3
REMARK VINA RESULT:     -10.5      4.916      8.890
REMARK SMILES C[C@@H](C(=O)OCCOCCOCCOCCOC(=O)c1ccc(-c2c3nc(c(-c4c(F)c(F)c(F)c(F)c4F)c4ccc([nH]4)c(-c4c(F)c(F)c(F)c(F)c4F)c4nc(c(-c5c(F)c(F)c(F)c(F)c5F)c5ccc2[nH]5)C=C4)C=C3)cc1)c1ccc(-c2ccc3[nH]ccc3c2)cc1
REMARK SMILES IDX 11 1 10 2 9 3 8 4 7 5 6 6 5 7 3 8 4 9 2 10 1 11 83 12 84 13
REMARK SMILES IDX 97 14 85 15 96 16 86 17 87 18 88 19 95 20 89 21 94 22 90 23
REMARK SMILES IDX 93 24 91 25 92 26 12 28 13 29 14 30 15 31 16 32 17 33 18 34
REMARK SMILES IDX 19 35 20 36 21 37 82 38 22 39 81 40 23 41 24 42 25 43 75 44
REMARK SMILES IDX 26 45 80 46 74 47 76 48 27 49 79 50 73 51 72 52 28 54 60 55
REMARK SMILES IDX 40 56 59 57 41 58 44 59 58 60 77 61 42 62 43 63 57 65 78 66
REMARK SMILES IDX 45 67 29 68 30 69 38 70 31 71 32 72 36 73 39 74 33 75 34 76
REMARK SMILES IDX 37 77 35 78 61 79 62 80 70 81 63 82 64 83 68 84 71 85 65 86
REMARK SMILES IDX 66 87 69 88 67 89 46 90 47 91 55 92 48 93 49 94 53 95 56 96
REMARK SMILES IDX 50 97 51 98 54 99 52 100
REMARK H PARENT 91 27 76 53 44 64
REMARK Flexibility Score: inf
ROOT
ATOM      1  O   UNL A   1      34.019  33.968  32.069  1.00  0.00    -0.377 OA
ENDROOT
BRANCH   1   2
ATOM      2  C   UNL A   1      34.641  33.636  33.298  1.00  0.00     0.188 C 
BRANCH   2   3
ATOM      3  C   UNL A   1      35.720  32.544  33.239  1.00  0.00     0.188 C 
BRANCH   3   4
ATOM      4  O   UNL A   1      37.047  33.024  33.239  1.00  0.00    -0.376 OA
BRANCH   4   5
ATOM      5  C   UNL A   1      37.783  33.127  34.448  1.00  0.00     0.202 C 
BRANCH   5   6
ATOM      6  C   UNL A   1      37.625  32.220  35.688  1.00  0.00     0.261 C 
BRANCH   6   7
ATOM      7  O   UNL A   1      38.141  30.889  35.599  1.00  0.00    -0.463 OA
BRANCH   7   8
ATOM      8  C   UNL A   1      39.467  30.737  35.382  1.00  0.00     0.313 C 
ATOM      9  O   UNL A   1      40.333  31.045  36.196  1.00  0.00    -0.252 OA
BRANCH   8  10
ATOM     10  C   UNL A   1      39.778  30.058  34.037  1.00  0.00     0.126 C 
ATOM     11  C   UNL A   1      38.520  29.673  33.237  1.00  0.00     0.025 C 
BRANCH  10  12
ATOM     12  C   UNL A   1      40.890  29.010  34.161  1.00  0.00    -0.034 A 
ATOM     13  C   UNL A   1      41.398  28.526  35.377  1.00  0.00     0.005 A 
ATOM     14  C   UNL A   1      41.423  28.464  32.980  1.00  0.00     0.005 A 
ATOM     15  C   UNL A   1      42.381  27.524  35.405  1.00  0.00     0.009 A 
ATOM     16  C   UNL A   1      42.400  27.465  33.007  1.00  0.00     0.009 A 
ATOM     17  C   UNL A   1      42.869  26.958  34.221  1.00  0.00    -0.018 A 
BRANCH  17  18
ATOM     18  C   UNL A   1      43.726  25.767  34.239  1.00  0.00    -0.018 A 
ATOM     19  C   UNL A   1      44.276  25.320  33.026  1.00  0.00     0.011 A 
ATOM     20  C   UNL A   1      44.056  25.095  35.430  1.00  0.00     0.019 A 
ATOM     21  C   UNL A   1      45.181  24.259  32.967  1.00  0.00     0.027 A 
ATOM     22  C   UNL A   1      44.928  23.985  35.389  1.00  0.00    -0.000 A 
ATOM     23  C   UNL A   1      45.493  23.618  34.166  1.00  0.00     0.045 A 
ATOM     24  C   UNL A   1      45.402  23.055  36.356  1.00  0.00     0.028 A 
ATOM     25  N   UNL A   1      46.352  22.572  34.411  1.00  0.00    -0.361 N 
ATOM     26  C   UNL A   1      46.252  22.179  35.719  1.00  0.00     0.083 A 
ATOM     27  H   UNL A   1      46.950  22.165  33.744  1.00  0.00     0.166 HD
ENDBRANCH  17  18
ENDBRANCH  10  12
ENDBRANCH   8  10
ENDBRANCH   7   8
ENDBRANCH   6   7
ENDBRANCH   5   6
ENDBRANCH   4   5
ENDBRANCH   3   4
ENDBRANCH   2   3
ENDBRANCH   1   2
BRANCH   1  28
ATOM     28  C   UNL A   1      33.603  35.309  31.843  1.00  0.00     0.188 C 
BRANCH  28  29
ATOM     29  C   UNL A   1      32.863  35.728  30.554  1.00  0.00     0.188 C 
BRANCH  29  30
ATOM     30  O   UNL A   1      33.595  35.556  29.352  1.00  0.00    -0.376 OA
BRANCH  30  31
ATOM     31  C   UNL A   1      33.260  34.470  28.502  1.00  0.00     0.202 C 
BRANCH  31  32
ATOM     32  C   UNL A   1      34.363  33.446  28.195  1.00  0.00     0.261 C 
BRANCH  32  33
ATOM     33  O   UNL A   1      34.261  32.183  28.873  1.00  0.00    -0.460 OA
BRANCH  33  34
ATOM     34  C   UNL A   1      34.290  31.063  28.124  1.00  0.00     0.338 C 
ATOM     35  O   UNL A   1      33.460  30.695  27.310  1.00  0.00    -0.246 OA
BRANCH  34  36
ATOM     36  C   UNL A   1      35.610  30.429  28.312  1.00  0.00     0.060 A 
ATOM     37  C   UNL A   1      35.909  29.836  29.545  1.00  0.00     0.016 A 
ATOM     38  C   UNL A   1      36.546  30.417  27.275  1.00  0.00     0.016 A 
ATOM     39  C   UNL A   1      37.163  29.264  29.759  1.00  0.00     0.010 A 
ATOM     40  C   UNL A   1      37.809  29.863  27.498  1.00  0.00     0.010 A 
ATOM     41  C   UNL A   1      38.136  29.318  28.753  1.00  0.00    -0.014 A 
BRANCH  41  42
ATOM     42  C   UNL A   1      39.548  29.000  29.078  1.00  0.00     0.031 A 
ATOM     43  C   UNL A   1      40.347  30.019  29.843  1.00  0.00     0.074 A 
ATOM     44  C   UNL A   1      40.105  27.828  28.728  1.00  0.00     0.049 A 
ATOM     45  N   UNL A   1      41.608  30.001  30.191  1.00  0.00    -0.248 NA
ATOM     46  C   UNL A   1      39.622  31.226  30.270  1.00  0.00     0.031 C 
ATOM     47  C   UNL A   1      39.422  26.743  28.029  1.00  0.00     0.029 A 
ATOM     48  N   UNL A   1      41.385  27.364  28.908  1.00  0.00    -0.354 N 
ATOM     49  C   UNL A   1      41.827  31.194  30.869  1.00  0.00     0.074 A 
ATOM     50  C   UNL A   1      40.581  31.928  30.853  1.00  0.00     0.031 C 
ATOM     51  C   UNL A   1      40.296  25.742  27.821  1.00  0.00     0.029 A 
ATOM     52  C   UNL A   1      41.607  26.134  28.341  1.00  0.00     0.049 A 
ATOM     53  H   UNL A   1      42.077  27.866  29.396  1.00  0.00     0.167 HD
ATOM     54  C   UNL A   1      42.961  31.632  31.463  1.00  0.00     0.037 A 
ATOM     55  C   UNL A   1      42.746  25.421  28.231  1.00  0.00     0.037 A 
ATOM     56  C   UNL A   1      44.202  30.902  31.471  1.00  0.00     0.049 A 
ATOM     57  C   UNL A   1      44.022  25.969  28.824  1.00  0.00     0.074 A 
ATOM     58  C   UNL A   1      45.408  31.255  32.050  1.00  0.00     0.029 A 
ATOM     59  N   UNL A   1      44.397  29.672  30.858  1.00  0.00    -0.354 N 
ATOM     60  N   UNL A   1      44.219  27.087  29.482  1.00  0.00    -0.248 NA
ATOM     61  C   UNL A   1      45.233  25.153  28.662  1.00  0.00     0.031 C 
ATOM     62  C   UNL A   1      46.349  30.270  31.735  1.00  0.00     0.029 A 
ATOM     63  C   UNL A   1      45.713  29.267  31.021  1.00  0.00     0.049 A 
ATOM     64  H   UNL A   1      43.704  29.163  30.380  1.00  0.00     0.167 HD
ATOM     65  C   UNL A   1      45.562  27.091  29.839  1.00  0.00     0.074 A 
ATOM     66  C   UNL A   1      46.129  25.858  29.337  1.00  0.00     0.031 C 
ATOM     67  C   UNL A   1      46.262  28.031  30.522  1.00  0.00     0.037 A 
BRANCH  54  68
ATOM     68  C   UNL A   1      42.921  32.981  32.125  1.00  0.00     0.064 A 
ATOM     69  C   UNL A   1      43.126  34.166  31.403  1.00  0.00     0.173 A 
ATOM     70  C   UNL A   1      42.651  33.089  33.497  1.00  0.00     0.173 A 
ATOM     71  F   UNL A   1      43.404  34.119  30.091  1.00  0.00    -0.203 F 
ATOM     72  C   UNL A   1      43.093  35.406  32.036  1.00  0.00     0.198 A 
ATOM     73  C   UNL A   1      42.583  34.332  34.120  1.00  0.00     0.198 A 
ATOM     74  F   UNL A   1      42.444  31.988  34.235  1.00  0.00    -0.203 F 
ATOM     75  F   UNL A   1      43.349  36.520  31.336  1.00  0.00    -0.200 F 
ATOM     76  C   UNL A   1      42.814  35.489  33.391  1.00  0.00     0.200 A 
ATOM     77  F   UNL A   1      42.299  34.410  35.427  1.00  0.00    -0.200 F 
ATOM     78  F   UNL A   1      42.776  36.683  33.998  1.00  0.00    -0.200 F 
ENDBRANCH  54  68
BRANCH  55  79
ATOM     79  C   UNL A   1      42.744  24.119  27.511  1.00  0.00     0.064 A 
ATOM     80  C   UNL A   1      42.464  22.919  28.179  1.00  0.00     0.173 A 
ATOM     81  C   UNL A   1      43.049  24.046  26.143  1.00  0.00     0.173 A 
ATOM     82  F   UNL A   1      42.194  22.931  29.492  1.00  0.00    -0.203 F 
ATOM     83  C   UNL A   1      42.509  21.695  27.512  1.00  0.00     0.198 A 
ATOM     84  C   UNL A   1      43.061  22.825  25.470  1.00  0.00     0.198 A 
ATOM     85  F   UNL A   1      43.330  25.163  25.456  1.00  0.00    -0.203 F 
ATOM     86  F   UNL A   1      42.291  20.559  28.188  1.00  0.00    -0.200 F 
ATOM     87  C   UNL A   1      42.801  21.650  26.157  1.00  0.00     0.200 A 
ATOM     88  F   UNL A   1      43.331  22.789  24.159  1.00  0.00    -0.200 F 
ATOM     89  F   UNL A   1      42.841  20.474  25.517  1.00  0.00    -0.200 F 
ENDBRANCH  55  79
BRANCH  67  90
ATOM     90  C   UNL A   1      47.710  27.745  30.813  1.00  0.00     0.064 A 
ATOM     91  C   UNL A   1      48.727  28.061  29.900  1.00  0.00     0.173 A 
ATOM     92  C   UNL A   1      48.088  27.188  32.046  1.00  0.00     0.173 A 
ATOM     93  F   UNL A   1      48.421  28.584  28.703  1.00  0.00    -0.203 F 
ATOM     94  C   UNL A   1      50.063  27.802  30.197  1.00  0.00     0.198 A 
ATOM     95  C   UNL A   1      49.427  26.965  32.354  1.00  0.00     0.198 A 
ATOM     96  F   UNL A   1      47.158  26.876  32.961  1.00  0.00    -0.203 F 
ATOM     97  F   UNL A   1      51.012  28.063  29.287  1.00  0.00    -0.200 F 
ATOM     98  C   UNL A   1      50.412  27.263  31.426  1.00  0.00     0.200 A 
ATOM     99  F   UNL A   1      49.762  26.462  33.550  1.00  0.00    -0.200 F 
ATOM    100  F   UNL A   1      51.699  27.024  31.714  1.00  0.00    -0.200 F 
ENDBRANCH  67  90
ENDBRANCH  41  42
ENDBRANCH  34  36
ENDBRANCH  33  34
ENDBRANCH  32  33
ENDBRANCH  31  32
ENDBRANCH  30  31
ENDBRANCH  29  30
ENDBRANCH  28  29
ENDBRANCH   1  28
TORSDOF 22
ENDMDL
