MODEL 1
REMARK VINA RESULT:     -10.0      0.000      0.000
REMARK SMILES C[C@H](Oc1cc2oc(=O)cc(-c3ccccc3)c2cc1Cl)C(=O)OCCOCCOCCOCCOC(=O)c1ccc(-c2c3nc(c(-c4c(F)c(F)c(F)c(F)c4F)c4ccc([nH]4)c(-c4c(F)c(F)c(F)c(F)c4F)c4nc(c(-c5c(F)c(F)c(F)c(F)c5F)c5ccc2[nH]5)C=C4)C=C3)cc1
REMARK SMILES IDX 29 1 28 2 27 3 26 4 25 5 24 6 22 7 23 8 2 9 1 10 3 11 4 12
REMARK SMILES IDX 5 13 20 14 6 15 19 16 21 17 7 18 18 19 8 20 11 21 9 22 10 23
REMARK SMILES IDX 12 24 13 25 17 26 14 27 16 28 15 29 30 30 31 31 32 32 33 33
REMARK SMILES IDX 34 34 35 35 36 36 37 37 38 38 39 39 40 40 101 41 41 42
REMARK SMILES IDX 100 43 42 44 43 45 44 46 94 47 45 48 99 49 93 50 95 51 46 52
REMARK SMILES IDX 98 53 92 54 91 55 47 57 79 58 59 59 78 60 60 61 63 62 77 63
REMARK SMILES IDX 96 64 61 65 62 66 76 68 97 69 64 70 48 71 49 72 57 73 50 74
REMARK SMILES IDX 51 75 55 76 58 77 52 78 53 79 56 80 54 81 80 82 81 83 89 84
REMARK SMILES IDX 82 85 83 86 87 87 90 88 84 89 85 90 88 91 86 92 65 93 66 94
REMARK SMILES IDX 74 95 67 96 68 97 72 98 75 99 69 100 70 101 73 102 71 103
REMARK H PARENT 95 56 63 67
REMARK Flexibility Score: inf
ROOT
ATOM      1  C   UNL A   1      37.113  30.847  28.536  1.00  0.00     0.188 C 
ENDROOT
BRANCH   1   2
ATOM      2  C   UNL A   1      36.088  29.746  28.207  1.00  0.00     0.188 C 
BRANCH   2   3
ATOM      3  O   UNL A   1      34.839  30.036  27.589  1.00  0.00    -0.376 OA
BRANCH   3   4
ATOM      4  C   UNL A   1      33.992  29.021  27.078  1.00  0.00     0.202 C 
BRANCH   4   5
ATOM      5  C   UNL A   1      33.444  29.053  25.646  1.00  0.00     0.261 C 
BRANCH   5   6
ATOM      6  O   UNL A   1      34.190  28.331  24.665  1.00  0.00    -0.461 OA
BRANCH   6   7
ATOM      7  C   UNL A   1      33.528  28.062  23.514  1.00  0.00     0.347 C 
ATOM      8  O   UNL A   1      33.078  28.909  22.749  1.00  0.00    -0.248 OA
BRANCH   7   9
ATOM      9  C   UNL A   1      33.299  26.562  23.309  1.00  0.00     0.279 C 
ATOM     10  C   UNL A   1      32.628  26.480  21.935  1.00  0.00     0.066 C 
BRANCH   9  11
ATOM     11  O   UNL A   1      32.548  25.914  24.342  1.00  0.00    -0.477 OA
BRANCH  11  12
ATOM     12  C   UNL A   1      32.918  24.653  24.743  1.00  0.00     0.142 A 
ATOM     13  C   UNL A   1      34.066  24.407  25.488  1.00  0.00     0.096 A 
ATOM     14  C   UNL A   1      32.177  23.547  24.291  1.00  0.00     0.084 A 
ATOM     15  C   UNL A   1      34.606  23.128  25.509  1.00  0.00     0.142 A 
ATOM     16  C   UNL A   1      32.680  22.239  24.426  1.00  0.00     0.037 A 
ATOM     17  Cl  UNL A   1      30.649  23.735  23.505  1.00  0.00    -0.080 Cl
ATOM     18  O   UNL A   1      35.913  23.052  26.012  1.00  0.00    -0.423 OA
ATOM     19  C   UNL A   1      33.959  22.031  24.952  1.00  0.00     0.027 A 
ATOM     20  C   UNL A   1      36.700  21.973  25.673  1.00  0.00     0.336 A 
ATOM     21  C   UNL A   1      34.687  20.752  24.882  1.00  0.00    -0.000 A 
ATOM     22  O   UNL A   1      37.915  21.976  25.827  1.00  0.00    -0.246 OA
ATOM     23  C   UNL A   1      36.000  20.782  25.177  1.00  0.00     0.103 A 
BRANCH  21  24
ATOM     24  C   UNL A   1      34.167  19.443  24.435  1.00  0.00    -0.017 A 
ATOM     25  C   UNL A   1      34.956  18.293  24.588  1.00  0.00     0.009 A 
ATOM     26  C   UNL A   1      32.911  19.330  23.826  1.00  0.00     0.009 A 
ATOM     27  C   UNL A   1      34.500  17.054  24.139  1.00  0.00     0.001 A 
ATOM     28  C   UNL A   1      32.449  18.086  23.389  1.00  0.00     0.001 A 
ATOM     29  C   UNL A   1      33.244  16.950  23.544  1.00  0.00     0.000 A 
ENDBRANCH  21  24
ENDBRANCH  11  12
ENDBRANCH   9  11
ENDBRANCH   7   9
ENDBRANCH   6   7
ENDBRANCH   5   6
ENDBRANCH   4   5
ENDBRANCH   3   4
ENDBRANCH   2   3
ENDBRANCH   1   2
BRANCH   1  30
ATOM     30  O   UNL A   1      38.432  30.377  28.738  1.00  0.00    -0.377 OA
BRANCH  30  31
ATOM     31  C   UNL A   1      38.689  29.045  28.313  1.00  0.00     0.188 C 
BRANCH  31  32
ATOM     32  C   UNL A   1      40.047  28.771  27.631  1.00  0.00     0.188 C 
BRANCH  32  33
ATOM     33  O   UNL A   1      40.243  27.410  27.269  1.00  0.00    -0.376 OA
BRANCH  33  34
ATOM     34  C   UNL A   1      39.563  26.408  28.010  1.00  0.00     0.202 C 
BRANCH  34  35
ATOM     35  C   UNL A   1      39.669  24.961  27.501  1.00  0.00     0.261 C 
BRANCH  35  36
ATOM     36  O   UNL A   1      40.482  24.759  26.333  1.00  0.00    -0.460 OA
BRANCH  36  37
ATOM     37  C   UNL A   1      41.600  24.022  26.476  1.00  0.00     0.338 C 
ATOM     38  O   UNL A   1      41.683  22.802  26.465  1.00  0.00    -0.246 OA
BRANCH  37  39
ATOM     39  C   UNL A   1      42.767  24.927  26.444  1.00  0.00     0.060 A 
ATOM     40  C   UNL A   1      43.472  25.141  27.634  1.00  0.00     0.016 A 
ATOM     41  C   UNL A   1      43.150  25.581  25.270  1.00  0.00     0.016 A 
ATOM     42  C   UNL A   1      44.523  26.055  27.668  1.00  0.00     0.010 A 
ATOM     43  C   UNL A   1      44.194  26.514  25.309  1.00  0.00     0.010 A 
ATOM     44  C   UNL A   1      44.854  26.787  26.521  1.00  0.00    -0.014 A 
BRANCH  44  45
ATOM     45  C   UNL A   1      45.759  27.956  26.662  1.00  0.00     0.031 A 
ATOM     46  C   UNL A   1      47.240  27.750  26.484  1.00  0.00     0.074 A 
ATOM     47  C   UNL A   1      45.268  29.194  26.844  1.00  0.00     0.049 A 
ATOM     48  N   UNL A   1      48.211  28.629  26.494  1.00  0.00    -0.248 NA
ATOM     49  C   UNL A   1      47.687  26.366  26.260  1.00  0.00     0.031 C 
ATOM     50  C   UNL A   1      43.853  29.525  26.999  1.00  0.00     0.029 A 
ATOM     51  N   UNL A   1      45.911  30.405  26.922  1.00  0.00    -0.354 N 
ATOM     52  C   UNL A   1      49.376  27.908  26.264  1.00  0.00     0.074 A 
ATOM     53  C   UNL A   1      49.000  26.514  26.171  1.00  0.00     0.031 C 
ATOM     54  C   UNL A   1      43.733  30.855  27.156  1.00  0.00     0.029 A 
ATOM     55  C   UNL A   1      45.063  31.464  27.137  1.00  0.00     0.049 A 
ATOM     56  H   UNL A   1      46.885  30.505  26.833  1.00  0.00     0.167 HD
ATOM     57  C   UNL A   1      50.643  28.366  26.122  1.00  0.00     0.037 A 
ATOM     58  C   UNL A   1      45.334  32.772  27.313  1.00  0.00     0.037 A 
ATOM     59  C   UNL A   1      51.020  29.752  26.229  1.00  0.00     0.049 A 
ATOM     60  C   UNL A   1      46.762  33.248  27.221  1.00  0.00     0.074 A 
ATOM     61  C   UNL A   1      52.276  30.318  26.109  1.00  0.00     0.029 A 
ATOM     62  N   UNL A   1      50.138  30.792  26.489  1.00  0.00    -0.354 N 
ATOM     63  N   UNL A   1      47.853  32.562  26.980  1.00  0.00    -0.248 NA
ATOM     64  C   UNL A   1      46.992  34.687  27.415  1.00  0.00     0.031 C 
ATOM     65  C   UNL A   1      52.164  31.692  26.352  1.00  0.00     0.029 A 
ATOM     66  C   UNL A   1      50.828  31.993  26.555  1.00  0.00     0.049 A 
ATOM     67  H   UNL A   1      49.166  30.692  26.608  1.00  0.00     0.167 HD
ATOM     68  C   UNL A   1      48.892  33.485  26.966  1.00  0.00     0.074 A 
ATOM     69  C   UNL A   1      48.294  34.785  27.193  1.00  0.00     0.031 C 
ATOM     70  C   UNL A   1      50.222  33.279  26.789  1.00  0.00     0.037 A 
BRANCH  57  71
ATOM     71  C   UNL A   1      51.721  27.355  25.851  1.00  0.00     0.064 A 
ATOM     72  C   UNL A   1      52.432  26.739  26.894  1.00  0.00     0.173 A 
ATOM     73  C   UNL A   1      52.022  26.966  24.536  1.00  0.00     0.173 A 
ATOM     74  F   UNL A   1      52.195  27.085  28.168  1.00  0.00    -0.203 F 
ATOM     75  C   UNL A   1      53.417  25.792  26.629  1.00  0.00     0.198 A 
ATOM     76  C   UNL A   1      52.984  25.994  24.277  1.00  0.00     0.198 A 
ATOM     77  F   UNL A   1      51.371  27.521  23.503  1.00  0.00    -0.203 F 
ATOM     78  F   UNL A   1      54.115  25.253  27.638  1.00  0.00    -0.200 F 
ATOM     79  C   UNL A   1      53.686  25.413  25.322  1.00  0.00     0.200 A 
ATOM     80  F   UNL A   1      53.232  25.620  23.014  1.00  0.00    -0.200 F 
ATOM     81  F   UNL A   1      54.627  24.492  25.069  1.00  0.00    -0.200 F 
ENDBRANCH  57  71
BRANCH  58  82
ATOM     82  C   UNL A   1      44.233  33.728  27.614  1.00  0.00     0.064 A 
ATOM     83  C   UNL A   1      43.723  34.592  26.636  1.00  0.00     0.173 A 
ATOM     84  C   UNL A   1      43.696  33.822  28.908  1.00  0.00     0.173 A 
ATOM     85  F   UNL A   1      44.220  34.562  25.390  1.00  0.00    -0.203 F 
ATOM     86  C   UNL A   1      42.742  35.533  26.944  1.00  0.00     0.198 A 
ATOM     87  C   UNL A   1      42.690  34.737  29.206  1.00  0.00     0.198 A 
ATOM     88  F   UNL A   1      44.148  33.021  29.883  1.00  0.00    -0.203 F 
ATOM     89  F   UNL A   1      42.319  36.390  26.005  1.00  0.00    -0.200 F 
ATOM     90  C   UNL A   1      42.222  35.600  28.229  1.00  0.00     0.200 A 
ATOM     91  F   UNL A   1      42.180  34.789  30.444  1.00  0.00    -0.200 F 
ATOM     92  F   UNL A   1      41.280  36.506  28.525  1.00  0.00    -0.200 F 
ENDBRANCH  58  82
BRANCH  70  93
ATOM     93  C   UNL A   1      51.111  34.492  26.803  1.00  0.00     0.064 A 
ATOM     94  C   UNL A   1      51.838  34.864  27.944  1.00  0.00     0.173 A 
ATOM     95  C   UNL A   1      51.240  35.295  25.657  1.00  0.00     0.173 A 
ATOM     96  F   UNL A   1      51.746  34.139  29.069  1.00  0.00    -0.203 F 
ATOM     97  C   UNL A   1      52.616  36.020  27.955  1.00  0.00     0.198 A 
ATOM     98  C   UNL A   1      52.051  36.426  25.659  1.00  0.00     0.198 A 
ATOM     99  F   UNL A   1      50.580  34.981  24.532  1.00  0.00    -0.203 F 
ATOM    100  F   UNL A   1      53.239  36.395  29.081  1.00  0.00    -0.200 F 
ATOM    101  C   UNL A   1      52.726  36.797  26.812  1.00  0.00     0.200 A 
ATOM    102  F   UNL A   1      52.171  37.166  24.547  1.00  0.00    -0.200 F 
ATOM    103  F   UNL A   1      53.471  37.910  26.825  1.00  0.00    -0.200 F 
ENDBRANCH  70  93
ENDBRANCH  44  45
ENDBRANCH  37  39
ENDBRANCH  36  37
ENDBRANCH  35  36
ENDBRANCH  34  35
ENDBRANCH  33  34
ENDBRANCH  32  33
ENDBRANCH  31  32
ENDBRANCH  30  31
ENDBRANCH   1  30
TORSDOF 23
ENDMDL
MODEL 2
REMARK VINA RESULT:     -10.0      7.510     11.819
REMARK SMILES C[C@H](Oc1cc2oc(=O)cc(-c3ccccc3)c2cc1Cl)C(=O)OCCOCCOCCOCCOC(=O)c1ccc(-c2c3nc(c(-c4c(F)c(F)c(F)c(F)c4F)c4ccc([nH]4)c(-c4c(F)c(F)c(F)c(F)c4F)c4nc(c(-c5c(F)c(F)c(F)c(F)c5F)c5ccc2[nH]5)C=C4)C=C3)cc1
REMARK SMILES IDX 29 1 28 2 27 3 26 4 25 5 24 6 22 7 23 8 2 9 1 10 3 11 4 12
REMARK SMILES IDX 5 13 20 14 6 15 19 16 21 17 7 18 18 19 8 20 11 21 9 22 10 23
REMARK SMILES IDX 12 24 13 25 17 26 14 27 16 28 15 29 30 30 31 31 32 32 33 33
REMARK SMILES IDX 34 34 35 35 36 36 37 37 38 38 39 39 40 40 101 41 41 42
REMARK SMILES IDX 100 43 42 44 43 45 44 46 94 47 45 48 99 49 93 50 95 51 46 52
REMARK SMILES IDX 98 53 92 54 91 55 47 57 79 58 59 59 78 60 60 61 63 62 77 63
REMARK SMILES IDX 96 64 61 65 62 66 76 68 97 69 64 70 48 71 49 72 57 73 50 74
REMARK SMILES IDX 51 75 55 76 58 77 52 78 53 79 56 80 54 81 80 82 81 83 89 84
REMARK SMILES IDX 82 85 83 86 87 87 90 88 84 89 85 90 88 91 86 92 65 93 66 94
REMARK SMILES IDX 74 95 67 96 68 97 72 98 75 99 69 100 70 101 73 102 71 103
REMARK H PARENT 95 56 63 67
REMARK Flexibility Score: inf
ROOT
ATOM      1  C   UNL A   1      35.959  33.277  28.748  1.00  0.00     0.188 C 
ENDROOT
BRANCH   1   2
ATOM      2  C   UNL A   1      36.602  31.896  28.524  1.00  0.00     0.188 C 
BRANCH   2   3
ATOM      3  O   UNL A   1      35.971  30.692  28.945  1.00  0.00    -0.376 OA
BRANCH   3   4
ATOM      4  C   UNL A   1      35.644  29.650  28.040  1.00  0.00     0.202 C 
BRANCH   4   5
ATOM      5  C   UNL A   1      34.493  29.770  27.033  1.00  0.00     0.261 C 
BRANCH   5   6
ATOM      6  O   UNL A   1      33.487  28.759  27.096  1.00  0.00    -0.461 OA
BRANCH   6   7
ATOM      7  C   UNL A   1      32.213  29.196  26.939  1.00  0.00     0.347 C 
ATOM      8  O   UNL A   1      31.306  29.018  27.746  1.00  0.00    -0.248 OA
BRANCH   7   9
ATOM      9  C   UNL A   1      31.988  29.860  25.578  1.00  0.00     0.279 C 
ATOM     10  C   UNL A   1      31.166  31.108  25.913  1.00  0.00     0.066 C 
BRANCH   9  11
ATOM     11  O   UNL A   1      31.371  29.028  24.590  1.00  0.00    -0.477 OA
BRANCH  11  12
ATOM     12  C   UNL A   1      31.738  27.705  24.510  1.00  0.00     0.142 A 
ATOM     13  C   UNL A   1      30.939  26.673  24.987  1.00  0.00     0.096 A 
ATOM     14  C   UNL A   1      33.021  27.380  24.035  1.00  0.00     0.084 A 
ATOM     15  C   UNL A   1      31.510  25.436  25.260  1.00  0.00     0.142 A 
ATOM     16  C   UNL A   1      33.547  26.086  24.210  1.00  0.00     0.037 A 
ATOM     17  Cl  UNL A   1      34.031  28.554  23.267  1.00  0.00    -0.080 Cl
ATOM     18  O   UNL A   1      30.708  24.577  26.024  1.00  0.00    -0.423 OA
ATOM     19  C   UNL A   1      32.823  25.125  24.923  1.00  0.00     0.027 A 
ATOM     20  C   UNL A   1      31.304  23.552  26.728  1.00  0.00     0.336 A 
ATOM     21  C   UNL A   1      33.383  23.849  25.401  1.00  0.00    -0.000 A 
ATOM     22  O   UNL A   1      30.727  22.954  27.626  1.00  0.00    -0.246 OA
ATOM     23  C   UNL A   1      32.654  23.164  26.301  1.00  0.00     0.103 A 
BRANCH  21  24
ATOM     24  C   UNL A   1      34.702  23.268  25.077  1.00  0.00    -0.017 A 
ATOM     25  C   UNL A   1      35.107  23.168  23.737  1.00  0.00     0.009 A 
ATOM     26  C   UNL A   1      35.547  22.780  26.080  1.00  0.00     0.009 A 
ATOM     27  C   UNL A   1      36.332  22.588  23.407  1.00  0.00     0.001 A 
ATOM     28  C   UNL A   1      36.780  22.212  25.749  1.00  0.00     0.001 A 
ATOM     29  C   UNL A   1      37.170  22.115  24.414  1.00  0.00     0.000 A 
ENDBRANCH  21  24
ENDBRANCH  11  12
ENDBRANCH   9  11
ENDBRANCH   7   9
ENDBRANCH   6   7
ENDBRANCH   5   6
ENDBRANCH   4   5
ENDBRANCH   3   4
ENDBRANCH   2   3
ENDBRANCH   1   2
BRANCH   1  30
ATOM     30  O   UNL A   1      35.360  33.837  27.595  1.00  0.00    -0.377 OA
BRANCH  30  31
ATOM     31  C   UNL A   1      34.076  34.421  27.783  1.00  0.00     0.188 C 
BRANCH  31  32
ATOM     32  C   UNL A   1      33.709  34.875  29.212  1.00  0.00     0.188 C 
BRANCH  32  33
ATOM     33  O   UNL A   1      33.392  36.257  29.312  1.00  0.00    -0.376 OA
BRANCH  33  34
ATOM     34  C   UNL A   1      32.595  36.691  30.403  1.00  0.00     0.202 C 
BRANCH  34  35
ATOM     35  C   UNL A   1      33.279  37.549  31.480  1.00  0.00     0.261 C 
BRANCH  35  36
ATOM     36  O   UNL A   1      33.396  36.954  32.783  1.00  0.00    -0.460 OA
BRANCH  36  37
ATOM     37  C   UNL A   1      33.326  35.612  32.860  1.00  0.00     0.338 C 
ATOM     38  O   UNL A   1      32.401  34.901  32.493  1.00  0.00    -0.246 OA
BRANCH  37  39
ATOM     39  C   UNL A   1      34.646  35.094  33.275  1.00  0.00     0.060 A 
ATOM     40  C   UNL A   1      35.720  35.230  32.390  1.00  0.00     0.016 A 
ATOM     41  C   UNL A   1      34.823  34.454  34.506  1.00  0.00     0.016 A 
ATOM     42  C   UNL A   1      36.959  34.676  32.703  1.00  0.00     0.010 A 
ATOM     43  C   UNL A   1      36.063  33.881  34.812  1.00  0.00     0.010 A 
ATOM     44  C   UNL A   1      37.123  33.951  33.890  1.00  0.00    -0.014 A 
BRANCH  44  45
ATOM     45  C   UNL A   1      38.346  33.124  34.053  1.00  0.00     0.031 A 
ATOM     46  C   UNL A   1      39.193  33.317  35.283  1.00  0.00     0.074 A 
ATOM     47  C   UNL A   1      38.645  32.151  33.176  1.00  0.00     0.049 A 
ATOM     48  N   UNL A   1      40.260  32.667  35.671  1.00  0.00    -0.248 NA
ATOM     49  C   UNL A   1      38.776  34.387  36.204  1.00  0.00     0.031 C 
ATOM     50  C   UNL A   1      37.886  31.845  31.965  1.00  0.00     0.029 A 
ATOM     51  N   UNL A   1      39.667  31.233  33.177  1.00  0.00    -0.354 N 
ATOM     52  C   UNL A   1      40.632  33.237  36.882  1.00  0.00     0.074 A 
ATOM     53  C   UNL A   1      39.708  34.320  37.141  1.00  0.00     0.031 C 
ATOM     54  C   UNL A   1      38.471  30.810  31.336  1.00  0.00     0.029 A 
ATOM     55  C   UNL A   1      39.656  30.397  32.086  1.00  0.00     0.049 A 
ATOM     56  H   UNL A   1      40.342  31.178  33.891  1.00  0.00     0.167 HD
ATOM     57  C   UNL A   1      41.638  32.878  37.715  1.00  0.00     0.037 A 
ATOM     58  C   UNL A   1      40.515  29.423  31.730  1.00  0.00     0.037 A 
ATOM     59  C   UNL A   1      42.566  31.809  37.451  1.00  0.00     0.049 A 
ATOM     60  C   UNL A   1      41.670  29.090  32.641  1.00  0.00     0.074 A 
ATOM     61  C   UNL A   1      43.624  31.371  38.228  1.00  0.00     0.029 A 
ATOM     62  N   UNL A   1      42.549  31.012  36.316  1.00  0.00    -0.354 N 
ATOM     63  N   UNL A   1      41.999  29.618  33.796  1.00  0.00    -0.248 NA
ATOM     64  C   UNL A   1      42.568  28.011  32.202  1.00  0.00     0.031 C 
ATOM     65  C   UNL A   1      44.282  30.348  37.536  1.00  0.00     0.029 A 
ATOM     66  C   UNL A   1      43.593  30.100  36.361  1.00  0.00     0.049 A 
ATOM     67  H   UNL A   1      41.892  31.082  35.586  1.00  0.00     0.167 HD
ATOM     68  C   UNL A   1      43.121  28.922  34.232  1.00  0.00     0.074 A 
ATOM     69  C   UNL A   1      43.396  27.913  33.230  1.00  0.00     0.031 C 
ATOM     70  C   UNL A   1      43.861  29.104  35.354  1.00  0.00     0.037 A 
BRANCH  57  71
ATOM     71  C   UNL A   1      41.798  33.661  38.988  1.00  0.00     0.064 A 
ATOM     72  C   UNL A   1      41.085  33.332  40.151  1.00  0.00     0.173 A 
ATOM     73  C   UNL A   1      42.705  34.731  39.058  1.00  0.00     0.173 A 
ATOM     74  F   UNL A   1      40.194  32.329  40.135  1.00  0.00    -0.203 F 
ATOM     75  C   UNL A   1      41.256  34.057  41.327  1.00  0.00     0.198 A 
ATOM     76  C   UNL A   1      42.898  35.432  40.245  1.00  0.00     0.198 A 
ATOM     77  F   UNL A   1      43.414  35.087  37.977  1.00  0.00    -0.203 F 
ATOM     78  F   UNL A   1      40.529  33.753  42.411  1.00  0.00    -0.200 F 
ATOM     79  C   UNL A   1      42.169  35.100  41.376  1.00  0.00     0.200 A 
ATOM     80  F   UNL A   1      43.791  36.430  40.294  1.00  0.00    -0.200 F 
ATOM     81  F   UNL A   1      42.341  35.789  42.513  1.00  0.00    -0.200 F 
ENDBRANCH  57  71
BRANCH  58  82
ATOM     82  C   UNL A   1      40.332  28.700  30.443  1.00  0.00     0.064 A 
ATOM     83  C   UNL A   1      39.555  27.537  30.357  1.00  0.00     0.173 A 
ATOM     84  C   UNL A   1      40.970  29.143  29.273  1.00  0.00     0.173 A 
ATOM     85  F   UNL A   1      38.945  27.057  31.451  1.00  0.00    -0.203 F 
ATOM     86  C   UNL A   1      39.446  26.828  29.162  1.00  0.00     0.198 A 
ATOM     87  C   UNL A   1      40.831  28.453  28.071  1.00  0.00     0.198 A 
ATOM     88  F   UNL A   1      41.728  30.248  29.297  1.00  0.00    -0.203 F 
ATOM     89  F   UNL A   1      38.749  25.684  29.125  1.00  0.00    -0.200 F 
ATOM     90  C   UNL A   1      40.080  27.290  28.018  1.00  0.00     0.200 A 
ATOM     91  F   UNL A   1      41.434  28.912  26.965  1.00  0.00    -0.200 F 
ATOM     92  F   UNL A   1      39.977  26.607  26.870  1.00  0.00    -0.200 F 
ENDBRANCH  58  82
BRANCH  70  93
ATOM     93  C   UNL A   1      45.020  28.170  35.570  1.00  0.00     0.064 A 
ATOM     94  C   UNL A   1      46.311  28.473  35.110  1.00  0.00     0.173 A 
ATOM     95  C   UNL A   1      44.838  26.953  36.247  1.00  0.00     0.173 A 
ATOM     96  F   UNL A   1      46.541  29.618  34.449  1.00  0.00    -0.203 F 
ATOM     97  C   UNL A   1      47.361  27.573  35.273  1.00  0.00     0.198 A 
ATOM     98  C   UNL A   1      45.899  26.074  36.444  1.00  0.00     0.198 A 
ATOM     99  F   UNL A   1      43.630  26.616  36.721  1.00  0.00    -0.203 F 
ATOM    100  F   UNL A   1      48.566  27.852  34.756  1.00  0.00    -0.200 F 
ATOM    101  C   UNL A   1      47.156  26.377  35.943  1.00  0.00     0.200 A 
ATOM    102  F   UNL A   1      45.703  24.927  37.109  1.00  0.00    -0.200 F 
ATOM    103  F   UNL A   1      48.166  25.510  36.096  1.00  0.00    -0.200 F 
ENDBRANCH  70  93
ENDBRANCH  44  45
ENDBRANCH  37  39
ENDBRANCH  36  37
ENDBRANCH  35  36
ENDBRANCH  34  35
ENDBRANCH  33  34
ENDBRANCH  32  33
ENDBRANCH  31  32
ENDBRANCH  30  31
ENDBRANCH   1  30
TORSDOF 23
ENDMDL
MODEL 3
REMARK VINA RESULT:      -9.8      3.786      8.452
REMARK SMILES C[C@H](Oc1cc2oc(=O)cc(-c3ccccc3)c2cc1Cl)C(=O)OCCOCCOCCOCCOC(=O)c1ccc(-c2c3nc(c(-c4c(F)c(F)c(F)c(F)c4F)c4ccc([nH]4)c(-c4c(F)c(F)c(F)c(F)c4F)c4nc(c(-c5c(F)c(F)c(F)c(F)c5F)c5ccc2[nH]5)C=C4)C=C3)cc1
REMARK SMILES IDX 29 1 28 2 27 3 26 4 25 5 24 6 22 7 23 8 2 9 1 10 3 11 4 12
REMARK SMILES IDX 5 13 20 14 6 15 19 16 21 17 7 18 18 19 8 20 11 21 9 22 10 23
REMARK SMILES IDX 12 24 13 25 17 26 14 27 16 28 15 29 30 30 31 31 32 32 33 33
REMARK SMILES IDX 34 34 35 35 36 36 37 37 38 38 39 39 40 40 101 41 41 42
REMARK SMILES IDX 100 43 42 44 43 45 44 46 94 47 45 48 99 49 93 50 95 51 46 52
REMARK SMILES IDX 98 53 92 54 91 55 47 57 79 58 59 59 78 60 60 61 63 62 77 63
REMARK SMILES IDX 96 64 61 65 62 66 76 68 97 69 64 70 48 71 49 72 57 73 50 74
REMARK SMILES IDX 51 75 55 76 58 77 52 78 53 79 56 80 54 81 80 82 81 83 89 84
REMARK SMILES IDX 82 85 83 86 87 87 90 88 84 89 85 90 88 91 86 92 65 93 66 94
REMARK SMILES IDX 74 95 67 96 68 97 72 98 75 99 69 100 70 101 73 102 71 103
REMARK H PARENT 95 56 63 67
REMARK Flexibility Score: inf
ROOT
ATOM      1  C   UNL A   1      35.351  32.666  28.379  1.00  0.00     0.188 C 
ENDROOT
BRANCH   1   2
ATOM      2  C   UNL A   1      35.136  31.323  27.657  1.00  0.00     0.188 C 
BRANCH   2   3
ATOM      3  O   UNL A   1      33.843  30.753  27.492  1.00  0.00    -0.376 OA
BRANCH   3   4
ATOM      4  C   UNL A   1      33.591  29.695  26.582  1.00  0.00     0.202 C 
BRANCH   4   5
ATOM      5  C   UNL A   1      32.251  29.542  25.852  1.00  0.00     0.261 C 
BRANCH   5   6
ATOM      6  O   UNL A   1      32.309  29.045  24.514  1.00  0.00    -0.461 OA
BRANCH   6   7
ATOM      7  C   UNL A   1      31.187  28.424  24.076  1.00  0.00     0.347 C 
ATOM      8  O   UNL A   1      30.295  27.995  24.800  1.00  0.00    -0.248 OA
BRANCH   7   9
ATOM      9  C   UNL A   1      31.191  28.214  22.560  1.00  0.00     0.279 C 
ATOM     10  C   UNL A   1      30.539  29.487  22.014  1.00  0.00     0.066 C 
BRANCH   9  11
ATOM     11  O   UNL A   1      30.550  27.015  22.110  1.00  0.00    -0.477 OA
BRANCH  11  12
ATOM     12  C   UNL A   1      30.964  25.807  22.620  1.00  0.00     0.142 A 
ATOM     13  C   UNL A   1      30.242  25.108  23.579  1.00  0.00     0.096 A 
ATOM     14  C   UNL A   1      32.224  25.305  22.249  1.00  0.00     0.084 A 
ATOM     15  C   UNL A   1      30.879  24.140  24.345  1.00  0.00     0.142 A 
ATOM     16  C   UNL A   1      32.813  24.241  22.958  1.00  0.00     0.037 A 
ATOM     17  Cl  UNL A   1      33.133  25.996  20.950  1.00  0.00    -0.080 Cl
ATOM     18  O   UNL A   1      30.166  23.727  25.479  1.00  0.00    -0.423 OA
ATOM     19  C   UNL A   1      32.178  23.715  24.087  1.00  0.00     0.027 A 
ATOM     20  C   UNL A   1      30.849  23.146  26.526  1.00  0.00     0.336 A 
ATOM     21  C   UNL A   1      32.820  22.807  25.053  1.00  0.00    -0.000 A 
ATOM     22  O   UNL A   1      30.357  23.027  27.641  1.00  0.00    -0.246 OA
ATOM     23  C   UNL A   1      32.182  22.612  26.222  1.00  0.00     0.103 A 
BRANCH  21  24
ATOM     24  C   UNL A   1      34.137  22.149  24.932  1.00  0.00    -0.017 A 
ATOM     25  C   UNL A   1      34.224  20.750  25.005  1.00  0.00     0.009 A 
ATOM     26  C   UNL A   1      35.312  22.896  24.781  1.00  0.00     0.009 A 
ATOM     27  C   UNL A   1      35.461  20.111  24.930  1.00  0.00     0.001 A 
ATOM     28  C   UNL A   1      36.549  22.253  24.693  1.00  0.00     0.001 A 
ATOM     29  C   UNL A   1      36.623  20.862  24.769  1.00  0.00     0.000 A 
ENDBRANCH  21  24
ENDBRANCH  11  12
ENDBRANCH   9  11
ENDBRANCH   7   9
ENDBRANCH   6   7
ENDBRANCH   5   6
ENDBRANCH   4   5
ENDBRANCH   3   4
ENDBRANCH   2   3
ENDBRANCH   1   2
BRANCH   1  30
ATOM     30  O   UNL A   1      34.903  33.798  27.657  1.00  0.00    -0.377 OA
BRANCH  30  31
ATOM     31  C   UNL A   1      34.055  34.692  28.367  1.00  0.00     0.188 C 
BRANCH  31  32
ATOM     32  C   UNL A   1      33.877  34.445  29.881  1.00  0.00     0.188 C 
BRANCH  32  33
ATOM     33  O   UNL A   1      34.644  35.318  30.699  1.00  0.00    -0.376 OA
BRANCH  33  34
ATOM     34  C   UNL A   1      34.643  35.104  32.102  1.00  0.00     0.202 C 
BRANCH  34  35
ATOM     35  C   UNL A   1      35.986  34.752  32.763  1.00  0.00     0.261 C 
BRANCH  35  36
ATOM     36  O   UNL A   1      36.118  33.406  33.250  1.00  0.00    -0.460 OA
BRANCH  36  37
ATOM     37  C   UNL A   1      36.037  32.410  32.348  1.00  0.00     0.338 C 
ATOM     38  O   UNL A   1      35.020  31.949  31.850  1.00  0.00    -0.246 OA
BRANCH  37  39
ATOM     39  C   UNL A   1      37.401  32.084  31.883  1.00  0.00     0.060 A 
ATOM     40  C   UNL A   1      37.776  32.484  30.596  1.00  0.00     0.016 A 
ATOM     41  C   UNL A   1      38.292  31.367  32.687  1.00  0.00     0.016 A 
ATOM     42  C   UNL A   1      39.019  32.118  30.085  1.00  0.00     0.010 A 
ATOM     43  C   UNL A   1      39.534  30.984  32.167  1.00  0.00     0.010 A 
ATOM     44  C   UNL A   1      39.883  31.320  30.846  1.00  0.00    -0.014 A 
BRANCH  44  45
ATOM     45  C   UNL A   1      41.052  30.699  30.172  1.00  0.00     0.031 A 
ATOM     46  C   UNL A   1      42.352  31.457  30.131  1.00  0.00     0.074 A 
ATOM     47  C   UNL A   1      40.989  29.444  29.695  1.00  0.00     0.049 A 
ATOM     48  N   UNL A   1      43.517  31.090  29.661  1.00  0.00    -0.248 NA
ATOM     49  C   UNL A   1      42.337  32.813  30.703  1.00  0.00     0.031 C 
ATOM     50  C   UNL A   1      39.798  28.596  29.705  1.00  0.00     0.029 A 
ATOM     51  N   UNL A   1      41.957  28.661  29.114  1.00  0.00    -0.354 N 
ATOM     52  C   UNL A   1      44.373  32.159  29.893  1.00  0.00     0.074 A 
ATOM     53  C   UNL A   1      43.584  33.210  30.497  1.00  0.00     0.031 C 
ATOM     54  C   UNL A   1      40.105  27.409  29.153  1.00  0.00     0.029 A 
ATOM     55  C   UNL A   1      41.505  27.422  28.730  1.00  0.00     0.049 A 
ATOM     56  H   UNL A   1      42.886  28.959  28.986  1.00  0.00     0.167 HD
ATOM     57  C   UNL A   1      45.701  32.251  29.644  1.00  0.00     0.037 A 
ATOM     58  C   UNL A   1      42.146  26.422  28.096  1.00  0.00     0.037 A 
ATOM     59  C   UNL A   1      46.484  31.211  29.029  1.00  0.00     0.049 A 
ATOM     60  C   UNL A   1      43.610  26.577  27.765  1.00  0.00     0.074 A 
ATOM     61  C   UNL A   1      47.835  31.209  28.728  1.00  0.00     0.029 A 
ATOM     62  N   UNL A   1      45.983  29.985  28.616  1.00  0.00    -0.354 N 
ATOM     63  N   UNL A   1      44.416  27.582  28.010  1.00  0.00    -0.248 NA
ATOM     64  C   UNL A   1      44.256  25.448  27.080  1.00  0.00     0.031 C 
ATOM     65  C   UNL A   1      48.139  30.006  28.080  1.00  0.00     0.029 A 
ATOM     66  C   UNL A   1      46.993  29.229  28.040  1.00  0.00     0.049 A 
ATOM     67  H   UNL A   1      45.048  29.695  28.716  1.00  0.00     0.167 HD
ATOM     68  C   UNL A   1      45.664  27.198  27.534  1.00  0.00     0.074 A 
ATOM     69  C   UNL A   1      45.514  25.855  27.016  1.00  0.00     0.031 C 
ATOM     70  C   UNL A   1      46.829  27.895  27.521  1.00  0.00     0.037 A 
BRANCH  57  71
ATOM     71  C   UNL A   1      46.391  33.532  30.023  1.00  0.00     0.064 A 
ATOM     72  C   UNL A   1      46.469  34.617  29.136  1.00  0.00     0.173 A 
ATOM     73  C   UNL A   1      46.948  33.692  31.301  1.00  0.00     0.173 A 
ATOM     74  F   UNL A   1      45.967  34.512  27.895  1.00  0.00    -0.203 F 
ATOM     75  C   UNL A   1      47.097  35.803  29.506  1.00  0.00     0.198 A 
ATOM     76  C   UNL A   1      47.546  34.891  31.679  1.00  0.00     0.198 A 
ATOM     77  F   UNL A   1      46.900  32.688  32.189  1.00  0.00    -0.203 F 
ATOM     78  F   UNL A   1      47.200  36.807  28.625  1.00  0.00    -0.200 F 
ATOM     79  C   UNL A   1      47.627  35.943  30.780  1.00  0.00     0.200 A 
ATOM     80  F   UNL A   1      48.044  35.028  32.916  1.00  0.00    -0.200 F 
ATOM     81  F   UNL A   1      48.221  37.089  31.139  1.00  0.00    -0.200 F 
ENDBRANCH  57  71
BRANCH  58  82
ATOM     82  C   UNL A   1      41.409  25.188  27.711  1.00  0.00     0.064 A 
ATOM     83  C   UNL A   1      40.407  25.206  26.732  1.00  0.00     0.173 A 
ATOM     84  C   UNL A   1      41.669  23.966  28.351  1.00  0.00     0.173 A 
ATOM     85  F   UNL A   1      40.100  26.354  26.108  1.00  0.00    -0.203 F 
ATOM     86  C   UNL A   1      39.672  24.060  26.429  1.00  0.00     0.198 A 
ATOM     87  C   UNL A   1      40.961  22.813  28.021  1.00  0.00     0.198 A 
ATOM     88  F   UNL A   1      42.616  23.891  29.298  1.00  0.00    -0.203 F 
ATOM     89  F   UNL A   1      38.676  24.122  25.534  1.00  0.00    -0.200 F 
ATOM     90  C   UNL A   1      39.955  22.863  27.070  1.00  0.00     0.200 A 
ATOM     91  F   UNL A   1      41.246  21.656  28.633  1.00  0.00    -0.200 F 
ATOM     92  F   UNL A   1      39.248  21.763  26.779  1.00  0.00    -0.200 F 
ENDBRANCH  58  82
BRANCH  70  93
ATOM     93  C   UNL A   1      48.037  27.200  26.954  1.00  0.00     0.064 A 
ATOM     94  C   UNL A   1      48.895  26.433  27.758  1.00  0.00     0.173 A 
ATOM     95  C   UNL A   1      48.340  27.299  25.586  1.00  0.00     0.173 A 
ATOM     96  F   UNL A   1      48.659  26.310  29.073  1.00  0.00    -0.203 F 
ATOM     97  C   UNL A   1      50.037  25.839  27.226  1.00  0.00     0.198 A 
ATOM     98  C   UNL A   1      49.460  26.670  25.050  1.00  0.00     0.198 A 
ATOM     99  F   UNL A   1      47.548  28.007  24.767  1.00  0.00    -0.203 F 
ATOM    100  F   UNL A   1      50.882  25.177  28.029  1.00  0.00    -0.200 F 
ATOM    101  C   UNL A   1      50.316  25.954  25.872  1.00  0.00     0.200 A 
ATOM    102  F   UNL A   1      49.718  26.767  23.738  1.00  0.00    -0.200 F 
ATOM    103  F   UNL A   1      51.417  25.385  25.363  1.00  0.00    -0.200 F 
ENDBRANCH  70  93
ENDBRANCH  44  45
ENDBRANCH  37  39
ENDBRANCH  36  37
ENDBRANCH  35  36
ENDBRANCH  34  35
ENDBRANCH  33  34
ENDBRANCH  32  33
ENDBRANCH  31  32
ENDBRANCH  30  31
ENDBRANCH   1  30
TORSDOF 23
ENDMDL
