MODEL 1
REMARK VINA RESULT:     -11.4      0.000      0.000
REMARK SMILES CC(C)(C)c1cc2c(cc1Cl)C=C(C(=O)OCCOCCOCCOCCOC(=O)c1ccc(-c3c4nc(c(-c5c(F)c(F)c(F)c(F)c5F)c5ccc([nH]5)c(-c5c(F)c(F)c(F)c(F)c5F)c5nc(c(-c6c(F)c(F)c(F)c(F)c6F)c6ccc3[nH]6)C=C5)C=C4)cc1)[C@@H](C(F)(F)F)O2
REMARK SMILES IDX 23 1 22 2 21 3 20 4 19 5 18 6 17 7 16 8 14 9 15 10 13 11
REMARK SMILES IDX 5 12 6 13 10 14 7 15 9 16 11 17 8 18 99 19 12 20 94 21 2 22
REMARK SMILES IDX 1 23 3 24 4 25 95 26 96 27 97 28 98 29 24 30 25 31 26 32
REMARK SMILES IDX 27 33 28 34 29 35 30 36 31 37 32 38 93 39 33 40 92 41 34 42
REMARK SMILES IDX 35 43 36 44 86 45 37 46 91 47 85 48 87 49 38 50 90 51 84 52
REMARK SMILES IDX 83 53 39 55 71 56 51 57 70 58 52 59 55 60 69 61 88 62 53 63
REMARK SMILES IDX 54 64 68 66 89 67 56 68 40 69 41 70 49 71 42 72 43 73 47 74
REMARK SMILES IDX 50 75 44 76 45 77 48 78 46 79 72 80 73 81 81 82 74 83 75 84
REMARK SMILES IDX 79 85 82 86 76 87 77 88 80 89 78 90 57 91 58 92 66 93 59 94
REMARK SMILES IDX 60 95 64 96 67 97 61 98 62 99 65 100 63 101
REMARK H PARENT 87 54 55 65
REMARK Flexibility Score: inf
ROOT
ATOM      1  C   UNL A   1      43.247  19.080  26.063  1.00  0.00     0.188 C 
ENDROOT
BRANCH   1   2
ATOM      2  O   UNL A   1      41.953  18.566  25.749  1.00  0.00    -0.377 OA
BRANCH   2   3
ATOM      3  C   UNL A   1      40.823  19.306  26.177  1.00  0.00     0.188 C 
BRANCH   3   4
ATOM      4  C   UNL A   1      41.102  20.808  26.357  1.00  0.00     0.188 C 
BRANCH   4   5
ATOM      5  O   UNL A   1      40.030  21.513  26.986  1.00  0.00    -0.376 OA
BRANCH   5   6
ATOM      6  C   UNL A   1      39.175  22.261  26.126  1.00  0.00     0.202 C 
BRANCH   6   7
ATOM      7  C   UNL A   1      38.119  21.438  25.376  1.00  0.00     0.261 C 
BRANCH   7   8
ATOM      8  O   UNL A   1      36.768  21.683  25.801  1.00  0.00    -0.460 OA
BRANCH   8   9
ATOM      9  C   UNL A   1      35.791  21.041  25.130  1.00  0.00     0.338 C 
ATOM     10  O   UNL A   1      35.681  19.838  24.974  1.00  0.00    -0.246 OA
BRANCH   9  11
ATOM     11  C   UNL A   1      34.770  22.036  24.746  1.00  0.00     0.087 C 
ATOM     12  C   UNL A   1      32.086  26.267  23.992  1.00  0.00    -0.020 A 
ATOM     13  C   UNL A   1      31.882  24.874  23.793  1.00  0.00     0.053 A 
ATOM     14  C   UNL A   1      33.399  26.648  24.338  1.00  0.00     0.045 A 
ATOM     15  C   UNL A   1      32.870  23.917  24.043  1.00  0.00     0.128 A 
ATOM     16  C   UNL A   1      34.391  25.679  24.593  1.00  0.00     0.032 A 
ATOM     17  Cl  UNL A   1      33.969  28.273  24.473  1.00  0.00    -0.084 Cl
ATOM     18  C   UNL A   1      34.117  24.317  24.492  1.00  0.00     0.019 A 
ATOM     19  O   UNL A   1      32.511  22.617  23.845  1.00  0.00    -0.475 OA
ATOM     20  C   UNL A   1      35.101  23.326  24.884  1.00  0.00     0.027 C 
ATOM     21  C   UNL A   1      33.464  21.562  24.160  1.00  0.00     0.316 C 
BRANCH  12  22
ATOM     22  C   UNL A   1      30.841  27.181  23.846  1.00  0.00    -0.012 C 
ATOM     23  C   UNL A   1      30.829  28.505  24.637  1.00  0.00     0.016 C 
ATOM     24  C   UNL A   1      29.588  26.407  24.345  1.00  0.00     0.016 C 
ATOM     25  C   UNL A   1      30.644  27.548  22.359  1.00  0.00     0.016 C 
ENDBRANCH  12  22
BRANCH  21  26
ATOM     26  C   UNL A   1      32.757  20.539  25.062  1.00  0.00     0.430 C 
ATOM     27  F   UNL A   1      33.282  20.540  26.311  1.00  0.00    -0.167 F 
ATOM     28  F   UNL A   1      31.437  20.808  25.200  1.00  0.00    -0.167 F 
ATOM     29  F   UNL A   1      32.863  19.282  24.578  1.00  0.00    -0.167 F 
ENDBRANCH  21  26
ENDBRANCH   9  11
ENDBRANCH   8   9
ENDBRANCH   7   8
ENDBRANCH   6   7
ENDBRANCH   5   6
ENDBRANCH   4   5
ENDBRANCH   3   4
ENDBRANCH   2   3
ENDBRANCH   1   2
BRANCH   1  30
ATOM     30  C   UNL A   1      44.381  19.162  25.016  1.00  0.00     0.188 C 
BRANCH  30  31
ATOM     31  O   UNL A   1      44.663  20.486  24.571  1.00  0.00    -0.376 OA
BRANCH  31  32
ATOM     32  C   UNL A   1      45.661  21.197  25.293  1.00  0.00     0.202 C 
BRANCH  32  33
ATOM     33  C   UNL A   1      45.690  22.693  24.964  1.00  0.00     0.261 C 
BRANCH  33  34
ATOM     34  O   UNL A   1      44.851  23.508  25.797  1.00  0.00    -0.460 OA
BRANCH  34  35
ATOM     35  C   UNL A   1      43.627  23.831  25.323  1.00  0.00     0.338 C 
ATOM     36  O   UNL A   1      43.039  23.327  24.384  1.00  0.00    -0.246 OA
BRANCH  35  37
ATOM     37  C   UNL A   1      43.025  24.781  26.278  1.00  0.00     0.060 A 
ATOM     38  C   UNL A   1      41.956  24.388  27.089  1.00  0.00     0.016 A 
ATOM     39  C   UNL A   1      43.514  26.092  26.331  1.00  0.00     0.016 A 
ATOM     40  C   UNL A   1      41.396  25.303  27.981  1.00  0.00     0.010 A 
ATOM     41  C   UNL A   1      42.944  27.010  27.214  1.00  0.00     0.010 A 
ATOM     42  C   UNL A   1      41.899  26.613  28.063  1.00  0.00    -0.014 A 
BRANCH  42  43
ATOM     43  C   UNL A   1      41.474  27.494  29.174  1.00  0.00     0.031 A 
ATOM     44  C   UNL A   1      40.293  28.405  29.064  1.00  0.00     0.074 A 
ATOM     45  C   UNL A   1      42.202  27.456  30.305  1.00  0.00     0.049 A 
ATOM     46  N   UNL A   1      39.782  29.197  29.974  1.00  0.00    -0.248 NA
ATOM     47  C   UNL A   1      39.593  28.439  27.773  1.00  0.00     0.031 C 
ATOM     48  C   UNL A   1      43.379  26.611  30.512  1.00  0.00     0.029 A 
ATOM     49  N   UNL A   1      42.063  28.135  31.487  1.00  0.00    -0.354 N 
ATOM     50  C   UNL A   1      38.688  29.805  29.380  1.00  0.00     0.074 A 
ATOM     51  C   UNL A   1      38.631  29.323  28.013  1.00  0.00     0.031 C 
ATOM     52  C   UNL A   1      43.851  26.815  31.749  1.00  0.00     0.029 A 
ATOM     53  C   UNL A   1      43.024  27.817  32.414  1.00  0.00     0.049 A 
ATOM     54  H   UNL A   1      41.345  28.788  31.654  1.00  0.00     0.167 HD
ATOM     55  C   UNL A   1      37.808  30.674  29.934  1.00  0.00     0.037 A 
ATOM     56  C   UNL A   1      43.216  28.278  33.663  1.00  0.00     0.037 A 
ATOM     57  C   UNL A   1      37.888  31.167  31.289  1.00  0.00     0.049 A 
ATOM     58  C   UNL A   1      42.255  29.280  34.231  1.00  0.00     0.074 A 
ATOM     59  C   UNL A   1      37.026  32.031  31.945  1.00  0.00     0.029 A 
ATOM     60  N   UNL A   1      38.892  30.851  32.192  1.00  0.00    -0.354 N 
ATOM     61  N   UNL A   1      41.189  29.806  33.680  1.00  0.00    -0.248 NA
ATOM     62  C   UNL A   1      42.516  29.743  35.600  1.00  0.00     0.031 C 
ATOM     63  C   UNL A   1      37.535  32.274  33.225  1.00  0.00     0.029 A 
ATOM     64  C   UNL A   1      38.685  31.521  33.389  1.00  0.00     0.049 A 
ATOM     65  H   UNL A   1      39.643  30.240  32.011  1.00  0.00     0.167 HD
ATOM     66  C   UNL A   1      40.639  30.644  34.639  1.00  0.00     0.074 A 
ATOM     67  C   UNL A   1      41.481  30.544  35.813  1.00  0.00     0.031 C 
ATOM     68  C   UNL A   1      39.532  31.421  34.551  1.00  0.00     0.037 A 
BRANCH  55  69
ATOM     69  C   UNL A   1      36.664  31.153  29.088  1.00  0.00     0.064 A 
ATOM     70  C   UNL A   1      35.594  30.305  28.766  1.00  0.00     0.173 A 
ATOM     71  C   UNL A   1      36.586  32.493  28.680  1.00  0.00     0.173 A 
ATOM     72  F   UNL A   1      35.622  29.014  29.130  1.00  0.00    -0.203 F 
ATOM     73  C   UNL A   1      34.491  30.780  28.060  1.00  0.00     0.198 A 
ATOM     74  C   UNL A   1      35.471  32.970  27.995  1.00  0.00     0.198 A 
ATOM     75  F   UNL A   1      37.577  33.348  28.972  1.00  0.00    -0.203 F 
ATOM     76  F   UNL A   1      33.488  29.947  27.748  1.00  0.00    -0.200 F 
ATOM     77  C   UNL A   1      34.426  32.113  27.684  1.00  0.00     0.200 A 
ATOM     78  F   UNL A   1      35.402  34.262  27.647  1.00  0.00    -0.200 F 
ATOM     79  F   UNL A   1      33.354  32.573  27.024  1.00  0.00    -0.200 F 
ENDBRANCH  55  69
BRANCH  56  80
ATOM     80  C   UNL A   1      44.348  27.752  34.463  1.00  0.00     0.064 A 
ATOM     81  C   UNL A   1      45.620  28.330  34.369  1.00  0.00     0.173 A 
ATOM     82  C   UNL A   1      44.172  26.693  35.365  1.00  0.00     0.173 A 
ATOM     83  F   UNL A   1      45.836  29.335  33.508  1.00  0.00    -0.203 F 
ATOM     84  C   UNL A   1      46.678  27.864  35.145  1.00  0.00     0.198 A 
ATOM     85  C   UNL A   1      45.224  26.245  36.159  1.00  0.00     0.198 A 
ATOM     86  F   UNL A   1      42.969  26.114  35.495  1.00  0.00    -0.203 F 
ATOM     87  F   UNL A   1      47.892  28.417  35.019  1.00  0.00    -0.200 F 
ATOM     88  C   UNL A   1      46.477  26.827  36.045  1.00  0.00     0.200 A 
ATOM     89  F   UNL A   1      45.022  25.255  37.038  1.00  0.00    -0.200 F 
ATOM     90  F   UNL A   1      47.493  26.391  36.802  1.00  0.00    -0.200 F 
ENDBRANCH  56  80
BRANCH  68  91
ATOM     91  C   UNL A   1      39.156  32.217  35.767  1.00  0.00     0.064 A 
ATOM     92  C   UNL A   1      39.633  33.520  35.969  1.00  0.00     0.173 A 
ATOM     93  C   UNL A   1      38.281  31.682  36.725  1.00  0.00     0.173 A 
ATOM     94  F   UNL A   1      40.486  34.070  35.092  1.00  0.00    -0.203 F 
ATOM     95  C   UNL A   1      39.267  34.250  37.097  1.00  0.00     0.198 A 
ATOM     96  C   UNL A   1      37.893  32.426  37.837  1.00  0.00     0.198 A 
ATOM     97  F   UNL A   1      37.791  30.443  36.577  1.00  0.00    -0.203 F 
ATOM     98  F   UNL A   1      39.772  35.475  37.293  1.00  0.00    -0.200 F 
ATOM     99  C   UNL A   1      38.393  33.706  38.025  1.00  0.00     0.200 A 
ATOM    100  F   UNL A   1      37.039  31.903  38.727  1.00  0.00    -0.200 F 
ATOM    101  F   UNL A   1      38.036  34.412  39.108  1.00  0.00    -0.200 F 
ENDBRANCH  68  91
ENDBRANCH  42  43
ENDBRANCH  35  37
ENDBRANCH  34  35
ENDBRANCH  33  34
ENDBRANCH  32  33
ENDBRANCH  31  32
ENDBRANCH  30  31
ENDBRANCH   1  30
TORSDOF 22
ENDMDL
MODEL 2
REMARK VINA RESULT:     -10.7      4.752     10.278
REMARK SMILES CC(C)(C)c1cc2c(cc1Cl)C=C(C(=O)OCCOCCOCCOCCOC(=O)c1ccc(-c3c4nc(c(-c5c(F)c(F)c(F)c(F)c5F)c5ccc([nH]5)c(-c5c(F)c(F)c(F)c(F)c5F)c5nc(c(-c6c(F)c(F)c(F)c(F)c6F)c6ccc3[nH]6)C=C5)C=C4)cc1)[C@@H](C(F)(F)F)O2
REMARK SMILES IDX 23 1 22 2 21 3 20 4 19 5 18 6 17 7 16 8 14 9 15 10 13 11
REMARK SMILES IDX 5 12 6 13 10 14 7 15 9 16 11 17 8 18 99 19 12 20 94 21 2 22
REMARK SMILES IDX 1 23 3 24 4 25 95 26 96 27 97 28 98 29 24 30 25 31 26 32
REMARK SMILES IDX 27 33 28 34 29 35 30 36 31 37 32 38 93 39 33 40 92 41 34 42
REMARK SMILES IDX 35 43 36 44 86 45 37 46 91 47 85 48 87 49 38 50 90 51 84 52
REMARK SMILES IDX 83 53 39 55 71 56 51 57 70 58 52 59 55 60 69 61 88 62 53 63
REMARK SMILES IDX 54 64 68 66 89 67 56 68 40 69 41 70 49 71 42 72 43 73 47 74
REMARK SMILES IDX 50 75 44 76 45 77 48 78 46 79 72 80 73 81 81 82 74 83 75 84
REMARK SMILES IDX 79 85 82 86 76 87 77 88 80 89 78 90 57 91 58 92 66 93 59 94
REMARK SMILES IDX 60 95 64 96 67 97 61 98 62 99 65 100 63 101
REMARK H PARENT 87 54 55 65
REMARK Flexibility Score: inf
ROOT
ATOM      1  C   UNL A   1      44.106  18.855  25.283  1.00  0.00     0.188 C 
ENDROOT
BRANCH   1   2
ATOM      2  O   UNL A   1      45.290  19.474  25.785  1.00  0.00    -0.377 OA
BRANCH   2   3
ATOM      3  C   UNL A   1      46.270  19.892  24.850  1.00  0.00     0.188 C 
BRANCH   3   4
ATOM      4  C   UNL A   1      46.261  21.408  24.586  1.00  0.00     0.188 C 
BRANCH   4   5
ATOM      5  O   UNL A   1      46.028  22.187  25.760  1.00  0.00    -0.376 OA
BRANCH   5   6
ATOM      6  C   UNL A   1      45.137  23.290  25.621  1.00  0.00     0.202 C 
BRANCH   6   7
ATOM      7  C   UNL A   1      44.897  24.103  26.900  1.00  0.00     0.261 C 
BRANCH   7   8
ATOM      8  O   UNL A   1      45.366  25.460  26.835  1.00  0.00    -0.460 OA
BRANCH   8   9
ATOM      9  C   UNL A   1      44.692  26.301  26.027  1.00  0.00     0.338 C 
ATOM     10  O   UNL A   1      43.689  26.048  25.382  1.00  0.00    -0.246 OA
BRANCH   9  11
ATOM     11  C   UNL A   1      45.278  27.648  26.176  1.00  0.00     0.087 C 
ATOM     12  C   UNL A   1      46.065  32.600  26.909  1.00  0.00    -0.020 A 
ATOM     13  C   UNL A   1      46.849  31.486  26.501  1.00  0.00     0.053 A 
ATOM     14  C   UNL A   1      44.777  32.294  27.394  1.00  0.00     0.045 A 
ATOM     15  C   UNL A   1      46.351  30.180  26.456  1.00  0.00     0.128 A 
ATOM     16  C   UNL A   1      44.277  30.977  27.342  1.00  0.00     0.032 A 
ATOM     17  Cl  UNL A   1      43.681  33.421  28.108  1.00  0.00    -0.084 Cl
ATOM     18  C   UNL A   1      45.043  29.930  26.833  1.00  0.00     0.019 A 
ATOM     19  O   UNL A   1      47.211  29.224  26.003  1.00  0.00    -0.475 OA
ATOM     20  C   UNL A   1      44.477  28.605  26.661  1.00  0.00     0.027 C 
ATOM     21  C   UNL A   1      46.737  27.855  25.857  1.00  0.00     0.316 C 
BRANCH  12  22
ATOM     22  C   UNL A   1      46.702  34.002  26.730  1.00  0.00    -0.012 C 
ATOM     23  C   UNL A   1      46.802  34.906  27.976  1.00  0.00     0.016 C 
ATOM     24  C   UNL A   1      45.853  34.816  25.714  1.00  0.00     0.016 C 
ATOM     25  C   UNL A   1      48.135  33.849  26.175  1.00  0.00     0.016 C 
ENDBRANCH  12  22
BRANCH  21  26
ATOM     26  C   UNL A   1      47.097  27.380  24.441  1.00  0.00     0.430 C 
ATOM     27  F   UNL A   1      46.204  27.833  23.529  1.00  0.00    -0.167 F 
ATOM     28  F   UNL A   1      48.312  27.828  24.046  1.00  0.00    -0.167 F 
ATOM     29  F   UNL A   1      47.119  26.031  24.354  1.00  0.00    -0.167 F 
ENDBRANCH  21  26
ENDBRANCH   9  11
ENDBRANCH   8   9
ENDBRANCH   7   8
ENDBRANCH   6   7
ENDBRANCH   5   6
ENDBRANCH   4   5
ENDBRANCH   3   4
ENDBRANCH   2   3
ENDBRANCH   1   2
BRANCH   1  30
ATOM     30  C   UNL A   1      43.018  18.275  26.214  1.00  0.00     0.188 C 
BRANCH  30  31
ATOM     31  O   UNL A   1      41.713  18.796  25.975  1.00  0.00    -0.376 OA
BRANCH  31  32
ATOM     32  C   UNL A   1      41.356  19.965  26.703  1.00  0.00     0.202 C 
BRANCH  32  33
ATOM     33  C   UNL A   1      40.265  20.791  26.013  1.00  0.00     0.261 C 
BRANCH  33  34
ATOM     34  O   UNL A   1      40.385  22.211  26.192  1.00  0.00    -0.460 OA
BRANCH  34  35
ATOM     35  C   UNL A   1      39.252  22.945  26.127  1.00  0.00     0.338 C 
ATOM     36  O   UNL A   1      38.160  22.591  25.719  1.00  0.00    -0.246 OA
BRANCH  35  37
ATOM     37  C   UNL A   1      39.512  24.215  26.834  1.00  0.00     0.060 A 
ATOM     38  C   UNL A   1      39.013  24.423  28.123  1.00  0.00     0.016 A 
ATOM     39  C   UNL A   1      40.230  25.222  26.178  1.00  0.00     0.016 A 
ATOM     40  C   UNL A   1      39.265  25.631  28.772  1.00  0.00     0.010 A 
ATOM     41  C   UNL A   1      40.469  26.436  26.823  1.00  0.00     0.010 A 
ATOM     42  C   UNL A   1      40.011  26.637  28.134  1.00  0.00    -0.014 A 
BRANCH  42  43
ATOM     43  C   UNL A   1      40.483  27.806  28.911  1.00  0.00     0.031 A 
ATOM     44  C   UNL A   1      41.871  27.893  29.460  1.00  0.00     0.074 A 
ATOM     45  C   UNL A   1      39.604  28.803  29.119  1.00  0.00     0.049 A 
ATOM     46  N   UNL A   1      42.430  28.877  30.119  1.00  0.00    -0.248 NA
ATOM     47  C   UNL A   1      42.747  26.733  29.248  1.00  0.00     0.031 C 
ATOM     48  C   UNL A   1      38.222  28.813  28.637  1.00  0.00     0.029 A 
ATOM     49  N   UNL A   1      39.737  29.995  29.783  1.00  0.00    -0.354 N 
ATOM     50  C   UNL A   1      43.729  28.471  30.381  1.00  0.00     0.074 A 
ATOM     51  C   UNL A   1      43.865  27.129  29.846  1.00  0.00     0.031 C 
ATOM     52  C   UNL A   1      37.636  29.958  29.012  1.00  0.00     0.029 A 
ATOM     53  C   UNL A   1      38.592  30.752  29.777  1.00  0.00     0.049 A 
ATOM     54  H   UNL A   1      40.571  30.279  30.221  1.00  0.00     0.167 HD
ATOM     55  C   UNL A   1      44.717  29.164  30.999  1.00  0.00     0.037 A 
ATOM     56  C   UNL A   1      38.341  31.955  30.325  1.00  0.00     0.037 A 
ATOM     57  C   UNL A   1      44.564  30.490  31.549  1.00  0.00     0.049 A 
ATOM     58  C   UNL A   1      39.439  32.676  31.049  1.00  0.00     0.074 A 
ATOM     59  C   UNL A   1      45.516  31.281  32.172  1.00  0.00     0.029 A 
ATOM     60  N   UNL A   1      43.382  31.217  31.557  1.00  0.00    -0.354 N 
ATOM     61  N   UNL A   1      40.682  32.307  31.241  1.00  0.00    -0.248 NA
ATOM     62  C   UNL A   1      39.104  33.986  31.621  1.00  0.00     0.031 C 
ATOM     63  C   UNL A   1      44.899  32.462  32.597  1.00  0.00     0.029 A 
ATOM     64  C   UNL A   1      43.575  32.434  32.194  1.00  0.00     0.049 A 
ATOM     65  H   UNL A   1      42.530  30.913  31.167  1.00  0.00     0.167 HD
ATOM     66  C   UNL A   1      41.283  33.346  31.935  1.00  0.00     0.074 A 
ATOM     67  C   UNL A   1      40.273  34.368  32.117  1.00  0.00     0.031 C 
ATOM     68  C   UNL A   1      42.561  33.442  32.377  1.00  0.00     0.037 A 
BRANCH  55  69
ATOM     69  C   UNL A   1      46.066  28.518  31.112  1.00  0.00     0.064 A 
ATOM     70  C   UNL A   1      47.132  28.911  30.290  1.00  0.00     0.173 A 
ATOM     71  C   UNL A   1      46.325  27.569  32.113  1.00  0.00     0.173 A 
ATOM     72  F   UNL A   1      46.936  29.813  29.315  1.00  0.00    -0.203 F 
ATOM     73  C   UNL A   1      48.406  28.375  30.462  1.00  0.00     0.198 A 
ATOM     74  C   UNL A   1      47.605  27.052  32.298  1.00  0.00     0.198 A 
ATOM     75  F   UNL A   1      45.343  27.167  32.933  1.00  0.00    -0.203 F 
ATOM     76  F   UNL A   1      49.406  28.754  29.652  1.00  0.00    -0.200 F 
ATOM     77  C   UNL A   1      48.644  27.454  31.471  1.00  0.00     0.200 A 
ATOM     78  F   UNL A   1      47.837  26.175  33.283  1.00  0.00    -0.200 F 
ATOM     79  F   UNL A   1      49.875  26.955  31.648  1.00  0.00    -0.200 F 
ENDBRANCH  55  69
BRANCH  56  80
ATOM     80  C   UNL A   1      36.996  32.558  30.161  1.00  0.00     0.064 A 
ATOM     81  C   UNL A   1      36.029  32.434  31.166  1.00  0.00     0.173 A 
ATOM     82  C   UNL A   1      36.667  33.303  29.019  1.00  0.00     0.173 A 
ATOM     83  F   UNL A   1      36.297  31.718  32.267  1.00  0.00    -0.203 F 
ATOM     84  C   UNL A   1      34.778  33.030  31.034  1.00  0.00     0.198 A 
ATOM     85  C   UNL A   1      35.424  33.919  28.899  1.00  0.00     0.198 A 
ATOM     86  F   UNL A   1      37.564  33.456  28.034  1.00  0.00    -0.203 F 
ATOM     87  F   UNL A   1      33.860  32.876  31.998  1.00  0.00    -0.200 F 
ATOM     88  C   UNL A   1      34.479  33.778  29.904  1.00  0.00     0.200 A 
ATOM     89  F   UNL A   1      35.145  34.655  27.815  1.00  0.00    -0.200 F 
ATOM     90  F   UNL A   1      33.280  34.363  29.786  1.00  0.00    -0.200 F 
ENDBRANCH  56  80
BRANCH  68  91
ATOM     91  C   UNL A   1      42.946  34.707  33.089  1.00  0.00     0.064 A 
ATOM     92  C   UNL A   1      43.389  35.838  32.389  1.00  0.00     0.173 A 
ATOM     93  C   UNL A   1      42.838  34.798  34.485  1.00  0.00     0.173 A 
ATOM     94  F   UNL A   1      43.526  35.797  31.056  1.00  0.00    -0.203 F 
ATOM     95  C   UNL A   1      43.732  37.008  33.063  1.00  0.00     0.198 A 
ATOM     96  C   UNL A   1      43.154  35.978  35.153  1.00  0.00     0.198 A 
ATOM     97  F   UNL A   1      42.415  33.747  35.202  1.00  0.00    -0.203 F 
ATOM     98  F   UNL A   1      44.198  38.061  32.378  1.00  0.00    -0.200 F 
ATOM     99  C   UNL A   1      43.608  37.079  34.442  1.00  0.00     0.200 A 
ATOM    100  F   UNL A   1      43.022  36.050  36.485  1.00  0.00    -0.200 F 
ATOM    101  F   UNL A   1      43.933  38.207  35.089  1.00  0.00    -0.200 F 
ENDBRANCH  68  91
ENDBRANCH  42  43
ENDBRANCH  35  37
ENDBRANCH  34  35
ENDBRANCH  33  34
ENDBRANCH  32  33
ENDBRANCH  31  32
ENDBRANCH  30  31
ENDBRANCH   1  30
TORSDOF 22
ENDMDL
MODEL 3
REMARK VINA RESULT:     -10.3      7.683     11.123
REMARK SMILES CC(C)(C)c1cc2c(cc1Cl)C=C(C(=O)OCCOCCOCCOCCOC(=O)c1ccc(-c3c4nc(c(-c5c(F)c(F)c(F)c(F)c5F)c5ccc([nH]5)c(-c5c(F)c(F)c(F)c(F)c5F)c5nc(c(-c6c(F)c(F)c(F)c(F)c6F)c6ccc3[nH]6)C=C5)C=C4)cc1)[C@@H](C(F)(F)F)O2
REMARK SMILES IDX 23 1 22 2 21 3 20 4 19 5 18 6 17 7 16 8 14 9 15 10 13 11
REMARK SMILES IDX 5 12 6 13 10 14 7 15 9 16 11 17 8 18 99 19 12 20 94 21 2 22
REMARK SMILES IDX 1 23 3 24 4 25 95 26 96 27 97 28 98 29 24 30 25 31 26 32
REMARK SMILES IDX 27 33 28 34 29 35 30 36 31 37 32 38 93 39 33 40 92 41 34 42
REMARK SMILES IDX 35 43 36 44 86 45 37 46 91 47 85 48 87 49 38 50 90 51 84 52
REMARK SMILES IDX 83 53 39 55 71 56 51 57 70 58 52 59 55 60 69 61 88 62 53 63
REMARK SMILES IDX 54 64 68 66 89 67 56 68 40 69 41 70 49 71 42 72 43 73 47 74
REMARK SMILES IDX 50 75 44 76 45 77 48 78 46 79 72 80 73 81 81 82 74 83 75 84
REMARK SMILES IDX 79 85 82 86 76 87 77 88 80 89 78 90 57 91 58 92 66 93 59 94
REMARK SMILES IDX 60 95 64 96 67 97 61 98 62 99 65 100 63 101
REMARK H PARENT 87 54 55 65
REMARK Flexibility Score: inf
ROOT
ATOM      1  C   UNL A   1      42.653  18.768  26.378  1.00  0.00     0.188 C 
ENDROOT
BRANCH   1   2
ATOM      2  O   UNL A   1      41.525  19.126  25.580  1.00  0.00    -0.377 OA
BRANCH   2   3
ATOM      3  C   UNL A   1      40.563  20.001  26.143  1.00  0.00     0.188 C 
BRANCH   3   4
ATOM      4  C   UNL A   1      40.991  20.598  27.495  1.00  0.00     0.188 C 
BRANCH   4   5
ATOM      5  O   UNL A   1      40.478  21.911  27.723  1.00  0.00    -0.376 OA
BRANCH   5   6
ATOM      6  C   UNL A   1      40.097  22.651  26.567  1.00  0.00     0.202 C 
BRANCH   6   7
ATOM      7  C   UNL A   1      40.618  24.094  26.512  1.00  0.00     0.261 C 
BRANCH   7   8
ATOM      8  O   UNL A   1      40.166  24.927  27.592  1.00  0.00    -0.460 OA
BRANCH   8   9
ATOM      9  C   UNL A   1      41.113  25.487  28.370  1.00  0.00     0.338 C 
ATOM     10  O   UNL A   1      42.189  25.004  28.673  1.00  0.00    -0.246 OA
BRANCH   9  11
ATOM     11  C   UNL A   1      40.698  26.872  28.670  1.00  0.00     0.087 C 
ATOM     12  C   UNL A   1      38.232  31.036  30.174  1.00  0.00    -0.020 A 
ATOM     13  C   UNL A   1      39.418  30.754  29.443  1.00  0.00     0.053 A 
ATOM     14  C   UNL A   1      37.624  29.928  30.799  1.00  0.00     0.045 A 
ATOM     15  C   UNL A   1      39.896  29.457  29.238  1.00  0.00     0.128 A 
ATOM     16  C   UNL A   1      38.106  28.621  30.585  1.00  0.00     0.032 A 
ATOM     17  Cl  UNL A   1      36.280  30.001  31.881  1.00  0.00    -0.084 Cl
ATOM     18  C   UNL A   1      39.210  28.379  29.771  1.00  0.00     0.019 A 
ATOM     19  O   UNL A   1      41.024  29.344  28.479  1.00  0.00    -0.475 OA
ATOM     20  C   UNL A   1      39.620  27.025  29.450  1.00  0.00     0.027 C 
ATOM     21  C   UNL A   1      41.534  28.018  28.159  1.00  0.00     0.316 C 
BRANCH  12  22
ATOM     22  C   UNL A   1      37.737  32.505  30.158  1.00  0.00    -0.012 C 
ATOM     23  C   UNL A   1      37.402  33.162  31.513  1.00  0.00     0.016 C 
ATOM     24  C   UNL A   1      36.417  32.584  29.340  1.00  0.00     0.016 C 
ATOM     25  C   UNL A   1      38.799  33.399  29.481  1.00  0.00     0.016 C 
ENDBRANCH  12  22
BRANCH  21  26
ATOM     26  C   UNL A   1      41.752  27.949  26.640  1.00  0.00     0.430 C 
ATOM     27  F   UNL A   1      40.648  27.485  26.006  1.00  0.00    -0.167 F 
ATOM     28  F   UNL A   1      42.019  29.165  26.108  1.00  0.00    -0.167 F 
ATOM     29  F   UNL A   1      42.780  27.134  26.316  1.00  0.00    -0.167 F 
ENDBRANCH  21  26
ENDBRANCH   9  11
ENDBRANCH   8   9
ENDBRANCH   7   8
ENDBRANCH   6   7
ENDBRANCH   5   6
ENDBRANCH   4   5
ENDBRANCH   3   4
ENDBRANCH   2   3
ENDBRANCH   1   2
BRANCH   1  30
ATOM     30  C   UNL A   1      44.040  18.472  25.764  1.00  0.00     0.188 C 
BRANCH  30  31
ATOM     31  O   UNL A   1      44.379  19.314  24.665  1.00  0.00    -0.376 OA
BRANCH  31  32
ATOM     32  C   UNL A   1      45.741  19.712  24.571  1.00  0.00     0.202 C 
BRANCH  32  33
ATOM     33  C   UNL A   1      45.927  21.232  24.623  1.00  0.00     0.261 C 
BRANCH  33  34
ATOM     34  O   UNL A   1      45.999  21.784  25.947  1.00  0.00    -0.460 OA
BRANCH  34  35
ATOM     35  C   UNL A   1      45.007  22.618  26.330  1.00  0.00     0.338 C 
ATOM     36  O   UNL A   1      43.906  22.316  26.754  1.00  0.00    -0.246 OA
BRANCH  35  37
ATOM     37  C   UNL A   1      45.564  23.985  26.337  1.00  0.00     0.060 A 
ATOM     38  C   UNL A   1      46.094  24.527  27.512  1.00  0.00     0.016 A 
ATOM     39  C   UNL A   1      45.514  24.745  25.162  1.00  0.00     0.016 A 
ATOM     40  C   UNL A   1      46.610  25.823  27.501  1.00  0.00     0.010 A 
ATOM     41  C   UNL A   1      46.018  26.046  25.156  1.00  0.00     0.010 A 
ATOM     42  C   UNL A   1      46.593  26.583  26.319  1.00  0.00    -0.014 A 
BRANCH  42  43
ATOM     43  C   UNL A   1      47.358  27.848  26.249  1.00  0.00     0.031 A 
ATOM     44  C   UNL A   1      46.717  29.183  26.454  1.00  0.00     0.074 A 
ATOM     45  C   UNL A   1      48.674  27.759  25.981  1.00  0.00     0.049 A 
ATOM     46  N   UNL A   1      47.276  30.367  26.465  1.00  0.00    -0.248 NA
ATOM     47  C   UNL A   1      45.264  29.199  26.673  1.00  0.00     0.031 C 
ATOM     48  C   UNL A   1      49.396  26.506  25.753  1.00  0.00     0.029 A 
ATOM     49  N   UNL A   1      49.634  28.728  25.856  1.00  0.00    -0.354 N 
ATOM     50  C   UNL A   1      46.254  31.269  26.716  1.00  0.00     0.074 A 
ATOM     51  C   UNL A   1      45.029  30.499  26.809  1.00  0.00     0.031 C 
ATOM     52  C   UNL A   1      50.688  26.782  25.525  1.00  0.00     0.029 A 
ATOM     53  C   UNL A   1      50.880  28.228  25.571  1.00  0.00     0.049 A 
ATOM     54  H   UNL A   1      49.449  29.689  25.961  1.00  0.00     0.167 HD
ATOM     55  C   UNL A   1      46.341  32.614  26.867  1.00  0.00     0.037 A 
ATOM     56  C   UNL A   1      52.049  28.862  25.372  1.00  0.00     0.037 A 
ATOM     57  C   UNL A   1      47.563  33.373  26.748  1.00  0.00     0.049 A 
ATOM     58  C   UNL A   1      52.103  30.356  25.494  1.00  0.00     0.074 A 
ATOM     59  C   UNL A   1      47.750  34.737  26.909  1.00  0.00     0.029 A 
ATOM     60  N   UNL A   1      48.802  32.840  26.425  1.00  0.00    -0.354 N 
ATOM     61  N   UNL A   1      51.141  31.196  25.789  1.00  0.00    -0.248 NA
ATOM     62  C   UNL A   1      53.408  30.991  25.268  1.00  0.00     0.031 C 
ATOM     63  C   UNL A   1      49.090  35.033  26.638  1.00  0.00     0.029 A 
ATOM     64  C   UNL A   1      49.752  33.850  26.359  1.00  0.00     0.049 A 
ATOM     65  H   UNL A   1      48.982  31.885  26.266  1.00  0.00     0.167 HD
ATOM     66  C   UNL A   1      51.726  32.453  25.807  1.00  0.00     0.074 A 
ATOM     67  C   UNL A   1      53.131  32.266  25.508  1.00  0.00     0.031 C 
ATOM     68  C   UNL A   1      51.147  33.654  26.054  1.00  0.00     0.037 A 
BRANCH  55  69
ATOM     69  C   UNL A   1      45.084  33.368  27.191  1.00  0.00     0.064 A 
ATOM     70  C   UNL A   1      44.657  33.533  28.517  1.00  0.00     0.173 A 
ATOM     71  C   UNL A   1      44.355  34.013  26.181  1.00  0.00     0.173 A 
ATOM     72  F   UNL A   1      45.318  32.934  29.519  1.00  0.00    -0.203 F 
ATOM     73  C   UNL A   1      43.542  34.312  28.818  1.00  0.00     0.198 A 
ATOM     74  C   UNL A   1      43.255  34.810  26.488  1.00  0.00     0.198 A 
ATOM     75  F   UNL A   1      44.727  33.896  24.898  1.00  0.00    -0.203 F 
ATOM     76  F   UNL A   1      43.143  34.442  30.092  1.00  0.00    -0.200 F 
ATOM     77  C   UNL A   1      42.849  34.958  27.806  1.00  0.00     0.200 A 
ATOM     78  F   UNL A   1      42.595  35.446  25.511  1.00  0.00    -0.200 F 
ATOM     79  F   UNL A   1      41.789  35.724  28.101  1.00  0.00    -0.200 F 
ENDBRANCH  55  69
BRANCH  56  80
ATOM     80  C   UNL A   1      53.265  28.066  25.079  1.00  0.00     0.064 A 
ATOM     81  C   UNL A   1      53.692  27.870  23.759  1.00  0.00     0.173 A 
ATOM     82  C   UNL A   1      54.045  27.523  26.110  1.00  0.00     0.173 A 
ATOM     83  F   UNL A   1      52.967  28.359  22.743  1.00  0.00    -0.203 F 
ATOM     84  C   UNL A   1      54.853  27.154  23.481  1.00  0.00     0.198 A 
ATOM     85  C   UNL A   1      55.219  26.828  25.831  1.00  0.00     0.198 A 
ATOM     86  F   UNL A   1      53.680  27.692  27.389  1.00  0.00    -0.203 F 
ATOM     87  F   UNL A   1      55.226  26.958  22.208  1.00  0.00    -0.200 F 
ATOM     88  C   UNL A   1      55.620  26.641  24.517  1.00  0.00     0.200 A 
ATOM     89  F   UNL A   1      55.966  26.349  26.834  1.00  0.00    -0.200 F 
ATOM     90  F   UNL A   1      56.745  25.965  24.247  1.00  0.00    -0.200 F 
ENDBRANCH  56  80
BRANCH  68  91
ATOM     91  C   UNL A   1      52.038  34.862  26.027  1.00  0.00     0.064 A 
ATOM     92  C   UNL A   1      52.734  35.287  27.168  1.00  0.00     0.173 A 
ATOM     93  C   UNL A   1      52.224  35.583  24.837  1.00  0.00     0.173 A 
ATOM     94  F   UNL A   1      52.578  34.642  28.334  1.00  0.00    -0.203 F 
ATOM     95  C   UNL A   1      53.566  36.403  27.125  1.00  0.00     0.198 A 
ATOM     96  C   UNL A   1      53.079  36.681  24.791  1.00  0.00     0.198 A 
ATOM     97  F   UNL A   1      51.586  35.216  23.717  1.00  0.00    -0.203 F 
ATOM     98  F   UNL A   1      54.184  36.819  28.238  1.00  0.00    -0.200 F 
ATOM     99  C   UNL A   1      53.743  37.095  25.936  1.00  0.00     0.200 A 
ATOM    100  F   UNL A   1      53.258  37.341  23.638  1.00  0.00    -0.200 F 
ATOM    101  F   UNL A   1      54.548  38.165  25.894  1.00  0.00    -0.200 F 
ENDBRANCH  68  91
ENDBRANCH  42  43
ENDBRANCH  35  37
ENDBRANCH  34  35
ENDBRANCH  33  34
ENDBRANCH  32  33
ENDBRANCH  31  32
ENDBRANCH  30  31
ENDBRANCH   1  30
TORSDOF 22
ENDMDL
