MODEL 1
REMARK VINA RESULT:     -10.0      0.000      0.000
REMARK SMILES N#C/C(=C\c1ccc(-c2cc(C(=O)OCCOCCOCCOCCOC(=O)c3ccc(-c4c5nc(c(-c6c(F)c(F)c(F)c(F)c6F)c6ccc([nH]6)c(-c6c(F)c(F)c(F)c(F)c6F)c6nc(c(-c7c(F)c(F)c(F)c(F)c7F)c7ccc4[nH]7)C=C6)C=C5)cc3)ccc2Cl)o1)C(=O)N1CCOCC1
REMARK SMILES IDX 19 1 18 2 17 3 16 4 15 5 14 6 12 7 13 8 11 9 9 10 10 11
REMARK SMILES IDX 94 12 93 13 95 14 92 15 8 16 5 17 6 18 96 19 7 20 4 21 3 22
REMARK SMILES IDX 2 23 1 24 97 25 98 26 99 27 100 28 104 29 101 30 103 31
REMARK SMILES IDX 102 32 20 33 21 34 22 35 23 36 24 37 25 38 26 39 27 40 28 41
REMARK SMILES IDX 29 42 30 43 91 44 31 45 90 46 32 47 33 48 34 49 84 50 35 51
REMARK SMILES IDX 89 52 83 53 85 54 36 55 88 56 82 57 81 58 37 60 69 61 49 62
REMARK SMILES IDX 68 63 50 64 53 65 67 66 86 67 51 68 52 69 66 71 87 72 54 73
REMARK SMILES IDX 38 74 39 75 47 76 40 77 41 78 45 79 48 80 42 81 43 82 46 83
REMARK SMILES IDX 44 84 70 85 71 86 79 87 72 88 73 89 77 90 80 91 74 92 75 93
REMARK SMILES IDX 78 94 76 95 55 96 56 97 64 98 57 99 58 100 62 101 65 102
REMARK SMILES IDX 59 103 60 104 63 105 61 106
REMARK H PARENT 85 59 53 70
REMARK Flexibility Score: inf
ROOT
ATOM      1  C   UNL A   1      34.893  31.331  27.861  1.00  0.00     0.188 C 
ENDROOT
BRANCH   1   2
ATOM      2  C   UNL A   1      33.649  30.621  27.287  1.00  0.00     0.188 C 
BRANCH   2   3
ATOM      3  O   UNL A   1      33.969  29.518  26.456  1.00  0.00    -0.376 OA
BRANCH   3   4
ATOM      4  C   UNL A   1      33.143  29.217  25.349  1.00  0.00     0.202 C 
BRANCH   4   5
ATOM      5  C   UNL A   1      31.931  28.289  25.525  1.00  0.00     0.261 C 
BRANCH   5   6
ATOM      6  O   UNL A   1      32.184  26.883  25.435  1.00  0.00    -0.460 OA
BRANCH   6   7
ATOM      7  C   UNL A   1      31.447  26.055  26.209  1.00  0.00     0.338 C 
ATOM      8  O   UNL A   1      30.451  26.347  26.842  1.00  0.00    -0.246 OA
BRANCH   7   9
ATOM      9  C   UNL A   1      31.945  24.669  25.988  1.00  0.00     0.060 A 
ATOM     10  C   UNL A   1      33.821  23.162  25.554  1.00  0.00     0.037 A 
ATOM     11  C   UNL A   1      33.311  24.463  25.714  1.00  0.00     0.029 A 
ATOM     12  C   UNL A   1      32.934  22.074  25.683  1.00  0.00     0.052 A 
ATOM     13  C   UNL A   1      31.579  22.280  25.969  1.00  0.00     0.022 A 
ATOM     14  Cl  UNL A   1      33.450  20.435  25.471  1.00  0.00    -0.084 Cl
ATOM     15  C   UNL A   1      31.081  23.574  26.118  1.00  0.00     0.017 A 
BRANCH  10  16
ATOM     16  C   UNL A   1      35.188  22.971  25.079  1.00  0.00     0.136 A 
ATOM     17  C   UNL A   1      37.306  22.239  25.175  1.00  0.00     0.129 A 
ATOM     18  C   UNL A   1      37.092  22.842  23.935  1.00  0.00     0.051 A 
ATOM     19  O   UNL A   1      36.092  22.301  25.862  1.00  0.00    -0.457 OA
ATOM     20  C   UNL A   1      35.776  23.340  23.894  1.00  0.00     0.051 A 
BRANCH  17  21
ATOM     21  C   UNL A   1      38.512  21.633  25.696  1.00  0.00     0.072 C 
ATOM     22  C   UNL A   1      39.520  22.334  26.293  1.00  0.00     0.121 C 
BRANCH  22  23
ATOM     23  C   UNL A   1      39.080  23.720  26.734  1.00  0.00     0.105 C 
ATOM     24  N   UNL A   1      38.716  24.871  27.100  1.00  0.00    -0.192 NA
ENDBRANCH  22  23
BRANCH  22  25
ATOM     25  C   UNL A   1      40.686  21.668  26.923  1.00  0.00     0.264 C 
ATOM     26  O   UNL A   1      40.484  20.720  27.680  1.00  0.00    -0.268 OA
ATOM     27  N   UNL A   1      41.968  22.075  26.588  1.00  0.00    -0.333 N 
ATOM     28  C   UNL A   1      42.412  23.368  26.042  1.00  0.00     0.148 C 
ATOM     29  C   UNL A   1      43.076  21.134  26.777  1.00  0.00     0.148 C 
ATOM     30  C   UNL A   1      43.222  23.155  24.753  1.00  0.00     0.181 C 
ATOM     31  C   UNL A   1      43.810  20.960  25.442  1.00  0.00     0.181 C 
ATOM     32  O   UNL A   1      44.297  22.225  24.959  1.00  0.00    -0.378 OA
ENDBRANCH  22  25
ENDBRANCH  17  21
ENDBRANCH  10  16
ENDBRANCH   7   9
ENDBRANCH   6   7
ENDBRANCH   5   6
ENDBRANCH   4   5
ENDBRANCH   3   4
ENDBRANCH   2   3
ENDBRANCH   1   2
BRANCH   1  33
ATOM     33  O   UNL A   1      35.016  32.728  27.636  1.00  0.00    -0.377 OA
BRANCH  33  34
ATOM     34  C   UNL A   1      34.001  33.613  28.108  1.00  0.00     0.188 C 
BRANCH  34  35
ATOM     35  C   UNL A   1      34.251  34.650  29.233  1.00  0.00     0.188 C 
BRANCH  35  36
ATOM     36  O   UNL A   1      33.699  34.311  30.492  1.00  0.00    -0.376 OA
BRANCH  36  37
ATOM     37  C   UNL A   1      34.584  34.011  31.554  1.00  0.00     0.202 C 
BRANCH  37  38
ATOM     38  C   UNL A   1      34.903  32.529  31.789  1.00  0.00     0.261 C 
BRANCH  38  39
ATOM     39  O   UNL A   1      36.057  32.017  31.105  1.00  0.00    -0.460 OA
BRANCH  39  40
ATOM     40  C   UNL A   1      36.743  31.026  31.708  1.00  0.00     0.338 C 
ATOM     41  O   UNL A   1      36.293  30.134  32.410  1.00  0.00    -0.246 OA
BRANCH  40  42
ATOM     42  C   UNL A   1      38.138  31.093  31.228  1.00  0.00     0.060 A 
ATOM     43  C   UNL A   1      39.183  31.133  32.160  1.00  0.00     0.016 A 
ATOM     44  C   UNL A   1      38.407  31.104  29.858  1.00  0.00     0.016 A 
ATOM     45  C   UNL A   1      40.504  31.219  31.721  1.00  0.00     0.010 A 
ATOM     46  C   UNL A   1      39.729  31.211  29.421  1.00  0.00     0.010 A 
ATOM     47  C   UNL A   1      40.780  31.305  30.351  1.00  0.00    -0.014 A 
BRANCH  47  48
ATOM     48  C   UNL A   1      42.136  31.692  29.892  1.00  0.00     0.031 A 
ATOM     49  C   UNL A   1      42.455  33.158  29.781  1.00  0.00     0.074 A 
ATOM     50  C   UNL A   1      43.067  30.772  29.591  1.00  0.00     0.049 A 
ATOM     51  N   UNL A   1      43.539  33.745  29.341  1.00  0.00    -0.248 NA
ATOM     52  C   UNL A   1      41.402  34.088  30.221  1.00  0.00     0.031 C 
ATOM     53  C   UNL A   1      42.893  29.326  29.699  1.00  0.00     0.029 A 
ATOM     54  N   UNL A   1      44.347  30.924  29.118  1.00  0.00    -0.354 N 
ATOM     55  C   UNL A   1      43.294  35.108  29.445  1.00  0.00     0.074 A 
ATOM     56  C   UNL A   1      41.950  35.263  29.956  1.00  0.00     0.031 C 
ATOM     57  C   UNL A   1      44.021  28.721  29.291  1.00  0.00     0.029 A 
ATOM     58  C   UNL A   1      44.982  29.736  28.856  1.00  0.00     0.049 A 
ATOM     59  H   UNL A   1      44.770  31.803  28.980  1.00  0.00     0.167 HD
ATOM     60  C   UNL A   1      44.122  36.139  29.151  1.00  0.00     0.037 A 
ATOM     61  C   UNL A   1      46.187  29.499  28.304  1.00  0.00     0.037 A 
ATOM     62  C   UNL A   1      45.457  35.981  28.639  1.00  0.00     0.049 A 
ATOM     63  C   UNL A   1      47.059  30.664  27.904  1.00  0.00     0.074 A 
ATOM     64  C   UNL A   1      46.382  36.959  28.322  1.00  0.00     0.029 A 
ATOM     65  N   UNL A   1      46.054  34.760  28.357  1.00  0.00    -0.354 N 
ATOM     66  N   UNL A   1      46.835  31.951  28.028  1.00  0.00    -0.248 NA
ATOM     67  C   UNL A   1      48.355  30.343  27.288  1.00  0.00     0.031 C 
ATOM     68  C   UNL A   1      47.513  36.336  27.788  1.00  0.00     0.029 A 
ATOM     69  C   UNL A   1      47.323  34.964  27.840  1.00  0.00     0.049 A 
ATOM     70  H   UNL A   1      45.638  33.881  28.503  1.00  0.00     0.167 HD
ATOM     71  C   UNL A   1      47.970  32.588  27.543  1.00  0.00     0.074 A 
ATOM     72  C   UNL A   1      48.888  31.547  27.133  1.00  0.00     0.031 C 
ATOM     73  C   UNL A   1      48.232  33.916  27.446  1.00  0.00     0.037 A 
BRANCH  60  74
ATOM     74  C   UNL A   1      43.591  37.532  29.340  1.00  0.00     0.064 A 
ATOM     75  C   UNL A   1      42.836  38.178  28.349  1.00  0.00     0.173 A 
ATOM     76  C   UNL A   1      43.818  38.219  30.542  1.00  0.00     0.173 A 
ATOM     77  F   UNL A   1      42.603  37.573  27.174  1.00  0.00    -0.203 F 
ATOM     78  C   UNL A   1      42.355  39.471  28.544  1.00  0.00     0.198 A 
ATOM     79  C   UNL A   1      43.305  39.496  30.747  1.00  0.00     0.198 A 
ATOM     80  F   UNL A   1      44.531  37.647  31.524  1.00  0.00    -0.203 F 
ATOM     81  F   UNL A   1      41.683  40.088  27.563  1.00  0.00    -0.200 F 
ATOM     82  C   UNL A   1      42.582  40.125  29.744  1.00  0.00     0.200 A 
ATOM     83  F   UNL A   1      43.514  40.121  31.914  1.00  0.00    -0.200 F 
ATOM     84  F   UNL A   1      42.111  41.365  29.934  1.00  0.00    -0.200 F 
ENDBRANCH  60  74
BRANCH  61  85
ATOM     85  C   UNL A   1      46.644  28.100  28.076  1.00  0.00     0.064 A 
ATOM     86  C   UNL A   1      46.373  27.435  26.873  1.00  0.00     0.173 A 
ATOM     87  C   UNL A   1      47.335  27.391  29.070  1.00  0.00     0.173 A 
ATOM     88  F   UNL A   1      45.691  28.060  25.901  1.00  0.00    -0.203 F 
ATOM     89  C   UNL A   1      46.754  26.108  26.681  1.00  0.00     0.198 A 
ATOM     90  C   UNL A   1      47.745  26.075  28.864  1.00  0.00     0.198 A 
ATOM     91  F   UNL A   1      47.618  27.978  30.242  1.00  0.00    -0.203 F 
ATOM     92  F   UNL A   1      46.430  25.479  25.542  1.00  0.00    -0.200 F 
ATOM     93  C   UNL A   1      47.446  25.431  27.674  1.00  0.00     0.200 A 
ATOM     94  F   UNL A   1      48.425  25.429  29.821  1.00  0.00    -0.200 F 
ATOM     95  F   UNL A   1      47.812  24.156  27.488  1.00  0.00    -0.200 F 
ENDBRANCH  61  85
BRANCH  73  96
ATOM     96  C   UNL A   1      49.582  34.324  26.923  1.00  0.00     0.064 A 
ATOM     97  C   UNL A   1      49.761  34.787  25.611  1.00  0.00     0.173 A 
ATOM     98  C   UNL A   1      50.704  34.294  27.766  1.00  0.00     0.173 A 
ATOM     99  F   UNL A   1      48.724  34.825  24.761  1.00  0.00    -0.203 F 
ATOM    100  C   UNL A   1      51.018  35.174  25.154  1.00  0.00     0.198 A 
ATOM    101  C   UNL A   1      51.952  34.718  27.316  1.00  0.00     0.198 A 
ATOM    102  F   UNL A   1      50.588  33.871  29.034  1.00  0.00    -0.203 F 
ATOM    103  F   UNL A   1      51.175  35.560  23.880  1.00  0.00    -0.200 F 
ATOM    104  C   UNL A   1      52.111  35.149  26.009  1.00  0.00     0.200 A 
ATOM    105  F   UNL A   1      53.001  34.709  28.151  1.00  0.00    -0.200 F 
ATOM    106  F   UNL A   1      53.316  35.532  25.570  1.00  0.00    -0.200 F 
ENDBRANCH  73  96
ENDBRANCH  47  48
ENDBRANCH  40  42
ENDBRANCH  39  40
ENDBRANCH  38  39
ENDBRANCH  37  38
ENDBRANCH  36  37
ENDBRANCH  35  36
ENDBRANCH  34  35
ENDBRANCH  33  34
ENDBRANCH   1  33
TORSDOF 24
ENDMDL
MODEL 2
REMARK VINA RESULT:      -9.8      2.104      7.223
REMARK SMILES N#C/C(=C\c1ccc(-c2cc(C(=O)OCCOCCOCCOCCOC(=O)c3ccc(-c4c5nc(c(-c6c(F)c(F)c(F)c(F)c6F)c6ccc([nH]6)c(-c6c(F)c(F)c(F)c(F)c6F)c6nc(c(-c7c(F)c(F)c(F)c(F)c7F)c7ccc4[nH]7)C=C6)C=C5)cc3)ccc2Cl)o1)C(=O)N1CCOCC1
REMARK SMILES IDX 19 1 18 2 17 3 16 4 15 5 14 6 12 7 13 8 11 9 9 10 10 11
REMARK SMILES IDX 94 12 93 13 95 14 92 15 8 16 5 17 6 18 96 19 7 20 4 21 3 22
REMARK SMILES IDX 2 23 1 24 97 25 98 26 99 27 100 28 104 29 101 30 103 31
REMARK SMILES IDX 102 32 20 33 21 34 22 35 23 36 24 37 25 38 26 39 27 40 28 41
REMARK SMILES IDX 29 42 30 43 91 44 31 45 90 46 32 47 33 48 34 49 84 50 35 51
REMARK SMILES IDX 89 52 83 53 85 54 36 55 88 56 82 57 81 58 37 60 69 61 49 62
REMARK SMILES IDX 68 63 50 64 53 65 67 66 86 67 51 68 52 69 66 71 87 72 54 73
REMARK SMILES IDX 38 74 39 75 47 76 40 77 41 78 45 79 48 80 42 81 43 82 46 83
REMARK SMILES IDX 44 84 70 85 71 86 79 87 72 88 73 89 77 90 80 91 74 92 75 93
REMARK SMILES IDX 78 94 76 95 55 96 56 97 64 98 57 99 58 100 62 101 65 102
REMARK SMILES IDX 59 103 60 104 63 105 61 106
REMARK H PARENT 85 59 53 70
REMARK Flexibility Score: inf
ROOT
ATOM      1  C   UNL A   1      35.029  31.239  27.776  1.00  0.00     0.188 C 
ENDROOT
BRANCH   1   2
ATOM      2  C   UNL A   1      33.818  30.472  27.205  1.00  0.00     0.188 C 
BRANCH   2   3
ATOM      3  O   UNL A   1      34.163  29.210  26.661  1.00  0.00    -0.376 OA
BRANCH   3   4
ATOM      4  C   UNL A   1      33.637  28.826  25.406  1.00  0.00     0.202 C 
BRANCH   4   5
ATOM      5  C   UNL A   1      32.122  28.882  25.157  1.00  0.00     0.261 C 
BRANCH   5   6
ATOM      6  O   UNL A   1      31.428  27.629  25.155  1.00  0.00    -0.460 OA
BRANCH   6   7
ATOM      7  C   UNL A   1      31.381  26.928  26.309  1.00  0.00     0.338 C 
ATOM      8  O   UNL A   1      31.023  27.340  27.397  1.00  0.00    -0.246 OA
BRANCH   7   9
ATOM      9  C   UNL A   1      31.648  25.500  25.982  1.00  0.00     0.060 A 
ATOM     10  C   UNL A   1      33.231  23.773  25.280  1.00  0.00     0.037 A 
ATOM     11  C   UNL A   1      32.932  25.122  25.546  1.00  0.00     0.029 A 
ATOM     12  C   UNL A   1      32.215  22.814  25.468  1.00  0.00     0.052 A 
ATOM     13  C   UNL A   1      30.942  23.190  25.914  1.00  0.00     0.022 A 
ATOM     14  Cl  UNL A   1      32.465  21.132  25.136  1.00  0.00    -0.084 Cl
ATOM     15  C   UNL A   1      30.655  24.530  26.167  1.00  0.00     0.017 A 
BRANCH  10  16
ATOM     16  C   UNL A   1      34.497  23.421  24.645  1.00  0.00     0.136 A 
ATOM     17  C   UNL A   1      36.593  22.628  24.558  1.00  0.00     0.129 A 
ATOM     18  C   UNL A   1      36.181  22.959  23.267  1.00  0.00     0.051 A 
ATOM     19  O   UNL A   1      35.512  22.894  25.401  1.00  0.00    -0.457 OA
ATOM     20  C   UNL A   1      34.883  23.498  23.329  1.00  0.00     0.051 A 
BRANCH  17  21
ATOM     21  C   UNL A   1      37.863  22.093  24.999  1.00  0.00     0.072 C 
ATOM     22  C   UNL A   1      38.041  20.807  25.422  1.00  0.00     0.121 C 
BRANCH  22  23
ATOM     23  C   UNL A   1      36.907  19.892  24.992  1.00  0.00     0.105 C 
ATOM     24  N   UNL A   1      35.965  19.133  24.635  1.00  0.00    -0.192 NA
ENDBRANCH  22  23
BRANCH  22  25
ATOM     25  C   UNL A   1      39.378  20.258  25.754  1.00  0.00     0.264 C 
ATOM     26  O   UNL A   1      39.658  19.122  25.374  1.00  0.00    -0.268 OA
ATOM     27  N   UNL A   1      40.303  21.056  26.409  1.00  0.00    -0.333 N 
ATOM     28  C   UNL A   1      40.064  22.237  27.257  1.00  0.00     0.148 C 
ATOM     29  C   UNL A   1      41.726  20.737  26.278  1.00  0.00     0.148 C 
ATOM     30  C   UNL A   1      40.886  23.433  26.751  1.00  0.00     0.181 C 
ATOM     31  C   UNL A   1      42.464  21.971  25.746  1.00  0.00     0.181 C 
ATOM     32  O   UNL A   1      42.276  23.096  26.623  1.00  0.00    -0.378 OA
ENDBRANCH  22  25
ENDBRANCH  17  21
ENDBRANCH  10  16
ENDBRANCH   7   9
ENDBRANCH   6   7
ENDBRANCH   5   6
ENDBRANCH   4   5
ENDBRANCH   3   4
ENDBRANCH   2   3
ENDBRANCH   1   2
BRANCH   1  33
ATOM     33  O   UNL A   1      35.032  32.654  27.645  1.00  0.00    -0.377 OA
BRANCH  33  34
ATOM     34  C   UNL A   1      33.969  33.420  28.210  1.00  0.00     0.188 C 
BRANCH  34  35
ATOM     35  C   UNL A   1      34.178  34.402  29.390  1.00  0.00     0.188 C 
BRANCH  35  36
ATOM     36  O   UNL A   1      34.000  33.838  30.677  1.00  0.00    -0.376 OA
BRANCH  36  37
ATOM     37  C   UNL A   1      34.538  34.525  31.791  1.00  0.00     0.202 C 
BRANCH  37  38
ATOM     38  C   UNL A   1      35.811  33.939  32.415  1.00  0.00     0.261 C 
BRANCH  38  39
ATOM     39  O   UNL A   1      37.048  34.311  31.786  1.00  0.00    -0.460 OA
BRANCH  39  40
ATOM     40  C   UNL A   1      37.585  33.433  30.915  1.00  0.00     0.338 C 
ATOM     41  O   UNL A   1      37.064  32.427  30.459  1.00  0.00    -0.246 OA
BRANCH  40  42
ATOM     42  C   UNL A   1      38.871  33.994  30.454  1.00  0.00     0.060 A 
ATOM     43  C   UNL A   1      38.987  34.446  29.133  1.00  0.00     0.016 A 
ATOM     44  C   UNL A   1      39.952  34.080  31.332  1.00  0.00     0.016 A 
ATOM     45  C   UNL A   1      40.202  34.958  28.677  1.00  0.00     0.010 A 
ATOM     46  C   UNL A   1      41.174  34.573  30.868  1.00  0.00     0.010 A 
ATOM     47  C   UNL A   1      41.314  34.981  29.529  1.00  0.00    -0.014 A 
BRANCH  47  48
ATOM     48  C   UNL A   1      42.666  35.238  28.976  1.00  0.00     0.031 A 
ATOM     49  C   UNL A   1      43.577  34.063  28.756  1.00  0.00     0.074 A 
ATOM     50  C   UNL A   1      43.073  36.480  28.665  1.00  0.00     0.049 A 
ATOM     51  N   UNL A   1      44.821  34.036  28.350  1.00  0.00    -0.248 NA
ATOM     52  C   UNL A   1      43.007  32.735  29.038  1.00  0.00     0.031 C 
ATOM     53  C   UNL A   1      42.269  37.692  28.792  1.00  0.00     0.029 A 
ATOM     54  N   UNL A   1      44.282  36.925  28.187  1.00  0.00    -0.354 N 
ATOM     55  C   UNL A   1      45.182  32.695  28.337  1.00  0.00     0.074 A 
ATOM     56  C   UNL A   1      44.040  31.941  28.807  1.00  0.00     0.031 C 
ATOM     57  C   UNL A   1      43.010  38.747  28.414  1.00  0.00     0.029 A 
ATOM     58  C   UNL A   1      44.352  38.289  28.055  1.00  0.00     0.049 A 
ATOM     59  H   UNL A   1      45.026  36.322  27.960  1.00  0.00     0.167 HD
ATOM     60  C   UNL A   1      46.358  32.141  27.957  1.00  0.00     0.037 A 
ATOM     61  C   UNL A   1      45.391  39.075  27.712  1.00  0.00     0.037 A 
ATOM     62  C   UNL A   1      47.492  32.895  27.494  1.00  0.00     0.049 A 
ATOM     63  C   UNL A   1      46.718  38.440  27.375  1.00  0.00     0.074 A 
ATOM     64  C   UNL A   1      48.724  32.428  27.071  1.00  0.00     0.029 A 
ATOM     65  N   UNL A   1      47.537  34.278  27.405  1.00  0.00    -0.354 N 
ATOM     66  N   UNL A   1      47.048  37.171  27.339  1.00  0.00    -0.248 NA
ATOM     67  C   UNL A   1      47.820  39.350  27.027  1.00  0.00     0.031 C 
ATOM     68  C   UNL A   1      49.535  33.531  26.788  1.00  0.00     0.029 A 
ATOM     69  C   UNL A   1      48.786  34.684  26.963  1.00  0.00     0.049 A 
ATOM     70  H   UNL A   1      46.791  34.883  27.622  1.00  0.00     0.167 HD
ATOM     71  C   UNL A   1      48.376  37.129  26.931  1.00  0.00     0.074 A 
ATOM     72  C   UNL A   1      48.789  38.500  26.720  1.00  0.00     0.031 C 
ATOM     73  C   UNL A   1      49.180  36.053  26.746  1.00  0.00     0.037 A 
BRANCH  60  74
ATOM     74  C   UNL A   1      46.488  30.648  28.063  1.00  0.00     0.064 A 
ATOM     75  C   UNL A   1      46.787  30.014  29.279  1.00  0.00     0.173 A 
ATOM     76  C   UNL A   1      46.285  29.838  26.935  1.00  0.00     0.173 A 
ATOM     77  F   UNL A   1      47.006  30.742  30.385  1.00  0.00    -0.203 F 
ATOM     78  C   UNL A   1      46.905  28.628  29.355  1.00  0.00     0.198 A 
ATOM     79  C   UNL A   1      46.369  28.451  27.023  1.00  0.00     0.198 A 
ATOM     80  F   UNL A   1      45.995  30.391  25.748  1.00  0.00    -0.203 F 
ATOM     81  F   UNL A   1      47.243  28.050  30.515  1.00  0.00    -0.200 F 
ATOM     82  C   UNL A   1      46.687  27.848  28.230  1.00  0.00     0.200 A 
ATOM     83  F   UNL A   1      46.144  27.699  25.937  1.00  0.00    -0.200 F 
ATOM     84  F   UNL A   1      46.793  26.515  28.306  1.00  0.00    -0.200 F 
ENDBRANCH  60  74
BRANCH  61  85
ATOM     85  C   UNL A   1      45.233  40.555  27.684  1.00  0.00     0.064 A 
ATOM     86  C   UNL A   1      44.797  41.216  26.528  1.00  0.00     0.173 A 
ATOM     87  C   UNL A   1      45.543  41.341  28.804  1.00  0.00     0.173 A 
ATOM     88  F   UNL A   1      44.514  40.513  25.421  1.00  0.00    -0.203 F 
ATOM     89  C   UNL A   1      44.700  42.606  26.485  1.00  0.00     0.198 A 
ATOM     90  C   UNL A   1      45.414  42.728  28.771  1.00  0.00     0.198 A 
ATOM     91  F   UNL A   1      45.968  40.760  29.937  1.00  0.00    -0.203 F 
ATOM     92  F   UNL A   1      44.336  43.215  25.348  1.00  0.00    -0.200 F 
ATOM     93  C   UNL A   1      45.002  43.360  27.609  1.00  0.00     0.200 A 
ATOM     94  F   UNL A   1      45.694  43.451  29.864  1.00  0.00    -0.200 F 
ATOM     95  F   UNL A   1      44.908  44.696  27.567  1.00  0.00    -0.200 F 
ENDBRANCH  61  85
BRANCH  73  96
ATOM     96  C   UNL A   1      50.576  36.305  26.244  1.00  0.00     0.064 A 
ATOM     97  C   UNL A   1      50.856  36.466  24.879  1.00  0.00     0.173 A 
ATOM     98  C   UNL A   1      51.640  36.433  27.150  1.00  0.00     0.173 A 
ATOM     99  F   UNL A   1      49.878  36.343  23.969  1.00  0.00    -0.203 F 
ATOM    100  C   UNL A   1      52.154  36.714  24.439  1.00  0.00     0.198 A 
ATOM    101  C   UNL A   1      52.930  36.718  26.709  1.00  0.00     0.198 A 
ATOM    102  F   UNL A   1      51.428  36.299  28.468  1.00  0.00    -0.203 F 
ATOM    103  F   UNL A   1      52.407  36.809  23.126  1.00  0.00    -0.200 F 
ATOM    104  C   UNL A   1      53.188  36.849  25.354  1.00  0.00     0.200 A 
ATOM    105  F   UNL A   1      53.922  36.867  27.598  1.00  0.00    -0.200 F 
ATOM    106  F   UNL A   1      54.433  37.098  24.929  1.00  0.00    -0.200 F 
ENDBRANCH  73  96
ENDBRANCH  47  48
ENDBRANCH  40  42
ENDBRANCH  39  40
ENDBRANCH  38  39
ENDBRANCH  37  38
ENDBRANCH  36  37
ENDBRANCH  35  36
ENDBRANCH  34  35
ENDBRANCH  33  34
ENDBRANCH   1  33
TORSDOF 24
ENDMDL
MODEL 3
REMARK VINA RESULT:      -9.3      6.143      9.268
REMARK SMILES N#C/C(=C\c1ccc(-c2cc(C(=O)OCCOCCOCCOCCOC(=O)c3ccc(-c4c5nc(c(-c6c(F)c(F)c(F)c(F)c6F)c6ccc([nH]6)c(-c6c(F)c(F)c(F)c(F)c6F)c6nc(c(-c7c(F)c(F)c(F)c(F)c7F)c7ccc4[nH]7)C=C6)C=C5)cc3)ccc2Cl)o1)C(=O)N1CCOCC1
REMARK SMILES IDX 19 1 18 2 17 3 16 4 15 5 14 6 12 7 13 8 11 9 9 10 10 11
REMARK SMILES IDX 94 12 93 13 95 14 92 15 8 16 5 17 6 18 96 19 7 20 4 21 3 22
REMARK SMILES IDX 2 23 1 24 97 25 98 26 99 27 100 28 104 29 101 30 103 31
REMARK SMILES IDX 102 32 20 33 21 34 22 35 23 36 24 37 25 38 26 39 27 40 28 41
REMARK SMILES IDX 29 42 30 43 91 44 31 45 90 46 32 47 33 48 34 49 84 50 35 51
REMARK SMILES IDX 89 52 83 53 85 54 36 55 88 56 82 57 81 58 37 60 69 61 49 62
REMARK SMILES IDX 68 63 50 64 53 65 67 66 86 67 51 68 52 69 66 71 87 72 54 73
REMARK SMILES IDX 38 74 39 75 47 76 40 77 41 78 45 79 48 80 42 81 43 82 46 83
REMARK SMILES IDX 44 84 70 85 71 86 79 87 72 88 73 89 77 90 80 91 74 92 75 93
REMARK SMILES IDX 78 94 76 95 55 96 56 97 64 98 57 99 58 100 62 101 65 102
REMARK SMILES IDX 59 103 60 104 63 105 61 106
REMARK H PARENT 85 59 53 70
REMARK Flexibility Score: inf
ROOT
ATOM      1  C   UNL A   1      33.988  30.885  27.922  1.00  0.00     0.188 C 
ENDROOT
BRANCH   1   2
ATOM      2  C   UNL A   1      33.326  30.060  26.799  1.00  0.00     0.188 C 
BRANCH   2   3
ATOM      3  O   UNL A   1      32.255  29.253  27.257  1.00  0.00    -0.376 OA
BRANCH   3   4
ATOM      4  C   UNL A   1      32.076  27.959  26.715  1.00  0.00     0.202 C 
BRANCH   4   5
ATOM      5  C   UNL A   1      31.684  27.792  25.239  1.00  0.00     0.261 C 
BRANCH   5   6
ATOM      6  O   UNL A   1      31.309  26.474  24.822  1.00  0.00    -0.460 OA
BRANCH   6   7
ATOM      7  C   UNL A   1      30.767  25.648  25.744  1.00  0.00     0.338 C 
ATOM      8  O   UNL A   1      29.811  25.882  26.459  1.00  0.00    -0.246 OA
BRANCH   7   9
ATOM      9  C   UNL A   1      31.413  24.315  25.591  1.00  0.00     0.060 A 
ATOM     10  C   UNL A   1      33.434  23.003  25.173  1.00  0.00     0.037 A 
ATOM     11  C   UNL A   1      32.783  24.247  25.271  1.00  0.00     0.029 A 
ATOM     12  C   UNL A   1      32.684  21.833  25.409  1.00  0.00     0.052 A 
ATOM     13  C   UNL A   1      31.325  21.904  25.740  1.00  0.00     0.022 A 
ATOM     14  Cl  UNL A   1      33.378  20.252  25.279  1.00  0.00    -0.084 Cl
ATOM     15  C   UNL A   1      30.687  23.141  25.827  1.00  0.00     0.017 A 
BRANCH  10  16
ATOM     16  C   UNL A   1      34.797  22.936  24.652  1.00  0.00     0.136 A 
ATOM     17  C   UNL A   1      36.990  22.470  24.708  1.00  0.00     0.129 A 
ATOM     18  C   UNL A   1      36.659  22.937  23.436  1.00  0.00     0.051 A 
ATOM     19  O   UNL A   1      35.803  22.446  25.443  1.00  0.00    -0.457 OA
ATOM     20  C   UNL A   1      35.292  23.271  23.416  1.00  0.00     0.051 A 
BRANCH  17  21
ATOM     21  C   UNL A   1      38.278  22.057  25.220  1.00  0.00     0.072 C 
ATOM     22  C   UNL A   1      38.568  20.784  25.615  1.00  0.00     0.121 C 
BRANCH  22  23
ATOM     23  C   UNL A   1      37.571  19.769  25.080  1.00  0.00     0.105 C 
ATOM     24  N   UNL A   1      36.743  18.928  24.635  1.00  0.00    -0.192 NA
ENDBRANCH  22  23
BRANCH  22  25
ATOM     25  C   UNL A   1      39.932  20.368  26.022  1.00  0.00     0.264 C 
ATOM     26  O   UNL A   1      40.307  19.229  25.747  1.00  0.00    -0.268 OA
ATOM     27  N   UNL A   1      40.775  21.286  26.628  1.00  0.00    -0.333 N 
ATOM     28  C   UNL A   1      40.424  22.511  27.367  1.00  0.00     0.148 C 
ATOM     29  C   UNL A   1      42.222  21.067  26.557  1.00  0.00     0.148 C 
ATOM     30  C   UNL A   1      41.169  23.721  26.781  1.00  0.00     0.181 C 
ATOM     31  C   UNL A   1      42.880  22.307  25.938  1.00  0.00     0.181 C 
ATOM     32  O   UNL A   1      42.584  23.483  26.713  1.00  0.00    -0.378 OA
ENDBRANCH  22  25
ENDBRANCH  17  21
ENDBRANCH  10  16
ENDBRANCH   7   9
ENDBRANCH   6   7
ENDBRANCH   5   6
ENDBRANCH   4   5
ENDBRANCH   3   4
ENDBRANCH   2   3
ENDBRANCH   1   2
BRANCH   1  33
ATOM     33  O   UNL A   1      34.537  32.148  27.574  1.00  0.00    -0.377 OA
BRANCH  33  34
ATOM     34  C   UNL A   1      33.717  33.315  27.627  1.00  0.00     0.188 C 
BRANCH  34  35
ATOM     35  C   UNL A   1      34.188  34.643  28.273  1.00  0.00     0.188 C 
BRANCH  35  36
ATOM     36  O   UNL A   1      33.153  35.558  28.583  1.00  0.00    -0.376 OA
BRANCH  36  37
ATOM     37  C   UNL A   1      33.497  36.760  29.246  1.00  0.00     0.202 C 
BRANCH  37  38
ATOM     38  C   UNL A   1      32.878  36.986  30.631  1.00  0.00     0.261 C 
BRANCH  38  39
ATOM     39  O   UNL A   1      33.652  36.524  31.749  1.00  0.00    -0.460 OA
BRANCH  39  40
ATOM     40  C   UNL A   1      33.257  35.379  32.342  1.00  0.00     0.338 C 
ATOM     41  O   UNL A   1      32.155  34.857  32.284  1.00  0.00    -0.246 OA
BRANCH  40  42
ATOM     42  C   UNL A   1      34.451  34.754  32.944  1.00  0.00     0.060 A 
ATOM     43  C   UNL A   1      35.590  35.536  33.178  1.00  0.00     0.016 A 
ATOM     44  C   UNL A   1      34.437  33.400  33.284  1.00  0.00     0.016 A 
ATOM     45  C   UNL A   1      36.733  34.955  33.726  1.00  0.00     0.010 A 
ATOM     46  C   UNL A   1      35.590  32.815  33.812  1.00  0.00     0.010 A 
ATOM     47  C   UNL A   1      36.754  33.581  34.003  1.00  0.00    -0.014 A 
BRANCH  47  48
ATOM     48  C   UNL A   1      38.040  32.905  34.299  1.00  0.00     0.031 A 
ATOM     49  C   UNL A   1      38.530  31.860  33.334  1.00  0.00     0.074 A 
ATOM     50  C   UNL A   1      38.763  33.215  35.387  1.00  0.00     0.049 A 
ATOM     51  N   UNL A   1      39.583  31.086  33.406  1.00  0.00    -0.248 NA
ATOM     52  C   UNL A   1      37.716  31.659  32.124  1.00  0.00     0.031 C 
ATOM     53  C   UNL A   1      38.416  34.236  36.371  1.00  0.00     0.029 A 
ATOM     54  N   UNL A   1      39.941  32.684  35.852  1.00  0.00    -0.354 N 
ATOM     55  C   UNL A   1      39.551  30.303  32.259  1.00  0.00     0.074 A 
ATOM     56  C   UNL A   1      38.360  30.670  31.525  1.00  0.00     0.031 C 
ATOM     57  C   UNL A   1      39.355  34.250  37.333  1.00  0.00     0.029 A 
ATOM     58  C   UNL A   1      40.347  33.212  37.052  1.00  0.00     0.049 A 
ATOM     59  H   UNL A   1      40.446  31.989  35.370  1.00  0.00     0.167 HD
ATOM     60  C   UNL A   1      40.442  29.370  31.851  1.00  0.00     0.037 A 
ATOM     61  C   UNL A   1      41.384  32.874  37.843  1.00  0.00     0.037 A 
ATOM     62  C   UNL A   1      41.624  29.005  32.586  1.00  0.00     0.049 A 
ATOM     63  C   UNL A   1      42.316  31.770  37.407  1.00  0.00     0.074 A 
ATOM     64  C   UNL A   1      42.598  28.082  32.252  1.00  0.00     0.029 A 
ATOM     65  N   UNL A   1      41.985  29.540  33.814  1.00  0.00    -0.354 N 
ATOM     66  N   UNL A   1      42.298  31.051  36.310  1.00  0.00    -0.248 NA
ATOM     67  C   UNL A   1      43.418  31.433  38.321  1.00  0.00     0.031 C 
ATOM     68  C   UNL A   1      43.513  28.011  33.306  1.00  0.00     0.029 A 
ATOM     69  C   UNL A   1      43.151  28.943  34.265  1.00  0.00     0.049 A 
ATOM     70  H   UNL A   1      41.486  30.240  34.294  1.00  0.00     0.167 HD
ATOM     71  C   UNL A   1      43.399  30.206  36.385  1.00  0.00     0.074 A 
ATOM     72  C   UNL A   1      44.072  30.511  37.629  1.00  0.00     0.031 C 
ATOM     73  C   UNL A   1      43.817  29.265  35.503  1.00  0.00     0.037 A 
BRANCH  60  74
ATOM     74  C   UNL A   1      40.151  28.649  30.564  1.00  0.00     0.064 A 
ATOM     75  C   UNL A   1      39.436  27.442  30.536  1.00  0.00     0.173 A 
ATOM     76  C   UNL A   1      40.574  29.188  29.340  1.00  0.00     0.173 A 
ATOM     77  F   UNL A   1      39.023  26.874  31.680  1.00  0.00    -0.203 F 
ATOM     78  C   UNL A   1      39.178  26.789  29.333  1.00  0.00     0.198 A 
ATOM     79  C   UNL A   1      40.284  28.551  28.137  1.00  0.00     0.198 A 
ATOM     80  F   UNL A   1      41.260  30.340  29.309  1.00  0.00    -0.203 F 
ATOM     81  F   UNL A   1      38.540  25.611  29.336  1.00  0.00    -0.200 F 
ATOM     82  C   UNL A   1      39.595  27.348  28.135  1.00  0.00     0.200 A 
ATOM     83  F   UNL A   1      40.676  29.101  26.979  1.00  0.00    -0.200 F 
ATOM     84  F   UNL A   1      39.340  26.723  26.977  1.00  0.00    -0.200 F 
ENDBRANCH  60  74
BRANCH  61  85
ATOM     85  C   UNL A   1      41.594  33.572  39.141  1.00  0.00     0.064 A 
ATOM     86  C   UNL A   1      40.967  33.130  40.314  1.00  0.00     0.173 A 
ATOM     87  C   UNL A   1      42.403  34.716  39.228  1.00  0.00     0.173 A 
ATOM     88  F   UNL A   1      40.161  32.058  40.278  1.00  0.00    -0.203 F 
ATOM     89  C   UNL A   1      41.121  33.817  41.517  1.00  0.00     0.198 A 
ATOM     90  C   UNL A   1      42.584  35.381  40.438  1.00  0.00     0.198 A 
ATOM     91  F   UNL A   1      43.024  35.185  38.135  1.00  0.00    -0.203 F 
ATOM     92  F   UNL A   1      40.464  33.404  42.609  1.00  0.00    -0.200 F 
ATOM     93  C   UNL A   1      41.935  34.938  41.580  1.00  0.00     0.200 A 
ATOM     94  F   UNL A   1      43.381  36.457  40.497  1.00  0.00    -0.200 F 
ATOM     95  F   UNL A   1      42.084  35.597  42.737  1.00  0.00    -0.200 F 
ENDBRANCH  61  85
BRANCH  73  96
ATOM     96  C   UNL A   1      45.089  28.527  35.821  1.00  0.00     0.064 A 
ATOM     97  C   UNL A   1      45.086  27.313  36.525  1.00  0.00     0.173 A 
ATOM     98  C   UNL A   1      46.323  29.021  35.373  1.00  0.00     0.173 A 
ATOM     99  F   UNL A   1      43.935  26.802  36.986  1.00  0.00    -0.203 F 
ATOM    100  C   UNL A   1      46.276  26.640  36.795  1.00  0.00     0.198 A 
ATOM    101  C   UNL A   1      47.506  28.326  35.612  1.00  0.00     0.198 A 
ATOM    102  F   UNL A   1      46.383  30.172  34.685  1.00  0.00    -0.203 F 
ATOM    103  F   UNL A   1      46.254  25.511  37.517  1.00  0.00    -0.200 F 
ATOM    104  C   UNL A   1      47.483  27.141  36.330  1.00  0.00     0.200 A 
ATOM    105  F   UNL A   1      48.668  28.804  35.145  1.00  0.00    -0.200 F 
ATOM    106  F   UNL A   1      48.624  26.486  36.582  1.00  0.00    -0.200 F 
ENDBRANCH  73  96
ENDBRANCH  47  48
ENDBRANCH  40  42
ENDBRANCH  39  40
ENDBRANCH  38  39
ENDBRANCH  37  38
ENDBRANCH  36  37
ENDBRANCH  35  36
ENDBRANCH  34  35
ENDBRANCH  33  34
ENDBRANCH   1  33
TORSDOF 24
ENDMDL
