MODEL 1
REMARK VINA RESULT:     -11.2      0.000      0.000
REMARK SMILES NS(=O)(=O)c1ccc(-n2nc(C(=O)OCCOCCOCCOCCOC(=O)c3ccc(-c4c5nc(c(-c6c(F)c(F)c(F)c(F)c6F)c6ccc([nH]6)c(-c6c(F)c(F)c(F)c(F)c6F)c6nc(c(-c7c(F)c(F)c(F)c(F)c7F)c7ccc4[nH]7)C=C6)C=C5)cc3)cc2-c2cc3ccccc3s2)cc1
REMARK SMILES IDX 19 1 18 2 17 3 16 4 15 5 14 6 12 7 13 8 11 9 9 10 10 11
REMARK SMILES IDX 93 12 92 13 8 14 5 15 6 16 104 17 7 18 103 19 2 20 3 21 4 22
REMARK SMILES IDX 1 23 94 26 95 27 102 28 96 29 101 30 97 31 100 32 98 33
REMARK SMILES IDX 99 34 20 35 21 36 22 37 23 38 24 39 25 40 26 41 27 42 28 43
REMARK SMILES IDX 29 44 30 45 91 46 31 47 90 48 32 49 33 50 34 51 84 52 35 53
REMARK SMILES IDX 89 54 83 55 85 56 36 57 88 58 82 59 81 60 37 62 69 63 49 64
REMARK SMILES IDX 68 65 50 66 53 67 67 68 86 69 51 70 52 71 66 73 87 74 54 75
REMARK SMILES IDX 38 76 39 77 47 78 40 79 41 80 45 81 48 82 42 83 43 84 46 85
REMARK SMILES IDX 44 86 70 87 71 88 79 89 72 90 73 91 77 92 80 93 74 94 75 95
REMARK SMILES IDX 78 96 76 97 55 98 56 99 64 100 57 101 58 102 62 103 65 104
REMARK SMILES IDX 59 105 60 106 63 107 61 108
REMARK H PARENT 1 24 1 25 85 61 53 72
REMARK Flexibility Score: inf
ROOT
ATOM      1  C   UNL A   1      32.311  30.066  25.900  1.00  0.00     0.188 C 
ENDROOT
BRANCH   1   2
ATOM      2  C   UNL A   1      32.772  29.505  24.537  1.00  0.00     0.188 C 
BRANCH   2   3
ATOM      3  O   UNL A   1      32.334  28.234  24.083  1.00  0.00    -0.376 OA
BRANCH   3   4
ATOM      4  C   UNL A   1      31.367  28.032  23.068  1.00  0.00     0.202 C 
BRANCH   4   5
ATOM      5  C   UNL A   1      31.598  27.235  21.776  1.00  0.00     0.261 C 
BRANCH   5   6
ATOM      6  O   UNL A   1      31.575  25.823  21.888  1.00  0.00    -0.458 OA
BRANCH   6   7
ATOM      7  C   UNL A   1      32.626  25.145  21.345  1.00  0.00     0.358 C 
ATOM      8  O   UNL A   1      33.101  25.364  20.237  1.00  0.00    -0.244 OA
BRANCH   7   9
ATOM      9  C   UNL A   1      33.131  24.167  22.314  1.00  0.00     0.171 A 
ATOM     10  N   UNL A   1      33.383  22.396  23.474  1.00  0.00    -0.231 N 
ATOM     11  N   UNL A   1      32.959  22.833  22.257  1.00  0.00    -0.160 NA
ATOM     12  C   UNL A   1      33.759  23.438  24.287  1.00  0.00     0.085 A 
ATOM     13  C   UNL A   1      33.931  24.500  23.424  1.00  0.00     0.068 A 
BRANCH  10  14
ATOM     14  C   UNL A   1      33.464  21.024  23.747  1.00  0.00     0.065 A 
ATOM     15  C   UNL A   1      33.651  18.314  24.266  1.00  0.00     0.082 A 
ATOM     16  C   UNL A   1      32.511  18.828  23.631  1.00  0.00     0.024 A 
ATOM     17  C   UNL A   1      34.704  19.153  24.644  1.00  0.00     0.024 A 
ATOM     18  C   UNL A   1      32.407  20.194  23.384  1.00  0.00     0.030 A 
ATOM     19  C   UNL A   1      34.621  20.517  24.362  1.00  0.00     0.030 A 
BRANCH  15  20
ATOM     20  S   UNL A   1      33.696  16.570  24.553  1.00  0.00     0.238 S 
ATOM     21  O   UNL A   1      34.514  16.331  25.731  1.00  0.00    -0.207 OA
ATOM     22  O   UNL A   1      33.921  15.911  23.302  1.00  0.00    -0.207 OA
BRANCH  20  23
ATOM     23  N   UNL A   1      32.133  16.154  25.012  1.00  0.00    -0.225 NA
ATOM     24  H   UNL A   1      31.472  16.818  24.609  1.00  0.00     0.137 HD
ATOM     25  H   UNL A   1      32.059  16.176  26.029  1.00  0.00     0.137 HD
ENDBRANCH  20  23
ENDBRANCH  15  20
ENDBRANCH  10  14
BRANCH  12  26
ATOM     26  C   UNL A   1      33.756  23.567  25.722  1.00  0.00     0.054 A 
ATOM     27  C   UNL A   1      33.808  24.752  26.453  1.00  0.00     0.031 A 
ATOM     28  S   UNL A   1      32.473  22.660  26.522  1.00  0.00    -0.134 S 
ATOM     29  C   UNL A   1      32.428  25.204  26.599  1.00  0.00    -0.007 A 
ATOM     30  C   UNL A   1      31.539  24.130  26.432  1.00  0.00     0.035 A 
ATOM     31  C   UNL A   1      31.886  26.503  26.698  1.00  0.00     0.009 A 
ATOM     32  C   UNL A   1      30.172  24.313  26.178  1.00  0.00     0.019 A 
ATOM     33  C   UNL A   1      30.528  26.700  26.417  1.00  0.00     0.001 A 
ATOM     34  C   UNL A   1      29.696  25.625  26.112  1.00  0.00     0.001 A 
ENDBRANCH  12  26
ENDBRANCH   7   9
ENDBRANCH   6   7
ENDBRANCH   5   6
ENDBRANCH   4   5
ENDBRANCH   3   4
ENDBRANCH   2   3
ENDBRANCH   1   2
BRANCH   1  35
ATOM     35  O   UNL A   1      33.114  29.658  26.993  1.00  0.00    -0.377 OA
BRANCH  35  36
ATOM     36  C   UNL A   1      33.814  30.696  27.676  1.00  0.00     0.188 C 
BRANCH  36  37
ATOM     37  C   UNL A   1      33.587  32.182  27.279  1.00  0.00     0.188 C 
BRANCH  37  38
ATOM     38  O   UNL A   1      33.436  33.085  28.365  1.00  0.00    -0.376 OA
BRANCH  38  39
ATOM     39  C   UNL A   1      33.952  34.402  28.383  1.00  0.00     0.202 C 
BRANCH  39  40
ATOM     40  C   UNL A   1      34.308  35.006  29.737  1.00  0.00     0.261 C 
BRANCH  40  41
ATOM     41  O   UNL A   1      33.610  34.406  30.806  1.00  0.00    -0.460 OA
BRANCH  41  42
ATOM     42  C   UNL A   1      33.775  35.026  31.988  1.00  0.00     0.338 C 
ATOM     43  O   UNL A   1      33.302  36.092  32.342  1.00  0.00    -0.246 OA
BRANCH  42  44
ATOM     44  C   UNL A   1      34.762  34.266  32.752  1.00  0.00     0.060 A 
ATOM     45  C   UNL A   1      35.960  34.931  32.999  1.00  0.00     0.016 A 
ATOM     46  C   UNL A   1      34.647  32.867  32.749  1.00  0.00     0.016 A 
ATOM     47  C   UNL A   1      37.108  34.194  32.898  1.00  0.00     0.010 A 
ATOM     48  C   UNL A   1      35.793  32.139  32.616  1.00  0.00     0.010 A 
ATOM     49  C   UNL A   1      36.994  32.837  32.579  1.00  0.00    -0.014 A 
BRANCH  49  50
ATOM     50  C   UNL A   1      38.201  32.120  32.274  1.00  0.00     0.031 A 
ATOM     51  C   UNL A   1      39.000  31.901  33.487  1.00  0.00     0.074 A 
ATOM     52  C   UNL A   1      38.475  31.669  31.039  1.00  0.00     0.049 A 
ATOM     53  N   UNL A   1      40.051  32.551  33.851  1.00  0.00    -0.248 NA
ATOM     54  C   UNL A   1      38.421  31.043  34.535  1.00  0.00     0.031 C 
ATOM     55  C   UNL A   1      37.578  31.604  29.880  1.00  0.00     0.029 A 
ATOM     56  N   UNL A   1      39.611  31.077  30.586  1.00  0.00    -0.354 N 
ATOM     57  C   UNL A   1      40.405  31.992  35.072  1.00  0.00     0.074 A 
ATOM     58  C   UNL A   1      39.247  31.293  35.552  1.00  0.00     0.031 C 
ATOM     59  C   UNL A   1      38.128  30.805  28.938  1.00  0.00     0.029 A 
ATOM     60  C   UNL A   1      39.464  30.427  29.368  1.00  0.00     0.049 A 
ATOM     61  H   UNL A   1      40.464  31.107  31.078  1.00  0.00     0.167 HD
ATOM     62  C   UNL A   1      41.719  31.833  35.381  1.00  0.00     0.037 A 
ATOM     63  C   UNL A   1      40.368  29.575  28.828  1.00  0.00     0.037 A 
ATOM     64  C   UNL A   1      42.542  32.638  34.511  1.00  0.00     0.049 A 
ATOM     65  C   UNL A   1      41.679  29.868  29.463  1.00  0.00     0.074 A 
ATOM     66  C   UNL A   1      42.807  33.979  34.350  1.00  0.00     0.029 A 
ATOM     67  N   UNL A   1      42.904  32.006  33.348  1.00  0.00    -0.354 N 
ATOM     68  N   UNL A   1      42.330  30.986  29.289  1.00  0.00    -0.248 NA
ATOM     69  C   UNL A   1      42.107  29.073  30.608  1.00  0.00     0.031 C 
ATOM     70  C   UNL A   1      43.157  34.150  32.975  1.00  0.00     0.029 A 
ATOM     71  C   UNL A   1      43.134  32.906  32.345  1.00  0.00     0.049 A 
ATOM     72  H   UNL A   1      42.988  31.031  33.249  1.00  0.00     0.167 HD
ATOM     73  C   UNL A   1      42.934  31.232  30.509  1.00  0.00     0.074 A 
ATOM     74  C   UNL A   1      42.909  29.955  31.211  1.00  0.00     0.031 C 
ATOM     75  C   UNL A   1      43.100  32.511  30.953  1.00  0.00     0.037 A 
BRANCH  62  76
ATOM     76  C   UNL A   1      42.276  30.594  36.052  1.00  0.00     0.064 A 
ATOM     77  C   UNL A   1      43.238  30.761  37.067  1.00  0.00     0.173 A 
ATOM     78  C   UNL A   1      42.160  29.279  35.543  1.00  0.00     0.173 A 
ATOM     79  F   UNL A   1      43.455  31.971  37.607  1.00  0.00    -0.203 F 
ATOM     80  C   UNL A   1      44.063  29.713  37.485  1.00  0.00     0.198 A 
ATOM     81  C   UNL A   1      42.946  28.225  36.001  1.00  0.00     0.198 A 
ATOM     82  F   UNL A   1      41.374  28.967  34.508  1.00  0.00    -0.203 F 
ATOM     83  F   UNL A   1      45.046  29.950  38.364  1.00  0.00    -0.200 F 
ATOM     84  C   UNL A   1      43.919  28.447  36.948  1.00  0.00     0.200 A 
ATOM     85  F   UNL A   1      42.805  27.013  35.445  1.00  0.00    -0.200 F 
ATOM     86  F   UNL A   1      44.745  27.455  37.304  1.00  0.00    -0.200 F 
ENDBRANCH  62  76
BRANCH  63  87
ATOM     87  C   UNL A   1      40.114  28.325  28.075  1.00  0.00     0.064 A 
ATOM     88  C   UNL A   1      40.738  28.089  26.839  1.00  0.00     0.173 A 
ATOM     89  C   UNL A   1      39.494  27.218  28.686  1.00  0.00     0.173 A 
ATOM     90  F   UNL A   1      41.387  29.080  26.212  1.00  0.00    -0.203 F 
ATOM     91  C   UNL A   1      40.774  26.812  26.268  1.00  0.00     0.198 A 
ATOM     92  C   UNL A   1      39.526  25.946  28.112  1.00  0.00     0.198 A 
ATOM     93  F   UNL A   1      38.934  27.325  29.899  1.00  0.00    -0.203 F 
ATOM     94  F   UNL A   1      41.441  26.611  25.122  1.00  0.00    -0.200 F 
ATOM     95  C   UNL A   1      40.179  25.739  26.911  1.00  0.00     0.200 A 
ATOM     96  F   UNL A   1      38.980  24.910  28.765  1.00  0.00    -0.200 F 
ATOM     97  F   UNL A   1      40.273  24.505  26.401  1.00  0.00    -0.200 F 
ENDBRANCH  63  87
BRANCH  75  98
ATOM     98  C   UNL A   1      43.088  33.599  29.923  1.00  0.00     0.064 A 
ATOM     99  C   UNL A   1      41.944  34.311  29.527  1.00  0.00     0.173 A 
ATOM    100  C   UNL A   1      44.317  33.991  29.377  1.00  0.00     0.173 A 
ATOM    101  F   UNL A   1      40.747  34.047  30.068  1.00  0.00    -0.203 F 
ATOM    102  C   UNL A   1      42.029  35.344  28.594  1.00  0.00     0.198 A 
ATOM    103  C   UNL A   1      44.405  35.046  28.476  1.00  0.00     0.198 A 
ATOM    104  F   UNL A   1      45.447  33.370  29.753  1.00  0.00    -0.203 F 
ATOM    105  F   UNL A   1      40.921  36.000  28.215  1.00  0.00    -0.200 F 
ATOM    106  C   UNL A   1      43.260  35.715  28.077  1.00  0.00     0.200 A 
ATOM    107  F   UNL A   1      45.603  35.430  28.015  1.00  0.00    -0.200 F 
ATOM    108  F   UNL A   1      43.346  36.734  27.209  1.00  0.00    -0.200 F 
ENDBRANCH  75  98
ENDBRANCH  49  50
ENDBRANCH  42  44
ENDBRANCH  41  42
ENDBRANCH  40  41
ENDBRANCH  39  40
ENDBRANCH  38  39
ENDBRANCH  37  38
ENDBRANCH  36  37
ENDBRANCH  35  36
ENDBRANCH   1  35
TORSDOF 24
ENDMDL
MODEL 2
REMARK VINA RESULT:     -11.1      3.528      8.034
REMARK SMILES NS(=O)(=O)c1ccc(-n2nc(C(=O)OCCOCCOCCOCCOC(=O)c3ccc(-c4c5nc(c(-c6c(F)c(F)c(F)c(F)c6F)c6ccc([nH]6)c(-c6c(F)c(F)c(F)c(F)c6F)c6nc(c(-c7c(F)c(F)c(F)c(F)c7F)c7ccc4[nH]7)C=C6)C=C5)cc3)cc2-c2cc3ccccc3s2)cc1
REMARK SMILES IDX 19 1 18 2 17 3 16 4 15 5 14 6 12 7 13 8 11 9 9 10 10 11
REMARK SMILES IDX 93 12 92 13 8 14 5 15 6 16 104 17 7 18 103 19 2 20 3 21 4 22
REMARK SMILES IDX 1 23 94 26 95 27 102 28 96 29 101 30 97 31 100 32 98 33
REMARK SMILES IDX 99 34 20 35 21 36 22 37 23 38 24 39 25 40 26 41 27 42 28 43
REMARK SMILES IDX 29 44 30 45 91 46 31 47 90 48 32 49 33 50 34 51 84 52 35 53
REMARK SMILES IDX 89 54 83 55 85 56 36 57 88 58 82 59 81 60 37 62 69 63 49 64
REMARK SMILES IDX 68 65 50 66 53 67 67 68 86 69 51 70 52 71 66 73 87 74 54 75
REMARK SMILES IDX 38 76 39 77 47 78 40 79 41 80 45 81 48 82 42 83 43 84 46 85
REMARK SMILES IDX 44 86 70 87 71 88 79 89 72 90 73 91 77 92 80 93 74 94 75 95
REMARK SMILES IDX 78 96 76 97 55 98 56 99 64 100 57 101 58 102 62 103 65 104
REMARK SMILES IDX 59 105 60 106 63 107 61 108
REMARK H PARENT 1 24 1 25 85 61 53 72
REMARK Flexibility Score: inf
ROOT
ATOM      1  C   UNL A   1      31.405  29.232  25.530  1.00  0.00     0.188 C 
ENDROOT
BRANCH   1   2
ATOM      2  C   UNL A   1      30.663  29.335  24.180  1.00  0.00     0.188 C 
BRANCH   2   3
ATOM      3  O   UNL A   1      30.221  28.173  23.497  1.00  0.00    -0.376 OA
BRANCH   3   4
ATOM      4  C   UNL A   1      29.064  27.431  23.839  1.00  0.00     0.202 C 
BRANCH   4   5
ATOM      5  C   UNL A   1      29.068  26.017  24.439  1.00  0.00     0.261 C 
BRANCH   5   6
ATOM      6  O   UNL A   1      30.026  25.759  25.451  1.00  0.00    -0.458 OA
BRANCH   6   7
ATOM      7  C   UNL A   1      29.964  24.542  26.061  1.00  0.00     0.358 C 
ATOM      8  O   UNL A   1      29.375  24.317  27.111  1.00  0.00    -0.244 OA
BRANCH   7   9
ATOM      9  C   UNL A   1      30.653  23.544  25.235  1.00  0.00     0.171 A 
ATOM     10  N   UNL A   1      31.792  21.852  24.617  1.00  0.00    -0.231 N 
ATOM     11  N   UNL A   1      30.964  22.288  25.605  1.00  0.00    -0.160 NA
ATOM     12  C   UNL A   1      32.034  22.832  23.685  1.00  0.00     0.085 A 
ATOM     13  C   UNL A   1      31.035  23.758  23.897  1.00  0.00     0.068 A 
BRANCH  10  14
ATOM     14  C   UNL A   1      32.235  20.522  24.597  1.00  0.00     0.065 A 
ATOM     15  C   UNL A   1      33.137  17.909  24.570  1.00  0.00     0.082 A 
ATOM     16  C   UNL A   1      32.701  18.511  23.381  1.00  0.00     0.024 A 
ATOM     17  C   UNL A   1      33.125  18.611  25.779  1.00  0.00     0.024 A 
ATOM     18  C   UNL A   1      32.230  19.821  23.395  1.00  0.00     0.030 A 
ATOM     19  C   UNL A   1      32.691  19.937  25.790  1.00  0.00     0.030 A 
BRANCH  15  20
ATOM     20  S   UNL A   1      33.707  16.238  24.465  1.00  0.00     0.238 S 
ATOM     21  O   UNL A   1      34.181  16.011  23.109  1.00  0.00    -0.207 OA
ATOM     22  O   UNL A   1      32.746  15.391  25.106  1.00  0.00    -0.207 OA
BRANCH  20  23
ATOM     23  N   UNL A   1      35.084  16.175  25.428  1.00  0.00    -0.225 NA
ATOM     24  H   UNL A   1      35.249  17.092  25.844  1.00  0.00     0.137 HD
ATOM     25  H   UNL A   1      35.887  15.911  24.857  1.00  0.00     0.137 HD
ENDBRANCH  20  23
ENDBRANCH  15  20
ENDBRANCH  10  14
BRANCH  12  26
ATOM     26  C   UNL A   1      33.167  23.060  22.824  1.00  0.00     0.054 A 
ATOM     27  C   UNL A   1      33.218  23.910  21.722  1.00  0.00     0.031 A 
ATOM     28  S   UNL A   1      34.659  23.431  23.685  1.00  0.00    -0.134 S 
ATOM     29  C   UNL A   1      33.584  25.225  22.237  1.00  0.00    -0.007 A 
ATOM     30  C   UNL A   1      34.223  25.106  23.481  1.00  0.00     0.035 A 
ATOM     31  C   UNL A   1      33.253  26.521  21.784  1.00  0.00     0.009 A 
ATOM     32  C   UNL A   1      34.375  26.189  24.360  1.00  0.00     0.019 A 
ATOM     33  C   UNL A   1      33.374  27.604  22.664  1.00  0.00     0.001 A 
ATOM     34  C   UNL A   1      33.880  27.429  23.949  1.00  0.00     0.001 A 
ENDBRANCH  12  26
ENDBRANCH   7   9
ENDBRANCH   6   7
ENDBRANCH   5   6
ENDBRANCH   4   5
ENDBRANCH   3   4
ENDBRANCH   2   3
ENDBRANCH   1   2
BRANCH   1  35
ATOM     35  O   UNL A   1      32.367  30.250  25.738  1.00  0.00    -0.377 OA
BRANCH  35  36
ATOM     36  C   UNL A   1      32.661  30.565  27.098  1.00  0.00     0.188 C 
BRANCH  36  37
ATOM     37  C   UNL A   1      34.128  30.837  27.536  1.00  0.00     0.188 C 
BRANCH  37  38
ATOM     38  O   UNL A   1      34.531  32.198  27.496  1.00  0.00    -0.376 OA
BRANCH  38  39
ATOM     39  C   UNL A   1      35.592  32.737  28.262  1.00  0.00     0.202 C 
BRANCH  39  40
ATOM     40  C   UNL A   1      35.963  32.027  29.558  1.00  0.00     0.261 C 
BRANCH  40  41
ATOM     41  O   UNL A   1      37.064  31.156  29.411  1.00  0.00    -0.460 OA
BRANCH  41  42
ATOM     42  C   UNL A   1      36.902  29.960  30.004  1.00  0.00     0.338 C 
ATOM     43  O   UNL A   1      36.261  29.709  31.010  1.00  0.00    -0.246 OA
BRANCH  42  44
ATOM     44  C   UNL A   1      37.761  29.003  29.312  1.00  0.00     0.060 A 
ATOM     45  C   UNL A   1      38.251  27.967  30.102  1.00  0.00     0.016 A 
ATOM     46  C   UNL A   1      38.389  29.431  28.131  1.00  0.00     0.016 A 
ATOM     47  C   UNL A   1      39.551  27.594  29.897  1.00  0.00     0.010 A 
ATOM     48  C   UNL A   1      39.695  29.083  27.948  1.00  0.00     0.010 A 
ATOM     49  C   UNL A   1      40.278  28.260  28.904  1.00  0.00    -0.014 A 
BRANCH  49  50
ATOM     50  C   UNL A   1      41.692  28.010  28.832  1.00  0.00     0.031 A 
ATOM     51  C   UNL A   1      41.966  26.767  28.099  1.00  0.00     0.074 A 
ATOM     52  C   UNL A   1      42.598  28.872  29.323  1.00  0.00     0.049 A 
ATOM     53  N   UNL A   1      42.280  25.623  28.602  1.00  0.00    -0.248 NA
ATOM     54  C   UNL A   1      41.601  26.726  26.673  1.00  0.00     0.031 C 
ATOM     55  C   UNL A   1      42.381  30.246  29.787  1.00  0.00     0.029 A 
ATOM     56  N   UNL A   1      43.945  28.719  29.421  1.00  0.00    -0.354 N 
ATOM     57  C   UNL A   1      42.397  24.778  27.508  1.00  0.00     0.074 A 
ATOM     58  C   UNL A   1      41.717  25.421  26.420  1.00  0.00     0.031 C 
ATOM     59  C   UNL A   1      43.576  30.871  29.898  1.00  0.00     0.029 A 
ATOM     60  C   UNL A   1      44.632  29.903  29.654  1.00  0.00     0.049 A 
ATOM     61  H   UNL A   1      44.393  27.847  29.334  1.00  0.00     0.167 HD
ATOM     62  C   UNL A   1      43.364  23.823  27.498  1.00  0.00     0.037 A 
ATOM     63  C   UNL A   1      45.975  30.052  29.557  1.00  0.00     0.037 A 
ATOM     64  C   UNL A   1      43.877  23.613  28.830  1.00  0.00     0.049 A 
ATOM     65  C   UNL A   1      46.577  28.700  29.685  1.00  0.00     0.074 A 
ATOM     66  C   UNL A   1      43.417  23.046  29.998  1.00  0.00     0.029 A 
ATOM     67  N   UNL A   1      44.920  24.440  29.160  1.00  0.00    -0.354 N 
ATOM     68  N   UNL A   1      46.533  27.992  30.780  1.00  0.00    -0.248 NA
ATOM     69  C   UNL A   1      46.906  27.952  28.476  1.00  0.00     0.031 C 
ATOM     70  C   UNL A   1      44.098  23.717  31.058  1.00  0.00     0.029 A 
ATOM     71  C   UNL A   1      44.982  24.647  30.510  1.00  0.00     0.049 A 
ATOM     72  H   UNL A   1      45.545  24.833  28.509  1.00  0.00     0.167 HD
ATOM     73  C   UNL A   1      46.408  26.685  30.347  1.00  0.00     0.074 A 
ATOM     74  C   UNL A   1      46.817  26.706  28.948  1.00  0.00     0.031 C 
ATOM     75  C   UNL A   1      45.683  25.783  31.069  1.00  0.00     0.037 A 
BRANCH  62  76
ATOM     76  C   UNL A   1      44.205  23.496  26.280  1.00  0.00     0.064 A 
ATOM     77  C   UNL A   1      44.243  22.159  25.837  1.00  0.00     0.173 A 
ATOM     78  C   UNL A   1      45.201  24.340  25.737  1.00  0.00     0.173 A 
ATOM     79  F   UNL A   1      43.363  21.261  26.305  1.00  0.00    -0.203 F 
ATOM     80  C   UNL A   1      45.242  21.694  24.977  1.00  0.00     0.198 A 
ATOM     81  C   UNL A   1      46.161  23.884  24.837  1.00  0.00     0.198 A 
ATOM     82  F   UNL A   1      45.374  25.606  26.129  1.00  0.00    -0.203 F 
ATOM     83  F   UNL A   1      45.310  20.389  24.682  1.00  0.00    -0.200 F 
ATOM     84  C   UNL A   1      46.203  22.557  24.481  1.00  0.00     0.200 A 
ATOM     85  F   UNL A   1      47.098  24.735  24.392  1.00  0.00    -0.200 F 
ATOM     86  F   UNL A   1      47.194  22.103  23.705  1.00  0.00    -0.200 F 
ENDBRANCH  62  76
BRANCH  63  87
ATOM     87  C   UNL A   1      46.732  31.211  29.028  1.00  0.00     0.064 A 
ATOM     88  C   UNL A   1      46.558  31.641  27.702  1.00  0.00     0.173 A 
ATOM     89  C   UNL A   1      47.410  32.095  29.890  1.00  0.00     0.173 A 
ATOM     90  F   UNL A   1      45.885  30.876  26.830  1.00  0.00    -0.203 F 
ATOM     91  C   UNL A   1      47.001  32.897  27.274  1.00  0.00     0.198 A 
ATOM     92  C   UNL A   1      47.856  33.346  29.459  1.00  0.00     0.198 A 
ATOM     93  F   UNL A   1      47.562  31.808  31.190  1.00  0.00    -0.203 F 
ATOM     94  F   UNL A   1      46.753  33.301  26.021  1.00  0.00    -0.200 F 
ATOM     95  C   UNL A   1      47.637  33.754  28.157  1.00  0.00     0.200 A 
ATOM     96  F   UNL A   1      48.435  34.180  30.335  1.00  0.00    -0.200 F 
ATOM     97  F   UNL A   1      47.998  34.983  27.767  1.00  0.00    -0.200 F 
ENDBRANCH  63  87
BRANCH  75  98
ATOM     98  C   UNL A   1      45.470  26.085  32.522  1.00  0.00     0.064 A 
ATOM     99  C   UNL A   1      44.327  26.708  33.048  1.00  0.00     0.173 A 
ATOM    100  C   UNL A   1      46.441  25.637  33.428  1.00  0.00     0.173 A 
ATOM    101  F   UNL A   1      43.321  27.089  32.250  1.00  0.00    -0.203 F 
ATOM    102  C   UNL A   1      44.187  26.908  34.421  1.00  0.00     0.198 A 
ATOM    103  C   UNL A   1      46.281  25.803  34.798  1.00  0.00     0.198 A 
ATOM    104  F   UNL A   1      47.533  24.998  32.980  1.00  0.00    -0.203 F 
ATOM    105  F   UNL A   1      43.097  27.523  34.903  1.00  0.00    -0.200 F 
ATOM    106  C   UNL A   1      45.161  26.448  35.295  1.00  0.00     0.200 A 
ATOM    107  F   UNL A   1      47.203  25.316  35.640  1.00  0.00    -0.200 F 
ATOM    108  F   UNL A   1      45.008  26.606  36.617  1.00  0.00    -0.200 F 
ENDBRANCH  75  98
ENDBRANCH  49  50
ENDBRANCH  42  44
ENDBRANCH  41  42
ENDBRANCH  40  41
ENDBRANCH  39  40
ENDBRANCH  38  39
ENDBRANCH  37  38
ENDBRANCH  36  37
ENDBRANCH  35  36
ENDBRANCH   1  35
TORSDOF 24
ENDMDL
MODEL 3
REMARK VINA RESULT:     -11.1      2.387      3.746
REMARK SMILES NS(=O)(=O)c1ccc(-n2nc(C(=O)OCCOCCOCCOCCOC(=O)c3ccc(-c4c5nc(c(-c6c(F)c(F)c(F)c(F)c6F)c6ccc([nH]6)c(-c6c(F)c(F)c(F)c(F)c6F)c6nc(c(-c7c(F)c(F)c(F)c(F)c7F)c7ccc4[nH]7)C=C6)C=C5)cc3)cc2-c2cc3ccccc3s2)cc1
REMARK SMILES IDX 19 1 18 2 17 3 16 4 15 5 14 6 12 7 13 8 11 9 9 10 10 11
REMARK SMILES IDX 93 12 92 13 8 14 5 15 6 16 104 17 7 18 103 19 2 20 3 21 4 22
REMARK SMILES IDX 1 23 94 26 95 27 102 28 96 29 101 30 97 31 100 32 98 33
REMARK SMILES IDX 99 34 20 35 21 36 22 37 23 38 24 39 25 40 26 41 27 42 28 43
REMARK SMILES IDX 29 44 30 45 91 46 31 47 90 48 32 49 33 50 34 51 84 52 35 53
REMARK SMILES IDX 89 54 83 55 85 56 36 57 88 58 82 59 81 60 37 62 69 63 49 64
REMARK SMILES IDX 68 65 50 66 53 67 67 68 86 69 51 70 52 71 66 73 87 74 54 75
REMARK SMILES IDX 38 76 39 77 47 78 40 79 41 80 45 81 48 82 42 83 43 84 46 85
REMARK SMILES IDX 44 86 70 87 71 88 79 89 72 90 73 91 77 92 80 93 74 94 75 95
REMARK SMILES IDX 78 96 76 97 55 98 56 99 64 100 57 101 58 102 62 103 65 104
REMARK SMILES IDX 59 105 60 106 63 107 61 108
REMARK H PARENT 1 24 1 25 85 61 53 72
REMARK Flexibility Score: inf
ROOT
ATOM      1  C   UNL A   1      32.416  30.619  27.048  1.00  0.00     0.188 C 
ENDROOT
BRANCH   1   2
ATOM      2  C   UNL A   1      31.404  30.822  25.900  1.00  0.00     0.188 C 
BRANCH   2   3
ATOM      3  O   UNL A   1      30.698  32.045  25.753  1.00  0.00    -0.376 OA
BRANCH   3   4
ATOM      4  C   UNL A   1      29.938  32.403  24.614  1.00  0.00     0.202 C 
BRANCH   4   5
ATOM      5  C   UNL A   1      28.958  31.476  23.880  1.00  0.00     0.261 C 
BRANCH   5   6
ATOM      6  O   UNL A   1      28.912  31.590  22.468  1.00  0.00    -0.458 OA
BRANCH   6   7
ATOM      7  C   UNL A   1      28.670  30.447  21.766  1.00  0.00     0.358 C 
ATOM      8  O   UNL A   1      27.883  30.353  20.833  1.00  0.00    -0.244 OA
BRANCH   7   9
ATOM      9  C   UNL A   1      29.541  29.374  22.261  1.00  0.00     0.171 A 
ATOM     10  N   UNL A   1      30.368  27.812  23.453  1.00  0.00    -0.231 N 
ATOM     11  N   UNL A   1      29.186  28.394  23.112  1.00  0.00    -0.160 NA
ATOM     12  C   UNL A   1      31.436  28.450  22.870  1.00  0.00     0.085 A 
ATOM     13  C   UNL A   1      30.877  29.194  21.853  1.00  0.00     0.068 A 
BRANCH  10  14
ATOM     14  C   UNL A   1      30.388  26.658  24.248  1.00  0.00     0.065 A 
ATOM     15  C   UNL A   1      30.457  24.390  25.828  1.00  0.00     0.082 A 
ATOM     16  C   UNL A   1      30.417  24.269  24.431  1.00  0.00     0.024 A 
ATOM     17  C   UNL A   1      30.463  25.647  26.441  1.00  0.00     0.024 A 
ATOM     18  C   UNL A   1      30.365  25.409  23.634  1.00  0.00     0.030 A 
ATOM     19  C   UNL A   1      30.451  26.792  25.644  1.00  0.00     0.030 A 
BRANCH  15  20
ATOM     20  S   UNL A   1      30.509  22.892  26.766  1.00  0.00     0.238 S 
ATOM     21  O   UNL A   1      30.678  21.787  25.836  1.00  0.00    -0.207 OA
ATOM     22  O   UNL A   1      29.461  22.934  27.743  1.00  0.00    -0.207 OA
BRANCH  20  23
ATOM     23  N   UNL A   1      31.946  22.960  27.636  1.00  0.00    -0.225 NA
ATOM     24  H   UNL A   1      31.847  23.623  28.404  1.00  0.00     0.137 HD
ATOM     25  H   UNL A   1      32.702  23.261  27.021  1.00  0.00     0.137 HD
ENDBRANCH  20  23
ENDBRANCH  15  20
ENDBRANCH  10  14
BRANCH  12  26
ATOM     26  C   UNL A   1      32.806  28.581  23.296  1.00  0.00     0.054 A 
ATOM     27  C   UNL A   1      33.359  28.111  24.486  1.00  0.00     0.031 A 
ATOM     28  S   UNL A   1      33.985  28.083  22.084  1.00  0.00    -0.134 S 
ATOM     29  C   UNL A   1      33.768  26.734  24.231  1.00  0.00    -0.007 A 
ATOM     30  C   UNL A   1      33.942  26.519  22.855  1.00  0.00     0.035 A 
ATOM     31  C   UNL A   1      33.835  25.616  25.090  1.00  0.00     0.009 A 
ATOM     32  C   UNL A   1      33.994  25.236  22.290  1.00  0.00     0.019 A 
ATOM     33  C   UNL A   1      33.857  24.329  24.536  1.00  0.00     0.001 A 
ATOM     34  C   UNL A   1      33.885  24.145  23.155  1.00  0.00     0.001 A 
ENDBRANCH  12  26
ENDBRANCH   7   9
ENDBRANCH   6   7
ENDBRANCH   5   6
ENDBRANCH   4   5
ENDBRANCH   3   4
ENDBRANCH   2   3
ENDBRANCH   1   2
BRANCH   1  35
ATOM     35  O   UNL A   1      33.749  30.424  26.613  1.00  0.00    -0.377 OA
BRANCH  35  36
ATOM     36  C   UNL A   1      34.756  30.519  27.619  1.00  0.00     0.188 C 
BRANCH  36  37
ATOM     37  C   UNL A   1      35.368  31.902  27.980  1.00  0.00     0.188 C 
BRANCH  37  38
ATOM     38  O   UNL A   1      34.844  32.511  29.151  1.00  0.00    -0.376 OA
BRANCH  38  39
ATOM     39  C   UNL A   1      35.097  33.850  29.534  1.00  0.00     0.202 C 
BRANCH  39  40
ATOM     40  C   UNL A   1      34.009  34.583  30.309  1.00  0.00     0.261 C 
BRANCH  40  41
ATOM     41  O   UNL A   1      33.830  34.078  31.615  1.00  0.00    -0.460 OA
BRANCH  41  42
ATOM     42  C   UNL A   1      34.326  34.869  32.583  1.00  0.00     0.338 C 
ATOM     43  O   UNL A   1      34.054  36.037  32.802  1.00  0.00    -0.246 OA
BRANCH  42  44
ATOM     44  C   UNL A   1      35.385  34.125  33.262  1.00  0.00     0.060 A 
ATOM     45  C   UNL A   1      36.527  34.862  33.562  1.00  0.00     0.016 A 
ATOM     46  C   UNL A   1      35.386  32.728  33.125  1.00  0.00     0.016 A 
ATOM     47  C   UNL A   1      37.731  34.237  33.381  1.00  0.00     0.010 A 
ATOM     48  C   UNL A   1      36.586  32.115  32.913  1.00  0.00     0.010 A 
ATOM     49  C   UNL A   1      37.724  32.912  32.934  1.00  0.00    -0.014 A 
BRANCH  49  50
ATOM     50  C   UNL A   1      38.982  32.331  32.551  1.00  0.00     0.031 A 
ATOM     51  C   UNL A   1      39.936  32.368  33.667  1.00  0.00     0.074 A 
ATOM     52  C   UNL A   1      39.177  31.776  31.343  1.00  0.00     0.049 A 
ATOM     53  N   UNL A   1      40.914  33.191  33.824  1.00  0.00    -0.248 NA
ATOM     54  C   UNL A   1      39.612  31.572  34.863  1.00  0.00     0.031 C 
ATOM     55  C   UNL A   1      38.174  31.454  30.322  1.00  0.00     0.029 A 
ATOM     56  N   UNL A   1      40.330  31.291  30.811  1.00  0.00    -0.354 N 
ATOM     57  C   UNL A   1      41.482  32.835  35.039  1.00  0.00     0.074 A 
ATOM     58  C   UNL A   1      40.502  32.050  35.734  1.00  0.00     0.031 C 
ATOM     59  C   UNL A   1      38.726  30.627  29.404  1.00  0.00     0.029 A 
ATOM     60  C   UNL A   1      40.143  30.486  29.695  1.00  0.00     0.049 A 
ATOM     61  H   UNL A   1      41.219  31.494  31.183  1.00  0.00     0.167 HD
ATOM     62  C   UNL A   1      42.832  32.891  35.191  1.00  0.00     0.037 A 
ATOM     63  C   UNL A   1      41.097  29.704  29.134  1.00  0.00     0.037 A 
ATOM     64  C   UNL A   1      43.423  33.689  34.144  1.00  0.00     0.049 A 
ATOM     65  C   UNL A   1      42.413  30.244  29.561  1.00  0.00     0.074 A 
ATOM     66  C   UNL A   1      43.468  35.024  33.813  1.00  0.00     0.029 A 
ATOM     67  N   UNL A   1      43.741  32.976  33.016  1.00  0.00    -0.354 N 
ATOM     68  N   UNL A   1      42.868  31.410  29.191  1.00  0.00    -0.248 NA
ATOM     69  C   UNL A   1      43.080  29.656  30.717  1.00  0.00     0.031 C 
ATOM     70  C   UNL A   1      43.632  35.075  32.395  1.00  0.00     0.029 A 
ATOM     71  C   UNL A   1      43.721  33.772  31.905  1.00  0.00     0.049 A 
ATOM     72  H   UNL A   1      43.956  32.016  33.008  1.00  0.00     0.167 HD
ATOM     73  C   UNL A   1      43.563  31.878  30.291  1.00  0.00     0.074 A 
ATOM     74  C   UNL A   1      43.807  30.703  31.118  1.00  0.00     0.031 C 
ATOM     75  C   UNL A   1      43.589  33.212  30.577  1.00  0.00     0.037 A 
BRANCH  62  76
ATOM     76  C   UNL A   1      43.638  31.827  35.909  1.00  0.00     0.064 A 
ATOM     77  C   UNL A   1      43.551  30.500  35.445  1.00  0.00     0.173 A 
ATOM     78  C   UNL A   1      44.219  31.982  37.189  1.00  0.00     0.173 A 
ATOM     79  F   UNL A   1      42.993  30.230  34.255  1.00  0.00    -0.203 F 
ATOM     80  C   UNL A   1      43.948  29.415  36.231  1.00  0.00     0.198 A 
ATOM     81  C   UNL A   1      44.664  30.901  37.946  1.00  0.00     0.198 A 
ATOM     82  F   UNL A   1      44.282  33.157  37.821  1.00  0.00    -0.203 F 
ATOM     83  F   UNL A   1      43.731  28.166  35.799  1.00  0.00    -0.200 F 
ATOM     84  C   UNL A   1      44.500  29.616  37.483  1.00  0.00     0.200 A 
ATOM     85  F   UNL A   1      45.171  31.122  39.168  1.00  0.00    -0.200 F 
ATOM     86  F   UNL A   1      44.827  28.578  38.261  1.00  0.00    -0.200 F 
ENDBRANCH  62  76
BRANCH  63  87
ATOM     87  C   UNL A   1      40.945  28.350  28.552  1.00  0.00     0.064 A 
ATOM     88  C   UNL A   1      40.173  27.370  29.199  1.00  0.00     0.173 A 
ATOM     89  C   UNL A   1      41.302  28.085  27.216  1.00  0.00     0.173 A 
ATOM     90  F   UNL A   1      39.756  27.565  30.458  1.00  0.00    -0.203 F 
ATOM     91  C   UNL A   1      39.752  26.213  28.535  1.00  0.00     0.198 A 
ATOM     92  C   UNL A   1      40.885  26.928  26.557  1.00  0.00     0.198 A 
ATOM     93  F   UNL A   1      41.976  28.990  26.491  1.00  0.00    -0.203 F 
ATOM     94  F   UNL A   1      38.957  25.335  29.162  1.00  0.00    -0.200 F 
ATOM     95  C   UNL A   1      40.097  25.999  27.211  1.00  0.00     0.200 A 
ATOM     96  F   UNL A   1      41.194  26.753  25.264  1.00  0.00    -0.200 F 
ATOM     97  F   UNL A   1      39.636  24.927  26.554  1.00  0.00    -0.200 F 
ENDBRANCH  63  87
BRANCH  75  98
ATOM     98  C   UNL A   1      43.300  34.157  29.450  1.00  0.00     0.064 A 
ATOM     99  C   UNL A   1      42.030  34.679  29.151  1.00  0.00     0.173 A 
ATOM    100  C   UNL A   1      44.386  34.619  28.694  1.00  0.00     0.173 A 
ATOM    101  F   UNL A   1      40.959  34.346  29.883  1.00  0.00    -0.203 F 
ATOM    102  C   UNL A   1      41.857  35.593  28.112  1.00  0.00     0.198 A 
ATOM    103  C   UNL A   1      44.216  35.559  27.685  1.00  0.00     0.198 A 
ATOM    104  F   UNL A   1      45.626  34.184  28.967  1.00  0.00    -0.203 F 
ATOM    105  F   UNL A   1      40.634  36.065  27.830  1.00  0.00    -0.200 F 
ATOM    106  C   UNL A   1      42.951  36.038  27.386  1.00  0.00     0.200 A 
ATOM    107  F   UNL A   1      45.283  36.019  27.018  1.00  0.00    -0.200 F 
ATOM    108  F   UNL A   1      42.790  36.946  26.413  1.00  0.00    -0.200 F 
ENDBRANCH  75  98
ENDBRANCH  49  50
ENDBRANCH  42  44
ENDBRANCH  41  42
ENDBRANCH  40  41
ENDBRANCH  39  40
ENDBRANCH  38  39
ENDBRANCH  37  38
ENDBRANCH  36  37
ENDBRANCH  35  36
ENDBRANCH   1  35
TORSDOF 24
ENDMDL
