MODEL 1
REMARK VINA RESULT:      -9.9      0.000      0.000
REMARK SMILES O=C(OCCOCCOCCOCCOC(=O)c1ccn(CC(F)(F)F)c1)c1ccc(-c2c3nc(c(-c4c(F)c(F)c(F)c(F)c4F)c4ccc([nH]4)c(-c4c(F)c(F)c(F)c(F)c4F)c4nc(c(-c5c(F)c(F)c(F)c(F)c5F)c5ccc2[nH]5)C=C4)C=C3)cc1
REMARK SMILES IDX 9 1 8 2 7 3 6 4 5 5 4 6 3 7 2 8 1 9 28 10 29 11 90 12 30 13
REMARK SMILES IDX 89 14 31 15 32 16 33 17 83 18 34 19 88 20 82 21 84 22 35 23
REMARK SMILES IDX 87 24 81 25 80 26 36 28 68 29 48 30 67 31 49 32 52 33 66 34
REMARK SMILES IDX 85 35 50 36 51 37 65 39 86 40 53 41 37 42 38 43 46 44 39 45
REMARK SMILES IDX 40 46 44 47 47 48 41 49 42 50 45 51 43 52 69 53 70 54 78 55
REMARK SMILES IDX 71 56 72 57 76 58 79 59 73 60 74 61 77 62 75 63 54 64 55 65
REMARK SMILES IDX 63 66 56 67 57 68 61 69 64 70 58 71 59 72 62 73 60 74 10 75
REMARK SMILES IDX 11 76 12 77 13 78 14 79 15 80 16 81 17 82 18 83 19 84 27 85
REMARK SMILES IDX 20 86 21 87 22 88 23 89 24 90 25 91 26 92
REMARK H PARENT 84 27 52 38
REMARK Flexibility Score: inf
ROOT
ATOM      1  O   UNL A   1      35.042  23.644  24.214  1.00  0.00    -0.377 OA
ENDROOT
BRANCH   1   2
ATOM      2  C   UNL A   1      35.943  22.832  23.490  1.00  0.00     0.188 C 
BRANCH   2   3
ATOM      3  C   UNL A   1      37.020  22.114  24.319  1.00  0.00     0.188 C 
BRANCH   3   4
ATOM      4  O   UNL A   1      36.973  20.744  24.708  1.00  0.00    -0.376 OA
BRANCH   4   5
ATOM      5  C   UNL A   1      38.053  19.834  24.798  1.00  0.00     0.202 C 
BRANCH   5   6
ATOM      6  C   UNL A   1      39.200  20.010  25.805  1.00  0.00     0.261 C 
BRANCH   6   7
ATOM      7  O   UNL A   1      40.263  19.061  25.693  1.00  0.00    -0.460 OA
BRANCH   7   8
ATOM      8  C   UNL A   1      41.573  19.207  25.989  1.00  0.00     0.338 C 
ATOM      9  O   UNL A   1      42.328  18.248  25.844  1.00  0.00    -0.246 OA
BRANCH   8  10
ATOM     10  C   UNL A   1      42.155  20.491  26.448  1.00  0.00     0.060 A 
ATOM     11  C   UNL A   1      42.254  20.889  27.779  1.00  0.00     0.016 A 
ATOM     12  C   UNL A   1      42.623  21.355  25.443  1.00  0.00     0.016 A 
ATOM     13  C   UNL A   1      42.566  22.185  28.100  1.00  0.00     0.010 A 
ATOM     14  C   UNL A   1      43.015  22.647  25.758  1.00  0.00     0.010 A 
ATOM     15  C   UNL A   1      42.905  23.065  27.082  1.00  0.00    -0.014 A 
BRANCH  15  16
ATOM     16  C   UNL A   1      43.203  24.425  27.523  1.00  0.00     0.031 A 
ATOM     17  C   UNL A   1      41.917  25.235  27.686  1.00  0.00     0.074 A 
ATOM     18  C   UNL A   1      44.531  24.737  27.540  1.00  0.00     0.049 A 
ATOM     19  N   UNL A   1      41.707  26.499  27.490  1.00  0.00    -0.248 NA
ATOM     20  C   UNL A   1      40.651  24.520  28.014  1.00  0.00     0.031 C 
ATOM     21  C   UNL A   1      45.624  23.768  27.295  1.00  0.00     0.029 A 
ATOM     22  N   UNL A   1      45.240  25.903  27.728  1.00  0.00    -0.354 N 
ATOM     23  C   UNL A   1      40.385  26.766  27.900  1.00  0.00     0.074 A 
ATOM     24  C   UNL A   1      39.742  25.496  28.046  1.00  0.00     0.031 C 
ATOM     25  C   UNL A   1      46.823  24.383  27.288  1.00  0.00     0.029 A 
ATOM     26  C   UNL A   1      46.644  25.798  27.539  1.00  0.00     0.049 A 
ATOM     27  H   UNL A   1      44.804  26.750  27.976  1.00  0.00     0.167 HD
ATOM     28  C   UNL A   1      39.970  28.012  28.273  1.00  0.00     0.037 A 
ATOM     29  C   UNL A   1      47.590  26.788  27.557  1.00  0.00     0.037 A 
ATOM     30  C   UNL A   1      41.034  28.944  28.104  1.00  0.00     0.049 A 
ATOM     31  C   UNL A   1      46.868  27.988  28.001  1.00  0.00     0.074 A 
ATOM     32  C   UNL A   1      41.616  29.487  26.989  1.00  0.00     0.029 A 
ATOM     33  N   UNL A   1      41.865  29.135  29.184  1.00  0.00    -0.354 N 
ATOM     34  N   UNL A   1      46.435  28.170  29.212  1.00  0.00    -0.248 NA
ATOM     35  C   UNL A   1      46.527  29.023  27.019  1.00  0.00     0.031 C 
ATOM     36  C   UNL A   1      42.977  29.589  27.343  1.00  0.00     0.029 A 
ATOM     37  C   UNL A   1      43.139  29.296  28.703  1.00  0.00     0.049 A 
ATOM     38  H   UNL A   1      41.593  29.153  30.131  1.00  0.00     0.167 HD
ATOM     39  C   UNL A   1      45.488  29.150  29.038  1.00  0.00     0.074 A 
ATOM     40  C   UNL A   1      45.818  29.831  27.805  1.00  0.00     0.031 C 
ATOM     41  C   UNL A   1      44.251  28.964  29.567  1.00  0.00     0.037 A 
BRANCH  28  42
ATOM     42  C   UNL A   1      38.775  28.476  29.058  1.00  0.00     0.064 A 
ATOM     43  C   UNL A   1      38.044  29.583  28.558  1.00  0.00     0.173 A 
ATOM     44  C   UNL A   1      38.547  28.142  30.398  1.00  0.00     0.173 A 
ATOM     45  F   UNL A   1      38.154  29.955  27.271  1.00  0.00    -0.203 F 
ATOM     46  C   UNL A   1      37.264  30.388  29.383  1.00  0.00     0.198 A 
ATOM     47  C   UNL A   1      37.719  28.922  31.211  1.00  0.00     0.198 A 
ATOM     48  F   UNL A   1      39.192  27.127  30.985  1.00  0.00    -0.203 F 
ATOM     49  F   UNL A   1      36.719  31.514  28.898  1.00  0.00    -0.200 F 
ATOM     50  C   UNL A   1      37.118  30.068  30.717  1.00  0.00     0.200 A 
ATOM     51  F   UNL A   1      37.572  28.602  32.504  1.00  0.00    -0.200 F 
ATOM     52  F   UNL A   1      36.431  30.878  31.534  1.00  0.00    -0.200 F 
ENDBRANCH  28  42
BRANCH  29  53
ATOM     53  C   UNL A   1      49.055  26.979  27.227  1.00  0.00     0.064 A 
ATOM     54  C   UNL A   1      50.083  27.253  28.138  1.00  0.00     0.173 A 
ATOM     55  C   UNL A   1      49.507  26.774  25.890  1.00  0.00     0.173 A 
ATOM     56  F   UNL A   1      49.821  27.560  29.412  1.00  0.00    -0.203 F 
ATOM     57  C   UNL A   1      51.440  27.219  27.766  1.00  0.00     0.198 A 
ATOM     58  C   UNL A   1      50.851  26.686  25.532  1.00  0.00     0.198 A 
ATOM     59  F   UNL A   1      48.650  26.635  24.869  1.00  0.00    -0.203 F 
ATOM     60  F   UNL A   1      52.385  27.481  28.681  1.00  0.00    -0.200 F 
ATOM     61  C   UNL A   1      51.824  26.896  26.477  1.00  0.00     0.200 A 
ATOM     62  F   UNL A   1      51.184  26.371  24.271  1.00  0.00    -0.200 F 
ATOM     63  F   UNL A   1      53.118  26.792  26.146  1.00  0.00    -0.200 F 
ENDBRANCH  29  53
BRANCH  41  64
ATOM     64  C   UNL A   1      44.235  28.020  30.766  1.00  0.00     0.064 A 
ATOM     65  C   UNL A   1      44.769  28.432  31.999  1.00  0.00     0.173 A 
ATOM     66  C   UNL A   1      43.849  26.672  30.700  1.00  0.00     0.173 A 
ATOM     67  F   UNL A   1      45.122  29.715  32.178  1.00  0.00    -0.203 F 
ATOM     68  C   UNL A   1      44.956  27.541  33.062  1.00  0.00     0.198 A 
ATOM     69  C   UNL A   1      44.038  25.774  31.753  1.00  0.00     0.198 A 
ATOM     70  F   UNL A   1      43.253  26.194  29.614  1.00  0.00    -0.203 F 
ATOM     71  F   UNL A   1      45.480  27.977  34.215  1.00  0.00    -0.200 F 
ATOM     72  C   UNL A   1      44.604  26.207  32.934  1.00  0.00     0.200 A 
ATOM     73  F   UNL A   1      43.663  24.492  31.617  1.00  0.00    -0.200 F 
ATOM     74  F   UNL A   1      44.784  25.352  33.950  1.00  0.00    -0.200 F 
ENDBRANCH  41  64
ENDBRANCH  15  16
ENDBRANCH   8  10
ENDBRANCH   7   8
ENDBRANCH   6   7
ENDBRANCH   5   6
ENDBRANCH   4   5
ENDBRANCH   3   4
ENDBRANCH   2   3
ENDBRANCH   1   2
BRANCH   1  75
ATOM     75  C   UNL A   1      34.113  24.342  23.420  1.00  0.00     0.188 C 
BRANCH  75  76
ATOM     76  C   UNL A   1      33.798  25.764  23.922  1.00  0.00     0.188 C 
BRANCH  76  77
ATOM     77  O   UNL A   1      32.617  26.061  24.657  1.00  0.00    -0.376 OA
BRANCH  77  78
ATOM     78  C   UNL A   1      32.505  25.731  26.031  1.00  0.00     0.202 C 
BRANCH  78  79
ATOM     79  C   UNL A   1      31.506  24.642  26.453  1.00  0.00     0.261 C 
BRANCH  79  80
ATOM     80  O   UNL A   1      31.609  23.386  25.772  1.00  0.00    -0.460 OA
BRANCH  80  81
ATOM     81  C   UNL A   1      32.460  22.465  26.338  1.00  0.00     0.339 C 
ATOM     82  O   UNL A   1      32.813  22.457  27.487  1.00  0.00    -0.246 OA
BRANCH  81  83
ATOM     83  C   UNL A   1      32.755  21.381  25.393  1.00  0.00     0.077 A 
ATOM     84  C   UNL A   1      32.096  21.038  24.184  1.00  0.00     0.035 A 
ATOM     85  C   UNL A   1      33.753  20.432  25.571  1.00  0.00     0.101 A 
ATOM     86  C   UNL A   1      32.710  19.913  23.671  1.00  0.00     0.087 A 
ATOM     87  N   UNL A   1      33.657  19.500  24.567  1.00  0.00    -0.344 N 
BRANCH  87  88
ATOM     88  C   UNL A   1      34.481  18.307  24.480  1.00  0.00     0.236 C 
BRANCH  88  89
ATOM     89  C   UNL A   1      33.842  17.116  23.798  1.00  0.00     0.406 C 
ATOM     90  F   UNL A   1      32.593  16.869  24.247  1.00  0.00    -0.169 F 
ATOM     91  F   UNL A   1      33.739  17.352  22.465  1.00  0.00    -0.169 F 
ATOM     92  F   UNL A   1      34.577  15.992  23.941  1.00  0.00    -0.169 F 
ENDBRANCH  88  89
ENDBRANCH  87  88
ENDBRANCH  81  83
ENDBRANCH  80  81
ENDBRANCH  79  80
ENDBRANCH  78  79
ENDBRANCH  77  78
ENDBRANCH  76  77
ENDBRANCH  75  76
ENDBRANCH   1  75
TORSDOF 22
ENDMDL
MODEL 2
REMARK VINA RESULT:      -9.8      2.993      7.641
REMARK SMILES O=C(OCCOCCOCCOCCOC(=O)c1ccn(CC(F)(F)F)c1)c1ccc(-c2c3nc(c(-c4c(F)c(F)c(F)c(F)c4F)c4ccc([nH]4)c(-c4c(F)c(F)c(F)c(F)c4F)c4nc(c(-c5c(F)c(F)c(F)c(F)c5F)c5ccc2[nH]5)C=C4)C=C3)cc1
REMARK SMILES IDX 9 1 8 2 7 3 6 4 5 5 4 6 3 7 2 8 1 9 28 10 29 11 90 12 30 13
REMARK SMILES IDX 89 14 31 15 32 16 33 17 83 18 34 19 88 20 82 21 84 22 35 23
REMARK SMILES IDX 87 24 81 25 80 26 36 28 68 29 48 30 67 31 49 32 52 33 66 34
REMARK SMILES IDX 85 35 50 36 51 37 65 39 86 40 53 41 37 42 38 43 46 44 39 45
REMARK SMILES IDX 40 46 44 47 47 48 41 49 42 50 45 51 43 52 69 53 70 54 78 55
REMARK SMILES IDX 71 56 72 57 76 58 79 59 73 60 74 61 77 62 75 63 54 64 55 65
REMARK SMILES IDX 63 66 56 67 57 68 61 69 64 70 58 71 59 72 62 73 60 74 10 75
REMARK SMILES IDX 11 76 12 77 13 78 14 79 15 80 16 81 17 82 18 83 19 84 27 85
REMARK SMILES IDX 20 86 21 87 22 88 23 89 24 90 25 91 26 92
REMARK H PARENT 84 27 52 38
REMARK Flexibility Score: inf
ROOT
ATOM      1  O   UNL A   1      30.061  26.664  24.492  1.00  0.00    -0.377 OA
ENDROOT
BRANCH   1   2
ATOM      2  C   UNL A   1      31.006  27.545  23.921  1.00  0.00     0.188 C 
BRANCH   2   3
ATOM      3  C   UNL A   1      32.377  27.605  24.613  1.00  0.00     0.188 C 
BRANCH   3   4
ATOM      4  O   UNL A   1      32.815  28.656  25.470  1.00  0.00    -0.376 OA
BRANCH   4   5
ATOM      5  C   UNL A   1      34.100  28.829  26.038  1.00  0.00     0.202 C 
BRANCH   5   6
ATOM      6  C   UNL A   1      34.339  29.671  27.300  1.00  0.00     0.261 C 
BRANCH   6   7
ATOM      7  O   UNL A   1      35.602  30.335  27.362  1.00  0.00    -0.460 OA
BRANCH   7   8
ATOM      8  C   UNL A   1      36.487  30.396  28.382  1.00  0.00     0.338 C 
ATOM      9  O   UNL A   1      36.293  31.199  29.292  1.00  0.00    -0.246 OA
BRANCH   8  10
ATOM     10  C   UNL A   1      37.669  29.506  28.474  1.00  0.00     0.060 A 
ATOM     11  C   UNL A   1      37.897  28.590  29.497  1.00  0.00     0.016 A 
ATOM     12  C   UNL A   1      38.617  29.624  27.443  1.00  0.00     0.016 A 
ATOM     13  C   UNL A   1      39.124  27.994  29.643  1.00  0.00     0.010 A 
ATOM     14  C   UNL A   1      39.835  28.969  27.534  1.00  0.00     0.010 A 
ATOM     15  C   UNL A   1      40.097  28.221  28.679  1.00  0.00    -0.014 A 
BRANCH  15  16
ATOM     16  C   UNL A   1      41.374  27.558  28.932  1.00  0.00     0.031 A 
ATOM     17  C   UNL A   1      41.360  26.132  28.385  1.00  0.00     0.074 A 
ATOM     18  C   UNL A   1      42.232  28.264  29.725  1.00  0.00     0.049 A 
ATOM     19  N   UNL A   1      41.948  25.069  28.837  1.00  0.00    -0.248 NA
ATOM     20  C   UNL A   1      40.480  25.812  27.226  1.00  0.00     0.031 C 
ATOM     21  C   UNL A   1      42.001  29.654  30.183  1.00  0.00     0.029 A 
ATOM     22  N   UNL A   1      43.434  27.976  30.331  1.00  0.00    -0.354 N 
ATOM     23  C   UNL A   1      41.717  24.040  27.901  1.00  0.00     0.074 A 
ATOM     24  C   UNL A   1      40.679  24.506  27.034  1.00  0.00     0.031 C 
ATOM     25  C   UNL A   1      42.975  30.054  31.023  1.00  0.00     0.029 A 
ATOM     26  C   UNL A   1      43.941  28.988  31.190  1.00  0.00     0.049 A 
ATOM     27  H   UNL A   1      43.910  27.127  30.180  1.00  0.00     0.167 HD
ATOM     28  C   UNL A   1      42.532  22.950  27.792  1.00  0.00     0.037 A 
ATOM     29  C   UNL A   1      45.045  28.956  31.998  1.00  0.00     0.037 A 
ATOM     30  C   UNL A   1      43.546  23.007  28.791  1.00  0.00     0.049 A 
ATOM     31  C   UNL A   1      45.723  27.698  31.656  1.00  0.00     0.074 A 
ATOM     32  C   UNL A   1      43.514  22.830  30.149  1.00  0.00     0.029 A 
ATOM     33  N   UNL A   1      44.716  23.644  28.447  1.00  0.00    -0.354 N 
ATOM     34  N   UNL A   1      46.349  27.490  30.537  1.00  0.00    -0.248 NA
ATOM     35  C   UNL A   1      45.634  26.563  32.580  1.00  0.00     0.031 C 
ATOM     36  C   UNL A   1      44.454  23.766  30.627  1.00  0.00     0.029 A 
ATOM     37  C   UNL A   1      45.155  24.328  29.552  1.00  0.00     0.049 A 
ATOM     38  H   UNL A   1      45.158  23.614  27.568  1.00  0.00     0.167 HD
ATOM     39  C   UNL A   1      46.409  26.118  30.488  1.00  0.00     0.074 A 
ATOM     40  C   UNL A   1      46.271  25.649  31.850  1.00  0.00     0.031 C 
ATOM     41  C   UNL A   1      46.000  25.486  29.358  1.00  0.00     0.037 A 
BRANCH  28  42
ATOM     42  C   UNL A   1      42.711  21.940  26.694  1.00  0.00     0.064 A 
ATOM     43  C   UNL A   1      42.166  20.646  26.890  1.00  0.00     0.173 A 
ATOM     44  C   UNL A   1      43.664  22.059  25.675  1.00  0.00     0.173 A 
ATOM     45  F   UNL A   1      41.209  20.435  27.809  1.00  0.00    -0.203 F 
ATOM     46  C   UNL A   1      42.654  19.528  26.219  1.00  0.00     0.198 A 
ATOM     47  C   UNL A   1      44.114  20.941  24.966  1.00  0.00     0.198 A 
ATOM     48  F   UNL A   1      44.260  23.227  25.409  1.00  0.00    -0.203 F 
ATOM     49  F   UNL A   1      42.216  18.304  26.551  1.00  0.00    -0.200 F 
ATOM     50  C   UNL A   1      43.645  19.674  25.269  1.00  0.00     0.200 A 
ATOM     51  F   UNL A   1      45.069  21.089  24.038  1.00  0.00    -0.200 F 
ATOM     52  F   UNL A   1      44.173  18.596  24.675  1.00  0.00    -0.200 F 
ENDBRANCH  28  42
BRANCH  29  53
ATOM     53  C   UNL A   1      45.686  29.779  33.095  1.00  0.00     0.064 A 
ATOM     54  C   UNL A   1      46.943  30.393  33.046  1.00  0.00     0.173 A 
ATOM     55  C   UNL A   1      44.946  30.072  34.278  1.00  0.00     0.173 A 
ATOM     56  F   UNL A   1      47.800  30.149  32.050  1.00  0.00    -0.203 F 
ATOM     57  C   UNL A   1      47.372  31.300  34.034  1.00  0.00     0.198 A 
ATOM     58  C   UNL A   1      45.345  31.010  35.229  1.00  0.00     0.198 A 
ATOM     59  F   UNL A   1      43.783  29.463  34.552  1.00  0.00    -0.203 F 
ATOM     60  F   UNL A   1      48.582  31.868  33.933  1.00  0.00    -0.200 F 
ATOM     61  C   UNL A   1      46.558  31.638  35.100  1.00  0.00     0.200 A 
ATOM     62  F   UNL A   1      44.527  31.310  36.250  1.00  0.00    -0.200 F 
ATOM     63  F   UNL A   1      46.939  32.556  35.998  1.00  0.00    -0.200 F 
ENDBRANCH  29  53
BRANCH  41  64
ATOM     64  C   UNL A   1      46.102  26.351  28.104  1.00  0.00     0.064 A 
ATOM     65  C   UNL A   1      47.349  26.845  27.685  1.00  0.00     0.173 A 
ATOM     66  C   UNL A   1      44.994  26.832  27.389  1.00  0.00     0.173 A 
ATOM     67  F   UNL A   1      48.473  26.407  28.273  1.00  0.00    -0.203 F 
ATOM     68  C   UNL A   1      47.465  27.796  26.664  1.00  0.00     0.198 A 
ATOM     69  C   UNL A   1      45.100  27.787  26.374  1.00  0.00     0.198 A 
ATOM     70  F   UNL A   1      43.776  26.368  27.641  1.00  0.00    -0.203 F 
ATOM     71  F   UNL A   1      48.674  28.248  26.307  1.00  0.00    -0.200 F 
ATOM     72  C   UNL A   1      46.339  28.278  26.019  1.00  0.00     0.200 A 
ATOM     73  F   UNL A   1      43.997  28.218  25.742  1.00  0.00    -0.200 F 
ATOM     74  F   UNL A   1      46.448  29.191  25.043  1.00  0.00    -0.200 F 
ENDBRANCH  41  64
ENDBRANCH  15  16
ENDBRANCH   8  10
ENDBRANCH   7   8
ENDBRANCH   6   7
ENDBRANCH   5   6
ENDBRANCH   4   5
ENDBRANCH   3   4
ENDBRANCH   2   3
ENDBRANCH   1   2
BRANCH   1  75
ATOM     75  C   UNL A   1      30.406  26.180  25.768  1.00  0.00     0.188 C 
BRANCH  75  76
ATOM     76  C   UNL A   1      29.497  25.046  26.278  1.00  0.00     0.188 C 
BRANCH  76  77
ATOM     77  O   UNL A   1      29.972  24.034  27.159  1.00  0.00    -0.376 OA
BRANCH  77  78
ATOM     78  C   UNL A   1      30.655  22.894  26.667  1.00  0.00     0.202 C 
BRANCH  78  79
ATOM     79  C   UNL A   1      31.976  23.091  25.907  1.00  0.00     0.261 C 
BRANCH  79  80
ATOM     80  O   UNL A   1      32.039  22.538  24.586  1.00  0.00    -0.460 OA
BRANCH  80  81
ATOM     81  C   UNL A   1      33.192  21.852  24.278  1.00  0.00     0.339 C 
ATOM     82  O   UNL A   1      34.299  22.318  24.275  1.00  0.00    -0.246 OA
BRANCH  81  83
ATOM     83  C   UNL A   1      32.914  20.421  24.111  1.00  0.00     0.077 A 
ATOM     84  C   UNL A   1      32.358  19.735  23.000  1.00  0.00     0.035 A 
ATOM     85  C   UNL A   1      33.116  19.461  25.094  1.00  0.00     0.101 A 
ATOM     86  C   UNL A   1      32.248  18.402  23.336  1.00  0.00     0.087 A 
ATOM     87  N   UNL A   1      32.628  18.260  24.643  1.00  0.00    -0.344 N 
BRANCH  87  88
ATOM     88  C   UNL A   1      32.584  17.045  25.439  1.00  0.00     0.236 C 
BRANCH  88  89
ATOM     89  C   UNL A   1      33.388  15.879  24.902  1.00  0.00     0.406 C 
ATOM     90  F   UNL A   1      34.563  15.717  25.547  1.00  0.00    -0.169 F 
ATOM     91  F   UNL A   1      32.689  14.727  25.068  1.00  0.00    -0.169 F 
ATOM     92  F   UNL A   1      33.640  15.999  23.581  1.00  0.00    -0.169 F 
ENDBRANCH  88  89
ENDBRANCH  87  88
ENDBRANCH  81  83
ENDBRANCH  80  81
ENDBRANCH  79  80
ENDBRANCH  78  79
ENDBRANCH  77  78
ENDBRANCH  76  77
ENDBRANCH  75  76
ENDBRANCH   1  75
TORSDOF 22
ENDMDL
MODEL 3
REMARK VINA RESULT:      -9.8      1.655      2.370
REMARK SMILES O=C(OCCOCCOCCOCCOC(=O)c1ccn(CC(F)(F)F)c1)c1ccc(-c2c3nc(c(-c4c(F)c(F)c(F)c(F)c4F)c4ccc([nH]4)c(-c4c(F)c(F)c(F)c(F)c4F)c4nc(c(-c5c(F)c(F)c(F)c(F)c5F)c5ccc2[nH]5)C=C4)C=C3)cc1
REMARK SMILES IDX 9 1 8 2 7 3 6 4 5 5 4 6 3 7 2 8 1 9 28 10 29 11 90 12 30 13
REMARK SMILES IDX 89 14 31 15 32 16 33 17 83 18 34 19 88 20 82 21 84 22 35 23
REMARK SMILES IDX 87 24 81 25 80 26 36 28 68 29 48 30 67 31 49 32 52 33 66 34
REMARK SMILES IDX 85 35 50 36 51 37 65 39 86 40 53 41 37 42 38 43 46 44 39 45
REMARK SMILES IDX 40 46 44 47 47 48 41 49 42 50 45 51 43 52 69 53 70 54 78 55
REMARK SMILES IDX 71 56 72 57 76 58 79 59 73 60 74 61 77 62 75 63 54 64 55 65
REMARK SMILES IDX 63 66 56 67 57 68 61 69 64 70 58 71 59 72 62 73 60 74 10 75
REMARK SMILES IDX 11 76 12 77 13 78 14 79 15 80 16 81 17 82 18 83 19 84 27 85
REMARK SMILES IDX 20 86 21 87 22 88 23 89 24 90 25 91 26 92
REMARK H PARENT 84 27 52 38
REMARK Flexibility Score: inf
ROOT
ATOM      1  O   UNL A   1      38.407  22.172  26.397  1.00  0.00    -0.377 OA
ENDROOT
BRANCH   1   2
ATOM      2  C   UNL A   1      39.716  21.748  26.074  1.00  0.00     0.188 C 
BRANCH   2   3
ATOM      3  C   UNL A   1      39.945  20.229  26.042  1.00  0.00     0.188 C 
BRANCH   3   4
ATOM      4  O   UNL A   1      41.113  19.568  26.520  1.00  0.00    -0.376 OA
BRANCH   4   5
ATOM      5  C   UNL A   1      42.430  19.664  26.010  1.00  0.00     0.202 C 
BRANCH   5   6
ATOM      6  C   UNL A   1      43.242  18.431  25.583  1.00  0.00     0.261 C 
BRANCH   6   7
ATOM      7  O   UNL A   1      44.404  18.706  24.798  1.00  0.00    -0.460 OA
BRANCH   7   8
ATOM      8  C   UNL A   1      44.682  19.783  24.031  1.00  0.00     0.338 C 
ATOM      9  O   UNL A   1      44.665  19.664  22.808  1.00  0.00    -0.246 OA
BRANCH   8  10
ATOM     10  C   UNL A   1      44.971  21.121  24.600  1.00  0.00     0.060 A 
ATOM     11  C   UNL A   1      45.536  21.346  25.853  1.00  0.00     0.016 A 
ATOM     12  C   UNL A   1      44.631  22.224  23.800  1.00  0.00     0.016 A 
ATOM     13  C   UNL A   1      45.535  22.602  26.405  1.00  0.00     0.010 A 
ATOM     14  C   UNL A   1      44.695  23.509  24.314  1.00  0.00     0.010 A 
ATOM     15  C   UNL A   1      45.076  23.668  25.645  1.00  0.00    -0.014 A 
BRANCH  15  16
ATOM     16  C   UNL A   1      45.098  24.960  26.326  1.00  0.00     0.031 A 
ATOM     17  C   UNL A   1      43.681  25.508  26.493  1.00  0.00     0.074 A 
ATOM     18  C   UNL A   1      46.346  25.476  26.522  1.00  0.00     0.049 A 
ATOM     19  N   UNL A   1      43.265  26.735  26.483  1.00  0.00    -0.248 NA
ATOM     20  C   UNL A   1      42.543  24.550  26.576  1.00  0.00     0.031 C 
ATOM     21  C   UNL A   1      47.607  24.757  26.230  1.00  0.00     0.029 A 
ATOM     22  N   UNL A   1      46.823  26.691  26.963  1.00  0.00    -0.354 N 
ATOM     23  C   UNL A   1      41.891  26.707  26.801  1.00  0.00     0.074 A 
ATOM     24  C   UNL A   1      41.474  25.344  26.677  1.00  0.00     0.031 C 
ATOM     25  C   UNL A   1      48.676  25.551  26.439  1.00  0.00     0.029 A 
ATOM     26  C   UNL A   1      48.233  26.851  26.897  1.00  0.00     0.049 A 
ATOM     27  H   UNL A   1      46.228  27.399  27.300  1.00  0.00     0.167 HD
ATOM     28  C   UNL A   1      41.238  27.783  27.328  1.00  0.00     0.037 A 
ATOM     29  C   UNL A   1      48.985  27.963  27.165  1.00  0.00     0.037 A 
ATOM     30  C   UNL A   1      42.129  28.892  27.416  1.00  0.00     0.049 A 
ATOM     31  C   UNL A   1      48.033  28.932  27.724  1.00  0.00     0.074 A 
ATOM     32  C   UNL A   1      42.680  29.709  26.465  1.00  0.00     0.029 A 
ATOM     33  N   UNL A   1      42.838  29.023  28.588  1.00  0.00    -0.354 N 
ATOM     34  N   UNL A   1      47.495  28.826  28.902  1.00  0.00    -0.248 NA
ATOM     35  C   UNL A   1      47.582  30.054  26.895  1.00  0.00     0.031 C 
ATOM     36  C   UNL A   1      43.974  29.968  26.960  1.00  0.00     0.029 A 
ATOM     37  C   UNL A   1      44.093  29.471  28.264  1.00  0.00     0.049 A 
ATOM     38  H   UNL A   1      42.504  28.830  29.494  1.00  0.00     0.167 HD
ATOM     39  C   UNL A   1      46.403  29.654  28.798  1.00  0.00     0.074 A 
ATOM     40  C   UNL A   1      46.690  30.585  27.728  1.00  0.00     0.031 C 
ATOM     41  C   UNL A   1      45.185  29.178  29.167  1.00  0.00     0.037 A 
BRANCH  28  42
ATOM     42  C   UNL A   1      39.929  27.901  28.058  1.00  0.00     0.064 A 
ATOM     43  C   UNL A   1      39.066  28.967  27.700  1.00  0.00     0.173 A 
ATOM     44  C   UNL A   1      39.662  27.278  29.283  1.00  0.00     0.173 A 
ATOM     45  F   UNL A   1      39.206  29.601  26.523  1.00  0.00    -0.203 F 
ATOM     46  C   UNL A   1      38.106  29.468  28.575  1.00  0.00     0.198 A 
ATOM     47  C   UNL A   1      38.661  27.750  30.137  1.00  0.00     0.198 A 
ATOM     48  F   UNL A   1      40.420  26.271  29.734  1.00  0.00    -0.203 F 
ATOM     49  F   UNL A   1      37.421  30.576  28.254  1.00  0.00    -0.200 F 
ATOM     50  C   UNL A   1      37.918  28.870  29.805  1.00  0.00     0.200 A 
ATOM     51  F   UNL A   1      38.475  27.161  31.325  1.00  0.00    -0.200 F 
ATOM     52  F   UNL A   1      37.051  29.392  30.682  1.00  0.00    -0.200 F 
ENDBRANCH  28  42
BRANCH  29  53
ATOM     53  C   UNL A   1      50.412  28.444  27.014  1.00  0.00     0.064 A 
ATOM     54  C   UNL A   1      51.274  28.827  28.049  1.00  0.00     0.173 A 
ATOM     55  C   UNL A   1      51.024  28.437  25.726  1.00  0.00     0.173 A 
ATOM     56  F   UNL A   1      50.835  28.975  29.302  1.00  0.00    -0.203 F 
ATOM     57  C   UNL A   1      52.643  29.071  27.830  1.00  0.00     0.198 A 
ATOM     58  C   UNL A   1      52.389  28.625  25.515  1.00  0.00     0.198 A 
ATOM     59  F   UNL A   1      50.314  28.227  24.608  1.00  0.00    -0.203 F 
ATOM     60  F   UNL A   1      53.426  29.426  28.859  1.00  0.00    -0.200 F 
ATOM     61  C   UNL A   1      53.206  28.931  26.574  1.00  0.00     0.200 A 
ATOM     62  F   UNL A   1      52.897  28.481  24.282  1.00  0.00    -0.200 F 
ATOM     63  F   UNL A   1      54.522  29.093  26.384  1.00  0.00    -0.200 F 
ENDBRANCH  29  53
BRANCH  41  64
ATOM     64  C   UNL A   1      45.256  28.049  30.191  1.00  0.00     0.064 A 
ATOM     65  C   UNL A   1      45.846  28.268  31.448  1.00  0.00     0.173 A 
ATOM     66  C   UNL A   1      44.898  26.719  29.920  1.00  0.00     0.173 A 
ATOM     67  F   UNL A   1      46.179  29.514  31.821  1.00  0.00    -0.203 F 
ATOM     68  C   UNL A   1      46.110  27.219  32.336  1.00  0.00     0.198 A 
ATOM     69  C   UNL A   1      45.163  25.665  30.798  1.00  0.00     0.198 A 
ATOM     70  F   UNL A   1      44.255  26.409  28.800  1.00  0.00    -0.203 F 
ATOM     71  F   UNL A   1      46.685  27.474  33.518  1.00  0.00    -0.200 F 
ATOM     72  C   UNL A   1      45.782  25.915  32.004  1.00  0.00     0.200 A 
ATOM     73  F   UNL A   1      44.811  24.413  30.468  1.00  0.00    -0.200 F 
ATOM     74  F   UNL A   1      46.036  24.909  32.853  1.00  0.00    -0.200 F 
ENDBRANCH  41  64
ENDBRANCH  15  16
ENDBRANCH   8  10
ENDBRANCH   7   8
ENDBRANCH   6   7
ENDBRANCH   5   6
ENDBRANCH   4   5
ENDBRANCH   3   4
ENDBRANCH   2   3
ENDBRANCH   1   2
BRANCH   1  75
ATOM     75  C   UNL A   1      37.777  22.940  25.400  1.00  0.00     0.188 C 
BRANCH  75  76
ATOM     76  C   UNL A   1      36.517  23.685  25.882  1.00  0.00     0.188 C 
BRANCH  76  77
ATOM     77  O   UNL A   1      35.542  24.186  24.974  1.00  0.00    -0.376 OA
BRANCH  77  78
ATOM     78  C   UNL A   1      34.354  24.802  25.440  1.00  0.00     0.202 C 
BRANCH  78  79
ATOM     79  C   UNL A   1      32.999  24.201  25.035  1.00  0.00     0.261 C 
BRANCH  79  80
ATOM     80  O   UNL A   1      33.028  22.876  24.490  1.00  0.00    -0.460 OA
BRANCH  80  81
ATOM     81  C   UNL A   1      32.123  21.988  25.024  1.00  0.00     0.339 C 
ATOM     82  O   UNL A   1      31.146  22.285  25.657  1.00  0.00    -0.246 OA
BRANCH  81  83
ATOM     83  C   UNL A   1      32.412  20.620  24.577  1.00  0.00     0.077 A 
ATOM     84  C   UNL A   1      32.217  20.031  23.300  1.00  0.00     0.035 A 
ATOM     85  C   UNL A   1      32.902  19.612  25.396  1.00  0.00     0.101 A 
ATOM     86  C   UNL A   1      32.596  18.707  23.382  1.00  0.00     0.087 A 
ATOM     87  N   UNL A   1      32.925  18.439  24.682  1.00  0.00    -0.344 N 
BRANCH  87  88
ATOM     88  C   UNL A   1      33.295  17.150  25.243  1.00  0.00     0.236 C 
BRANCH  88  89
ATOM     89  C   UNL A   1      34.553  16.525  24.678  1.00  0.00     0.406 C 
ATOM     90  F   UNL A   1      34.920  15.408  25.341  1.00  0.00    -0.169 F 
ATOM     91  F   UNL A   1      34.343  16.161  23.386  1.00  0.00    -0.169 F 
ATOM     92  F   UNL A   1      35.594  17.384  24.679  1.00  0.00    -0.169 F 
ENDBRANCH  88  89
ENDBRANCH  87  88
ENDBRANCH  81  83
ENDBRANCH  80  81
ENDBRANCH  79  80
ENDBRANCH  78  79
ENDBRANCH  77  78
ENDBRANCH  76  77
ENDBRANCH  75  76
ENDBRANCH   1  75
TORSDOF 22
ENDMDL
