MODEL 1
REMARK VINA RESULT:     -10.7      0.000      0.000
REMARK SMILES CC[C@@H]1CC[C@@](Cc2ccc(O)cc2)(C(=O)OCCOCCOCCOCCOC(=O)c2ccc(-c3c4nc(c(-c5c(F)c(F)c(F)c(F)c5F)c5ccc([nH]5)c(-c5c(F)c(F)c(F)c(F)c5F)c5nc(c(-c6c(F)c(F)c(F)c(F)c6F)c6ccc3[nH]6)C=C5)C=C4)cc2)C1
REMARK SMILES IDX 22 1 21 2 20 3 19 4 18 5 17 6 15 7 16 8 6 9 3 10 4 11 95 12
REMARK SMILES IDX 5 13 2 14 1 15 7 16 8 17 9 18 14 19 10 20 13 21 11 22 12 23
REMARK SMILES IDX 23 25 24 26 25 27 26 28 27 29 28 30 29 31 30 32 31 33 32 34
REMARK SMILES IDX 33 35 94 36 34 37 93 38 35 39 36 40 37 41 87 42 38 43 92 44
REMARK SMILES IDX 86 45 88 46 39 47 91 48 85 49 84 50 40 52 72 53 52 54 71 55
REMARK SMILES IDX 53 56 56 57 70 58 89 59 54 60 55 61 69 63 90 64 57 65 41 66
REMARK SMILES IDX 42 67 50 68 43 69 44 70 48 71 51 72 45 73 46 74 49 75 47 76
REMARK SMILES IDX 73 77 74 78 82 79 75 80 76 81 80 82 83 83 77 84 78 85 81 86
REMARK SMILES IDX 79 87 58 88 59 89 67 90 60 91 61 92 65 93 68 94 62 95 63 96
REMARK SMILES IDX 66 97 64 98
REMARK H PARENT 12 24 88 51 56 62
REMARK Flexibility Score: inf
ROOT
ATOM      1  C   UNL A   1      40.033  20.618  26.160  1.00  0.00     0.188 C 
ENDROOT
BRANCH   1   2
ATOM      2  C   UNL A   1      39.080  21.822  26.033  1.00  0.00     0.188 C 
BRANCH   2   3
ATOM      3  O   UNL A   1      37.910  21.589  25.284  1.00  0.00    -0.376 OA
BRANCH   3   4
ATOM      4  C   UNL A   1      36.648  22.102  25.642  1.00  0.00     0.202 C 
BRANCH   4   5
ATOM      5  C   UNL A   1      36.310  23.578  25.900  1.00  0.00     0.261 C 
BRANCH   5   6
ATOM      6  O   UNL A   1      35.035  23.926  26.450  1.00  0.00    -0.463 OA
BRANCH   6   7
ATOM      7  C   UNL A   1      34.222  24.682  25.670  1.00  0.00     0.312 C 
ATOM      8  O   UNL A   1      34.597  25.728  25.147  1.00  0.00    -0.252 OA
BRANCH   7   9
ATOM      9  C   UNL A   1      32.754  24.185  25.592  1.00  0.00     0.072 C 
ATOM     10  C   UNL A   1      32.868  22.652  23.713  1.00  0.00    -0.010 C 
ATOM     11  C   UNL A   1      32.287  21.834  24.855  1.00  0.00     0.005 C 
ATOM     12  C   UNL A   1      32.414  24.078  24.071  1.00  0.00     0.022 C 
ATOM     13  C   UNL A   1      32.369  22.756  26.075  1.00  0.00     0.019 C 
BRANCH  10  14
ATOM     14  C   UNL A   1      32.553  22.139  22.307  1.00  0.00     0.000 C 
ATOM     15  C   UNL A   1      31.922  20.761  22.217  1.00  0.00     0.004 C 
ENDBRANCH  10  14
BRANCH   9  16
ATOM     16  C   UNL A   1      31.929  25.249  26.378  1.00  0.00     0.054 C 
BRANCH  16  17
ATOM     17  C   UNL A   1      31.141  26.182  25.458  1.00  0.00    -0.047 A 
ATOM     18  C   UNL A   1      29.926  25.781  24.884  1.00  0.00     0.007 A 
ATOM     19  C   UNL A   1      31.689  27.411  25.054  1.00  0.00     0.007 A 
ATOM     20  C   UNL A   1      29.344  26.513  23.843  1.00  0.00     0.046 A 
ATOM     21  C   UNL A   1      31.100  28.155  24.030  1.00  0.00     0.046 A 
ATOM     22  C   UNL A   1      29.951  27.685  23.410  1.00  0.00     0.115 A 
BRANCH  22  23
ATOM     23  O   UNL A   1      29.455  28.403  22.363  1.00  0.00    -0.508 OA
ATOM     24  H   UNL A   1      29.883  28.372  21.529  1.00  0.00     0.293 HD
ENDBRANCH  22  23
ENDBRANCH  16  17
ENDBRANCH   9  16
ENDBRANCH   7   9
ENDBRANCH   6   7
ENDBRANCH   5   6
ENDBRANCH   4   5
ENDBRANCH   3   4
ENDBRANCH   2   3
ENDBRANCH   1   2
BRANCH   1  25
ATOM     25  O   UNL A   1      40.850  20.350  27.282  1.00  0.00    -0.377 OA
BRANCH  25  26
ATOM     26  C   UNL A   1      42.242  20.504  27.114  1.00  0.00     0.188 C 
BRANCH  26  27
ATOM     27  C   UNL A   1      42.768  19.565  26.023  1.00  0.00     0.188 C 
BRANCH  27  28
ATOM     28  O   UNL A   1      43.450  20.228  24.973  1.00  0.00    -0.376 OA
BRANCH  28  29
ATOM     29  C   UNL A   1      44.219  21.403  25.202  1.00  0.00     0.202 C 
BRANCH  29  30
ATOM     30  C   UNL A   1      44.413  22.594  24.232  1.00  0.00     0.261 C 
BRANCH  30  31
ATOM     31  O   UNL A   1      43.759  23.836  24.500  1.00  0.00    -0.460 OA
BRANCH  31  32
ATOM     32  C   UNL A   1      44.484  24.829  25.039  1.00  0.00     0.338 C 
ATOM     33  O   UNL A   1      45.620  25.161  24.747  1.00  0.00    -0.246 OA
BRANCH  32  34
ATOM     34  C   UNL A   1      43.577  25.592  25.922  1.00  0.00     0.060 A 
ATOM     35  C   UNL A   1      43.799  26.967  26.072  1.00  0.00     0.016 A 
ATOM     36  C   UNL A   1      42.510  24.970  26.579  1.00  0.00     0.016 A 
ATOM     37  C   UNL A   1      42.989  27.714  26.919  1.00  0.00     0.010 A 
ATOM     38  C   UNL A   1      41.719  25.713  27.460  1.00  0.00     0.010 A 
ATOM     39  C   UNL A   1      41.992  27.077  27.668  1.00  0.00    -0.014 A 
BRANCH  39  40
ATOM     40  C   UNL A   1      41.458  27.786  28.853  1.00  0.00     0.031 A 
ATOM     41  C   UNL A   1      42.216  27.648  30.146  1.00  0.00     0.074 A 
ATOM     42  C   UNL A   1      40.401  28.609  28.764  1.00  0.00     0.049 A 
ATOM     43  N   UNL A   1      41.999  28.212  31.306  1.00  0.00    -0.248 NA
ATOM     44  C   UNL A   1      43.386  26.753  30.123  1.00  0.00     0.031 C 
ATOM     45  C   UNL A   1      39.624  28.862  27.553  1.00  0.00     0.029 A 
ATOM     46  N   UNL A   1      39.805  29.393  29.720  1.00  0.00    -0.354 N 
ATOM     47  C   UNL A   1      43.004  27.744  32.143  1.00  0.00     0.074 A 
ATOM     48  C   UNL A   1      43.807  26.821  31.375  1.00  0.00     0.031 C 
ATOM     49  C   UNL A   1      38.648  29.741  27.840  1.00  0.00     0.029 A 
ATOM     50  C   UNL A   1      38.719  30.092  29.258  1.00  0.00     0.049 A 
ATOM     51  H   UNL A   1      40.127  29.448  30.649  1.00  0.00     0.167 HD
ATOM     52  C   UNL A   1      43.244  28.067  33.434  1.00  0.00     0.037 A 
ATOM     53  C   UNL A   1      37.876  30.911  29.917  1.00  0.00     0.037 A 
ATOM     54  C   UNL A   1      42.438  28.983  34.197  1.00  0.00     0.049 A 
ATOM     55  C   UNL A   1      38.117  31.190  31.380  1.00  0.00     0.074 A 
ATOM     56  C   UNL A   1      42.597  29.386  35.509  1.00  0.00     0.029 A 
ATOM     57  N   UNL A   1      41.310  29.629  33.711  1.00  0.00    -0.354 N 
ATOM     58  N   UNL A   1      39.084  30.769  32.159  1.00  0.00    -0.248 NA
ATOM     59  C   UNL A   1      37.150  32.069  32.052  1.00  0.00     0.031 C 
ATOM     60  C   UNL A   1      41.530  30.229  35.837  1.00  0.00     0.029 A 
ATOM     61  C   UNL A   1      40.744  30.405  34.709  1.00  0.00     0.049 A 
ATOM     62  H   UNL A   1      40.964  29.548  32.793  1.00  0.00     0.167 HD
ATOM     63  C   UNL A   1      38.860  31.351  33.401  1.00  0.00     0.074 A 
ATOM     64  C   UNL A   1      37.676  32.175  33.263  1.00  0.00     0.031 C 
ATOM     65  C   UNL A   1      39.565  31.217  34.552  1.00  0.00     0.037 A 
BRANCH  52  66
ATOM     66  C   UNL A   1      44.405  27.396  34.109  1.00  0.00     0.064 A 
ATOM     67  C   UNL A   1      45.685  27.969  34.127  1.00  0.00     0.173 A 
ATOM     68  C   UNL A   1      44.227  26.166  34.760  1.00  0.00     0.173 A 
ATOM     69  F   UNL A   1      45.913  29.135  33.502  1.00  0.00    -0.203 F 
ATOM     70  C   UNL A   1      46.751  27.322  34.748  1.00  0.00     0.198 A 
ATOM     71  C   UNL A   1      45.288  25.538  35.408  1.00  0.00     0.198 A 
ATOM     72  F   UNL A   1      43.024  25.573  34.771  1.00  0.00    -0.203 F 
ATOM     73  F   UNL A   1      47.977  27.863  34.707  1.00  0.00    -0.200 F 
ATOM     74  C   UNL A   1      46.550  26.112  35.395  1.00  0.00     0.200 A 
ATOM     75  F   UNL A   1      45.089  24.374  36.042  1.00  0.00    -0.200 F 
ATOM     76  F   UNL A   1      47.574  25.494  35.998  1.00  0.00    -0.200 F 
ENDBRANCH  52  66
BRANCH  53  77
ATOM     77  C   UNL A   1      36.717  31.518  29.208  1.00  0.00     0.064 A 
ATOM     78  C   UNL A   1      36.686  32.886  28.901  1.00  0.00     0.173 A 
ATOM     79  C   UNL A   1      35.601  30.746  28.852  1.00  0.00     0.173 A 
ATOM     80  F   UNL A   1      37.717  33.672  29.243  1.00  0.00    -0.203 F 
ATOM     81  C   UNL A   1      35.574  33.461  28.289  1.00  0.00     0.198 A 
ATOM     82  C   UNL A   1      34.504  31.316  28.210  1.00  0.00     0.198 A 
ATOM     83  F   UNL A   1      35.578  29.433  29.122  1.00  0.00    -0.203 F 
ATOM     84  F   UNL A   1      35.549  34.781  28.055  1.00  0.00    -0.200 F 
ATOM     85  C   UNL A   1      34.486  32.676  27.938  1.00  0.00     0.200 A 
ATOM     86  F   UNL A   1      33.464  30.550  27.858  1.00  0.00    -0.200 F 
ATOM     87  F   UNL A   1      33.420  33.229  27.345  1.00  0.00    -0.200 F 
ENDBRANCH  53  77
BRANCH  65  88
ATOM     88  C   UNL A   1      39.093  32.003  35.744  1.00  0.00     0.064 A 
ATOM     89  C   UNL A   1      38.251  31.440  36.714  1.00  0.00     0.173 A 
ATOM     90  C   UNL A   1      39.511  33.330  35.930  1.00  0.00     0.173 A 
ATOM     91  F   UNL A   1      37.812  30.179  36.578  1.00  0.00    -0.203 F 
ATOM     92  C   UNL A   1      37.812  32.189  37.803  1.00  0.00     0.198 A 
ATOM     93  C   UNL A   1      39.101  34.064  37.040  1.00  0.00     0.198 A 
ATOM     94  F   UNL A   1      40.327  33.915  35.039  1.00  0.00    -0.203 F 
ATOM     95  F   UNL A   1      36.956  31.650  38.683  1.00  0.00    -0.200 F 
ATOM     96  C   UNL A   1      38.242  33.496  37.969  1.00  0.00     0.200 A 
ATOM     97  F   UNL A   1      39.534  35.321  37.208  1.00  0.00    -0.200 F 
ATOM     98  F   UNL A   1      37.822  34.214  39.019  1.00  0.00    -0.200 F 
ENDBRANCH  65  88
ENDBRANCH  39  40
ENDBRANCH  32  34
ENDBRANCH  31  32
ENDBRANCH  30  31
ENDBRANCH  29  30
ENDBRANCH  28  29
ENDBRANCH  27  28
ENDBRANCH  26  27
ENDBRANCH  25  26
ENDBRANCH   1  25
TORSDOF 24
ENDMDL
MODEL 2
REMARK VINA RESULT:     -10.5      3.471      8.875
REMARK SMILES CC[C@@H]1CC[C@@](Cc2ccc(O)cc2)(C(=O)OCCOCCOCCOCCOC(=O)c2ccc(-c3c4nc(c(-c5c(F)c(F)c(F)c(F)c5F)c5ccc([nH]5)c(-c5c(F)c(F)c(F)c(F)c5F)c5nc(c(-c6c(F)c(F)c(F)c(F)c6F)c6ccc3[nH]6)C=C5)C=C4)cc2)C1
REMARK SMILES IDX 22 1 21 2 20 3 19 4 18 5 17 6 15 7 16 8 6 9 3 10 4 11 95 12
REMARK SMILES IDX 5 13 2 14 1 15 7 16 8 17 9 18 14 19 10 20 13 21 11 22 12 23
REMARK SMILES IDX 23 25 24 26 25 27 26 28 27 29 28 30 29 31 30 32 31 33 32 34
REMARK SMILES IDX 33 35 94 36 34 37 93 38 35 39 36 40 37 41 87 42 38 43 92 44
REMARK SMILES IDX 86 45 88 46 39 47 91 48 85 49 84 50 40 52 72 53 52 54 71 55
REMARK SMILES IDX 53 56 56 57 70 58 89 59 54 60 55 61 69 63 90 64 57 65 41 66
REMARK SMILES IDX 42 67 50 68 43 69 44 70 48 71 51 72 45 73 46 74 49 75 47 76
REMARK SMILES IDX 73 77 74 78 82 79 75 80 76 81 80 82 83 83 77 84 78 85 81 86
REMARK SMILES IDX 79 87 58 88 59 89 67 90 60 91 61 92 65 93 68 94 62 95 63 96
REMARK SMILES IDX 66 97 64 98
REMARK H PARENT 12 24 88 51 56 62
REMARK Flexibility Score: inf
ROOT
ATOM      1  C   UNL A   1      33.924  27.905  25.817  1.00  0.00     0.188 C 
ENDROOT
BRANCH   1   2
ATOM      2  C   UNL A   1      33.401  26.607  25.173  1.00  0.00     0.188 C 
BRANCH   2   3
ATOM      3  O   UNL A   1      32.908  26.741  23.860  1.00  0.00    -0.376 OA
BRANCH   3   4
ATOM      4  C   UNL A   1      33.427  26.027  22.763  1.00  0.00     0.202 C 
BRANCH   4   5
ATOM      5  C   UNL A   1      32.858  24.724  22.180  1.00  0.00     0.261 C 
BRANCH   5   6
ATOM      6  O   UNL A   1      33.177  23.474  22.801  1.00  0.00    -0.463 OA
BRANCH   6   7
ATOM      7  C   UNL A   1      32.380  23.084  23.828  1.00  0.00     0.312 C 
ATOM      8  O   UNL A   1      31.208  23.440  23.923  1.00  0.00    -0.252 OA
BRANCH   7   9
ATOM      9  C   UNL A   1      33.098  22.260  24.929  1.00  0.00     0.072 C 
ATOM     10  C   UNL A   1      35.292  23.299  24.947  1.00  0.00    -0.010 C 
ATOM     11  C   UNL A   1      34.807  23.377  26.385  1.00  0.00     0.005 C 
ATOM     12  C   UNL A   1      34.562  22.049  24.425  1.00  0.00     0.022 C 
ATOM     13  C   UNL A   1      33.362  22.871  26.337  1.00  0.00     0.019 C 
BRANCH  10  14
ATOM     14  C   UNL A   1      36.809  23.365  24.758  1.00  0.00     0.000 C 
ATOM     15  C   UNL A   1      37.613  23.893  25.932  1.00  0.00     0.004 C 
ENDBRANCH  10  14
BRANCH   9  16
ATOM     16  C   UNL A   1      32.254  20.957  25.067  1.00  0.00     0.054 C 
BRANCH  16  17
ATOM     17  C   UNL A   1      32.868  19.774  24.316  1.00  0.00    -0.047 A 
ATOM     18  C   UNL A   1      32.277  19.269  23.149  1.00  0.00     0.007 A 
ATOM     19  C   UNL A   1      33.960  19.078  24.859  1.00  0.00     0.007 A 
ATOM     20  C   UNL A   1      32.673  18.037  22.616  1.00  0.00     0.046 A 
ATOM     21  C   UNL A   1      34.371  17.857  24.319  1.00  0.00     0.046 A 
ATOM     22  C   UNL A   1      33.705  17.331  23.222  1.00  0.00     0.115 A 
BRANCH  22  23
ATOM     23  O   UNL A   1      34.088  16.101  22.775  1.00  0.00    -0.508 OA
ATOM     24  H   UNL A   1      34.782  16.026  22.150  1.00  0.00     0.293 HD
ENDBRANCH  22  23
ENDBRANCH  16  17
ENDBRANCH   9  16
ENDBRANCH   7   9
ENDBRANCH   6   7
ENDBRANCH   5   6
ENDBRANCH   4   5
ENDBRANCH   3   4
ENDBRANCH   2   3
ENDBRANCH   1   2
BRANCH   1  25
ATOM     25  O   UNL A   1      33.345  28.539  26.940  1.00  0.00    -0.377 OA
BRANCH  25  26
ATOM     26  C   UNL A   1      32.005  28.963  26.818  1.00  0.00     0.188 C 
BRANCH  26  27
ATOM     27  C   UNL A   1      31.768  29.642  25.465  1.00  0.00     0.188 C 
BRANCH  27  28
ATOM     28  O   UNL A   1      31.312  30.980  25.563  1.00  0.00    -0.376 OA
BRANCH  28  29
ATOM     29  C   UNL A   1      31.468  31.740  26.756  1.00  0.00     0.202 C 
BRANCH  29  30
ATOM     30  C   UNL A   1      32.219  33.084  26.913  1.00  0.00     0.261 C 
BRANCH  30  31
ATOM     31  O   UNL A   1      32.896  33.376  28.138  1.00  0.00    -0.460 OA
BRANCH  31  32
ATOM     32  C   UNL A   1      33.986  34.158  28.086  1.00  0.00     0.338 C 
ATOM     33  O   UNL A   1      34.029  35.358  27.880  1.00  0.00    -0.246 OA
BRANCH  32  34
ATOM     34  C   UNL A   1      35.128  33.331  28.531  1.00  0.00     0.060 A 
ATOM     35  C   UNL A   1      34.861  32.065  29.068  1.00  0.00     0.016 A 
ATOM     36  C   UNL A   1      36.445  33.784  28.405  1.00  0.00     0.016 A 
ATOM     37  C   UNL A   1      35.904  31.271  29.529  1.00  0.00     0.010 A 
ATOM     38  C   UNL A   1      37.491  33.001  28.902  1.00  0.00     0.010 A 
ATOM     39  C   UNL A   1      37.214  31.765  29.511  1.00  0.00    -0.014 A 
BRANCH  39  40
ATOM     40  C   UNL A   1      38.212  31.108  30.385  1.00  0.00     0.031 A 
ATOM     41  C   UNL A   1      39.116  30.082  29.758  1.00  0.00     0.074 A 
ATOM     42  C   UNL A   1      38.382  31.479  31.664  1.00  0.00     0.049 A 
ATOM     43  N   UNL A   1      40.109  29.411  30.283  1.00  0.00    -0.248 NA
ATOM     44  C   UNL A   1      38.871  29.778  28.337  1.00  0.00     0.031 C 
ATOM     45  C   UNL A   1      37.601  32.499  32.361  1.00  0.00     0.029 A 
ATOM     46  N   UNL A   1      39.283  31.041  32.602  1.00  0.00    -0.354 N 
ATOM     47  C   UNL A   1      40.604  28.612  29.259  1.00  0.00     0.074 A 
ATOM     48  C   UNL A   1      39.782  28.851  28.094  1.00  0.00     0.031 C 
ATOM     49  C   UNL A   1      38.055  32.607  33.622  1.00  0.00     0.029 A 
ATOM     50  C   UNL A   1      39.141  31.648  33.825  1.00  0.00     0.049 A 
ATOM     51  H   UNL A   1      39.966  30.358  32.415  1.00  0.00     0.167 HD
ATOM     52  C   UNL A   1      41.660  27.767  29.284  1.00  0.00     0.037 A 
ATOM     53  C   UNL A   1      39.809  31.436  34.975  1.00  0.00     0.037 A 
ATOM     54  C   UNL A   1      42.471  27.530  30.447  1.00  0.00     0.049 A 
ATOM     55  C   UNL A   1      40.930  30.426  34.998  1.00  0.00     0.074 A 
ATOM     56  C   UNL A   1      43.569  26.700  30.580  1.00  0.00     0.029 A 
ATOM     57  N   UNL A   1      42.261  28.120  31.686  1.00  0.00    -0.354 N 
ATOM     58  N   UNL A   1      41.412  29.696  34.022  1.00  0.00    -0.248 NA
ATOM     59  C   UNL A   1      41.604  30.219  36.288  1.00  0.00     0.031 C 
ATOM     60  C   UNL A   1      43.986  26.740  31.914  1.00  0.00     0.029 A 
ATOM     61  C   UNL A   1      43.191  27.647  32.598  1.00  0.00     0.049 A 
ATOM     62  H   UNL A   1      41.557  28.778  31.886  1.00  0.00     0.167 HD
ATOM     63  C   UNL A   1      42.462  28.967  34.568  1.00  0.00     0.074 A 
ATOM     64  C   UNL A   1      42.559  29.361  35.959  1.00  0.00     0.031 C 
ATOM     65  C   UNL A   1      43.271  28.052  33.978  1.00  0.00     0.037 A 
BRANCH  52  66
ATOM     66  C   UNL A   1      41.970  27.013  28.023  1.00  0.00     0.064 A 
ATOM     67  C   UNL A   1      42.891  27.492  27.080  1.00  0.00     0.173 A 
ATOM     68  C   UNL A   1      41.344  25.785  27.764  1.00  0.00     0.173 A 
ATOM     69  F   UNL A   1      43.502  28.671  27.270  1.00  0.00    -0.203 F 
ATOM     70  C   UNL A   1      43.154  26.782  25.911  1.00  0.00     0.198 A 
ATOM     71  C   UNL A   1      41.634  25.062  26.610  1.00  0.00     0.198 A 
ATOM     72  F   UNL A   1      40.452  25.282  28.632  1.00  0.00    -0.203 F 
ATOM     73  F   UNL A   1      43.998  27.284  24.999  1.00  0.00    -0.200 F 
ATOM     74  C   UNL A   1      42.532  25.564  25.681  1.00  0.00     0.200 A 
ATOM     75  F   UNL A   1      41.039  23.880  26.395  1.00  0.00    -0.200 F 
ATOM     76  F   UNL A   1      42.791  24.878  24.559  1.00  0.00    -0.200 F 
ENDBRANCH  52  66
BRANCH  53  77
ATOM     77  C   UNL A   1      39.433  32.184  36.206  1.00  0.00     0.064 A 
ATOM     78  C   UNL A   1      38.422  31.720  37.059  1.00  0.00     0.173 A 
ATOM     79  C   UNL A   1      40.057  33.396  36.535  1.00  0.00     0.173 A 
ATOM     80  F   UNL A   1      37.778  30.578  36.775  1.00  0.00    -0.203 F 
ATOM     81  C   UNL A   1      38.033  32.452  38.180  1.00  0.00     0.198 A 
ATOM     82  C   UNL A   1      39.690  34.111  37.674  1.00  0.00     0.198 A 
ATOM     83  F   UNL A   1      41.030  33.886  35.754  1.00  0.00    -0.203 F 
ATOM     84  F   UNL A   1      37.028  32.012  38.948  1.00  0.00    -0.200 F 
ATOM     85  C   UNL A   1      38.671  33.644  38.490  1.00  0.00     0.200 A 
ATOM     86  F   UNL A   1      40.321  35.252  37.978  1.00  0.00    -0.200 F 
ATOM     87  F   UNL A   1      38.300  34.344  39.570  1.00  0.00    -0.200 F 
ENDBRANCH  53  77
BRANCH  65  88
ATOM     88  C   UNL A   1      44.351  27.440  34.825  1.00  0.00     0.064 A 
ATOM     89  C   UNL A   1      45.634  28.003  34.907  1.00  0.00     0.173 A 
ATOM     90  C   UNL A   1      44.092  26.288  35.583  1.00  0.00     0.173 A 
ATOM     91  F   UNL A   1      45.939  29.097  34.193  1.00  0.00    -0.203 F 
ATOM     92  C   UNL A   1      46.626  27.412  35.685  1.00  0.00     0.198 A 
ATOM     93  C   UNL A   1      45.076  25.722  36.391  1.00  0.00     0.198 A 
ATOM     94  F   UNL A   1      42.879  25.715  35.552  1.00  0.00    -0.203 F 
ATOM     95  F   UNL A   1      47.863  27.931  35.697  1.00  0.00    -0.200 F 
ATOM     96  C   UNL A   1      46.345  26.278  36.431  1.00  0.00     0.200 A 
ATOM     97  F   UNL A   1      44.795  24.636  37.125  1.00  0.00    -0.200 F 
ATOM     98  F   UNL A   1      47.300  25.712  37.182  1.00  0.00    -0.200 F 
ENDBRANCH  65  88
ENDBRANCH  39  40
ENDBRANCH  32  34
ENDBRANCH  31  32
ENDBRANCH  30  31
ENDBRANCH  29  30
ENDBRANCH  28  29
ENDBRANCH  27  28
ENDBRANCH  26  27
ENDBRANCH  25  26
ENDBRANCH   1  25
TORSDOF 24
ENDMDL
MODEL 3
REMARK VINA RESULT:      -9.7      4.882      7.346
REMARK SMILES CC[C@@H]1CC[C@@](Cc2ccc(O)cc2)(C(=O)OCCOCCOCCOCCOC(=O)c2ccc(-c3c4nc(c(-c5c(F)c(F)c(F)c(F)c5F)c5ccc([nH]5)c(-c5c(F)c(F)c(F)c(F)c5F)c5nc(c(-c6c(F)c(F)c(F)c(F)c6F)c6ccc3[nH]6)C=C5)C=C4)cc2)C1
REMARK SMILES IDX 22 1 21 2 20 3 19 4 18 5 17 6 15 7 16 8 6 9 3 10 4 11 95 12
REMARK SMILES IDX 5 13 2 14 1 15 7 16 8 17 9 18 14 19 10 20 13 21 11 22 12 23
REMARK SMILES IDX 23 25 24 26 25 27 26 28 27 29 28 30 29 31 30 32 31 33 32 34
REMARK SMILES IDX 33 35 94 36 34 37 93 38 35 39 36 40 37 41 87 42 38 43 92 44
REMARK SMILES IDX 86 45 88 46 39 47 91 48 85 49 84 50 40 52 72 53 52 54 71 55
REMARK SMILES IDX 53 56 56 57 70 58 89 59 54 60 55 61 69 63 90 64 57 65 41 66
REMARK SMILES IDX 42 67 50 68 43 69 44 70 48 71 51 72 45 73 46 74 49 75 47 76
REMARK SMILES IDX 73 77 74 78 82 79 75 80 76 81 80 82 83 83 77 84 78 85 81 86
REMARK SMILES IDX 79 87 58 88 59 89 67 90 60 91 61 92 65 93 68 94 62 95 63 96
REMARK SMILES IDX 66 97 64 98
REMARK H PARENT 12 24 88 51 56 62
REMARK Flexibility Score: inf
ROOT
ATOM      1  C   UNL A   1      37.662  21.183  25.415  1.00  0.00     0.188 C 
ENDROOT
BRANCH   1   2
ATOM      2  C   UNL A   1      37.286  22.567  24.853  1.00  0.00     0.188 C 
BRANCH   2   3
ATOM      3  O   UNL A   1      36.945  23.537  25.816  1.00  0.00    -0.376 OA
BRANCH   3   4
ATOM      4  C   UNL A   1      35.798  24.348  25.724  1.00  0.00     0.202 C 
BRANCH   4   5
ATOM      5  C   UNL A   1      34.342  23.857  25.695  1.00  0.00     0.261 C 
BRANCH   5   6
ATOM      6  O   UNL A   1      33.325  24.623  26.350  1.00  0.00    -0.463 OA
BRANCH   6   7
ATOM      7  C   UNL A   1      32.146  24.757  25.691  1.00  0.00     0.312 C 
ATOM      8  O   UNL A   1      31.495  23.790  25.305  1.00  0.00    -0.252 OA
BRANCH   7   9
ATOM      9  C   UNL A   1      31.752  26.220  25.358  1.00  0.00     0.072 C 
ATOM     10  C   UNL A   1      32.411  26.372  23.026  1.00  0.00    -0.010 C 
ATOM     11  C   UNL A   1      30.949  26.784  23.051  1.00  0.00     0.005 C 
ATOM     12  C   UNL A   1      32.885  26.773  24.434  1.00  0.00     0.022 C 
ATOM     13  C   UNL A   1      30.496  26.530  24.492  1.00  0.00     0.019 C 
BRANCH  10  14
ATOM     14  C   UNL A   1      33.221  26.884  21.834  1.00  0.00     0.000 C 
ATOM     15  C   UNL A   1      33.981  28.182  22.041  1.00  0.00     0.004 C 
ENDBRANCH  10  14
BRANCH   9  16
ATOM     16  C   UNL A   1      31.628  26.926  26.742  1.00  0.00     0.054 C 
BRANCH  16  17
ATOM     17  C   UNL A   1      32.373  28.261  26.793  1.00  0.00    -0.047 A 
ATOM     18  C   UNL A   1      33.740  28.319  27.100  1.00  0.00     0.007 A 
ATOM     19  C   UNL A   1      31.670  29.470  26.673  1.00  0.00     0.007 A 
ATOM     20  C   UNL A   1      34.358  29.535  27.411  1.00  0.00     0.046 A 
ATOM     21  C   UNL A   1      32.288  30.689  26.963  1.00  0.00     0.046 A 
ATOM     22  C   UNL A   1      33.617  30.709  27.360  1.00  0.00     0.115 A 
BRANCH  22  23
ATOM     23  O   UNL A   1      34.158  31.911  27.709  1.00  0.00    -0.508 OA
ATOM     24  H   UNL A   1      33.848  32.698  27.305  1.00  0.00     0.293 HD
ENDBRANCH  22  23
ENDBRANCH  16  17
ENDBRANCH   9  16
ENDBRANCH   7   9
ENDBRANCH   6   7
ENDBRANCH   5   6
ENDBRANCH   4   5
ENDBRANCH   3   4
ENDBRANCH   2   3
ENDBRANCH   1   2
BRANCH   1  25
ATOM     25  O   UNL A   1      38.957  20.617  25.367  1.00  0.00    -0.377 OA
BRANCH  25  26
ATOM     26  C   UNL A   1      39.974  21.279  26.085  1.00  0.00     0.188 C 
BRANCH  26  27
ATOM     27  C   UNL A   1      40.904  20.272  26.771  1.00  0.00     0.188 C 
BRANCH  27  28
ATOM     28  O   UNL A   1      41.482  19.327  25.887  1.00  0.00    -0.376 OA
BRANCH  28  29
ATOM     29  C   UNL A   1      42.873  19.031  25.911  1.00  0.00     0.202 C 
BRANCH  29  30
ATOM     30  C   UNL A   1      43.746  18.559  24.723  1.00  0.00     0.261 C 
BRANCH  30  31
ATOM     31  O   UNL A   1      44.355  19.526  23.866  1.00  0.00    -0.460 OA
BRANCH  31  32
ATOM     32  C   UNL A   1      45.530  20.054  24.243  1.00  0.00     0.338 C 
ATOM     33  O   UNL A   1      46.647  19.652  23.969  1.00  0.00    -0.246 OA
BRANCH  32  34
ATOM     34  C   UNL A   1      45.229  21.348  24.892  1.00  0.00     0.060 A 
ATOM     35  C   UNL A   1      44.867  22.430  24.079  1.00  0.00     0.016 A 
ATOM     36  C   UNL A   1      45.284  21.493  26.282  1.00  0.00     0.016 A 
ATOM     37  C   UNL A   1      44.610  23.672  24.648  1.00  0.00     0.010 A 
ATOM     38  C   UNL A   1      45.061  22.751  26.851  1.00  0.00     0.010 A 
ATOM     39  C   UNL A   1      44.774  23.853  26.027  1.00  0.00    -0.014 A 
BRANCH  39  40
ATOM     40  C   UNL A   1      44.925  25.237  26.529  1.00  0.00     0.031 A 
ATOM     41  C   UNL A   1      46.288  25.867  26.431  1.00  0.00     0.074 A 
ATOM     42  C   UNL A   1      43.871  25.949  26.959  1.00  0.00     0.049 A 
ATOM     43  N   UNL A   1      46.671  27.080  26.738  1.00  0.00    -0.248 NA
ATOM     44  C   UNL A   1      47.366  25.011  25.906  1.00  0.00     0.031 C 
ATOM     45  C   UNL A   1      42.497  25.460  27.045  1.00  0.00     0.029 A 
ATOM     46  N   UNL A   1      43.798  27.248  27.396  1.00  0.00    -0.354 N 
ATOM     47  C   UNL A   1      48.028  27.129  26.441  1.00  0.00     0.074 A 
ATOM     48  C   UNL A   1      48.411  25.819  25.967  1.00  0.00     0.031 C 
ATOM     49  C   UNL A   1      41.713  26.448  27.512  1.00  0.00     0.029 A 
ATOM     50  C   UNL A   1      42.536  27.628  27.778  1.00  0.00     0.049 A 
ATOM     51  H   UNL A   1      44.576  27.849  27.431  1.00  0.00     0.167 HD
ATOM     52  C   UNL A   1      48.875  28.179  26.540  1.00  0.00     0.037 A 
ATOM     53  C   UNL A   1      42.106  28.796  28.296  1.00  0.00     0.037 A 
ATOM     54  C   UNL A   1      48.489  29.480  27.017  1.00  0.00     0.049 A 
ATOM     55  C   UNL A   1      43.090  29.926  28.474  1.00  0.00     0.074 A 
ATOM     56  C   UNL A   1      49.266  30.615  27.150  1.00  0.00     0.029 A 
ATOM     57  N   UNL A   1      47.214  29.812  27.450  1.00  0.00    -0.354 N 
ATOM     58  N   UNL A   1      44.363  29.977  28.165  1.00  0.00    -0.248 NA
ATOM     59  C   UNL A   1      42.570  31.166  29.067  1.00  0.00     0.031 C 
ATOM     60  C   UNL A   1      48.476  31.618  27.722  1.00  0.00     0.029 A 
ATOM     61  C   UNL A   1      47.189  31.128  27.882  1.00  0.00     0.049 A 
ATOM     62  H   UNL A   1      46.440  29.202  27.450  1.00  0.00     0.167 HD
ATOM     63  C   UNL A   1      44.789  31.258  28.498  1.00  0.00     0.074 A 
ATOM     64  C   UNL A   1      43.630  31.958  29.012  1.00  0.00     0.031 C 
ATOM     65  C   UNL A   1      46.025  31.806  28.391  1.00  0.00     0.037 A 
BRANCH  52  66
ATOM     66  C   UNL A   1      50.308  27.948  26.157  1.00  0.00     0.064 A 
ATOM     67  C   UNL A   1      51.310  27.751  27.119  1.00  0.00     0.173 A 
ATOM     68  C   UNL A   1      50.680  27.909  24.805  1.00  0.00     0.173 A 
ATOM     69  F   UNL A   1      51.011  27.798  28.426  1.00  0.00    -0.203 F 
ATOM     70  C   UNL A   1      52.636  27.551  26.742  1.00  0.00     0.198 A 
ATOM     71  C   UNL A   1      52.001  27.676  24.431  1.00  0.00     0.198 A 
ATOM     72  F   UNL A   1      49.762  28.094  23.844  1.00  0.00    -0.203 F 
ATOM     73  F   UNL A   1      53.585  27.418  27.679  1.00  0.00    -0.200 F 
ATOM     74  C   UNL A   1      52.979  27.506  25.400  1.00  0.00     0.200 A 
ATOM     75  F   UNL A   1      52.328  27.622  23.132  1.00  0.00    -0.200 F 
ATOM     76  F   UNL A   1      54.253  27.306  25.038  1.00  0.00    -0.200 F 
ENDBRANCH  52  66
BRANCH  53  77
ATOM     77  C   UNL A   1      40.682  28.957  28.695  1.00  0.00     0.064 A 
ATOM     78  C   UNL A   1      40.270  28.759  30.021  1.00  0.00     0.173 A 
ATOM     79  C   UNL A   1      39.697  29.280  27.750  1.00  0.00     0.173 A 
ATOM     80  F   UNL A   1      41.170  28.424  30.958  1.00  0.00    -0.203 F 
ATOM     81  C   UNL A   1      38.927  28.854  30.379  1.00  0.00     0.198 A 
ATOM     82  C   UNL A   1      38.359  29.408  28.116  1.00  0.00     0.198 A 
ATOM     83  F   UNL A   1      40.035  29.480  26.468  1.00  0.00    -0.203 F 
ATOM     84  F   UNL A   1      38.555  28.608  31.643  1.00  0.00    -0.200 F 
ATOM     85  C   UNL A   1      37.973  29.184  29.429  1.00  0.00     0.200 A 
ATOM     86  F   UNL A   1      37.444  29.743  27.197  1.00  0.00    -0.200 F 
ATOM     87  F   UNL A   1      36.683  29.280  29.776  1.00  0.00    -0.200 F 
ENDBRANCH  53  77
BRANCH  65  88
ATOM     88  C   UNL A   1      46.179  33.242  28.809  1.00  0.00     0.064 A 
ATOM     89  C   UNL A   1      46.546  33.597  30.116  1.00  0.00     0.173 A 
ATOM     90  C   UNL A   1      45.982  34.277  27.881  1.00  0.00     0.173 A 
ATOM     91  F   UNL A   1      46.736  32.647  31.045  1.00  0.00    -0.203 F 
ATOM     92  C   UNL A   1      46.670  34.933  30.488  1.00  0.00     0.198 A 
ATOM     93  C   UNL A   1      46.144  35.611  28.248  1.00  0.00     0.198 A 
ATOM     94  F   UNL A   1      45.642  33.995  26.615  1.00  0.00    -0.203 F 
ATOM     95  F   UNL A   1      46.958  35.248  31.759  1.00  0.00    -0.200 F 
ATOM     96  C   UNL A   1      46.475  35.937  29.553  1.00  0.00     0.200 A 
ATOM     97  F   UNL A   1      45.973  36.579  27.337  1.00  0.00    -0.200 F 
ATOM     98  F   UNL A   1      46.597  37.223  29.912  1.00  0.00    -0.200 F 
ENDBRANCH  65  88
ENDBRANCH  39  40
ENDBRANCH  32  34
ENDBRANCH  31  32
ENDBRANCH  30  31
ENDBRANCH  29  30
ENDBRANCH  28  29
ENDBRANCH  27  28
ENDBRANCH  26  27
ENDBRANCH  25  26
ENDBRANCH   1  25
TORSDOF 24
ENDMDL
