MODEL 1
REMARK VINA RESULT:      -9.4      0.000      0.000
REMARK SMILES CC[NH+]1CC[NH+]([C@@H]2CC(=O)N(c3ccc(C(=O)OCCOCCOCCOCCOC(=O)c4ccc(-c5c6nc(c(-c7c(F)c(F)c(F)c(F)c7F)c7ccc([nH]7)c(-c7c(F)c(F)c(F)c(F)c7F)c7nc(c(-c8c(F)c(F)c(F)c(F)c8F)c8ccc5[nH]8)C=C7)C=C6)cc4)cc3)C2=O)CC1
REMARK SMILES IDX 23 1 22 2 21 3 20 4 19 5 18 6 16 7 17 8 15 9 12 10 13 11
REMARK SMILES IDX 97 12 14 13 96 14 11 15 7 16 8 17 98 18 9 19 99 20 10 21
REMARK SMILES IDX 6 22 3 23 4 24 101 25 5 27 100 28 2 30 1 31 24 32 25 33
REMARK SMILES IDX 26 34 27 35 28 36 29 37 30 38 31 39 32 40 33 41 34 42 95 43
REMARK SMILES IDX 35 44 94 45 36 46 37 47 38 48 88 49 39 50 93 51 87 52 89 53
REMARK SMILES IDX 40 54 92 55 86 56 85 57 41 59 73 60 53 61 72 62 54 63 57 64
REMARK SMILES IDX 71 65 90 66 55 67 56 68 70 70 91 71 58 72 42 73 43 74 51 75
REMARK SMILES IDX 44 76 45 77 49 78 52 79 46 80 47 81 50 82 48 83 74 84 75 85
REMARK SMILES IDX 83 86 76 87 77 88 81 89 84 90 78 91 79 92 82 93 80 94 59 95
REMARK SMILES IDX 60 96 68 97 61 98 62 99 66 100 69 101 63 102 64 103 67 104
REMARK SMILES IDX 65 105
REMARK H PARENT 3 26 6 29 89 58 57 69
REMARK Flexibility Score: inf
ROOT
ATOM      1  C   UNL A   1      33.220  35.395  32.092  1.00  0.00     0.188 C 
ENDROOT
BRANCH   1   2
ATOM      2  C   UNL A   1      32.512  36.352  31.109  1.00  0.00     0.188 C 
BRANCH   2   3
ATOM      3  O   UNL A   1      33.138  36.416  29.839  1.00  0.00    -0.376 OA
BRANCH   3   4
ATOM      4  C   UNL A   1      33.367  35.225  29.113  1.00  0.00     0.202 C 
BRANCH   4   5
ATOM      5  C   UNL A   1      34.766  34.931  28.550  1.00  0.00     0.261 C 
BRANCH   5   6
ATOM      6  O   UNL A   1      34.870  33.820  27.657  1.00  0.00    -0.460 OA
BRANCH   6   7
ATOM      7  C   UNL A   1      35.558  32.742  28.088  1.00  0.00     0.338 C 
ATOM      8  O   UNL A   1      36.527  32.736  28.825  1.00  0.00    -0.246 OA
BRANCH   7   9
ATOM      9  C   UNL A   1      34.794  31.540  27.682  1.00  0.00     0.060 A 
ATOM     10  C   UNL A   1      33.394  29.234  26.912  1.00  0.00     0.052 A 
ATOM     11  C   UNL A   1      34.716  29.138  27.371  1.00  0.00     0.028 A 
ATOM     12  C   UNL A   1      32.758  30.484  26.940  1.00  0.00     0.028 A 
ATOM     13  C   UNL A   1      35.425  30.293  27.718  1.00  0.00     0.018 A 
ATOM     14  C   UNL A   1      33.445  31.631  27.340  1.00  0.00     0.018 A 
BRANCH  10  15
ATOM     15  N   UNL A   1      32.769  28.123  26.297  1.00  0.00    -0.245 N 
ATOM     16  C   UNL A   1      31.985  26.684  24.602  1.00  0.00     0.285 C 
ATOM     17  C   UNL A   1      31.112  26.537  25.839  1.00  0.00     0.176 C 
ATOM     18  C   UNL A   1      33.111  27.609  25.066  1.00  0.00     0.292 C 
ATOM     19  C   UNL A   1      31.641  27.536  26.812  1.00  0.00     0.240 C 
ATOM     20  O   UNL A   1      34.128  27.838  24.421  1.00  0.00    -0.267 OA
ATOM     21  O   UNL A   1      31.061  27.782  27.862  1.00  0.00    -0.274 OA
BRANCH  16  22
ATOM     22  N   UNL A   1      31.400  27.143  23.323  1.00  0.00    -0.315 N 
ATOM     23  N   UNL A   1      29.008  28.968  23.417  1.00  0.00    -0.326 N 
ATOM     24  C   UNL A   1      28.870  27.509  23.559  1.00  0.00     0.324 C 
ATOM     25  C   UNL A   1      30.379  29.433  23.683  1.00  0.00     0.324 C 
ATOM     26  H   UNL A   1      28.416  29.371  24.141  1.00  0.00     0.348 HD
ATOM     27  C   UNL A   1      30.044  26.644  23.036  1.00  0.00     0.325 C 
ATOM     28  C   UNL A   1      31.476  28.580  23.019  1.00  0.00     0.325 C 
ATOM     29  H   UNL A   1      32.052  26.690  22.683  1.00  0.00     0.349 HD
BRANCH  23  30
ATOM     30  C   UNL A   1      28.495  29.469  22.140  1.00  0.00     0.259 C 
ATOM     31  C   UNL A   1      28.685  30.981  22.127  1.00  0.00     0.071 C 
ENDBRANCH  23  30
ENDBRANCH  16  22
ENDBRANCH  10  15
ENDBRANCH   7   9
ENDBRANCH   6   7
ENDBRANCH   5   6
ENDBRANCH   4   5
ENDBRANCH   3   4
ENDBRANCH   2   3
ENDBRANCH   1   2
BRANCH   1  32
ATOM     32  O   UNL A   1      34.638  35.452  32.160  1.00  0.00    -0.377 OA
BRANCH  32  33
ATOM     33  C   UNL A   1      35.397  34.243  32.160  1.00  0.00     0.188 C 
BRANCH  33  34
ATOM     34  C   UNL A   1      34.777  32.863  31.826  1.00  0.00     0.188 C 
BRANCH  34  35
ATOM     35  O   UNL A   1      35.690  31.781  31.825  1.00  0.00    -0.376 OA
BRANCH  35  36
ATOM     36  C   UNL A   1      36.406  31.511  33.014  1.00  0.00     0.202 C 
BRANCH  36  37
ATOM     37  C   UNL A   1      37.924  31.337  32.874  1.00  0.00     0.261 C 
BRANCH  37  38
ATOM     38  O   UNL A   1      38.387  30.898  31.587  1.00  0.00    -0.460 OA
BRANCH  38  39
ATOM     39  C   UNL A   1      39.291  31.680  30.961  1.00  0.00     0.338 C 
ATOM     40  O   UNL A   1      39.166  32.857  30.659  1.00  0.00    -0.246 OA
BRANCH  39  41
ATOM     41  C   UNL A   1      40.555  30.925  30.862  1.00  0.00     0.060 A 
ATOM     42  C   UNL A   1      40.523  29.530  30.983  1.00  0.00     0.016 A 
ATOM     43  C   UNL A   1      41.765  31.591  30.649  1.00  0.00     0.016 A 
ATOM     44  C   UNL A   1      41.710  28.799  30.933  1.00  0.00     0.010 A 
ATOM     45  C   UNL A   1      42.955  30.858  30.618  1.00  0.00     0.010 A 
ATOM     46  C   UNL A   1      42.936  29.463  30.797  1.00  0.00    -0.014 A 
BRANCH  46  47
ATOM     47  C   UNL A   1      44.195  28.714  31.030  1.00  0.00     0.031 A 
ATOM     48  C   UNL A   1      44.645  28.486  32.448  1.00  0.00     0.074 A 
ATOM     49  C   UNL A   1      44.901  28.202  30.006  1.00  0.00     0.049 A 
ATOM     50  N   UNL A   1      45.699  27.852  32.896  1.00  0.00    -0.248 NA
ATOM     51  C   UNL A   1      43.789  29.050  33.503  1.00  0.00     0.031 C 
ATOM     52  C   UNL A   1      44.552  28.329  28.593  1.00  0.00     0.029 A 
ATOM     53  N   UNL A   1      46.064  27.472  30.004  1.00  0.00    -0.354 N 
ATOM     54  C   UNL A   1      45.635  27.948  34.280  1.00  0.00     0.074 A 
ATOM     55  C   UNL A   1      44.459  28.728  34.599  1.00  0.00     0.031 C 
ATOM     56  C   UNL A   1      45.485  27.702  27.857  1.00  0.00     0.029 A 
ATOM     57  C   UNL A   1      46.512  27.157  28.744  1.00  0.00     0.049 A 
ATOM     58  H   UNL A   1      46.532  27.202  30.826  1.00  0.00     0.167 HD
ATOM     59  C   UNL A   1      46.474  27.422  35.204  1.00  0.00     0.037 A 
ATOM     60  C   UNL A   1      47.633  26.517  28.357  1.00  0.00     0.037 A 
ATOM     61  C   UNL A   1      47.644  26.645  34.883  1.00  0.00     0.049 A 
ATOM     62  C   UNL A   1      48.585  25.996  29.405  1.00  0.00     0.074 A 
ATOM     63  C   UNL A   1      48.541  26.043  35.747  1.00  0.00     0.029 A 
ATOM     64  N   UNL A   1      48.085  26.375  33.596  1.00  0.00    -0.354 N 
ATOM     65  N   UNL A   1      48.495  26.050  30.712  1.00  0.00    -0.248 NA
ATOM     66  C   UNL A   1      49.795  25.314  28.919  1.00  0.00     0.031 C 
ATOM     67  C   UNL A   1      49.563  25.467  34.984  1.00  0.00     0.029 A 
ATOM     68  C   UNL A   1      49.262  25.644  33.644  1.00  0.00     0.049 A 
ATOM     69  H   UNL A   1      47.629  26.659  32.771  1.00  0.00     0.167 HD
ATOM     70  C   UNL A   1      49.614  25.387  31.203  1.00  0.00     0.074 A 
ATOM     71  C   UNL A   1      50.357  24.919  30.052  1.00  0.00     0.031 C 
ATOM     72  C   UNL A   1      49.993  25.184  32.489  1.00  0.00     0.037 A 
BRANCH  59  73
ATOM     73  C   UNL A   1      46.180  27.698  36.650  1.00  0.00     0.064 A 
ATOM     74  C   UNL A   1      45.396  26.833  37.428  1.00  0.00     0.173 A 
ATOM     75  C   UNL A   1      46.725  28.830  37.277  1.00  0.00     0.173 A 
ATOM     76  F   UNL A   1      44.838  25.745  36.876  1.00  0.00    -0.203 F 
ATOM     77  C   UNL A   1      45.147  27.105  38.772  1.00  0.00     0.198 A 
ATOM     78  C   UNL A   1      46.502  29.080  38.629  1.00  0.00     0.198 A 
ATOM     79  F   UNL A   1      47.484  29.689  36.582  1.00  0.00    -0.203 F 
ATOM     80  F   UNL A   1      44.355  26.290  39.483  1.00  0.00    -0.200 F 
ATOM     81  C   UNL A   1      45.708  28.222  39.372  1.00  0.00     0.200 A 
ATOM     82  F   UNL A   1      47.057  30.152  39.210  1.00  0.00    -0.200 F 
ATOM     83  F   UNL A   1      45.477  28.474  40.669  1.00  0.00    -0.200 F 
ENDBRANCH  59  73
BRANCH  60  84
ATOM     84  C   UNL A   1      47.931  26.343  26.909  1.00  0.00     0.064 A 
ATOM     85  C   UNL A   1      48.746  27.251  26.218  1.00  0.00     0.173 A 
ATOM     86  C   UNL A   1      47.375  25.282  26.178  1.00  0.00     0.173 A 
ATOM     87  F   UNL A   1      49.280  28.298  26.865  1.00  0.00    -0.203 F 
ATOM     88  C   UNL A   1      48.973  27.120  24.849  1.00  0.00     0.198 A 
ATOM     89  C   UNL A   1      47.630  25.132  24.817  1.00  0.00     0.198 A 
ATOM     90  F   UNL A   1      46.585  24.387  26.788  1.00  0.00    -0.203 F 
ATOM     91  F   UNL A   1      49.706  28.037  24.203  1.00  0.00    -0.200 F 
ATOM     92  C   UNL A   1      48.419  26.057  24.150  1.00  0.00     0.200 A 
ATOM     93  F   UNL A   1      47.105  24.096  24.149  1.00  0.00    -0.200 F 
ATOM     94  F   UNL A   1      48.637  25.931  22.834  1.00  0.00    -0.200 F 
ENDBRANCH  60  84
BRANCH  72  95
ATOM     95  C   UNL A   1      51.249  24.389  32.722  1.00  0.00     0.064 A 
ATOM     96  C   UNL A   1      51.213  23.026  33.055  1.00  0.00     0.173 A 
ATOM     97  C   UNL A   1      52.508  24.995  32.589  1.00  0.00     0.173 A 
ATOM     98  F   UNL A   1      50.036  22.399  33.205  1.00  0.00    -0.203 F 
ATOM     99  C   UNL A   1      52.386  22.312  33.288  1.00  0.00     0.198 A 
ATOM    100  C   UNL A   1      53.681  24.268  32.785  1.00  0.00     0.198 A 
ATOM    101  F   UNL A   1      52.605  26.292  32.262  1.00  0.00    -0.203 F 
ATOM    102  F   UNL A   1      52.322  21.030  33.670  1.00  0.00    -0.200 F 
ATOM    103  C   UNL A   1      53.618  22.932  33.147  1.00  0.00     0.200 A 
ATOM    104  F   UNL A   1      54.871  24.865  32.628  1.00  0.00    -0.200 F 
ATOM    105  F   UNL A   1      54.745  22.243  33.369  1.00  0.00    -0.200 F 
ENDBRANCH  72  95
ENDBRANCH  46  47
ENDBRANCH  39  41
ENDBRANCH  38  39
ENDBRANCH  37  38
ENDBRANCH  36  37
ENDBRANCH  35  36
ENDBRANCH  34  35
ENDBRANCH  33  34
ENDBRANCH  32  33
ENDBRANCH   1  32
TORSDOF 23
ENDMDL
MODEL 2
REMARK VINA RESULT:      -9.3      6.194     11.074
REMARK SMILES CC[NH+]1CC[NH+]([C@@H]2CC(=O)N(c3ccc(C(=O)OCCOCCOCCOCCOC(=O)c4ccc(-c5c6nc(c(-c7c(F)c(F)c(F)c(F)c7F)c7ccc([nH]7)c(-c7c(F)c(F)c(F)c(F)c7F)c7nc(c(-c8c(F)c(F)c(F)c(F)c8F)c8ccc5[nH]8)C=C7)C=C6)cc4)cc3)C2=O)CC1
REMARK SMILES IDX 23 1 22 2 21 3 20 4 19 5 18 6 16 7 17 8 15 9 12 10 13 11
REMARK SMILES IDX 97 12 14 13 96 14 11 15 7 16 8 17 98 18 9 19 99 20 10 21
REMARK SMILES IDX 6 22 3 23 4 24 101 25 5 27 100 28 2 30 1 31 24 32 25 33
REMARK SMILES IDX 26 34 27 35 28 36 29 37 30 38 31 39 32 40 33 41 34 42 95 43
REMARK SMILES IDX 35 44 94 45 36 46 37 47 38 48 88 49 39 50 93 51 87 52 89 53
REMARK SMILES IDX 40 54 92 55 86 56 85 57 41 59 73 60 53 61 72 62 54 63 57 64
REMARK SMILES IDX 71 65 90 66 55 67 56 68 70 70 91 71 58 72 42 73 43 74 51 75
REMARK SMILES IDX 44 76 45 77 49 78 52 79 46 80 47 81 50 82 48 83 74 84 75 85
REMARK SMILES IDX 83 86 76 87 77 88 81 89 84 90 78 91 79 92 82 93 80 94 59 95
REMARK SMILES IDX 60 96 68 97 61 98 62 99 66 100 69 101 63 102 64 103 67 104
REMARK SMILES IDX 65 105
REMARK H PARENT 3 26 6 29 89 58 57 69
REMARK Flexibility Score: inf
ROOT
ATOM      1  C   UNL A   1      36.364  22.000  25.816  1.00  0.00     0.188 C 
ENDROOT
BRANCH   1   2
ATOM      2  C   UNL A   1      37.178  23.105  25.110  1.00  0.00     0.188 C 
BRANCH   2   3
ATOM      3  O   UNL A   1      38.469  23.292  25.665  1.00  0.00    -0.376 OA
BRANCH   3   4
ATOM      4  C   UNL A   1      38.635  24.159  26.770  1.00  0.00     0.202 C 
BRANCH   4   5
ATOM      5  C   UNL A   1      39.637  25.320  26.686  1.00  0.00     0.261 C 
BRANCH   5   6
ATOM      6  O   UNL A   1      39.490  26.357  27.658  1.00  0.00    -0.460 OA
BRANCH   6   7
ATOM      7  C   UNL A   1      40.100  27.533  27.406  1.00  0.00     0.338 C 
ATOM      8  O   UNL A   1      40.795  27.809  26.445  1.00  0.00    -0.246 OA
BRANCH   7   9
ATOM      9  C   UNL A   1      39.601  28.511  28.399  1.00  0.00     0.060 A 
ATOM     10  C   UNL A   1      38.683  30.338  30.319  1.00  0.00     0.052 A 
ATOM     11  C   UNL A   1      39.736  29.464  30.622  1.00  0.00     0.028 A 
ATOM     12  C   UNL A   1      38.168  30.349  29.014  1.00  0.00     0.028 A 
ATOM     13  C   UNL A   1      40.167  28.528  29.677  1.00  0.00     0.018 A 
ATOM     14  C   UNL A   1      38.635  29.455  28.050  1.00  0.00     0.018 A 
BRANCH  10  15
ATOM     15  N   UNL A   1      38.055  31.085  31.346  1.00  0.00    -0.245 N 
ATOM     16  C   UNL A   1      36.352  31.948  32.728  1.00  0.00     0.285 C 
ATOM     17  C   UNL A   1      37.505  32.939  32.662  1.00  0.00     0.176 C 
ATOM     18  C   UNL A   1      36.884  30.729  31.975  1.00  0.00     0.292 C 
ATOM     19  C   UNL A   1      38.483  32.337  31.710  1.00  0.00     0.240 C 
ATOM     20  O   UNL A   1      36.331  29.635  31.952  1.00  0.00    -0.267 OA
ATOM     21  O   UNL A   1      39.463  32.956  31.315  1.00  0.00    -0.274 OA
BRANCH  16  22
ATOM     22  N   UNL A   1      35.006  32.335  32.251  1.00  0.00    -0.315 N 
ATOM     23  N   UNL A   1      34.679  35.001  30.894  1.00  0.00    -0.326 N 
ATOM     24  C   UNL A   1      34.696  34.880  32.361  1.00  0.00     0.324 C 
ATOM     25  C   UNL A   1      35.271  33.831  30.225  1.00  0.00     0.324 C 
ATOM     26  H   UNL A   1      35.277  35.797  30.677  1.00  0.00     0.348 HD
ATOM     27  C   UNL A   1      34.395  33.478  32.948  1.00  0.00     0.325 C 
ATOM     28  C   UNL A   1      34.816  32.477  30.799  1.00  0.00     0.325 C 
ATOM     29  H   UNL A   1      34.501  31.489  32.514  1.00  0.00     0.349 HD
BRANCH  23  30
ATOM     30  C   UNL A   1      33.353  35.326  30.363  1.00  0.00     0.259 C 
ATOM     31  C   UNL A   1      32.784  36.463  31.203  1.00  0.00     0.071 C 
ENDBRANCH  23  30
ENDBRANCH  16  22
ENDBRANCH  10  15
ENDBRANCH   7   9
ENDBRANCH   6   7
ENDBRANCH   5   6
ENDBRANCH   4   5
ENDBRANCH   3   4
ENDBRANCH   2   3
ENDBRANCH   1   2
BRANCH   1  32
ATOM     32  O   UNL A   1      36.482  20.675  25.317  1.00  0.00    -0.377 OA
BRANCH  32  33
ATOM     33  C   UNL A   1      37.743  20.206  24.841  1.00  0.00     0.188 C 
BRANCH  33  34
ATOM     34  C   UNL A   1      38.902  19.807  25.789  1.00  0.00     0.188 C 
BRANCH  34  35
ATOM     35  O   UNL A   1      39.738  20.875  26.197  1.00  0.00    -0.376 OA
BRANCH  35  36
ATOM     36  C   UNL A   1      40.904  20.565  26.935  1.00  0.00     0.202 C 
BRANCH  36  37
ATOM     37  C   UNL A   1      41.812  21.744  27.307  1.00  0.00     0.261 C 
BRANCH  37  38
ATOM     38  O   UNL A   1      42.004  22.733  26.283  1.00  0.00    -0.460 OA
BRANCH  38  39
ATOM     39  C   UNL A   1      43.218  22.782  25.698  1.00  0.00     0.338 C 
ATOM     40  O   UNL A   1      43.702  21.965  24.929  1.00  0.00    -0.246 OA
BRANCH  39  41
ATOM     41  C   UNL A   1      43.812  24.100  25.993  1.00  0.00     0.060 A 
ATOM     42  C   UNL A   1      43.774  25.097  25.010  1.00  0.00     0.016 A 
ATOM     43  C   UNL A   1      44.404  24.352  27.235  1.00  0.00     0.016 A 
ATOM     44  C   UNL A   1      44.365  26.337  25.251  1.00  0.00     0.010 A 
ATOM     45  C   UNL A   1      45.012  25.588  27.468  1.00  0.00     0.010 A 
ATOM     46  C   UNL A   1      45.028  26.573  26.463  1.00  0.00    -0.014 A 
BRANCH  46  47
ATOM     47  C   UNL A   1      45.888  27.775  26.597  1.00  0.00     0.031 A 
ATOM     48  C   UNL A   1      47.373  27.620  26.409  1.00  0.00     0.074 A 
ATOM     49  C   UNL A   1      45.358  28.988  26.831  1.00  0.00     0.049 A 
ATOM     50  N   UNL A   1      48.318  28.524  26.466  1.00  0.00    -0.248 NA
ATOM     51  C   UNL A   1      47.857  26.261  26.119  1.00  0.00     0.031 C 
ATOM     52  C   UNL A   1      43.935  29.270  27.000  1.00  0.00     0.029 A 
ATOM     53  N   UNL A   1      45.965  30.212  26.968  1.00  0.00    -0.354 N 
ATOM     54  C   UNL A   1      49.504  27.843  26.225  1.00  0.00     0.074 A 
ATOM     55  C   UNL A   1      49.166  26.446  26.056  1.00  0.00     0.031 C 
ATOM     56  C   UNL A   1      43.775  30.585  27.225  1.00  0.00     0.029 A 
ATOM     57  C   UNL A   1      45.087  31.232  27.246  1.00  0.00     0.049 A 
ATOM     58  H   UNL A   1      46.936  30.346  26.877  1.00  0.00     0.167 HD
ATOM     59  C   UNL A   1      50.762  28.338  26.140  1.00  0.00     0.037 A 
ATOM     60  C   UNL A   1      45.323  32.534  27.504  1.00  0.00     0.037 A 
ATOM     61  C   UNL A   1      51.095  29.729  26.308  1.00  0.00     0.049 A 
ATOM     62  C   UNL A   1      46.741  33.049  27.466  1.00  0.00     0.074 A 
ATOM     63  C   UNL A   1      52.334  30.336  26.212  1.00  0.00     0.029 A 
ATOM     64  N   UNL A   1      50.184  30.728  26.622  1.00  0.00    -0.354 N 
ATOM     65  N   UNL A   1      47.852  32.408  27.193  1.00  0.00    -0.248 NA
ATOM     66  C   UNL A   1      46.934  34.476  27.765  1.00  0.00     0.031 C 
ATOM     67  C   UNL A   1      52.186  31.689  26.535  1.00  0.00     0.029 A 
ATOM     68  C   UNL A   1      50.842  31.941  26.758  1.00  0.00     0.049 A 
ATOM     69  H   UNL A   1      49.215  30.595  26.731  1.00  0.00     0.167 HD
ATOM     70  C   UNL A   1      48.868  33.355  27.257  1.00  0.00     0.074 A 
ATOM     71  C   UNL A   1      48.237  34.619  27.573  1.00  0.00     0.031 C 
ATOM     72  C   UNL A   1      50.202  33.194  27.073  1.00  0.00     0.037 A 
BRANCH  59  73
ATOM     73  C   UNL A   1      51.879  27.366  25.888  1.00  0.00     0.064 A 
ATOM     74  C   UNL A   1      52.658  26.843  26.931  1.00  0.00     0.173 A 
ATOM     75  C   UNL A   1      52.147  26.923  24.583  1.00  0.00     0.173 A 
ATOM     76  F   UNL A   1      52.455  27.244  28.194  1.00  0.00    -0.203 F 
ATOM     77  C   UNL A   1      53.681  25.933  26.672  1.00  0.00     0.198 A 
ATOM     78  C   UNL A   1      53.148  25.987  24.334  1.00  0.00     0.198 A 
ATOM     79  F   UNL A   1      51.430  27.388  23.550  1.00  0.00    -0.203 F 
ATOM     80  F   UNL A   1      54.446  25.484  27.678  1.00  0.00    -0.200 F 
ATOM     81  C   UNL A   1      53.918  25.500  25.377  1.00  0.00     0.200 A 
ATOM     82  F   UNL A   1      53.364  25.559  23.083  1.00  0.00    -0.200 F 
ATOM     83  F   UNL A   1      54.895  24.614  25.133  1.00  0.00    -0.200 F 
ENDBRANCH  59  73
BRANCH  60  84
ATOM     84  C   UNL A   1      44.195  33.445  27.838  1.00  0.00     0.064 A 
ATOM     85  C   UNL A   1      43.590  34.246  26.858  1.00  0.00     0.173 A 
ATOM     86  C   UNL A   1      43.722  33.559  29.154  1.00  0.00     0.173 A 
ATOM     87  F   UNL A   1      44.024  34.194  25.590  1.00  0.00    -0.203 F 
ATOM     88  C   UNL A   1      42.576  35.144  27.186  1.00  0.00     0.198 A 
ATOM     89  C   UNL A   1      42.684  34.432  29.474  1.00  0.00     0.198 A 
ATOM     90  F   UNL A   1      44.266  32.819  30.131  1.00  0.00    -0.203 F 
ATOM     91  F   UNL A   1      42.059  35.941  26.241  1.00  0.00    -0.200 F 
ATOM     92  C   UNL A   1      42.119  35.232  28.493  1.00  0.00     0.200 A 
ATOM     93  F   UNL A   1      42.236  34.503  30.736  1.00  0.00    -0.200 F 
ATOM     94  F   UNL A   1      41.144  36.096  28.808  1.00  0.00    -0.200 F 
ENDBRANCH  60  84
BRANCH  72  95
ATOM     95  C   UNL A   1      51.066  34.422  27.168  1.00  0.00     0.064 A 
ATOM     96  C   UNL A   1      51.284  35.263  26.066  1.00  0.00     0.173 A 
ATOM     97  C   UNL A   1      51.667  34.774  28.387  1.00  0.00     0.173 A 
ATOM     98  F   UNL A   1      50.742  34.968  24.874  1.00  0.00    -0.203 F 
ATOM     99  C   UNL A   1      52.106  36.383  26.170  1.00  0.00     0.198 A 
ATOM    100  C   UNL A   1      52.456  35.916  28.497  1.00  0.00     0.198 A 
ATOM    101  F   UNL A   1      51.484  34.014  29.477  1.00  0.00    -0.203 F 
ATOM    102  F   UNL A   1      52.353  37.131  25.086  1.00  0.00    -0.200 F 
ATOM    103  C   UNL A   1      52.685  36.712  27.385  1.00  0.00     0.200 A 
ATOM    104  F   UNL A   1      52.999  36.243  29.678  1.00  0.00    -0.200 F 
ATOM    105  F   UNL A   1      53.473  37.791  27.483  1.00  0.00    -0.200 F 
ENDBRANCH  72  95
ENDBRANCH  46  47
ENDBRANCH  39  41
ENDBRANCH  38  39
ENDBRANCH  37  38
ENDBRANCH  36  37
ENDBRANCH  35  36
ENDBRANCH  34  35
ENDBRANCH  33  34
ENDBRANCH  32  33
ENDBRANCH   1  32
TORSDOF 23
ENDMDL
MODEL 3
REMARK VINA RESULT:      -9.3      5.134     10.608
REMARK SMILES CC[NH+]1CC[NH+]([C@@H]2CC(=O)N(c3ccc(C(=O)OCCOCCOCCOCCOC(=O)c4ccc(-c5c6nc(c(-c7c(F)c(F)c(F)c(F)c7F)c7ccc([nH]7)c(-c7c(F)c(F)c(F)c(F)c7F)c7nc(c(-c8c(F)c(F)c(F)c(F)c8F)c8ccc5[nH]8)C=C7)C=C6)cc4)cc3)C2=O)CC1
REMARK SMILES IDX 23 1 22 2 21 3 20 4 19 5 18 6 16 7 17 8 15 9 12 10 13 11
REMARK SMILES IDX 97 12 14 13 96 14 11 15 7 16 8 17 98 18 9 19 99 20 10 21
REMARK SMILES IDX 6 22 3 23 4 24 101 25 5 27 100 28 2 30 1 31 24 32 25 33
REMARK SMILES IDX 26 34 27 35 28 36 29 37 30 38 31 39 32 40 33 41 34 42 95 43
REMARK SMILES IDX 35 44 94 45 36 46 37 47 38 48 88 49 39 50 93 51 87 52 89 53
REMARK SMILES IDX 40 54 92 55 86 56 85 57 41 59 73 60 53 61 72 62 54 63 57 64
REMARK SMILES IDX 71 65 90 66 55 67 56 68 70 70 91 71 58 72 42 73 43 74 51 75
REMARK SMILES IDX 44 76 45 77 49 78 52 79 46 80 47 81 50 82 48 83 74 84 75 85
REMARK SMILES IDX 83 86 76 87 77 88 81 89 84 90 78 91 79 92 82 93 80 94 59 95
REMARK SMILES IDX 60 96 68 97 61 98 62 99 66 100 69 101 63 102 64 103 67 104
REMARK SMILES IDX 65 105
REMARK H PARENT 3 26 6 29 89 58 57 69
REMARK Flexibility Score: inf
ROOT
ATOM      1  C   UNL A   1      47.158  28.463  22.332  1.00  0.00     0.188 C 
ENDROOT
BRANCH   1   2
ATOM      2  C   UNL A   1      47.171  28.022  23.811  1.00  0.00     0.188 C 
BRANCH   2   3
ATOM      3  O   UNL A   1      46.774  26.675  24.000  1.00  0.00    -0.376 OA
BRANCH   3   4
ATOM      4  C   UNL A   1      46.111  26.303  25.192  1.00  0.00     0.202 C 
BRANCH   4   5
ATOM      5  C   UNL A   1      44.685  26.805  25.461  1.00  0.00     0.261 C 
BRANCH   5   6
ATOM      6  O   UNL A   1      44.476  27.492  26.696  1.00  0.00    -0.460 OA
BRANCH   6   7
ATOM      7  C   UNL A   1      43.939  26.787  27.713  1.00  0.00     0.338 C 
ATOM      8  O   UNL A   1      44.513  26.002  28.447  1.00  0.00    -0.246 OA
BRANCH   7   9
ATOM      9  C   UNL A   1      42.565  27.297  27.927  1.00  0.00     0.060 A 
ATOM     10  C   UNL A   1      39.983  28.305  28.358  1.00  0.00     0.052 A 
ATOM     11  C   UNL A   1      41.106  29.111  28.596  1.00  0.00     0.028 A 
ATOM     12  C   UNL A   1      40.173  27.028  27.808  1.00  0.00     0.028 A 
ATOM     13  C   UNL A   1      42.393  28.595  28.418  1.00  0.00     0.018 A 
ATOM     14  C   UNL A   1      41.455  26.530  27.574  1.00  0.00     0.018 A 
BRANCH  10  15
ATOM     15  N   UNL A   1      38.702  28.715  28.800  1.00  0.00    -0.245 N 
ATOM     16  C   UNL A   1      36.807  30.076  29.131  1.00  0.00     0.285 C 
ATOM     17  C   UNL A   1      36.924  29.081  30.276  1.00  0.00     0.176 C 
ATOM     18  C   UNL A   1      37.909  29.643  28.164  1.00  0.00     0.292 C 
ATOM     19  C   UNL A   1      38.185  28.329  30.012  1.00  0.00     0.240 C 
ATOM     20  O   UNL A   1      38.038  30.075  27.025  1.00  0.00    -0.267 OA
ATOM     21  O   UNL A   1      38.655  27.550  30.831  1.00  0.00    -0.274 OA
BRANCH  16  22
ATOM     22  N   UNL A   1      36.861  31.531  29.397  1.00  0.00    -0.315 N 
ATOM     23  N   UNL A   1      34.480  32.840  30.689  1.00  0.00    -0.326 N 
ATOM     24  C   UNL A   1      34.521  32.573  29.242  1.00  0.00     0.324 C 
ATOM     25  C   UNL A   1      35.451  32.028  31.440  1.00  0.00     0.324 C 
ATOM     26  H   UNL A   1      33.553  32.548  30.996  1.00  0.00     0.348 HD
ATOM     27  C   UNL A   1      35.920  32.350  28.615  1.00  0.00     0.325 C 
ATOM     28  C   UNL A   1      36.850  31.965  30.802  1.00  0.00     0.325 C 
ATOM     29  H   UNL A   1      37.806  31.714  29.058  1.00  0.00     0.349 HD
BRANCH  23  30
ATOM     30  C   UNL A   1      34.589  34.265  31.012  1.00  0.00     0.259 C 
ATOM     31  C   UNL A   1      33.594  35.015  30.135  1.00  0.00     0.071 C 
ENDBRANCH  23  30
ENDBRANCH  16  22
ENDBRANCH  10  15
ENDBRANCH   7   9
ENDBRANCH   6   7
ENDBRANCH   5   6
ENDBRANCH   4   5
ENDBRANCH   3   4
ENDBRANCH   2   3
ENDBRANCH   1   2
BRANCH   1  32
ATOM     32  O   UNL A   1      48.409  28.585  21.670  1.00  0.00    -0.377 OA
BRANCH  32  33
ATOM     33  C   UNL A   1      49.066  27.418  21.175  1.00  0.00     0.188 C 
BRANCH  33  34
ATOM     34  C   UNL A   1      50.496  27.011  21.612  1.00  0.00     0.188 C 
BRANCH  34  35
ATOM     35  O   UNL A   1      51.092  27.858  22.578  1.00  0.00    -0.376 OA
BRANCH  35  36
ATOM     36  C   UNL A   1      52.019  27.289  23.482  1.00  0.00     0.202 C 
BRANCH  36  37
ATOM     37  C   UNL A   1      51.781  27.566  24.972  1.00  0.00     0.261 C 
BRANCH  37  38
ATOM     38  O   UNL A   1      52.512  26.735  25.887  1.00  0.00    -0.460 OA
BRANCH  38  39
ATOM     39  C   UNL A   1      51.898  25.616  26.323  1.00  0.00     0.338 C 
ATOM     40  O   UNL A   1      52.246  24.460  26.135  1.00  0.00    -0.246 OA
BRANCH  39  41
ATOM     41  C   UNL A   1      50.815  26.020  27.242  1.00  0.00     0.060 A 
ATOM     42  C   UNL A   1      49.516  25.555  27.004  1.00  0.00     0.016 A 
ATOM     43  C   UNL A   1      51.082  26.852  28.332  1.00  0.00     0.016 A 
ATOM     44  C   UNL A   1      48.469  25.956  27.834  1.00  0.00     0.010 A 
ATOM     45  C   UNL A   1      50.029  27.268  29.152  1.00  0.00     0.010 A 
ATOM     46  C   UNL A   1      48.713  26.851  28.884  1.00  0.00    -0.014 A 
BRANCH  46  47
ATOM     47  C   UNL A   1      47.563  27.487  29.575  1.00  0.00     0.031 A 
ATOM     48  C   UNL A   1      47.011  26.827  30.809  1.00  0.00     0.074 A 
ATOM     49  C   UNL A   1      47.051  28.653  29.144  1.00  0.00     0.049 A 
ATOM     50  N   UNL A   1      46.024  27.201  31.583  1.00  0.00    -0.248 NA
ATOM     51  C   UNL A   1      47.660  25.574  31.225  1.00  0.00     0.031 C 
ATOM     52  C   UNL A   1      47.519  29.404  27.982  1.00  0.00     0.029 A 
ATOM     53  N   UNL A   1      46.018  29.409  29.642  1.00  0.00    -0.354 N 
ATOM     54  C   UNL A   1      45.932  26.229  32.571  1.00  0.00     0.074 A 
ATOM     55  C   UNL A   1      46.938  25.231  32.281  1.00  0.00     0.031 C 
ATOM     56  C   UNL A   1      46.771  30.513  27.850  1.00  0.00     0.029 A 
ATOM     57  C   UNL A   1      45.753  30.534  28.900  1.00  0.00     0.049 A 
ATOM     58  H   UNL A   1      45.514  29.167  30.452  1.00  0.00     0.167 HD
ATOM     59  C   UNL A   1      45.092  26.179  33.632  1.00  0.00     0.037 A 
ATOM     60  C   UNL A   1      44.786  31.462  29.045  1.00  0.00     0.037 A 
ATOM     61  C   UNL A   1      44.092  27.175  33.918  1.00  0.00     0.049 A 
ATOM     62  C   UNL A   1      43.822  31.349  30.200  1.00  0.00     0.074 A 
ATOM     63  C   UNL A   1      43.212  27.231  34.984  1.00  0.00     0.029 A 
ATOM     64  N   UNL A   1      43.830  28.283  33.126  1.00  0.00    -0.354 N 
ATOM     65  N   UNL A   1      43.769  30.452  31.156  1.00  0.00    -0.248 NA
ATOM     66  C   UNL A   1      42.785  32.388  30.300  1.00  0.00     0.031 C 
ATOM     67  C   UNL A   1      42.372  28.334  34.801  1.00  0.00     0.029 A 
ATOM     68  C   UNL A   1      42.777  29.009  33.662  1.00  0.00     0.049 A 
ATOM     69  H   UNL A   1      44.319  28.519  32.305  1.00  0.00     0.167 HD
ATOM     70  C   UNL A   1      42.719  30.833  31.983  1.00  0.00     0.074 A 
ATOM     71  C   UNL A   1      42.176  32.055  31.429  1.00  0.00     0.031 C 
ATOM     72  C   UNL A   1      42.246  30.225  33.099  1.00  0.00     0.037 A 
BRANCH  59  73
ATOM     73  C   UNL A   1      45.192  24.991  34.544  1.00  0.00     0.064 A 
ATOM     74  C   UNL A   1      45.813  25.068  35.800  1.00  0.00     0.173 A 
ATOM     75  C   UNL A   1      44.623  23.763  34.169  1.00  0.00     0.173 A 
ATOM     76  F   UNL A   1      46.387  26.212  36.202  1.00  0.00    -0.203 F 
ATOM     77  C   UNL A   1      45.882  23.954  36.635  1.00  0.00     0.198 A 
ATOM     78  C   UNL A   1      44.664  22.662  35.021  1.00  0.00     0.198 A 
ATOM     79  F   UNL A   1      44.014  23.635  32.981  1.00  0.00    -0.203 F 
ATOM     80  F   UNL A   1      46.523  24.038  37.809  1.00  0.00    -0.200 F 
ATOM     81  C   UNL A   1      45.301  22.756  36.248  1.00  0.00     0.200 A 
ATOM     82  F   UNL A   1      44.088  21.510  34.651  1.00  0.00    -0.200 F 
ATOM     83  F   UNL A   1      45.358  21.689  37.058  1.00  0.00    -0.200 F 
ENDBRANCH  59  73
BRANCH  60  84
ATOM     84  C   UNL A   1      44.667  32.576  28.065  1.00  0.00     0.064 A 
ATOM     85  C   UNL A   1      45.068  33.880  28.391  1.00  0.00     0.173 A 
ATOM     86  C   UNL A   1      44.114  32.364  26.793  1.00  0.00     0.173 A 
ATOM     87  F   UNL A   1      45.577  34.140  29.604  1.00  0.00    -0.203 F 
ATOM     88  C   UNL A   1      44.897  34.932  27.493  1.00  0.00     0.198 A 
ATOM     89  C   UNL A   1      43.976  33.411  25.883  1.00  0.00     0.198 A 
ATOM     90  F   UNL A   1      43.710  31.138  26.430  1.00  0.00    -0.203 F 
ATOM     91  F   UNL A   1      45.232  36.178  27.854  1.00  0.00    -0.200 F 
ATOM     92  C   UNL A   1      44.356  34.696  26.238  1.00  0.00     0.200 A 
ATOM     93  F   UNL A   1      43.466  33.175  24.666  1.00  0.00    -0.200 F 
ATOM     94  F   UNL A   1      44.192  35.708  25.375  1.00  0.00    -0.200 F 
ENDBRANCH  60  84
BRANCH  72  95
ATOM     95  C   UNL A   1      41.107  30.895  33.820  1.00  0.00     0.064 A 
ATOM     96  C   UNL A   1      39.770  30.537  33.589  1.00  0.00     0.173 A 
ATOM     97  C   UNL A   1      41.359  31.896  34.772  1.00  0.00     0.173 A 
ATOM     98  F   UNL A   1      39.470  29.594  32.682  1.00  0.00    -0.203 F 
ATOM     99  C   UNL A   1      38.729  31.185  34.251  1.00  0.00     0.198 A 
ATOM    100  C   UNL A   1      40.318  32.514  35.460  1.00  0.00     0.198 A 
ATOM    101  F   UNL A   1      42.619  32.271  35.042  1.00  0.00    -0.203 F 
ATOM    102  F   UNL A   1      37.459  30.871  33.963  1.00  0.00    -0.200 F 
ATOM    103  C   UNL A   1      39.004  32.167  35.189  1.00  0.00     0.200 A 
ATOM    104  F   UNL A   1      40.588  33.449  36.381  1.00  0.00    -0.200 F 
ATOM    105  F   UNL A   1      38.002  32.787  35.826  1.00  0.00    -0.200 F 
ENDBRANCH  72  95
ENDBRANCH  46  47
ENDBRANCH  39  41
ENDBRANCH  38  39
ENDBRANCH  37  38
ENDBRANCH  36  37
ENDBRANCH  35  36
ENDBRANCH  34  35
ENDBRANCH  33  34
ENDBRANCH  32  33
ENDBRANCH   1  32
TORSDOF 23
ENDMDL
