MODEL 1
REMARK VINA RESULT:     -10.8      0.000      0.000
REMARK SMILES Cc1ccc(NC(=O)C[C@H]2SC[C@H](C(=O)OCCOCCOCCOCCOC(=O)c3ccc(-c4c5nc(c(-c6c(F)c(F)c(F)c(F)c6F)c6ccc([nH]6)c(-c6c(F)c(F)c(F)c(F)c6F)c6nc(c(-c7c(F)c(F)c(F)c(F)c7F)c7ccc4[nH]7)C=C6)C=C5)cc3)NC2=O)cc1
REMARK SMILES IDX 21 1 20 2 19 3 18 4 17 5 16 6 14 7 15 8 13 9 10 10 11 11
REMARK SMILES IDX 95 12 12 13 94 14 96 15 9 17 7 18 6 19 8 21 5 22 1 23 2 24
REMARK SMILES IDX 3 25 98 26 4 27 97 28 22 29 23 30 24 31 25 32 26 33 27 34
REMARK SMILES IDX 28 35 29 36 30 37 31 38 32 39 93 40 33 41 92 42 34 43 35 44
REMARK SMILES IDX 36 45 86 46 37 47 91 48 85 49 87 50 38 51 90 52 84 53 83 54
REMARK SMILES IDX 39 56 71 57 51 58 70 59 52 60 55 61 69 62 88 63 53 64 54 65
REMARK SMILES IDX 68 67 89 68 56 69 40 70 41 71 49 72 42 73 43 74 47 75 50 76
REMARK SMILES IDX 44 77 45 78 48 79 46 80 72 81 73 82 81 83 74 84 75 85 79 86
REMARK SMILES IDX 82 87 76 88 77 89 80 90 78 91 57 92 58 93 66 94 59 95 60 96
REMARK SMILES IDX 64 97 67 98 61 99 62 100 65 101 63 102
REMARK H PARENT 94 16 6 20 87 55 55 66
REMARK Flexibility Score: inf
ROOT
ATOM      1  C   UNL A   1      33.655  26.226  23.843  1.00  0.00     0.188 C 
ENDROOT
BRANCH   1   2
ATOM      2  C   UNL A   1      34.028  27.663  23.471  1.00  0.00     0.188 C 
BRANCH   2   3
ATOM      3  O   UNL A   1      32.945  28.533  23.161  1.00  0.00    -0.376 OA
BRANCH   3   4
ATOM      4  C   UNL A   1      32.374  29.253  24.252  1.00  0.00     0.202 C 
BRANCH   4   5
ATOM      5  C   UNL A   1      30.877  29.496  24.139  1.00  0.00     0.261 C 
BRANCH   5   6
ATOM      6  O   UNL A   1      30.412  28.795  22.974  1.00  0.00    -0.462 OA
BRANCH   6   7
ATOM      7  C   UNL A   1      29.367  27.971  23.178  1.00  0.00     0.329 C 
ATOM      8  O   UNL A   1      28.188  28.309  23.126  1.00  0.00    -0.250 OA
BRANCH   7   9
ATOM      9  C   UNL A   1      29.795  26.575  23.578  1.00  0.00     0.202 C 
ATOM     10  C   UNL A   1      31.019  24.239  24.976  1.00  0.00     0.145 C 
ATOM     11  S   UNL A   1      30.730  24.037  23.158  1.00  0.00    -0.145 SA
ATOM     12  C   UNL A   1      30.292  25.446  25.606  1.00  0.00     0.234 C 
ATOM     13  C   UNL A   1      30.679  25.790  22.631  1.00  0.00     0.107 C 
ATOM     14  N   UNL A   1      30.321  26.621  24.916  1.00  0.00    -0.341 N 
ATOM     15  O   UNL A   1      29.760  25.486  26.710  1.00  0.00    -0.274 OA
ATOM     16  H   UNL A   1      30.680  27.448  25.310  1.00  0.00     0.164 HD
BRANCH  10  17
ATOM     17  C   UNL A   1      30.756  22.886  25.651  1.00  0.00     0.124 C 
BRANCH  17  18
ATOM     18  C   UNL A   1      31.752  22.438  26.703  1.00  0.00     0.226 C 
ATOM     19  N   UNL A   1      32.597  21.386  26.495  1.00  0.00    -0.326 N 
ATOM     20  H   UNL A   1      33.293  21.275  27.182  1.00  0.00     0.169 HD
ATOM     21  O   UNL A   1      31.847  23.067  27.762  1.00  0.00    -0.275 OA
BRANCH  19  22
ATOM     22  C   UNL A   1      32.637  20.439  25.466  1.00  0.00     0.041 A 
ATOM     23  C   UNL A   1      32.908  17.405  22.426  1.00  0.00     0.044 C 
ATOM     24  C   UNL A   1      32.798  18.453  23.491  1.00  0.00    -0.051 A 
ATOM     25  C   UNL A   1      32.520  19.781  23.145  1.00  0.00     0.005 A 
ATOM     26  C   UNL A   1      33.007  18.129  24.835  1.00  0.00     0.005 A 
ATOM     27  C   UNL A   1      32.429  20.767  24.129  1.00  0.00     0.026 A 
ATOM     28  C   UNL A   1      32.903  19.112  25.818  1.00  0.00     0.026 A 
ENDBRANCH  19  22
ENDBRANCH  17  18
ENDBRANCH  10  17
ENDBRANCH   7   9
ENDBRANCH   6   7
ENDBRANCH   5   6
ENDBRANCH   4   5
ENDBRANCH   3   4
ENDBRANCH   2   3
ENDBRANCH   1   2
BRANCH   1  29
ATOM     29  O   UNL A   1      34.726  25.289  23.814  1.00  0.00    -0.377 OA
BRANCH  29  30
ATOM     30  C   UNL A   1      34.924  24.428  24.940  1.00  0.00     0.188 C 
BRANCH  30  31
ATOM     31  C   UNL A   1      35.254  22.960  24.664  1.00  0.00     0.188 C 
BRANCH  31  32
ATOM     32  O   UNL A   1      36.641  22.897  24.327  1.00  0.00    -0.376 OA
BRANCH  32  33
ATOM     33  C   UNL A   1      37.528  23.533  25.245  1.00  0.00     0.202 C 
BRANCH  33  34
ATOM     34  C   UNL A   1      38.222  22.531  26.166  1.00  0.00     0.261 C 
BRANCH  34  35
ATOM     35  O   UNL A   1      39.645  22.715  26.039  1.00  0.00    -0.460 OA
BRANCH  35  36
ATOM     36  C   UNL A   1      40.234  23.270  27.122  1.00  0.00     0.338 C 
ATOM     37  O   UNL A   1      40.816  22.639  28.008  1.00  0.00    -0.246 OA
BRANCH  36  38
ATOM     38  C   UNL A   1      39.872  24.706  27.235  1.00  0.00     0.060 A 
ATOM     39  C   UNL A   1      40.407  25.630  26.324  1.00  0.00     0.016 A 
ATOM     40  C   UNL A   1      39.218  25.173  28.375  1.00  0.00     0.016 A 
ATOM     41  C   UNL A   1      40.406  27.001  26.619  1.00  0.00     0.010 A 
ATOM     42  C   UNL A   1      39.286  26.521  28.696  1.00  0.00     0.010 A 
ATOM     43  C   UNL A   1      39.914  27.449  27.850  1.00  0.00    -0.014 A 
BRANCH  43  44
ATOM     44  C   UNL A   1      40.210  28.776  28.433  1.00  0.00     0.031 A 
ATOM     45  C   UNL A   1      39.177  29.864  28.510  1.00  0.00     0.074 A 
ATOM     46  C   UNL A   1      41.320  28.910  29.206  1.00  0.00     0.049 A 
ATOM     47  N   UNL A   1      39.395  31.026  29.042  1.00  0.00    -0.248 NA
ATOM     48  C   UNL A   1      37.817  29.765  27.979  1.00  0.00     0.031 C 
ATOM     49  C   UNL A   1      41.445  29.784  30.372  1.00  0.00     0.029 A 
ATOM     50  N   UNL A   1      42.548  28.254  29.185  1.00  0.00    -0.354 N 
ATOM     51  C   UNL A   1      38.180  31.624  29.280  1.00  0.00     0.074 A 
ATOM     52  C   UNL A   1      37.256  30.886  28.456  1.00  0.00     0.031 C 
ATOM     53  C   UNL A   1      42.658  29.669  30.922  1.00  0.00     0.029 A 
ATOM     54  C   UNL A   1      43.475  28.971  29.966  1.00  0.00     0.049 A 
ATOM     55  H   UNL A   1      42.740  27.420  28.700  1.00  0.00     0.167 HD
ATOM     56  C   UNL A   1      38.077  32.564  30.268  1.00  0.00     0.037 A 
ATOM     57  C   UNL A   1      44.579  29.556  29.408  1.00  0.00     0.037 A 
ATOM     58  C   UNL A   1      39.389  32.996  30.782  1.00  0.00     0.049 A 
ATOM     59  C   UNL A   1      44.559  31.076  29.398  1.00  0.00     0.074 A 
ATOM     60  C   UNL A   1      39.955  33.095  32.043  1.00  0.00     0.029 A 
ATOM     61  N   UNL A   1      40.411  33.313  29.885  1.00  0.00    -0.354 N 
ATOM     62  N   UNL A   1      43.524  31.781  29.775  1.00  0.00    -0.248 NA
ATOM     63  C   UNL A   1      45.661  31.933  28.970  1.00  0.00     0.031 C 
ATOM     64  C   UNL A   1      41.336  33.408  31.890  1.00  0.00     0.029 A 
ATOM     65  C   UNL A   1      41.598  33.568  30.539  1.00  0.00     0.049 A 
ATOM     66  H   UNL A   1      40.299  33.349  28.907  1.00  0.00     0.167 HD
ATOM     67  C   UNL A   1      43.752  33.113  29.588  1.00  0.00     0.074 A 
ATOM     68  C   UNL A   1      45.126  33.161  29.123  1.00  0.00     0.031 C 
ATOM     69  C   UNL A   1      42.766  34.038  29.796  1.00  0.00     0.037 A 
BRANCH  56  70
ATOM     70  C   UNL A   1      36.770  32.993  30.932  1.00  0.00     0.064 A 
ATOM     71  C   UNL A   1      35.856  33.830  30.250  1.00  0.00     0.173 A 
ATOM     72  C   UNL A   1      36.416  32.724  32.273  1.00  0.00     0.173 A 
ATOM     73  F   UNL A   1      36.057  34.172  28.969  1.00  0.00    -0.203 F 
ATOM     74  C   UNL A   1      34.707  34.356  30.858  1.00  0.00     0.198 A 
ATOM     75  C   UNL A   1      35.231  33.191  32.857  1.00  0.00     0.198 A 
ATOM     76  F   UNL A   1      37.229  32.054  33.098  1.00  0.00    -0.203 F 
ATOM     77  F   UNL A   1      33.918  35.200  30.177  1.00  0.00    -0.200 F 
ATOM     78  C   UNL A   1      34.385  34.021  32.157  1.00  0.00     0.200 A 
ATOM     79  F   UNL A   1      34.934  32.847  34.120  1.00  0.00    -0.200 F 
ATOM     80  F   UNL A   1      33.278  34.508  32.735  1.00  0.00    -0.200 F 
ENDBRANCH  56  70
BRANCH  57  81
ATOM     81  C   UNL A   1      45.288  28.618  28.501  1.00  0.00     0.064 A 
ATOM     82  C   UNL A   1      45.754  27.446  29.131  1.00  0.00     0.173 A 
ATOM     83  C   UNL A   1      44.917  28.532  27.151  1.00  0.00     0.173 A 
ATOM     84  F   UNL A   1      46.141  27.491  30.416  1.00  0.00    -0.203 F 
ATOM     85  C   UNL A   1      45.616  26.203  28.519  1.00  0.00     0.198 A 
ATOM     86  C   UNL A   1      44.794  27.281  26.538  1.00  0.00     0.198 A 
ATOM     87  F   UNL A   1      44.479  29.618  26.500  1.00  0.00    -0.203 F 
ATOM     88  F   UNL A   1      45.865  25.086  29.217  1.00  0.00    -0.200 F 
ATOM     89  C   UNL A   1      45.088  26.120  27.241  1.00  0.00     0.200 A 
ATOM     90  F   UNL A   1      44.255  27.190  25.314  1.00  0.00    -0.200 F 
ATOM     91  F   UNL A   1      44.790  24.922  26.719  1.00  0.00    -0.200 F 
ENDBRANCH  57  81
BRANCH  69  92
ATOM     92  C   UNL A   1      42.777  35.488  29.351  1.00  0.00     0.064 A 
ATOM     93  C   UNL A   1      43.299  36.542  30.116  1.00  0.00     0.173 A 
ATOM     94  C   UNL A   1      42.411  35.834  28.023  1.00  0.00     0.173 A 
ATOM     95  F   UNL A   1      43.788  36.340  31.346  1.00  0.00    -0.203 F 
ATOM     96  C   UNL A   1      43.404  37.845  29.614  1.00  0.00     0.198 A 
ATOM     97  C   UNL A   1      42.573  37.120  27.507  1.00  0.00     0.198 A 
ATOM     98  F   UNL A   1      41.913  34.928  27.169  1.00  0.00    -0.203 F 
ATOM     99  F   UNL A   1      43.880  38.819  30.401  1.00  0.00    -0.200 F 
ATOM    100  C   UNL A   1      43.058  38.130  28.307  1.00  0.00     0.200 A 
ATOM    101  F   UNL A   1      42.279  37.364  26.222  1.00  0.00    -0.200 F 
ATOM    102  F   UNL A   1      43.213  39.366  27.817  1.00  0.00    -0.200 F 
ENDBRANCH  69  92
ENDBRANCH  43  44
ENDBRANCH  36  38
ENDBRANCH  35  36
ENDBRANCH  34  35
ENDBRANCH  33  34
ENDBRANCH  32  33
ENDBRANCH  31  32
ENDBRANCH  30  31
ENDBRANCH  29  30
ENDBRANCH   1  29
TORSDOF 23
ENDMDL
MODEL 2
REMARK VINA RESULT:     -10.5      3.391      6.591
REMARK SMILES Cc1ccc(NC(=O)C[C@H]2SC[C@H](C(=O)OCCOCCOCCOCCOC(=O)c3ccc(-c4c5nc(c(-c6c(F)c(F)c(F)c(F)c6F)c6ccc([nH]6)c(-c6c(F)c(F)c(F)c(F)c6F)c6nc(c(-c7c(F)c(F)c(F)c(F)c7F)c7ccc4[nH]7)C=C6)C=C5)cc3)NC2=O)cc1
REMARK SMILES IDX 21 1 20 2 19 3 18 4 17 5 16 6 14 7 15 8 13 9 10 10 11 11
REMARK SMILES IDX 95 12 12 13 94 14 96 15 9 17 7 18 6 19 8 21 5 22 1 23 2 24
REMARK SMILES IDX 3 25 98 26 4 27 97 28 22 29 23 30 24 31 25 32 26 33 27 34
REMARK SMILES IDX 28 35 29 36 30 37 31 38 32 39 93 40 33 41 92 42 34 43 35 44
REMARK SMILES IDX 36 45 86 46 37 47 91 48 85 49 87 50 38 51 90 52 84 53 83 54
REMARK SMILES IDX 39 56 71 57 51 58 70 59 52 60 55 61 69 62 88 63 53 64 54 65
REMARK SMILES IDX 68 67 89 68 56 69 40 70 41 71 49 72 42 73 43 74 47 75 50 76
REMARK SMILES IDX 44 77 45 78 48 79 46 80 72 81 73 82 81 83 74 84 75 85 79 86
REMARK SMILES IDX 82 87 76 88 77 89 80 90 78 91 57 92 58 93 66 94 59 95 60 96
REMARK SMILES IDX 64 97 67 98 61 99 62 100 65 101 63 102
REMARK H PARENT 94 16 6 20 87 55 55 66
REMARK Flexibility Score: inf
ROOT
ATOM      1  C   UNL A   1      40.924  21.858  26.912  1.00  0.00     0.188 C 
ENDROOT
BRANCH   1   2
ATOM      2  C   UNL A   1      39.651  22.660  27.185  1.00  0.00     0.188 C 
BRANCH   2   3
ATOM      3  O   UNL A   1      38.897  23.052  26.042  1.00  0.00    -0.376 OA
BRANCH   3   4
ATOM      4  C   UNL A   1      38.444  22.004  25.188  1.00  0.00     0.202 C 
BRANCH   4   5
ATOM      5  C   UNL A   1      37.284  21.189  25.739  1.00  0.00     0.261 C 
BRANCH   5   6
ATOM      6  O   UNL A   1      36.418  20.870  24.638  1.00  0.00    -0.462 OA
BRANCH   6   7
ATOM      7  C   UNL A   1      35.102  20.885  24.920  1.00  0.00     0.329 C 
ATOM      8  O   UNL A   1      34.437  19.896  25.214  1.00  0.00    -0.250 OA
BRANCH   7   9
ATOM      9  C   UNL A   1      34.484  22.256  24.746  1.00  0.00     0.202 C 
ATOM     10  C   UNL A   1      33.823  25.005  23.789  1.00  0.00     0.145 C 
ATOM     11  S   UNL A   1      33.486  24.666  25.579  1.00  0.00    -0.145 SA
ATOM     12  C   UNL A   1      34.083  23.743  22.940  1.00  0.00     0.234 C 
ATOM     13  C   UNL A   1      34.624  23.261  25.871  1.00  0.00     0.107 C 
ATOM     14  N   UNL A   1      34.895  22.789  23.475  1.00  0.00    -0.341 N 
ATOM     15  O   UNL A   1      33.706  23.543  21.790  1.00  0.00    -0.274 OA
ATOM     16  H   UNL A   1      35.713  22.483  23.019  1.00  0.00     0.164 HD
BRANCH  10  17
ATOM     17  C   UNL A   1      32.717  25.933  23.267  1.00  0.00     0.124 C 
BRANCH  17  18
ATOM     18  C   UNL A   1      31.312  25.686  23.781  1.00  0.00     0.226 C 
ATOM     19  N   UNL A   1      30.664  26.589  24.571  1.00  0.00    -0.326 N 
ATOM     20  H   UNL A   1      29.712  26.392  24.727  1.00  0.00     0.169 HD
ATOM     21  O   UNL A   1      30.708  24.664  23.438  1.00  0.00    -0.275 OA
BRANCH  19  22
ATOM     22  C   UNL A   1      31.128  27.750  25.199  1.00  0.00     0.041 A 
ATOM     23  C   UNL A   1      32.490  31.233  27.330  1.00  0.00     0.044 C 
ATOM     24  C   UNL A   1      32.033  30.014  26.589  1.00  0.00    -0.051 A 
ATOM     25  C   UNL A   1      31.603  30.118  25.260  1.00  0.00     0.005 A 
ATOM     26  C   UNL A   1      31.995  28.767  27.221  1.00  0.00     0.005 A 
ATOM     27  C   UNL A   1      31.163  28.989  24.566  1.00  0.00     0.026 A 
ATOM     28  C   UNL A   1      31.569  27.638  26.523  1.00  0.00     0.026 A 
ENDBRANCH  19  22
ENDBRANCH  17  18
ENDBRANCH  10  17
ENDBRANCH   7   9
ENDBRANCH   6   7
ENDBRANCH   5   6
ENDBRANCH   4   5
ENDBRANCH   3   4
ENDBRANCH   2   3
ENDBRANCH   1   2
BRANCH   1  29
ATOM     29  O   UNL A   1      40.908  20.510  27.368  1.00  0.00    -0.377 OA
BRANCH  29  30
ATOM     30  C   UNL A   1      42.102  19.728  27.265  1.00  0.00     0.188 C 
BRANCH  30  31
ATOM     31  C   UNL A   1      42.325  18.936  25.976  1.00  0.00     0.188 C 
BRANCH  31  32
ATOM     32  O   UNL A   1      43.577  18.260  26.108  1.00  0.00    -0.376 OA
BRANCH  32  33
ATOM     33  C   UNL A   1      44.552  18.571  25.115  1.00  0.00     0.202 C 
BRANCH  33  34
ATOM     34  C   UNL A   1      45.731  19.356  25.690  1.00  0.00     0.261 C 
BRANCH  34  35
ATOM     35  O   UNL A   1      45.952  20.508  24.855  1.00  0.00    -0.460 OA
BRANCH  35  36
ATOM     36  C   UNL A   1      44.978  21.443  24.925  1.00  0.00     0.338 C 
ATOM     37  O   UNL A   1      43.925  21.413  24.283  1.00  0.00    -0.246 OA
BRANCH  36  38
ATOM     38  C   UNL A   1      45.450  22.634  25.678  1.00  0.00     0.060 A 
ATOM     39  C   UNL A   1      45.151  22.752  27.044  1.00  0.00     0.016 A 
ATOM     40  C   UNL A   1      45.959  23.737  24.993  1.00  0.00     0.016 A 
ATOM     41  C   UNL A   1      45.233  23.998  27.684  1.00  0.00     0.010 A 
ATOM     42  C   UNL A   1      45.966  24.979  25.611  1.00  0.00     0.010 A 
ATOM     43  C   UNL A   1      45.567  25.140  26.948  1.00  0.00    -0.014 A 
BRANCH  43  44
ATOM     44  C   UNL A   1      45.308  26.526  27.394  1.00  0.00     0.031 A 
ATOM     45  C   UNL A   1      43.917  27.079  27.520  1.00  0.00     0.074 A 
ATOM     46  C   UNL A   1      46.310  27.204  28.012  1.00  0.00     0.049 A 
ATOM     47  N   UNL A   1      43.654  28.278  27.936  1.00  0.00    -0.248 NA
ATOM     48  C   UNL A   1      42.694  26.355  27.168  1.00  0.00     0.031 C 
ATOM     49  C   UNL A   1      46.140  28.181  29.089  1.00  0.00     0.029 A 
ATOM     50  N   UNL A   1      47.695  27.129  27.887  1.00  0.00    -0.354 N 
ATOM     51  C   UNL A   1      42.324  28.333  28.278  1.00  0.00     0.074 A 
ATOM     52  C   UNL A   1      41.745  27.183  27.629  1.00  0.00     0.031 C 
ATOM     53  C   UNL A   1      47.324  28.652  29.492  1.00  0.00     0.029 A 
ATOM     54  C   UNL A   1      48.281  28.256  28.495  1.00  0.00     0.049 A 
ATOM     55  H   UNL A   1      48.187  26.402  27.443  1.00  0.00     0.167 HD
ATOM     56  C   UNL A   1      41.906  29.251  29.202  1.00  0.00     0.037 A 
ATOM     57  C   UNL A   1      48.977  29.181  27.764  1.00  0.00     0.037 A 
ATOM     58  C   UNL A   1      42.941  30.252  29.518  1.00  0.00     0.049 A 
ATOM     59  C   UNL A   1      48.303  30.538  27.649  1.00  0.00     0.074 A 
ATOM     60  C   UNL A   1      43.509  30.728  30.690  1.00  0.00     0.029 A 
ATOM     61  N   UNL A   1      43.650  30.862  28.481  1.00  0.00    -0.354 N 
ATOM     62  N   UNL A   1      47.099  30.782  28.098  1.00  0.00    -0.248 NA
ATOM     63  C   UNL A   1      48.889  31.723  27.028  1.00  0.00     0.031 C 
ATOM     64  C   UNL A   1      44.603  31.573  30.345  1.00  0.00     0.029 A 
ATOM     65  C   UNL A   1      44.660  31.667  28.965  1.00  0.00     0.049 A 
ATOM     66  H   UNL A   1      43.455  30.732  27.524  1.00  0.00     0.167 HD
ATOM     67  C   UNL A   1      46.715  32.054  27.790  1.00  0.00     0.074 A 
ATOM     68  C   UNL A   1      47.891  32.620  27.157  1.00  0.00     0.031 C 
ATOM     69  C   UNL A   1      45.447  32.495  28.051  1.00  0.00     0.037 A 
BRANCH  56  70
ATOM     70  C   UNL A   1      40.601  29.165  29.990  1.00  0.00     0.064 A 
ATOM     71  C   UNL A   1      40.528  28.408  31.183  1.00  0.00     0.173 A 
ATOM     72  C   UNL A   1      39.361  29.693  29.565  1.00  0.00     0.173 A 
ATOM     73  F   UNL A   1      41.624  27.845  31.711  1.00  0.00    -0.203 F 
ATOM     74  C   UNL A   1      39.327  28.190  31.874  1.00  0.00     0.198 A 
ATOM     75  C   UNL A   1      38.175  29.536  30.295  1.00  0.00     0.198 A 
ATOM     76  F   UNL A   1      39.226  30.326  28.394  1.00  0.00    -0.203 F 
ATOM     77  F   UNL A   1      39.314  27.406  32.961  1.00  0.00    -0.200 F 
ATOM     78  C   UNL A   1      38.153  28.770  31.439  1.00  0.00     0.200 A 
ATOM     79  F   UNL A   1      37.046  30.114  29.857  1.00  0.00    -0.200 F 
ATOM     80  F   UNL A   1      37.007  28.580  32.108  1.00  0.00    -0.200 F 
ENDBRANCH  56  70
BRANCH  57  81
ATOM     81  C   UNL A   1      49.945  28.529  26.846  1.00  0.00     0.064 A 
ATOM     82  C   UNL A   1      51.138  28.107  27.469  1.00  0.00     0.173 A 
ATOM     83  C   UNL A   1      49.482  27.788  25.750  1.00  0.00     0.173 A 
ATOM     84  F   UNL A   1      51.627  28.802  28.508  1.00  0.00    -0.203 F 
ATOM     85  C   UNL A   1      51.699  26.868  27.172  1.00  0.00     0.198 A 
ATOM     86  C   UNL A   1      50.059  26.551  25.447  1.00  0.00     0.198 A 
ATOM     87  F   UNL A   1      48.361  28.153  25.113  1.00  0.00    -0.203 F 
ATOM     88  F   UNL A   1      52.703  26.395  27.924  1.00  0.00    -0.200 F 
ATOM     89  C   UNL A   1      51.126  26.070  26.196  1.00  0.00     0.200 A 
ATOM     90  F   UNL A   1      49.492  25.758  24.527  1.00  0.00    -0.200 F 
ATOM     91  F   UNL A   1      51.552  24.809  26.031  1.00  0.00    -0.200 F 
ENDBRANCH  57  81
BRANCH  69  92
ATOM     92  C   UNL A   1      44.796  33.751  27.506  1.00  0.00     0.064 A 
ATOM     93  C   UNL A   1      44.039  33.797  26.324  1.00  0.00     0.173 A 
ATOM     94  C   UNL A   1      44.770  34.941  28.281  1.00  0.00     0.173 A 
ATOM     95  F   UNL A   1      43.880  32.715  25.552  1.00  0.00    -0.203 F 
ATOM     96  C   UNL A   1      43.352  34.949  25.926  1.00  0.00     0.198 A 
ATOM     97  C   UNL A   1      44.036  36.068  27.910  1.00  0.00     0.198 A 
ATOM     98  F   UNL A   1      45.433  35.041  29.442  1.00  0.00    -0.203 F 
ATOM     99  F   UNL A   1      42.671  34.945  24.771  1.00  0.00    -0.200 F 
ATOM    100  C   UNL A   1      43.336  36.077  26.724  1.00  0.00     0.200 A 
ATOM    101  F   UNL A   1      43.992  37.132  28.724  1.00  0.00    -0.200 F 
ATOM    102  F   UNL A   1      42.631  37.156  26.363  1.00  0.00    -0.200 F 
ENDBRANCH  69  92
ENDBRANCH  43  44
ENDBRANCH  36  38
ENDBRANCH  35  36
ENDBRANCH  34  35
ENDBRANCH  33  34
ENDBRANCH  32  33
ENDBRANCH  31  32
ENDBRANCH  30  31
ENDBRANCH  29  30
ENDBRANCH   1  29
TORSDOF 23
ENDMDL
MODEL 3
REMARK VINA RESULT:     -10.3      1.554      2.193
REMARK SMILES Cc1ccc(NC(=O)C[C@H]2SC[C@H](C(=O)OCCOCCOCCOCCOC(=O)c3ccc(-c4c5nc(c(-c6c(F)c(F)c(F)c(F)c6F)c6ccc([nH]6)c(-c6c(F)c(F)c(F)c(F)c6F)c6nc(c(-c7c(F)c(F)c(F)c(F)c7F)c7ccc4[nH]7)C=C6)C=C5)cc3)NC2=O)cc1
REMARK SMILES IDX 21 1 20 2 19 3 18 4 17 5 16 6 14 7 15 8 13 9 10 10 11 11
REMARK SMILES IDX 95 12 12 13 94 14 96 15 9 17 7 18 6 19 8 21 5 22 1 23 2 24
REMARK SMILES IDX 3 25 98 26 4 27 97 28 22 29 23 30 24 31 25 32 26 33 27 34
REMARK SMILES IDX 28 35 29 36 30 37 31 38 32 39 93 40 33 41 92 42 34 43 35 44
REMARK SMILES IDX 36 45 86 46 37 47 91 48 85 49 87 50 38 51 90 52 84 53 83 54
REMARK SMILES IDX 39 56 71 57 51 58 70 59 52 60 55 61 69 62 88 63 53 64 54 65
REMARK SMILES IDX 68 67 89 68 56 69 40 70 41 71 49 72 42 73 43 74 47 75 50 76
REMARK SMILES IDX 44 77 45 78 48 79 46 80 72 81 73 82 81 83 74 84 75 85 79 86
REMARK SMILES IDX 82 87 76 88 77 89 80 90 78 91 57 92 58 93 66 94 59 95 60 96
REMARK SMILES IDX 64 97 67 98 61 99 62 100 65 101 63 102
REMARK H PARENT 94 16 6 20 87 55 55 66
REMARK Flexibility Score: inf
ROOT
ATOM      1  C   UNL A   1      33.547  26.605  23.421  1.00  0.00     0.188 C 
ENDROOT
BRANCH   1   2
ATOM      2  C   UNL A   1      34.007  28.031  23.728  1.00  0.00     0.188 C 
BRANCH   2   3
ATOM      3  O   UNL A   1      33.067  29.066  23.460  1.00  0.00    -0.376 OA
BRANCH   3   4
ATOM      4  C   UNL A   1      32.339  29.571  24.579  1.00  0.00     0.202 C 
BRANCH   4   5
ATOM      5  C   UNL A   1      30.828  29.555  24.414  1.00  0.00     0.261 C 
BRANCH   5   6
ATOM      6  O   UNL A   1      30.536  28.901  23.168  1.00  0.00    -0.462 OA
BRANCH   6   7
ATOM      7  C   UNL A   1      29.476  28.071  23.190  1.00  0.00     0.329 C 
ATOM      8  O   UNL A   1      28.316  28.410  22.978  1.00  0.00    -0.250 OA
BRANCH   7   9
ATOM      9  C   UNL A   1      29.847  26.662  23.603  1.00  0.00     0.202 C 
ATOM     10  C   UNL A   1      30.998  24.293  25.007  1.00  0.00     0.145 C 
ATOM     11  S   UNL A   1      30.643  24.073  23.203  1.00  0.00    -0.145 SA
ATOM     12  C   UNL A   1      30.350  25.544  25.636  1.00  0.00     0.234 C 
ATOM     13  C   UNL A   1      30.662  25.818  22.645  1.00  0.00     0.107 C 
ATOM     14  N   UNL A   1      30.416  26.704  24.924  1.00  0.00    -0.341 N 
ATOM     15  O   UNL A   1      29.856  25.629  26.755  1.00  0.00    -0.274 OA
ATOM     16  H   UNL A   1      30.827  27.520  25.291  1.00  0.00     0.164 HD
BRANCH  10  17
ATOM     17  C   UNL A   1      30.690  22.966  25.715  1.00  0.00     0.124 C 
BRANCH  17  18
ATOM     18  C   UNL A   1      31.697  22.485  26.742  1.00  0.00     0.226 C 
ATOM     19  N   UNL A   1      32.526  21.429  26.499  1.00  0.00    -0.326 N 
ATOM     20  H   UNL A   1      33.231  21.295  27.173  1.00  0.00     0.169 HD
ATOM     21  O   UNL A   1      31.814  23.091  27.812  1.00  0.00    -0.275 OA
BRANCH  19  22
ATOM     22  C   UNL A   1      32.540  20.503  25.450  1.00  0.00     0.041 A 
ATOM     23  C   UNL A   1      32.735  17.533  22.341  1.00  0.00     0.044 C 
ATOM     24  C   UNL A   1      32.652  18.558  23.431  1.00  0.00    -0.051 A 
ATOM     25  C   UNL A   1      32.355  19.891  23.121  1.00  0.00     0.005 A 
ATOM     26  C   UNL A   1      32.905  18.208  24.760  1.00  0.00     0.005 A 
ATOM     27  C   UNL A   1      32.289  20.857  24.127  1.00  0.00     0.026 A 
ATOM     28  C   UNL A   1      32.825  19.171  25.767  1.00  0.00     0.026 A 
ENDBRANCH  19  22
ENDBRANCH  17  18
ENDBRANCH  10  17
ENDBRANCH   7   9
ENDBRANCH   6   7
ENDBRANCH   5   6
ENDBRANCH   4   5
ENDBRANCH   3   4
ENDBRANCH   2   3
ENDBRANCH   1   2
BRANCH   1  29
ATOM     29  O   UNL A   1      34.563  25.610  23.469  1.00  0.00    -0.377 OA
BRANCH  29  30
ATOM     30  C   UNL A   1      34.522  24.626  24.508  1.00  0.00     0.188 C 
BRANCH  30  31
ATOM     31  C   UNL A   1      34.779  23.170  24.118  1.00  0.00     0.188 C 
BRANCH  31  32
ATOM     32  O   UNL A   1      36.166  23.060  23.792  1.00  0.00    -0.376 OA
BRANCH  32  33
ATOM     33  C   UNL A   1      37.074  23.424  24.831  1.00  0.00     0.202 C 
BRANCH  33  34
ATOM     34  C   UNL A   1      37.473  22.228  25.693  1.00  0.00     0.261 C 
BRANCH  34  35
ATOM     35  O   UNL A   1      38.883  21.995  25.513  1.00  0.00    -0.460 OA
BRANCH  35  36
ATOM     36  C   UNL A   1      39.646  22.338  26.575  1.00  0.00     0.338 C 
ATOM     37  O   UNL A   1      40.147  21.538  27.370  1.00  0.00    -0.246 OA
BRANCH  36  38
ATOM     38  C   UNL A   1      39.589  23.804  26.807  1.00  0.00     0.060 A 
ATOM     39  C   UNL A   1      40.231  24.672  25.911  1.00  0.00     0.016 A 
ATOM     40  C   UNL A   1      39.128  24.301  28.026  1.00  0.00     0.016 A 
ATOM     41  C   UNL A   1      40.528  25.990  26.288  1.00  0.00     0.010 A 
ATOM     42  C   UNL A   1      39.490  25.581  28.421  1.00  0.00     0.010 A 
ATOM     43  C   UNL A   1      40.228  26.430  27.582  1.00  0.00    -0.014 A 
BRANCH  43  44
ATOM     44  C   UNL A   1      40.827  27.624  28.217  1.00  0.00     0.031 A 
ATOM     45  C   UNL A   1      40.008  28.825  28.595  1.00  0.00     0.074 A 
ATOM     46  C   UNL A   1      42.065  27.512  28.767  1.00  0.00     0.049 A 
ATOM     47  N   UNL A   1      40.496  29.874  29.179  1.00  0.00    -0.248 NA
ATOM     48  C   UNL A   1      38.576  28.976  28.332  1.00  0.00     0.031 C 
ATOM     49  C   UNL A   1      42.533  28.214  29.962  1.00  0.00     0.029 A 
ATOM     50  N   UNL A   1      43.152  26.703  28.446  1.00  0.00    -0.354 N 
ATOM     51  C   UNL A   1      39.452  30.599  29.703  1.00  0.00     0.074 A 
ATOM     52  C   UNL A   1      38.291  30.098  29.011  1.00  0.00     0.031 C 
ATOM     53  C   UNL A   1      43.791  27.870  30.252  1.00  0.00     0.029 A 
ATOM     54  C   UNL A   1      44.304  27.188  29.094  1.00  0.00     0.049 A 
ATOM     55  H   UNL A   1      43.121  25.915  27.857  1.00  0.00     0.167 HD
ATOM     56  C   UNL A   1      39.676  31.417  30.776  1.00  0.00     0.037 A 
ATOM     57  C   UNL A   1      45.368  27.681  28.388  1.00  0.00     0.037 A 
ATOM     58  C   UNL A   1      41.110  31.602  31.062  1.00  0.00     0.049 A 
ATOM     59  C   UNL A   1      45.584  29.179  28.524  1.00  0.00     0.074 A 
ATOM     60  C   UNL A   1      41.902  31.471  32.192  1.00  0.00     0.029 A 
ATOM     61  N   UNL A   1      41.992  31.884  30.015  1.00  0.00    -0.354 N 
ATOM     62  N   UNL A   1      44.757  29.968  29.159  1.00  0.00    -0.248 NA
ATOM     63  C   UNL A   1      46.711  29.924  27.970  1.00  0.00     0.031 C 
ATOM     64  C   UNL A   1      43.265  31.610  31.802  1.00  0.00     0.029 A 
ATOM     65  C   UNL A   1      43.301  31.894  30.447  1.00  0.00     0.049 A 
ATOM     66  H   UNL A   1      41.712  32.052  29.086  1.00  0.00     0.167 HD
ATOM     67  C   UNL A   1      45.152  31.269  29.055  1.00  0.00     0.074 A 
ATOM     68  C   UNL A   1      46.411  31.186  28.338  1.00  0.00     0.031 C 
ATOM     69  C   UNL A   1      44.376  32.288  29.536  1.00  0.00     0.037 A 
BRANCH  56  70
ATOM     70  C   UNL A   1      38.593  31.936  31.719  1.00  0.00     0.064 A 
ATOM     71  C   UNL A   1      37.716  32.969  31.311  1.00  0.00     0.173 A 
ATOM     72  C   UNL A   1      38.444  31.555  33.071  1.00  0.00     0.173 A 
ATOM     73  F   UNL A   1      37.738  33.437  30.054  1.00  0.00    -0.203 F 
ATOM     74  C   UNL A   1      36.792  33.570  32.178  1.00  0.00     0.198 A 
ATOM     75  C   UNL A   1      37.471  32.104  33.917  1.00  0.00     0.198 A 
ATOM     76  F   UNL A   1      39.274  30.683  33.655  1.00  0.00    -0.203 F 
ATOM     77  F   UNL A   1      36.038  34.592  31.748  1.00  0.00    -0.200 F 
ATOM     78  C   UNL A   1      36.657  33.124  33.477  1.00  0.00     0.200 A 
ATOM     79  F   UNL A   1      37.353  31.651  35.174  1.00  0.00    -0.200 F 
ATOM     80  F   UNL A   1      35.761  33.683  34.303  1.00  0.00    -0.200 F 
ENDBRANCH  56  70
BRANCH  57  81
ATOM     81  C   UNL A   1      45.748  26.771  27.277  1.00  0.00     0.064 A 
ATOM     82  C   UNL A   1      45.530  27.307  25.991  1.00  0.00     0.173 A 
ATOM     83  C   UNL A   1      46.811  25.873  27.439  1.00  0.00     0.173 A 
ATOM     84  F   UNL A   1      44.508  28.153  25.788  1.00  0.00    -0.203 F 
ATOM     85  C   UNL A   1      46.475  27.150  24.982  1.00  0.00     0.198 A 
ATOM     86  C   UNL A   1      47.751  25.707  26.417  1.00  0.00     0.198 A 
ATOM     87  F   UNL A   1      47.055  25.324  28.638  1.00  0.00    -0.203 F 
ATOM     88  F   UNL A   1      46.353  27.842  23.840  1.00  0.00    -0.200 F 
ATOM     89  C   UNL A   1      47.611  26.391  25.215  1.00  0.00     0.200 A 
ATOM     90  F   UNL A   1      48.867  25.002  26.645  1.00  0.00    -0.200 F 
ATOM     91  F   UNL A   1      48.604  26.382  24.315  1.00  0.00    -0.200 F 
ENDBRANCH  57  81
BRANCH  69  92
ATOM     92  C   UNL A   1      44.533  33.765  29.234  1.00  0.00     0.064 A 
ATOM     93  C   UNL A   1      44.971  34.717  30.168  1.00  0.00     0.173 A 
ATOM     94  C   UNL A   1      44.413  34.242  27.902  1.00  0.00     0.173 A 
ATOM     95  F   UNL A   1      45.236  34.384  31.437  1.00  0.00    -0.203 F 
ATOM     96  C   UNL A   1      45.222  36.048  29.812  1.00  0.00     0.198 A 
ATOM     97  C   UNL A   1      44.722  35.554  27.540  1.00  0.00     0.198 A 
ATOM     98  F   UNL A   1      44.021  33.444  26.899  1.00  0.00    -0.203 F 
ATOM     99  F   UNL A   1      45.607  36.921  30.752  1.00  0.00    -0.200 F 
ATOM    100  C   UNL A   1      45.115  36.461  28.498  1.00  0.00     0.200 A 
ATOM    101  F   UNL A   1      44.661  35.920  26.252  1.00  0.00    -0.200 F 
ATOM    102  F   UNL A   1      45.412  37.721  28.155  1.00  0.00    -0.200 F 
ENDBRANCH  69  92
ENDBRANCH  43  44
ENDBRANCH  36  38
ENDBRANCH  35  36
ENDBRANCH  34  35
ENDBRANCH  33  34
ENDBRANCH  32  33
ENDBRANCH  31  32
ENDBRANCH  30  31
ENDBRANCH  29  30
ENDBRANCH   1  29
TORSDOF 23
ENDMDL
