MODEL 1
REMARK VINA RESULT:     -10.6      0.000      0.000
REMARK SMILES CC[C@@H](C)N(C)c1ccc(/C=C/C(=O)OCCOCCOCCOCCOC(=O)c2ccc(-c3c4nc(c(-c5c(F)c(F)c(F)c(F)c5F)c5ccc([nH]5)c(-c5c(F)c(F)c(F)c(F)c5F)c5nc(c(-c6c(F)c(F)c(F)c(F)c6F)c6ccc3[nH]6)C=C5)C=C4)cc2)cc1F
REMARK SMILES IDX 20 1 19 2 18 3 17 4 16 5 15 6 13 7 14 8 12 9 11 10 10 11
REMARK SMILES IDX 7 12 8 13 94 14 9 15 93 16 95 17 5 18 6 19 3 20 4 21 2 22
REMARK SMILES IDX 1 23 21 24 22 25 23 26 24 27 25 28 26 29 27 30 28 31 29 32
REMARK SMILES IDX 30 33 31 34 92 35 32 36 91 37 33 38 34 39 35 40 85 41 36 42
REMARK SMILES IDX 90 43 84 44 86 45 37 46 89 47 83 48 82 49 38 51 70 52 50 53
REMARK SMILES IDX 69 54 51 55 54 56 68 57 87 58 52 59 53 60 67 62 88 63 55 64
REMARK SMILES IDX 39 65 40 66 48 67 41 68 42 69 46 70 49 71 43 72 44 73 47 74
REMARK SMILES IDX 45 75 71 76 72 77 80 78 73 79 74 80 78 81 81 82 75 83 76 84
REMARK SMILES IDX 79 85 77 86 56 87 57 88 65 89 58 90 59 91 63 92 66 93 60 94
REMARK SMILES IDX 61 95 64 96 62 97
REMARK H PARENT 86 50 54 61
REMARK Flexibility Score: inf
ROOT
ATOM      1  C   UNL A   1      38.522  21.766  25.743  1.00  0.00     0.188 C 
ENDROOT
BRANCH   1   2
ATOM      2  C   UNL A   1      37.398  22.730  25.315  1.00  0.00     0.188 C 
BRANCH   2   3
ATOM      3  O   UNL A   1      36.246  22.648  26.136  1.00  0.00    -0.376 OA
BRANCH   3   4
ATOM      4  C   UNL A   1      35.459  21.472  26.126  1.00  0.00     0.202 C 
BRANCH   4   5
ATOM      5  C   UNL A   1      34.997  20.869  24.790  1.00  0.00     0.261 C 
BRANCH   5   6
ATOM      6  O   UNL A   1      34.181  19.698  24.876  1.00  0.00    -0.460 OA
BRANCH   6   7
ATOM      7  C   UNL A   1      32.857  19.858  24.678  1.00  0.00     0.330 C 
ATOM      8  O   UNL A   1      32.003  18.990  24.774  1.00  0.00    -0.247 OA
BRANCH   7   9
ATOM      9  C   UNL A   1      32.523  21.287  24.470  1.00  0.00     0.094 C 
ATOM     10  C   UNL A   1      31.626  21.970  25.201  1.00  0.00     0.016 C 
BRANCH  10  11
ATOM     11  C   UNL A   1      31.288  23.387  24.994  1.00  0.00    -0.022 A 
ATOM     12  C   UNL A   1      30.421  26.052  24.431  1.00  0.00     0.073 A 
ATOM     13  C   UNL A   1      30.364  25.520  25.728  1.00  0.00     0.029 A 
ATOM     14  C   UNL A   1      31.060  25.253  23.468  1.00  0.00     0.147 A 
ATOM     15  C   UNL A   1      30.798  24.215  26.009  1.00  0.00     0.010 A 
ATOM     16  C   UNL A   1      31.474  23.946  23.731  1.00  0.00     0.049 A 
ATOM     17  F   UNL A   1      31.315  25.737  22.241  1.00  0.00    -0.205 F 
BRANCH  12  18
ATOM     18  N   UNL A   1      29.831  27.279  24.120  1.00  0.00    -0.370 N 
ATOM     19  C   UNL A   1      28.507  27.267  23.505  1.00  0.00     0.144 C 
BRANCH  18  20
ATOM     20  C   UNL A   1      30.686  28.472  23.872  1.00  0.00     0.078 C 
ATOM     21  C   UNL A   1      31.622  28.749  25.055  1.00  0.00     0.031 C 
BRANCH  20  22
ATOM     22  C   UNL A   1      29.862  29.704  23.469  1.00  0.00     0.021 C 
ATOM     23  C   UNL A   1      29.800  29.945  21.967  1.00  0.00     0.006 C 
ENDBRANCH  20  22
ENDBRANCH  18  20
ENDBRANCH  12  18
ENDBRANCH  10  11
ENDBRANCH   7   9
ENDBRANCH   6   7
ENDBRANCH   5   6
ENDBRANCH   4   5
ENDBRANCH   3   4
ENDBRANCH   2   3
ENDBRANCH   1   2
BRANCH   1  24
ATOM     24  O   UNL A   1      39.548  22.282  26.579  1.00  0.00    -0.377 OA
BRANCH  24  25
ATOM     25  C   UNL A   1      40.526  21.398  27.130  1.00  0.00     0.188 C 
BRANCH  25  26
ATOM     26  C   UNL A   1      41.116  20.200  26.345  1.00  0.00     0.188 C 
BRANCH  26  27
ATOM     27  O   UNL A   1      42.301  20.482  25.621  1.00  0.00    -0.376 OA
BRANCH  27  28
ATOM     28  C   UNL A   1      42.998  21.673  25.935  1.00  0.00     0.202 C 
BRANCH  28  29
ATOM     29  C   UNL A   1      43.658  22.410  24.762  1.00  0.00     0.261 C 
BRANCH  29  30
ATOM     30  O   UNL A   1      43.273  23.782  24.585  1.00  0.00    -0.460 OA
BRANCH  30  31
ATOM     31  C   UNL A   1      44.118  24.724  25.053  1.00  0.00     0.338 C 
ATOM     32  O   UNL A   1      45.249  24.966  24.657  1.00  0.00    -0.246 OA
BRANCH  31  33
ATOM     33  C   UNL A   1      43.380  25.552  26.026  1.00  0.00     0.060 A 
ATOM     34  C   UNL A   1      43.710  26.907  26.157  1.00  0.00     0.016 A 
ATOM     35  C   UNL A   1      42.366  24.991  26.806  1.00  0.00     0.016 A 
ATOM     36  C   UNL A   1      43.051  27.696  27.102  1.00  0.00     0.010 A 
ATOM     37  C   UNL A   1      41.720  25.777  27.763  1.00  0.00     0.010 A 
ATOM     38  C   UNL A   1      42.085  27.123  27.941  1.00  0.00    -0.014 A 
BRANCH  38  39
ATOM     39  C   UNL A   1      41.597  27.879  29.120  1.00  0.00     0.031 A 
ATOM     40  C   UNL A   1      42.347  27.742  30.418  1.00  0.00     0.074 A 
ATOM     41  C   UNL A   1      40.536  28.700  29.037  1.00  0.00     0.049 A 
ATOM     42  N   UNL A   1      42.094  28.277  31.585  1.00  0.00    -0.248 NA
ATOM     43  C   UNL A   1      43.546  26.887  30.396  1.00  0.00     0.031 C 
ATOM     44  C   UNL A   1      39.759  28.955  27.827  1.00  0.00     0.029 A 
ATOM     45  N   UNL A   1      39.929  29.474  29.997  1.00  0.00    -0.354 N 
ATOM     46  C   UNL A   1      43.097  27.823  32.432  1.00  0.00     0.074 A 
ATOM     47  C   UNL A   1      43.944  26.943  31.659  1.00  0.00     0.031 C 
ATOM     48  C   UNL A   1      38.776  29.826  28.116  1.00  0.00     0.029 A 
ATOM     49  C   UNL A   1      38.832  30.162  29.538  1.00  0.00     0.049 A 
ATOM     50  H   UNL A   1      40.249  29.528  30.927  1.00  0.00     0.167 HD
ATOM     51  C   UNL A   1      43.300  28.126  33.734  1.00  0.00     0.037 A 
ATOM     52  C   UNL A   1      37.965  30.957  30.198  1.00  0.00     0.037 A 
ATOM     53  C   UNL A   1      42.461  29.010  34.500  1.00  0.00     0.049 A 
ATOM     54  C   UNL A   1      38.166  31.212  31.671  1.00  0.00     0.074 A 
ATOM     55  C   UNL A   1      42.595  29.388  35.824  1.00  0.00     0.029 A 
ATOM     56  N   UNL A   1      41.331  29.648  34.013  1.00  0.00    -0.354 N 
ATOM     57  N   UNL A   1      39.125  30.792  32.461  1.00  0.00    -0.248 NA
ATOM     58  C   UNL A   1      37.167  32.055  32.344  1.00  0.00     0.031 C 
ATOM     59  C   UNL A   1      41.513  30.206  36.156  1.00  0.00     0.029 A 
ATOM     60  C   UNL A   1      40.743  30.395  35.020  1.00  0.00     0.049 A 
ATOM     61  H   UNL A   1      40.997  29.580  33.089  1.00  0.00     0.167 HD
ATOM     62  C   UNL A   1      38.862  31.341  33.710  1.00  0.00     0.074 A 
ATOM     63  C   UNL A   1      37.662  32.137  33.572  1.00  0.00     0.031 C 
ATOM     64  C   UNL A   1      39.555  31.197  34.867  1.00  0.00     0.037 A 
BRANCH  51  65
ATOM     65  C   UNL A   1      44.470  27.497  34.433  1.00  0.00     0.064 A 
ATOM     66  C   UNL A   1      45.726  28.123  34.415  1.00  0.00     0.173 A 
ATOM     67  C   UNL A   1      44.373  26.235  35.036  1.00  0.00     0.173 A 
ATOM     68  F   UNL A   1      45.871  29.330  33.849  1.00  0.00    -0.203 F 
ATOM     69  C   UNL A   1      46.846  27.495  34.949  1.00  0.00     0.198 A 
ATOM     70  C   UNL A   1      45.491  25.623  35.597  1.00  0.00     0.198 A 
ATOM     71  F   UNL A   1      43.192  25.602  35.094  1.00  0.00    -0.203 F 
ATOM     72  F   UNL A   1      48.044  28.092  34.879  1.00  0.00    -0.200 F 
ATOM     73  C   UNL A   1      46.729  26.246  35.541  1.00  0.00     0.200 A 
ATOM     74  F   UNL A   1      45.371  24.426  36.189  1.00  0.00    -0.200 F 
ATOM     75  F   UNL A   1      47.809  25.642  36.054  1.00  0.00    -0.200 F 
ENDBRANCH  51  65
BRANCH  52  76
ATOM     76  C   UNL A   1      36.826  31.578  29.468  1.00  0.00     0.064 A 
ATOM     77  C   UNL A   1      36.786  32.957  29.213  1.00  0.00     0.173 A 
ATOM     78  C   UNL A   1      35.754  30.801  29.007  1.00  0.00     0.173 A 
ATOM     79  F   UNL A   1      37.790  33.745  29.625  1.00  0.00    -0.203 F 
ATOM     80  C   UNL A   1      35.710  33.537  28.544  1.00  0.00     0.198 A 
ATOM     81  C   UNL A   1      34.692  31.377  28.311  1.00  0.00     0.198 A 
ATOM     82  F   UNL A   1      35.756  29.474  29.200  1.00  0.00    -0.203 F 
ATOM     83  F   UNL A   1      35.683  34.861  28.344  1.00  0.00    -0.200 F 
ATOM     84  C   UNL A   1      34.667  32.745  28.089  1.00  0.00     0.200 A 
ATOM     85  F   UNL A   1      33.702  30.605  27.844  1.00  0.00    -0.200 F 
ATOM     86  F   UNL A   1      33.641  33.300  27.430  1.00  0.00    -0.200 F 
ENDBRANCH  52  76
BRANCH  64  87
ATOM     87  C   UNL A   1      39.065  31.938  36.079  1.00  0.00     0.064 A 
ATOM     88  C   UNL A   1      38.150  31.336  36.957  1.00  0.00     0.173 A 
ATOM     89  C   UNL A   1      39.431  33.269  36.327  1.00  0.00     0.173 A 
ATOM     90  F   UNL A   1      37.757  30.068  36.760  1.00  0.00    -0.203 F 
ATOM     91  C   UNL A   1      37.604  32.044  38.025  1.00  0.00     0.198 A 
ATOM     92  C   UNL A   1      38.909  33.964  37.417  1.00  0.00     0.198 A 
ATOM     93  F   UNL A   1      40.309  33.890  35.525  1.00  0.00    -0.203 F 
ATOM     94  F   UNL A   1      36.698  31.461  38.821  1.00  0.00    -0.200 F 
ATOM     95  C   UNL A   1      37.988  33.355  38.256  1.00  0.00     0.200 A 
ATOM     96  F   UNL A   1      39.302  35.223  37.656  1.00  0.00    -0.200 F 
ATOM     97  F   UNL A   1      37.473  34.032  39.291  1.00  0.00    -0.200 F 
ENDBRANCH  64  87
ENDBRANCH  38  39
ENDBRANCH  31  33
ENDBRANCH  30  31
ENDBRANCH  29  30
ENDBRANCH  28  29
ENDBRANCH  27  28
ENDBRANCH  26  27
ENDBRANCH  25  26
ENDBRANCH  24  25
ENDBRANCH   1  24
TORSDOF 24
ENDMDL
MODEL 2
REMARK VINA RESULT:     -10.0      2.548      3.900
REMARK SMILES CC[C@@H](C)N(C)c1ccc(/C=C/C(=O)OCCOCCOCCOCCOC(=O)c2ccc(-c3c4nc(c(-c5c(F)c(F)c(F)c(F)c5F)c5ccc([nH]5)c(-c5c(F)c(F)c(F)c(F)c5F)c5nc(c(-c6c(F)c(F)c(F)c(F)c6F)c6ccc3[nH]6)C=C5)C=C4)cc2)cc1F
REMARK SMILES IDX 20 1 19 2 18 3 17 4 16 5 15 6 13 7 14 8 12 9 11 10 10 11
REMARK SMILES IDX 7 12 8 13 94 14 9 15 93 16 95 17 5 18 6 19 3 20 4 21 2 22
REMARK SMILES IDX 1 23 21 24 22 25 23 26 24 27 25 28 26 29 27 30 28 31 29 32
REMARK SMILES IDX 30 33 31 34 92 35 32 36 91 37 33 38 34 39 35 40 85 41 36 42
REMARK SMILES IDX 90 43 84 44 86 45 37 46 89 47 83 48 82 49 38 51 70 52 50 53
REMARK SMILES IDX 69 54 51 55 54 56 68 57 87 58 52 59 53 60 67 62 88 63 55 64
REMARK SMILES IDX 39 65 40 66 48 67 41 68 42 69 46 70 49 71 43 72 44 73 47 74
REMARK SMILES IDX 45 75 71 76 72 77 80 78 73 79 74 80 78 81 81 82 75 83 76 84
REMARK SMILES IDX 79 85 77 86 56 87 57 88 65 89 58 90 59 91 63 92 66 93 60 94
REMARK SMILES IDX 61 95 64 96 62 97
REMARK H PARENT 86 50 54 61
REMARK Flexibility Score: inf
ROOT
ATOM      1  C   UNL A   1      43.275  18.440  26.252  1.00  0.00     0.188 C 
ENDROOT
BRANCH   1   2
ATOM      2  C   UNL A   1      42.020  19.324  26.107  1.00  0.00     0.188 C 
BRANCH   2   3
ATOM      3  O   UNL A   1      41.443  19.687  27.350  1.00  0.00    -0.376 OA
BRANCH   3   4
ATOM      4  C   UNL A   1      40.879  20.975  27.512  1.00  0.00     0.202 C 
BRANCH   4   5
ATOM      5  C   UNL A   1      40.491  21.805  26.278  1.00  0.00     0.261 C 
BRANCH   5   6
ATOM      6  O   UNL A   1      40.870  23.184  26.302  1.00  0.00    -0.460 OA
BRANCH   6   7
ATOM      7  C   UNL A   1      39.904  24.079  26.592  1.00  0.00     0.330 C 
ATOM      8  O   UNL A   1      40.076  25.224  26.979  1.00  0.00    -0.247 OA
BRANCH   7   9
ATOM      9  C   UNL A   1      38.568  23.548  26.236  1.00  0.00     0.094 C 
ATOM     10  C   UNL A   1      37.409  24.186  26.478  1.00  0.00     0.016 C 
BRANCH  10  11
ATOM     11  C   UNL A   1      36.080  23.660  26.131  1.00  0.00    -0.022 A 
ATOM     12  C   UNL A   1      33.608  22.555  25.215  1.00  0.00     0.073 A 
ATOM     13  C   UNL A   1      34.280  22.028  26.328  1.00  0.00     0.029 A 
ATOM     14  C   UNL A   1      34.145  23.737  24.677  1.00  0.00     0.147 A 
ATOM     15  C   UNL A   1      35.489  22.575  26.785  1.00  0.00     0.010 A 
ATOM     16  C   UNL A   1      35.358  24.275  25.109  1.00  0.00     0.049 A 
ATOM     17  F   UNL A   1      33.486  24.411  23.720  1.00  0.00    -0.205 F 
BRANCH  12  18
ATOM     18  N   UNL A   1      32.503  21.908  24.657  1.00  0.00    -0.370 N 
ATOM     19  C   UNL A   1      31.286  21.817  25.458  1.00  0.00     0.144 C 
BRANCH  18  20
ATOM     20  C   UNL A   1      32.701  20.880  23.600  1.00  0.00     0.078 C 
ATOM     21  C   UNL A   1      32.143  21.346  22.250  1.00  0.00     0.031 C 
BRANCH  20  22
ATOM     22  C   UNL A   1      32.162  19.503  24.019  1.00  0.00     0.021 C 
ATOM     23  C   UNL A   1      32.912  18.329  23.407  1.00  0.00     0.006 C 
ENDBRANCH  20  22
ENDBRANCH  18  20
ENDBRANCH  12  18
ENDBRANCH  10  11
ENDBRANCH   7   9
ENDBRANCH   6   7
ENDBRANCH   5   6
ENDBRANCH   4   5
ENDBRANCH   3   4
ENDBRANCH   2   3
ENDBRANCH   1   2
BRANCH   1  24
ATOM     24  O   UNL A   1      44.108  18.289  25.112  1.00  0.00    -0.377 OA
BRANCH  24  25
ATOM     25  C   UNL A   1      45.413  18.870  25.105  1.00  0.00     0.188 C 
BRANCH  25  26
ATOM     26  C   UNL A   1      45.671  20.359  24.760  1.00  0.00     0.188 C 
BRANCH  26  27
ATOM     27  O   UNL A   1      44.829  20.895  23.755  1.00  0.00    -0.376 OA
BRANCH  27  28
ATOM     28  C   UNL A   1      44.673  22.301  23.705  1.00  0.00     0.202 C 
BRANCH  28  29
ATOM     29  C   UNL A   1      43.839  22.938  24.824  1.00  0.00     0.261 C 
BRANCH  29  30
ATOM     30  O   UNL A   1      43.724  24.369  24.785  1.00  0.00    -0.460 OA
BRANCH  30  31
ATOM     31  C   UNL A   1      44.782  25.084  25.220  1.00  0.00     0.338 C 
ATOM     32  O   UNL A   1      45.846  25.256  24.642  1.00  0.00    -0.246 OA
BRANCH  31  33
ATOM     33  C   UNL A   1      44.379  25.788  26.453  1.00  0.00     0.060 A 
ATOM     34  C   UNL A   1      43.573  25.122  27.385  1.00  0.00     0.016 A 
ATOM     35  C   UNL A   1      44.796  27.100  26.686  1.00  0.00     0.016 A 
ATOM     36  C   UNL A   1      43.147  25.786  28.537  1.00  0.00     0.010 A 
ATOM     37  C   UNL A   1      44.353  27.769  27.830  1.00  0.00     0.010 A 
ATOM     38  C   UNL A   1      43.497  27.128  28.742  1.00  0.00    -0.014 A 
BRANCH  38  39
ATOM     39  C   UNL A   1      42.819  27.909  29.805  1.00  0.00     0.031 A 
ATOM     40  C   UNL A   1      43.489  28.022  31.147  1.00  0.00     0.074 A 
ATOM     41  C   UNL A   1      41.654  28.540  29.577  1.00  0.00     0.049 A 
ATOM     42  N   UNL A   1      43.078  28.623  32.234  1.00  0.00    -0.248 NA
ATOM     43  C   UNL A   1      44.803  27.369  31.282  1.00  0.00     0.031 C 
ATOM     44  C   UNL A   1      40.934  28.548  28.306  1.00  0.00     0.029 A 
ATOM     45  N   UNL A   1      40.872  29.299  30.413  1.00  0.00    -0.354 N 
ATOM     46  C   UNL A   1      44.077  28.419  33.177  1.00  0.00     0.074 A 
ATOM     47  C   UNL A   1      45.099  27.611  32.551  1.00  0.00     0.031 C 
ATOM     48  C   UNL A   1      39.813  29.277  28.447  1.00  0.00     0.029 A 
ATOM     49  C   UNL A   1      39.718  29.757  29.825  1.00  0.00     0.049 A 
ATOM     50  H   UNL A   1      41.115  29.495  31.347  1.00  0.00     0.167 HD
ATOM     51  C   UNL A   1      44.141  28.878  34.448  1.00  0.00     0.037 A 
ATOM     52  C   UNL A   1      38.697  30.466  30.347  1.00  0.00     0.037 A 
ATOM     53  C   UNL A   1      43.127  29.689  35.068  1.00  0.00     0.049 A 
ATOM     54  C   UNL A   1      38.754  30.894  31.792  1.00  0.00     0.074 A 
ATOM     55  C   UNL A   1      43.110  30.213  36.348  1.00  0.00     0.029 A 
ATOM     56  N   UNL A   1      41.950  30.089  34.455  1.00  0.00    -0.354 N 
ATOM     57  N   UNL A   1      39.709  30.711  32.673  1.00  0.00    -0.248 NA
ATOM     58  C   UNL A   1      37.595  31.631  32.316  1.00  0.00     0.031 C 
ATOM     59  C   UNL A   1      41.896  30.878  36.532  1.00  0.00     0.029 A 
ATOM     60  C   UNL A   1      41.186  30.830  35.342  1.00  0.00     0.049 A 
ATOM     61  H   UNL A   1      41.695  29.878  33.528  1.00  0.00     0.167 HD
ATOM     62  C   UNL A   1      39.280  31.332  33.839  1.00  0.00     0.074 A 
ATOM     63  C   UNL A   1      37.985  31.911  33.553  1.00  0.00     0.031 C 
ATOM     64  C   UNL A   1      39.905  31.414  35.041  1.00  0.00     0.037 A 
BRANCH  51  65
ATOM     65  C   UNL A   1      45.342  28.513  35.272  1.00  0.00     0.064 A 
ATOM     66  C   UNL A   1      46.488  29.321  35.249  1.00  0.00     0.173 A 
ATOM     67  C   UNL A   1      45.393  27.320  36.007  1.00  0.00     0.173 A 
ATOM     68  F   UNL A   1      46.490  30.472  34.560  1.00  0.00    -0.203 F 
ATOM     69  C   UNL A   1      47.651  28.934  35.907  1.00  0.00     0.198 A 
ATOM     70  C   UNL A   1      46.550  26.950  36.690  1.00  0.00     0.198 A 
ATOM     71  F   UNL A   1      44.319  26.520  36.074  1.00  0.00    -0.203 F 
ATOM     72  F   UNL A   1      48.749  29.700  35.832  1.00  0.00    -0.200 F 
ATOM     73  C   UNL A   1      47.682  27.750  36.628  1.00  0.00     0.200 A 
ATOM     74  F   UNL A   1      46.570  25.817  37.404  1.00  0.00    -0.200 F 
ATOM     75  F   UNL A   1      48.803  27.377  37.260  1.00  0.00    -0.200 F 
ENDBRANCH  51  65
BRANCH  52  76
ATOM     76  C   UNL A   1      37.530  30.824  29.495  1.00  0.00     0.064 A 
ATOM     77  C   UNL A   1      37.367  32.122  28.987  1.00  0.00     0.173 A 
ATOM     78  C   UNL A   1      36.555  29.871  29.168  1.00  0.00     0.173 A 
ATOM     79  F   UNL A   1      38.275  33.070  29.263  1.00  0.00    -0.203 F 
ATOM     80  C   UNL A   1      36.265  32.457  28.204  1.00  0.00     0.198 A 
ATOM     81  C   UNL A   1      35.469  30.199  28.359  1.00  0.00     0.198 A 
ATOM     82  F   UNL A   1      36.678  28.609  29.605  1.00  0.00    -0.203 F 
ATOM     83  F   UNL A   1      36.118  33.713  27.760  1.00  0.00    -0.200 F 
ATOM     84  C   UNL A   1      35.320  31.494  27.885  1.00  0.00     0.200 A 
ATOM     85  F   UNL A   1      34.575  29.258  28.027  1.00  0.00    -0.200 F 
ATOM     86  F   UNL A   1      34.269  31.812  27.117  1.00  0.00    -0.200 F 
ENDBRANCH  52  76
BRANCH  64  87
ATOM     87  C   UNL A   1      39.225  32.186  36.138  1.00  0.00     0.064 A 
ATOM     88  C   UNL A   1      39.576  33.523  36.386  1.00  0.00     0.173 A 
ATOM     89  C   UNL A   1      38.296  31.582  36.997  1.00  0.00     0.173 A 
ATOM     90  F   UNL A   1      40.469  34.145  35.602  1.00  0.00    -0.203 F 
ATOM     91  C   UNL A   1      39.036  34.220  37.464  1.00  0.00     0.198 A 
ATOM     92  C   UNL A   1      37.731  32.293  38.054  1.00  0.00     0.198 A 
ATOM     93  F   UNL A   1      37.919  30.310  36.800  1.00  0.00    -0.203 F 
ATOM     94  F   UNL A   1      39.420  35.480  37.706  1.00  0.00    -0.200 F 
ATOM     95  C   UNL A   1      38.110  33.606  38.293  1.00  0.00     0.200 A 
ATOM     96  F   UNL A   1      36.816  31.708  38.839  1.00  0.00    -0.200 F 
ATOM     97  F   UNL A   1      37.581  34.281  39.323  1.00  0.00    -0.200 F 
ENDBRANCH  64  87
ENDBRANCH  38  39
ENDBRANCH  31  33
ENDBRANCH  30  31
ENDBRANCH  29  30
ENDBRANCH  28  29
ENDBRANCH  27  28
ENDBRANCH  26  27
ENDBRANCH  25  26
ENDBRANCH  24  25
ENDBRANCH   1  24
TORSDOF 24
ENDMDL
MODEL 3
REMARK VINA RESULT:      -9.6      1.756      2.931
REMARK SMILES CC[C@@H](C)N(C)c1ccc(/C=C/C(=O)OCCOCCOCCOCCOC(=O)c2ccc(-c3c4nc(c(-c5c(F)c(F)c(F)c(F)c5F)c5ccc([nH]5)c(-c5c(F)c(F)c(F)c(F)c5F)c5nc(c(-c6c(F)c(F)c(F)c(F)c6F)c6ccc3[nH]6)C=C5)C=C4)cc2)cc1F
REMARK SMILES IDX 20 1 19 2 18 3 17 4 16 5 15 6 13 7 14 8 12 9 11 10 10 11
REMARK SMILES IDX 7 12 8 13 94 14 9 15 93 16 95 17 5 18 6 19 3 20 4 21 2 22
REMARK SMILES IDX 1 23 21 24 22 25 23 26 24 27 25 28 26 29 27 30 28 31 29 32
REMARK SMILES IDX 30 33 31 34 92 35 32 36 91 37 33 38 34 39 35 40 85 41 36 42
REMARK SMILES IDX 90 43 84 44 86 45 37 46 89 47 83 48 82 49 38 51 70 52 50 53
REMARK SMILES IDX 69 54 51 55 54 56 68 57 87 58 52 59 53 60 67 62 88 63 55 64
REMARK SMILES IDX 39 65 40 66 48 67 41 68 42 69 46 70 49 71 43 72 44 73 47 74
REMARK SMILES IDX 45 75 71 76 72 77 80 78 73 79 74 80 78 81 81 82 75 83 76 84
REMARK SMILES IDX 79 85 77 86 56 87 57 88 65 89 58 90 59 91 63 92 66 93 60 94
REMARK SMILES IDX 61 95 64 96 62 97
REMARK H PARENT 86 50 54 61
REMARK Flexibility Score: inf
ROOT
ATOM      1  C   UNL A   1      43.330  18.234  26.429  1.00  0.00     0.188 C 
ENDROOT
BRANCH   1   2
ATOM      2  C   UNL A   1      42.004  19.012  26.545  1.00  0.00     0.188 C 
BRANCH   2   3
ATOM      3  O   UNL A   1      42.185  20.406  26.720  1.00  0.00    -0.376 OA
BRANCH   3   4
ATOM      4  C   UNL A   1      41.116  21.292  26.450  1.00  0.00     0.202 C 
BRANCH   4   5
ATOM      5  C   UNL A   1      39.711  20.737  26.164  1.00  0.00     0.261 C 
BRANCH   5   6
ATOM      6  O   UNL A   1      38.851  21.571  25.384  1.00  0.00    -0.460 OA
BRANCH   6   7
ATOM      7  C   UNL A   1      38.393  22.696  25.969  1.00  0.00     0.330 C 
ATOM      8  O   UNL A   1      38.998  23.387  26.773  1.00  0.00    -0.247 OA
BRANCH   7   9
ATOM      9  C   UNL A   1      37.086  23.095  25.396  1.00  0.00     0.094 C 
ATOM     10  C   UNL A   1      36.268  24.011  25.941  1.00  0.00     0.016 C 
BRANCH  10  11
ATOM     11  C   UNL A   1      34.967  24.407  25.378  1.00  0.00    -0.022 A 
ATOM     12  C   UNL A   1      32.462  25.409  24.434  1.00  0.00     0.073 A 
ATOM     13  C   UNL A   1      33.548  25.214  23.567  1.00  0.00     0.029 A 
ATOM     14  C   UNL A   1      32.636  24.947  25.750  1.00  0.00     0.147 A 
ATOM     15  C   UNL A   1      34.776  24.713  24.027  1.00  0.00     0.010 A 
ATOM     16  C   UNL A   1      33.859  24.469  26.222  1.00  0.00     0.049 A 
ATOM     17  F   UNL A   1      31.604  24.934  26.609  1.00  0.00    -0.205 F 
BRANCH  12  18
ATOM     18  N   UNL A   1      31.304  26.067  24.014  1.00  0.00    -0.370 N 
ATOM     19  C   UNL A   1      30.491  25.430  22.981  1.00  0.00     0.144 C 
BRANCH  18  20
ATOM     20  C   UNL A   1      31.201  27.545  24.146  1.00  0.00     0.078 C 
ATOM     21  C   UNL A   1      31.402  27.996  25.598  1.00  0.00     0.031 C 
BRANCH  20  22
ATOM     22  C   UNL A   1      29.905  28.096  23.531  1.00  0.00     0.021 C 
ATOM     23  C   UNL A   1      30.127  29.077  22.389  1.00  0.00     0.006 C 
ENDBRANCH  20  22
ENDBRANCH  18  20
ENDBRANCH  12  18
ENDBRANCH  10  11
ENDBRANCH   7   9
ENDBRANCH   6   7
ENDBRANCH   5   6
ENDBRANCH   4   5
ENDBRANCH   3   4
ENDBRANCH   2   3
ENDBRANCH   1   2
BRANCH   1  24
ATOM     24  O   UNL A   1      44.018  18.289  25.187  1.00  0.00    -0.377 OA
BRANCH  24  25
ATOM     25  C   UNL A   1      45.328  18.856  25.126  1.00  0.00     0.188 C 
BRANCH  25  26
ATOM     26  C   UNL A   1      45.587  20.343  24.775  1.00  0.00     0.188 C 
BRANCH  26  27
ATOM     27  O   UNL A   1      44.802  20.853  23.711  1.00  0.00    -0.376 OA
BRANCH  27  28
ATOM     28  C   UNL A   1      44.622  22.254  23.635  1.00  0.00     0.202 C 
BRANCH  28  29
ATOM     29  C   UNL A   1      43.718  22.889  24.699  1.00  0.00     0.261 C 
BRANCH  29  30
ATOM     30  O   UNL A   1      43.658  24.324  24.700  1.00  0.00    -0.460 OA
BRANCH  30  31
ATOM     31  C   UNL A   1      44.735  24.983  25.175  1.00  0.00     0.338 C 
ATOM     32  O   UNL A   1      45.812  25.141  24.618  1.00  0.00    -0.246 OA
BRANCH  31  33
ATOM     33  C   UNL A   1      44.339  25.652  26.430  1.00  0.00     0.060 A 
ATOM     34  C   UNL A   1      43.451  25.004  27.298  1.00  0.00     0.016 A 
ATOM     35  C   UNL A   1      44.844  26.915  26.747  1.00  0.00     0.016 A 
ATOM     36  C   UNL A   1      43.033  25.639  28.469  1.00  0.00     0.010 A 
ATOM     37  C   UNL A   1      44.410  27.557  27.910  1.00  0.00     0.010 A 
ATOM     38  C   UNL A   1      43.475  26.937  28.757  1.00  0.00    -0.014 A 
BRANCH  38  39
ATOM     39  C   UNL A   1      42.818  27.713  29.837  1.00  0.00     0.031 A 
ATOM     40  C   UNL A   1      43.489  27.777  31.182  1.00  0.00     0.074 A 
ATOM     41  C   UNL A   1      41.671  28.381  29.623  1.00  0.00     0.049 A 
ATOM     42  N   UNL A   1      43.094  28.364  32.282  1.00  0.00    -0.248 NA
ATOM     43  C   UNL A   1      44.784  27.085  31.302  1.00  0.00     0.031 C 
ATOM     44  C   UNL A   1      40.952  28.438  28.353  1.00  0.00     0.029 A 
ATOM     45  N   UNL A   1      40.909  29.143  30.476  1.00  0.00    -0.354 N 
ATOM     46  C   UNL A   1      44.086  28.112  33.221  1.00  0.00     0.074 A 
ATOM     47  C   UNL A   1      45.086  27.290  32.576  1.00  0.00     0.031 C 
ATOM     48  C   UNL A   1      39.852  29.195  28.509  1.00  0.00     0.029 A 
ATOM     49  C   UNL A   1      39.769  29.646  29.897  1.00  0.00     0.049 A 
ATOM     50  H   UNL A   1      41.157  29.311  31.414  1.00  0.00     0.167 HD
ATOM     51  C   UNL A   1      44.162  28.540  34.502  1.00  0.00     0.037 A 
ATOM     52  C   UNL A   1      38.768  30.371  30.435  1.00  0.00     0.037 A 
ATOM     53  C   UNL A   1      43.170  29.365  35.140  1.00  0.00     0.049 A 
ATOM     54  C   UNL A   1      38.836  30.765  31.890  1.00  0.00     0.074 A 
ATOM     55  C   UNL A   1      43.166  29.860  36.431  1.00  0.00     0.029 A 
ATOM     56  N   UNL A   1      42.005  29.812  34.535  1.00  0.00    -0.354 N 
ATOM     57  N   UNL A   1      39.784  30.535  32.767  1.00  0.00    -0.248 NA
ATOM     58  C   UNL A   1      37.697  31.521  32.429  1.00  0.00     0.031 C 
ATOM     59  C   UNL A   1      41.970  30.554  36.629  1.00  0.00     0.029 A 
ATOM     60  C   UNL A   1      41.261  30.553  35.438  1.00  0.00     0.049 A 
ATOM     61  H   UNL A   1      41.745  29.629  33.603  1.00  0.00     0.167 HD
ATOM     62  C   UNL A   1      39.371  31.142  33.946  1.00  0.00     0.074 A 
ATOM     63  C   UNL A   1      38.093  31.763  33.672  1.00  0.00     0.031 C 
ATOM     64  C   UNL A   1      39.997  31.179  35.150  1.00  0.00     0.037 A 
BRANCH  51  65
ATOM     65  C   UNL A   1      45.350  28.124  35.318  1.00  0.00     0.064 A 
ATOM     66  C   UNL A   1      45.303  26.956  36.095  1.00  0.00     0.173 A 
ATOM     67  C   UNL A   1      46.497  28.925  35.407  1.00  0.00     0.173 A 
ATOM     68  F   UNL A   1      44.227  26.156  36.046  1.00  0.00    -0.203 F 
ATOM     69  C   UNL A   1      46.346  26.622  36.951  1.00  0.00     0.198 A 
ATOM     70  C   UNL A   1      47.554  28.572  36.243  1.00  0.00     0.198 A 
ATOM     71  F   UNL A   1      46.599  30.044  34.673  1.00  0.00    -0.203 F 
ATOM     72  F   UNL A   1      46.258  25.527  37.718  1.00  0.00    -0.200 F 
ATOM     73  C   UNL A   1      47.471  27.429  37.025  1.00  0.00     0.200 A 
ATOM     74  F   UNL A   1      48.650  29.341  36.296  1.00  0.00    -0.200 F 
ATOM     75  F   UNL A   1      48.475  27.107  37.852  1.00  0.00    -0.200 F 
ENDBRANCH  51  65
BRANCH  52  76
ATOM     76  C   UNL A   1      37.612  30.780  29.591  1.00  0.00     0.064 A 
ATOM     77  C   UNL A   1      37.475  32.098  29.129  1.00  0.00     0.173 A 
ATOM     78  C   UNL A   1      36.623  29.857  29.225  1.00  0.00     0.173 A 
ATOM     79  F   UNL A   1      38.397  33.019  29.445  1.00  0.00    -0.203 F 
ATOM     80  C   UNL A   1      36.383  32.481  28.354  1.00  0.00     0.198 A 
ATOM     81  C   UNL A   1      35.547  30.234  28.422  1.00  0.00     0.198 A 
ATOM     82  F   UNL A   1      36.721  28.578  29.615  1.00  0.00    -0.203 F 
ATOM     83  F   UNL A   1      36.261  33.755  27.956  1.00  0.00    -0.200 F 
ATOM     84  C   UNL A   1      35.423  31.548  27.996  1.00  0.00     0.200 A 
ATOM     85  F   UNL A   1      34.639  29.322  28.052  1.00  0.00    -0.200 F 
ATOM     86  F   UNL A   1      34.383  31.912  27.234  1.00  0.00    -0.200 F 
ENDBRANCH  52  76
BRANCH  64  87
ATOM     87  C   UNL A   1      39.338  31.944  36.264  1.00  0.00     0.064 A 
ATOM     88  C   UNL A   1      38.315  31.352  37.021  1.00  0.00     0.173 A 
ATOM     89  C   UNL A   1      39.655  33.285  36.525  1.00  0.00     0.173 A 
ATOM     90  F   UNL A   1      37.963  30.076  36.805  1.00  0.00    -0.203 F 
ATOM     91  C   UNL A   1      37.621  32.080  37.985  1.00  0.00     0.198 A 
ATOM     92  C   UNL A   1      38.982  33.999  37.515  1.00  0.00     0.198 A 
ATOM     93  F   UNL A   1      40.630  33.896  35.837  1.00  0.00    -0.203 F 
ATOM     94  F   UNL A   1      36.618  31.505  38.663  1.00  0.00    -0.200 F 
ATOM     95  C   UNL A   1      37.959  33.400  38.234  1.00  0.00     0.200 A 
ATOM     96  F   UNL A   1      39.327  35.268  37.773  1.00  0.00    -0.200 F 
ATOM     97  F   UNL A   1      37.299  34.096  39.171  1.00  0.00    -0.200 F 
ENDBRANCH  64  87
ENDBRANCH  38  39
ENDBRANCH  31  33
ENDBRANCH  30  31
ENDBRANCH  29  30
ENDBRANCH  28  29
ENDBRANCH  27  28
ENDBRANCH  26  27
ENDBRANCH  25  26
ENDBRANCH  24  25
ENDBRANCH   1  24
TORSDOF 24
ENDMDL
