MODEL 1
REMARK VINA RESULT:     -10.9      0.000      0.000
REMARK SMILES C/C(=N\NC(N)=S)c1nnn(-c2ccc(C(=O)OCCOCCOCCOCCOC(=O)c3ccc(-c4c5nc(c(-c6c(F)c(F)c(F)c(F)c6F)c6ccc([nH]6)c(-c6c(F)c(F)c(F)c(F)c6F)c6nc(c(-c7c(F)c(F)c(F)c(F)c7F)c7ccc4[nH]7)C=C6)C=C5)cc3)cc2)c1C
REMARK SMILES IDX 22 1 21 2 20 3 19 4 18 5 16 6 17 7 15 8 12 9 13 10 97 11
REMARK SMILES IDX 14 12 96 13 11 14 8 15 9 16 98 17 10 18 99 19 2 20 1 21 3 22
REMARK SMILES IDX 4 23 5 25 7 26 6 27 23 30 24 31 25 32 26 33 27 34 28 35
REMARK SMILES IDX 29 36 30 37 31 38 32 39 33 40 34 41 95 42 35 43 94 44 36 45
REMARK SMILES IDX 37 46 38 47 88 48 39 49 93 50 87 51 89 52 40 53 92 54 86 55
REMARK SMILES IDX 85 56 41 58 73 59 53 60 72 61 54 62 57 63 71 64 90 65 55 66
REMARK SMILES IDX 56 67 70 69 91 70 58 71 42 72 43 73 51 74 44 75 45 76 49 77
REMARK SMILES IDX 52 78 46 79 47 80 50 81 48 82 74 83 75 84 83 85 76 86 77 87
REMARK SMILES IDX 81 88 84 89 78 90 79 91 82 92 80 93 59 94 60 95 68 96 61 97
REMARK SMILES IDX 62 98 66 99 69 100 63 101 64 102 67 103 65 104
REMARK H PARENT 4 24 6 28 6 29 89 57 57 68
REMARK Flexibility Score: inf
ROOT
ATOM      1  C   UNL A   1      35.348  22.497  23.897  1.00  0.00     0.188 C 
ENDROOT
BRANCH   1   2
ATOM      2  O   UNL A   1      34.978  23.543  23.006  1.00  0.00    -0.376 OA
BRANCH   2   3
ATOM      3  C   UNL A   1      33.614  23.582  22.618  1.00  0.00     0.202 C 
BRANCH   3   4
ATOM      4  C   UNL A   1      32.834  24.732  23.264  1.00  0.00     0.261 C 
BRANCH   4   5
ATOM      5  O   UNL A   1      33.659  25.766  23.816  1.00  0.00    -0.460 OA
BRANCH   5   6
ATOM      6  C   UNL A   1      33.644  25.910  25.159  1.00  0.00     0.338 C 
ATOM      7  O   UNL A   1      34.149  25.174  25.985  1.00  0.00    -0.246 OA
BRANCH   6   8
ATOM      8  C   UNL A   1      33.038  27.223  25.472  1.00  0.00     0.060 A 
ATOM      9  C   UNL A   1      32.150  29.735  26.193  1.00  0.00     0.067 A 
ATOM     10  C   UNL A   1      32.870  29.592  25.003  1.00  0.00     0.029 A 
ATOM     11  C   UNL A   1      31.742  28.622  26.937  1.00  0.00     0.029 A 
ATOM     12  C   UNL A   1      33.340  28.325  24.659  1.00  0.00     0.018 A 
ATOM     13  C   UNL A   1      32.182  27.359  26.570  1.00  0.00     0.018 A 
BRANCH   9  14
ATOM     14  N   UNL A   1      32.090  31.009  26.792  1.00  0.00    -0.217 N 
ATOM     15  C   UNL A   1      32.716  32.889  27.687  1.00  0.00     0.132 A 
ATOM     16  N   UNL A   1      31.560  33.102  26.983  1.00  0.00    -0.128 NA
ATOM     17  C   UNL A   1      33.094  31.569  27.564  1.00  0.00     0.071 A 
ATOM     18  N   UNL A   1      31.226  31.965  26.385  1.00  0.00    -0.061 NA
ATOM     19  C   UNL A   1      34.359  30.883  27.932  1.00  0.00     0.069 C 
BRANCH  15  20
ATOM     20  C   UNL A   1      33.502  33.964  28.254  1.00  0.00     0.087 C 
ATOM     21  C   UNL A   1      34.768  34.332  27.520  1.00  0.00     0.071 C 
ATOM     22  N   UNL A   1      33.044  34.490  29.352  1.00  0.00    -0.176 NA
BRANCH  22  23
ATOM     23  N   UNL A   1      33.751  35.493  29.949  1.00  0.00    -0.254 N 
ATOM     24  H   UNL A   1      34.724  35.511  29.799  1.00  0.00     0.193 HD
BRANCH  23  25
ATOM     25  C   UNL A   1      33.217  36.486  30.746  1.00  0.00     0.184 C 
ATOM     26  S   UNL A   1      32.405  36.340  32.191  1.00  0.00    -0.040 S 
BRANCH  25  27
ATOM     27  N   UNL A   1      33.428  37.736  30.237  1.00  0.00    -0.375 N 
ATOM     28  H   UNL A   1      33.817  38.439  30.806  1.00  0.00     0.159 HD
ATOM     29  H   UNL A   1      33.190  37.934  29.303  1.00  0.00     0.159 HD
ENDBRANCH  25  27
ENDBRANCH  23  25
ENDBRANCH  22  23
ENDBRANCH  15  20
ENDBRANCH   9  14
ENDBRANCH   6   8
ENDBRANCH   5   6
ENDBRANCH   4   5
ENDBRANCH   3   4
ENDBRANCH   2   3
ENDBRANCH   1   2
BRANCH   1  30
ATOM     30  C   UNL A   1      36.590  22.819  24.757  1.00  0.00     0.188 C 
BRANCH  30  31
ATOM     31  O   UNL A   1      37.677  21.906  24.783  1.00  0.00    -0.377 OA
BRANCH  31  32
ATOM     32  C   UNL A   1      38.599  21.931  25.866  1.00  0.00     0.188 C 
BRANCH  32  33
ATOM     33  C   UNL A   1      39.700  20.856  26.052  1.00  0.00     0.188 C 
BRANCH  33  34
ATOM     34  O   UNL A   1      40.429  20.915  27.271  1.00  0.00    -0.376 OA
BRANCH  34  35
ATOM     35  C   UNL A   1      41.845  20.923  27.202  1.00  0.00     0.202 C 
BRANCH  35  36
ATOM     36  C   UNL A   1      42.379  19.823  26.289  1.00  0.00     0.261 C 
BRANCH  36  37
ATOM     37  O   UNL A   1      42.922  20.334  25.079  1.00  0.00    -0.460 OA
BRANCH  37  38
ATOM     38  C   UNL A   1      44.261  20.485  25.079  1.00  0.00     0.338 C 
ATOM     39  O   UNL A   1      45.103  19.627  25.274  1.00  0.00    -0.246 OA
BRANCH  38  40
ATOM     40  C   UNL A   1      44.580  21.904  24.906  1.00  0.00     0.060 A 
ATOM     41  C   UNL A   1      45.723  22.346  25.572  1.00  0.00     0.016 A 
ATOM     42  C   UNL A   1      43.591  22.781  24.436  1.00  0.00     0.016 A 
ATOM     43  C   UNL A   1      45.721  23.631  26.050  1.00  0.00     0.010 A 
ATOM     44  C   UNL A   1      43.583  24.062  24.928  1.00  0.00     0.010 A 
ATOM     45  C   UNL A   1      44.587  24.416  25.825  1.00  0.00    -0.014 A 
BRANCH  45  46
ATOM     46  C   UNL A   1      44.414  25.558  26.691  1.00  0.00     0.031 A 
ATOM     47  C   UNL A   1      45.432  26.611  26.568  1.00  0.00     0.074 A 
ATOM     48  C   UNL A   1      43.355  25.642  27.519  1.00  0.00     0.049 A 
ATOM     49  N   UNL A   1      46.218  27.070  27.484  1.00  0.00    -0.248 NA
ATOM     50  C   UNL A   1      45.651  27.172  25.230  1.00  0.00     0.031 C 
ATOM     51  C   UNL A   1      42.144  24.814  27.526  1.00  0.00     0.029 A 
ATOM     52  N   UNL A   1      43.107  26.573  28.478  1.00  0.00    -0.354 N 
ATOM     53  C   UNL A   1      46.931  28.095  26.878  1.00  0.00     0.074 A 
ATOM     54  C   UNL A   1      46.632  28.038  25.469  1.00  0.00     0.031 C 
ATOM     55  C   UNL A   1      41.212  25.407  28.303  1.00  0.00     0.029 A 
ATOM     56  C   UNL A   1      41.801  26.578  28.932  1.00  0.00     0.049 A 
ATOM     57  H   UNL A   1      43.796  27.188  28.818  1.00  0.00     0.167 HD
ATOM     58  C   UNL A   1      47.555  29.053  27.608  1.00  0.00     0.037 A 
ATOM     59  C   UNL A   1      41.230  27.534  29.700  1.00  0.00     0.037 A 
ATOM     60  C   UNL A   1      47.831  28.615  28.950  1.00  0.00     0.049 A 
ATOM     61  C   UNL A   1      42.319  28.302  30.356  1.00  0.00     0.074 A 
ATOM     62  C   UNL A   1      48.583  27.594  29.496  1.00  0.00     0.029 A 
ATOM     63  N   UNL A   1      47.038  29.076  29.970  1.00  0.00    -0.354 N 
ATOM     64  N   UNL A   1      43.091  27.835  31.297  1.00  0.00    -0.248 NA
ATOM     65  C   UNL A   1      42.809  29.501  29.690  1.00  0.00     0.031 C 
ATOM     66  C   UNL A   1      47.892  27.201  30.679  1.00  0.00     0.029 A 
ATOM     67  C   UNL A   1      46.760  28.008  30.785  1.00  0.00     0.049 A 
ATOM     68  H   UNL A   1      46.728  30.002  30.095  1.00  0.00     0.167 HD
ATOM     69  C   UNL A   1      44.326  28.426  31.072  1.00  0.00     0.074 A 
ATOM     70  C   UNL A   1      44.060  29.525  30.155  1.00  0.00     0.031 C 
ATOM     71  C   UNL A   1      45.483  27.797  31.428  1.00  0.00     0.037 A 
BRANCH  58  72
ATOM     72  C   UNL A   1      47.631  30.490  27.174  1.00  0.00     0.064 A 
ATOM     73  C   UNL A   1      48.885  31.115  27.054  1.00  0.00     0.173 A 
ATOM     74  C   UNL A   1      46.511  31.352  27.133  1.00  0.00     0.173 A 
ATOM     75  F   UNL A   1      50.015  30.395  27.120  1.00  0.00    -0.203 F 
ATOM     76  C   UNL A   1      49.007  32.502  26.949  1.00  0.00     0.198 A 
ATOM     77  C   UNL A   1      46.635  32.728  26.966  1.00  0.00     0.198 A 
ATOM     78  F   UNL A   1      45.266  30.912  27.359  1.00  0.00    -0.203 F 
ATOM     79  F   UNL A   1      50.225  33.063  26.954  1.00  0.00    -0.200 F 
ATOM     80  C   UNL A   1      47.883  33.307  26.904  1.00  0.00     0.200 A 
ATOM     81  F   UNL A   1      45.533  33.491  26.947  1.00  0.00    -0.200 F 
ATOM     82  F   UNL A   1      48.001  34.639  26.853  1.00  0.00    -0.200 F 
ENDBRANCH  58  72
BRANCH  59  83
ATOM     83  C   UNL A   1      39.824  27.991  29.674  1.00  0.00     0.064 A 
ATOM     84  C   UNL A   1      39.063  28.065  30.849  1.00  0.00     0.173 A 
ATOM     85  C   UNL A   1      39.272  28.599  28.528  1.00  0.00     0.173 A 
ATOM     86  F   UNL A   1      39.541  27.559  31.995  1.00  0.00    -0.203 F 
ATOM     87  C   UNL A   1      37.825  28.716  30.879  1.00  0.00     0.198 A 
ATOM     88  C   UNL A   1      38.031  29.234  28.555  1.00  0.00     0.198 A 
ATOM     89  F   UNL A   1      39.964  28.670  27.382  1.00  0.00    -0.203 F 
ATOM     90  F   UNL A   1      37.152  28.818  32.033  1.00  0.00    -0.200 F 
ATOM     91  C   UNL A   1      37.313  29.303  29.733  1.00  0.00     0.200 A 
ATOM     92  F   UNL A   1      37.565  29.828  27.447  1.00  0.00    -0.200 F 
ATOM     93  F   UNL A   1      36.151  29.969  29.773  1.00  0.00    -0.200 F 
ENDBRANCH  59  83
BRANCH  71  94
ATOM     94  C   UNL A   1      45.368  26.606  32.337  1.00  0.00     0.064 A 
ATOM     95  C   UNL A   1      45.461  26.693  33.736  1.00  0.00     0.173 A 
ATOM     96  C   UNL A   1      45.025  25.365  31.787  1.00  0.00     0.173 A 
ATOM     97  F   UNL A   1      45.677  27.870  34.339  1.00  0.00    -0.203 F 
ATOM     98  C   UNL A   1      45.275  25.573  34.543  1.00  0.00     0.198 A 
ATOM     99  C   UNL A   1      44.804  24.255  32.597  1.00  0.00     0.198 A 
ATOM    100  F   UNL A   1      44.858  25.239  30.460  1.00  0.00    -0.203 F 
ATOM    101  F   UNL A   1      45.386  25.677  35.876  1.00  0.00    -0.200 F 
ATOM    102  C   UNL A   1      44.942  24.355  33.973  1.00  0.00     0.200 A 
ATOM    103  F   UNL A   1      44.431  23.090  32.046  1.00  0.00    -0.200 F 
ATOM    104  F   UNL A   1      44.725  23.285  34.751  1.00  0.00    -0.200 F 
ENDBRANCH  71  94
ENDBRANCH  45  46
ENDBRANCH  38  40
ENDBRANCH  37  38
ENDBRANCH  36  37
ENDBRANCH  35  36
ENDBRANCH  34  35
ENDBRANCH  33  34
ENDBRANCH  32  33
ENDBRANCH  31  32
ENDBRANCH  30  31
ENDBRANCH   1  30
TORSDOF 25
ENDMDL
MODEL 2
REMARK VINA RESULT:     -10.4      4.893      9.412
REMARK SMILES C/C(=N\NC(N)=S)c1nnn(-c2ccc(C(=O)OCCOCCOCCOCCOC(=O)c3ccc(-c4c5nc(c(-c6c(F)c(F)c(F)c(F)c6F)c6ccc([nH]6)c(-c6c(F)c(F)c(F)c(F)c6F)c6nc(c(-c7c(F)c(F)c(F)c(F)c7F)c7ccc4[nH]7)C=C6)C=C5)cc3)cc2)c1C
REMARK SMILES IDX 22 1 21 2 20 3 19 4 18 5 16 6 17 7 15 8 12 9 13 10 97 11
REMARK SMILES IDX 14 12 96 13 11 14 8 15 9 16 98 17 10 18 99 19 2 20 1 21 3 22
REMARK SMILES IDX 4 23 5 25 7 26 6 27 23 30 24 31 25 32 26 33 27 34 28 35
REMARK SMILES IDX 29 36 30 37 31 38 32 39 33 40 34 41 95 42 35 43 94 44 36 45
REMARK SMILES IDX 37 46 38 47 88 48 39 49 93 50 87 51 89 52 40 53 92 54 86 55
REMARK SMILES IDX 85 56 41 58 73 59 53 60 72 61 54 62 57 63 71 64 90 65 55 66
REMARK SMILES IDX 56 67 70 69 91 70 58 71 42 72 43 73 51 74 44 75 45 76 49 77
REMARK SMILES IDX 52 78 46 79 47 80 50 81 48 82 74 83 75 84 83 85 76 86 77 87
REMARK SMILES IDX 81 88 84 89 78 90 79 91 82 92 80 93 59 94 60 95 68 96 61 97
REMARK SMILES IDX 62 98 66 99 69 100 63 101 64 102 67 103 65 104
REMARK H PARENT 4 24 6 28 6 29 89 57 57 68
REMARK Flexibility Score: inf
ROOT
ATOM      1  C   UNL A   1      33.537  30.656  27.186  1.00  0.00     0.188 C 
ENDROOT
BRANCH   1   2
ATOM      2  O   UNL A   1      32.215  30.772  26.675  1.00  0.00    -0.376 OA
BRANCH   2   3
ATOM      3  C   UNL A   1      31.724  29.657  25.948  1.00  0.00     0.202 C 
BRANCH   3   4
ATOM      4  C   UNL A   1      31.426  29.975  24.480  1.00  0.00     0.261 C 
BRANCH   4   5
ATOM      5  O   UNL A   1      30.216  29.388  23.984  1.00  0.00    -0.460 OA
BRANCH   5   6
ATOM      6  C   UNL A   1      30.292  28.734  22.804  1.00  0.00     0.338 C 
ATOM      7  O   UNL A   1      30.051  29.180  21.698  1.00  0.00    -0.246 OA
BRANCH   6   8
ATOM      8  C   UNL A   1      30.881  27.401  23.056  1.00  0.00     0.060 A 
ATOM      9  C   UNL A   1      32.060  25.013  23.781  1.00  0.00     0.067 A 
ATOM     10  C   UNL A   1      30.722  25.233  24.120  1.00  0.00     0.029 A 
ATOM     11  C   UNL A   1      32.759  25.902  22.957  1.00  0.00     0.029 A 
ATOM     12  C   UNL A   1      30.141  26.453  23.777  1.00  0.00     0.018 A 
ATOM     13  C   UNL A   1      32.163  27.099  22.586  1.00  0.00     0.018 A 
BRANCH   9  14
ATOM     14  N   UNL A   1      32.787  24.049  24.507  1.00  0.00    -0.217 N 
ATOM     15  C   UNL A   1      33.846  22.214  24.997  1.00  0.00     0.132 A 
ATOM     16  N   UNL A   1      34.426  23.251  25.679  1.00  0.00    -0.128 NA
ATOM     17  C   UNL A   1      32.812  22.694  24.220  1.00  0.00     0.071 A 
ATOM     18  N   UNL A   1      33.817  24.373  25.320  1.00  0.00    -0.061 NA
ATOM     19  C   UNL A   1      32.025  22.044  23.142  1.00  0.00     0.069 C 
BRANCH  15  20
ATOM     20  C   UNL A   1      34.415  20.884  24.950  1.00  0.00     0.087 C 
ATOM     21  C   UNL A   1      35.920  20.793  25.024  1.00  0.00     0.071 C 
ATOM     22  N   UNL A   1      33.570  19.903  24.829  1.00  0.00    -0.176 NA
BRANCH  22  23
ATOM     23  N   UNL A   1      34.045  18.626  24.757  1.00  0.00    -0.254 N 
ATOM     24  H   UNL A   1      34.915  18.493  24.317  1.00  0.00     0.193 HD
BRANCH  23  25
ATOM     25  C   UNL A   1      33.407  17.505  25.248  1.00  0.00     0.184 C 
ATOM     26  S   UNL A   1      33.332  15.976  24.594  1.00  0.00    -0.040 S 
BRANCH  25  27
ATOM     27  N   UNL A   1      32.785  17.736  26.441  1.00  0.00    -0.375 N 
ATOM     28  H   UNL A   1      32.980  18.559  26.946  1.00  0.00     0.159 HD
ATOM     29  H   UNL A   1      32.142  17.081  26.797  1.00  0.00     0.159 HD
ENDBRANCH  25  27
ENDBRANCH  23  25
ENDBRANCH  22  23
ENDBRANCH  15  20
ENDBRANCH   9  14
ENDBRANCH   6   8
ENDBRANCH   5   6
ENDBRANCH   4   5
ENDBRANCH   3   4
ENDBRANCH   2   3
ENDBRANCH   1   2
BRANCH   1  30
ATOM     30  C   UNL A   1      34.004  31.884  27.996  1.00  0.00     0.188 C 
BRANCH  30  31
ATOM     31  O   UNL A   1      35.228  32.520  27.658  1.00  0.00    -0.377 OA
BRANCH  31  32
ATOM     32  C   UNL A   1      35.620  33.709  28.333  1.00  0.00     0.188 C 
BRANCH  32  33
ATOM     33  C   UNL A   1      34.924  34.206  29.626  1.00  0.00     0.188 C 
BRANCH  33  34
ATOM     34  O   UNL A   1      35.435  33.687  30.848  1.00  0.00    -0.376 OA
BRANCH  34  35
ATOM     35  C   UNL A   1      36.822  33.827  31.103  1.00  0.00     0.202 C 
BRANCH  35  36
ATOM     36  C   UNL A   1      37.464  32.506  31.514  1.00  0.00     0.261 C 
BRANCH  36  37
ATOM     37  O   UNL A   1      37.292  31.488  30.536  1.00  0.00    -0.460 OA
BRANCH  37  38
ATOM     38  C   UNL A   1      36.741  30.348  30.996  1.00  0.00     0.338 C 
ATOM     39  O   UNL A   1      35.909  30.231  31.878  1.00  0.00    -0.246 OA
BRANCH  38  40
ATOM     40  C   UNL A   1      37.379  29.210  30.332  1.00  0.00     0.060 A 
ATOM     41  C   UNL A   1      38.077  28.341  31.172  1.00  0.00     0.016 A 
ATOM     42  C   UNL A   1      37.580  29.243  28.944  1.00  0.00     0.016 A 
ATOM     43  C   UNL A   1      39.200  27.736  30.668  1.00  0.00     0.010 A 
ATOM     44  C   UNL A   1      38.712  28.650  28.445  1.00  0.00     0.010 A 
ATOM     45  C   UNL A   1      39.560  28.014  29.347  1.00  0.00    -0.014 A 
BRANCH  45  46
ATOM     46  C   UNL A   1      40.934  27.751  28.987  1.00  0.00     0.031 A 
ATOM     47  C   UNL A   1      41.205  26.410  28.450  1.00  0.00     0.074 A 
ATOM     48  C   UNL A   1      41.874  28.707  29.109  1.00  0.00     0.049 A 
ATOM     49  N   UNL A   1      42.016  25.517  28.910  1.00  0.00    -0.248 NA
ATOM     50  C   UNL A   1      40.414  25.986  27.288  1.00  0.00     0.031 C 
ATOM     51  C   UNL A   1      41.681  30.141  29.353  1.00  0.00     0.029 A 
ATOM     52  N   UNL A   1      43.217  28.593  28.938  1.00  0.00    -0.354 N 
ATOM     53  C   UNL A   1      41.956  24.465  28.006  1.00  0.00     0.074 A 
ATOM     54  C   UNL A   1      40.875  24.752  27.098  1.00  0.00     0.031 C 
ATOM     55  C   UNL A   1      42.843  30.786  29.111  1.00  0.00     0.029 A 
ATOM     56  C   UNL A   1      43.874  29.805  28.816  1.00  0.00     0.049 A 
ATOM     57  H   UNL A   1      43.682  27.726  28.904  1.00  0.00     0.167 HD
ATOM     58  C   UNL A   1      42.938  23.531  27.939  1.00  0.00     0.037 A 
ATOM     59  C   UNL A   1      45.153  29.979  28.412  1.00  0.00     0.037 A 
ATOM     60  C   UNL A   1      43.691  23.452  29.162  1.00  0.00     0.049 A 
ATOM     61  C   UNL A   1      45.864  28.687  28.580  1.00  0.00     0.074 A 
ATOM     62  C   UNL A   1      43.376  23.144  30.471  1.00  0.00     0.029 A 
ATOM     63  N   UNL A   1      44.939  24.020  29.207  1.00  0.00    -0.354 N 
ATOM     64  N   UNL A   1      46.171  28.154  29.730  1.00  0.00    -0.248 NA
ATOM     65  C   UNL A   1      45.907  27.776  27.444  1.00  0.00     0.031 C 
ATOM     66  C   UNL A   1      44.245  23.941  31.270  1.00  0.00     0.029 A 
ATOM     67  C   UNL A   1      45.041  24.687  30.401  1.00  0.00     0.049 A 
ATOM     68  H   UNL A   1      45.633  23.960  28.511  1.00  0.00     0.167 HD
ATOM     69  C   UNL A   1      46.051  26.786  29.533  1.00  0.00     0.074 A 
ATOM     70  C   UNL A   1      46.009  26.611  28.088  1.00  0.00     0.031 C 
ATOM     71  C   UNL A   1      45.717  25.954  30.562  1.00  0.00     0.037 A 
BRANCH  58  72
ATOM     72  C   UNL A   1      43.393  22.916  26.645  1.00  0.00     0.064 A 
ATOM     73  C   UNL A   1      43.145  21.555  26.397  1.00  0.00     0.173 A 
ATOM     74  C   UNL A   1      44.298  23.545  25.759  1.00  0.00     0.173 A 
ATOM     75  F   UNL A   1      42.333  20.852  27.202  1.00  0.00    -0.203 F 
ATOM     76  C   UNL A   1      43.792  20.866  25.369  1.00  0.00     0.198 A 
ATOM     77  C   UNL A   1      44.894  22.869  24.698  1.00  0.00     0.198 A 
ATOM     78  F   UNL A   1      44.723  24.801  25.949  1.00  0.00    -0.203 F 
ATOM     79  F   UNL A   1      43.613  19.543  25.242  1.00  0.00    -0.200 F 
ATOM     80  C   UNL A   1      44.664  21.523  24.521  1.00  0.00     0.200 A 
ATOM     81  F   UNL A   1      45.752  23.520  23.901  1.00  0.00    -0.200 F 
ATOM     82  F   UNL A   1      45.320  20.852  23.566  1.00  0.00    -0.200 F 
ENDBRANCH  58  72
BRANCH  59  83
ATOM     83  C   UNL A   1      45.706  31.109  27.635  1.00  0.00     0.064 A 
ATOM     84  C   UNL A   1      44.957  31.733  26.628  1.00  0.00     0.173 A 
ATOM     85  C   UNL A   1      46.893  31.759  28.030  1.00  0.00     0.173 A 
ATOM     86  F   UNL A   1      43.789  31.207  26.232  1.00  0.00    -0.203 F 
ATOM     87  C   UNL A   1      45.366  32.942  26.055  1.00  0.00     0.198 A 
ATOM     88  C   UNL A   1      47.308  32.956  27.448  1.00  0.00     0.198 A 
ATOM     89  F   UNL A   1      47.627  31.297  29.052  1.00  0.00    -0.203 F 
ATOM     90  F   UNL A   1      44.595  33.540  25.136  1.00  0.00    -0.200 F 
ATOM     91  C   UNL A   1      46.538  33.554  26.469  1.00  0.00     0.200 A 
ATOM     92  F   UNL A   1      48.426  33.553  27.884  1.00  0.00    -0.200 F 
ATOM     93  F   UNL A   1      46.905  34.736  25.955  1.00  0.00    -0.200 F 
ENDBRANCH  59  83
BRANCH  71  94
ATOM     94  C   UNL A   1      45.787  26.516  31.953  1.00  0.00     0.064 A 
ATOM     95  C   UNL A   1      46.958  26.506  32.730  1.00  0.00     0.173 A 
ATOM     96  C   UNL A   1      44.677  27.200  32.464  1.00  0.00     0.173 A 
ATOM     97  F   UNL A   1      48.091  25.967  32.260  1.00  0.00    -0.203 F 
ATOM     98  C   UNL A   1      46.995  27.105  33.987  1.00  0.00     0.198 A 
ATOM     99  C   UNL A   1      44.727  27.828  33.705  1.00  0.00     0.198 A 
ATOM    100  F   UNL A   1      43.553  27.297  31.736  1.00  0.00    -0.203 F 
ATOM    101  F   UNL A   1      48.119  27.067  34.718  1.00  0.00    -0.200 F 
ATOM    102  C   UNL A   1      45.881  27.770  34.472  1.00  0.00     0.200 A 
ATOM    103  F   UNL A   1      43.664  28.515  34.149  1.00  0.00    -0.200 F 
ATOM    104  F   UNL A   1      45.927  28.379  35.665  1.00  0.00    -0.200 F 
ENDBRANCH  71  94
ENDBRANCH  45  46
ENDBRANCH  38  40
ENDBRANCH  37  38
ENDBRANCH  36  37
ENDBRANCH  35  36
ENDBRANCH  34  35
ENDBRANCH  33  34
ENDBRANCH  32  33
ENDBRANCH  31  32
ENDBRANCH  30  31
ENDBRANCH   1  30
TORSDOF 25
ENDMDL
MODEL 3
REMARK VINA RESULT:      -9.9      4.888      9.508
REMARK SMILES C/C(=N\NC(N)=S)c1nnn(-c2ccc(C(=O)OCCOCCOCCOCCOC(=O)c3ccc(-c4c5nc(c(-c6c(F)c(F)c(F)c(F)c6F)c6ccc([nH]6)c(-c6c(F)c(F)c(F)c(F)c6F)c6nc(c(-c7c(F)c(F)c(F)c(F)c7F)c7ccc4[nH]7)C=C6)C=C5)cc3)cc2)c1C
REMARK SMILES IDX 22 1 21 2 20 3 19 4 18 5 16 6 17 7 15 8 12 9 13 10 97 11
REMARK SMILES IDX 14 12 96 13 11 14 8 15 9 16 98 17 10 18 99 19 2 20 1 21 3 22
REMARK SMILES IDX 4 23 5 25 7 26 6 27 23 30 24 31 25 32 26 33 27 34 28 35
REMARK SMILES IDX 29 36 30 37 31 38 32 39 33 40 34 41 95 42 35 43 94 44 36 45
REMARK SMILES IDX 37 46 38 47 88 48 39 49 93 50 87 51 89 52 40 53 92 54 86 55
REMARK SMILES IDX 85 56 41 58 73 59 53 60 72 61 54 62 57 63 71 64 90 65 55 66
REMARK SMILES IDX 56 67 70 69 91 70 58 71 42 72 43 73 51 74 44 75 45 76 49 77
REMARK SMILES IDX 52 78 46 79 47 80 50 81 48 82 74 83 75 84 83 85 76 86 77 87
REMARK SMILES IDX 81 88 84 89 78 90 79 91 82 92 80 93 59 94 60 95 68 96 61 97
REMARK SMILES IDX 62 98 66 99 69 100 63 101 64 102 67 103 65 104
REMARK H PARENT 4 24 6 28 6 29 89 57 57 68
REMARK Flexibility Score: inf
ROOT
ATOM      1  C   UNL A   1      32.814  33.038  27.350  1.00  0.00     0.188 C 
ENDROOT
BRANCH   1   2
ATOM      2  O   UNL A   1      31.445  32.816  27.034  1.00  0.00    -0.376 OA
BRANCH   2   3
ATOM      3  C   UNL A   1      31.177  31.781  26.102  1.00  0.00     0.202 C 
BRANCH   3   4
ATOM      4  C   UNL A   1      32.113  30.578  26.248  1.00  0.00     0.261 C 
BRANCH   4   5
ATOM      5  O   UNL A   1      31.531  29.328  25.853  1.00  0.00    -0.460 OA
BRANCH   5   6
ATOM      6  C   UNL A   1      32.179  28.625  24.899  1.00  0.00     0.338 C 
ATOM      7  O   UNL A   1      32.599  29.040  23.835  1.00  0.00    -0.246 OA
BRANCH   6   8
ATOM      8  C   UNL A   1      32.447  27.271  25.430  1.00  0.00     0.060 A 
ATOM      9  C   UNL A   1      32.869  24.643  26.165  1.00  0.00     0.067 A 
ATOM     10  C   UNL A   1      33.909  25.344  25.547  1.00  0.00     0.029 A 
ATOM     11  C   UNL A   1      31.687  25.285  26.553  1.00  0.00     0.029 A 
ATOM     12  C   UNL A   1      33.681  26.662  25.152  1.00  0.00     0.018 A 
ATOM     13  C   UNL A   1      31.479  26.608  26.190  1.00  0.00     0.018 A 
BRANCH   9  14
ATOM     14  N   UNL A   1      32.895  23.235  26.130  1.00  0.00    -0.217 N 
ATOM     15  C   UNL A   1      32.724  21.195  25.398  1.00  0.00     0.132 A 
ATOM     16  N   UNL A   1      33.744  21.250  26.311  1.00  0.00    -0.128 NA
ATOM     17  C   UNL A   1      32.178  22.452  25.241  1.00  0.00     0.071 A 
ATOM     18  N   UNL A   1      33.884  22.511  26.698  1.00  0.00    -0.061 NA
ATOM     19  C   UNL A   1      31.223  22.976  24.233  1.00  0.00     0.069 C 
BRANCH  15  20
ATOM     20  C   UNL A   1      32.460  20.031  24.580  1.00  0.00     0.087 C 
ATOM     21  C   UNL A   1      32.381  20.257  23.090  1.00  0.00     0.071 C 
ATOM     22  N   UNL A   1      32.298  18.908  25.218  1.00  0.00    -0.176 NA
BRANCH  22  23
ATOM     23  N   UNL A   1      32.024  17.777  24.506  1.00  0.00    -0.254 N 
ATOM     24  H   UNL A   1      31.148  17.726  24.060  1.00  0.00     0.193 HD
BRANCH  23  25
ATOM     25  C   UNL A   1      32.872  16.698  24.358  1.00  0.00     0.184 C 
ATOM     26  S   UNL A   1      34.275  16.587  23.469  1.00  0.00    -0.040 S 
BRANCH  25  27
ATOM     27  N   UNL A   1      32.463  15.609  25.072  1.00  0.00    -0.375 N 
ATOM     28  H   UNL A   1      32.172  14.794  24.603  1.00  0.00     0.159 HD
ATOM     29  H   UNL A   1      32.456  15.639  26.056  1.00  0.00     0.159 HD
ENDBRANCH  25  27
ENDBRANCH  23  25
ENDBRANCH  22  23
ENDBRANCH  15  20
ENDBRANCH   9  14
ENDBRANCH   6   8
ENDBRANCH   5   6
ENDBRANCH   4   5
ENDBRANCH   3   4
ENDBRANCH   2   3
ENDBRANCH   1   2
BRANCH   1  30
ATOM     30  C   UNL A   1      33.042  34.142  28.405  1.00  0.00     0.188 C 
BRANCH  30  31
ATOM     31  O   UNL A   1      34.313  34.767  28.499  1.00  0.00    -0.377 OA
BRANCH  31  32
ATOM     32  C   UNL A   1      35.347  34.160  29.264  1.00  0.00     0.188 C 
BRANCH  32  33
ATOM     33  C   UNL A   1      35.625  34.538  30.742  1.00  0.00     0.188 C 
BRANCH  33  34
ATOM     34  O   UNL A   1      35.302  33.548  31.710  1.00  0.00    -0.376 OA
BRANCH  34  35
ATOM     35  C   UNL A   1      36.245  32.518  31.952  1.00  0.00     0.202 C 
BRANCH  35  36
ATOM     36  C   UNL A   1      35.750  31.162  31.459  1.00  0.00     0.261 C 
BRANCH  36  37
ATOM     37  O   UNL A   1      36.766  30.417  30.799  1.00  0.00    -0.460 OA
BRANCH  37  38
ATOM     38  C   UNL A   1      36.757  30.514  29.456  1.00  0.00     0.338 C 
ATOM     39  O   UNL A   1      36.134  31.309  28.775  1.00  0.00    -0.246 OA
BRANCH  38  40
ATOM     40  C   UNL A   1      37.554  29.421  28.895  1.00  0.00     0.060 A 
ATOM     41  C   UNL A   1      37.977  28.457  29.811  1.00  0.00     0.016 A 
ATOM     42  C   UNL A   1      38.144  29.575  27.632  1.00  0.00     0.016 A 
ATOM     43  C   UNL A   1      39.194  27.865  29.591  1.00  0.00     0.010 A 
ATOM     44  C   UNL A   1      39.369  28.993  27.421  1.00  0.00     0.010 A 
ATOM     45  C   UNL A   1      39.920  28.251  28.462  1.00  0.00    -0.014 A 
BRANCH  45  46
ATOM     46  C   UNL A   1      41.337  27.978  28.484  1.00  0.00     0.031 A 
ATOM     47  C   UNL A   1      41.752  26.711  27.862  1.00  0.00     0.074 A 
ATOM     48  C   UNL A   1      42.202  28.864  29.012  1.00  0.00     0.049 A 
ATOM     49  N   UNL A   1      42.387  25.728  28.405  1.00  0.00    -0.248 NA
ATOM     50  C   UNL A   1      41.338  26.486  26.472  1.00  0.00     0.031 C 
ATOM     51  C   UNL A   1      41.950  30.258  29.393  1.00  0.00     0.029 A 
ATOM     52  N   UNL A   1      43.536  28.714  29.226  1.00  0.00    -0.354 N 
ATOM     53  C   UNL A   1      42.595  24.813  27.382  1.00  0.00     0.074 A 
ATOM     54  C   UNL A   1      41.831  25.271  26.249  1.00  0.00     0.031 C 
ATOM     55  C   UNL A   1      43.133  30.878  29.595  1.00  0.00     0.029 A 
ATOM     56  C   UNL A   1      44.203  29.900  29.476  1.00  0.00     0.049 A 
ATOM     57  H   UNL A   1      43.988  27.839  29.204  1.00  0.00     0.167 HD
ATOM     58  C   UNL A   1      43.550  23.854  27.471  1.00  0.00     0.037 A 
ATOM     59  C   UNL A   1      45.545  30.069  29.492  1.00  0.00     0.037 A 
ATOM     60  C   UNL A   1      43.908  23.574  28.836  1.00  0.00     0.049 A 
ATOM     61  C   UNL A   1      46.171  28.736  29.672  1.00  0.00     0.074 A 
ATOM     62  C   UNL A   1      43.219  23.105  29.937  1.00  0.00     0.029 A 
ATOM     63  N   UNL A   1      45.089  24.074  29.324  1.00  0.00    -0.354 N 
ATOM     64  N   UNL A   1      46.123  28.038  30.773  1.00  0.00    -0.248 NA
ATOM     65  C   UNL A   1      46.545  27.987  28.480  1.00  0.00     0.031 C 
ATOM     66  C   UNL A   1      43.816  23.745  31.062  1.00  0.00     0.029 A 
ATOM     67  C   UNL A   1      44.835  24.566  30.579  1.00  0.00     0.049 A 
ATOM     68  H   UNL A   1      45.956  24.078  28.860  1.00  0.00     0.167 HD
ATOM     69  C   UNL A   1      46.062  26.716  30.356  1.00  0.00     0.074 A 
ATOM     70  C   UNL A   1      46.448  26.743  28.952  1.00  0.00     0.031 C 
ATOM     71  C   UNL A   1      45.437  25.767  31.111  1.00  0.00     0.037 A 
BRANCH  58  72
ATOM     72  C   UNL A   1      44.365  23.402  26.292  1.00  0.00     0.064 A 
ATOM     73  C   UNL A   1      44.320  22.055  25.892  1.00  0.00     0.173 A 
ATOM     74  C   UNL A   1      45.392  24.180  25.710  1.00  0.00     0.173 A 
ATOM     75  F   UNL A   1      43.410  21.218  26.413  1.00  0.00    -0.203 F 
ATOM     76  C   UNL A   1      45.262  21.518  25.012  1.00  0.00     0.198 A 
ATOM     77  C   UNL A   1      46.292  23.656  24.786  1.00  0.00     0.198 A 
ATOM     78  F   UNL A   1      45.632  25.441  26.091  1.00  0.00    -0.203 F 
ATOM     79  F   UNL A   1      45.251  20.204  24.748  1.00  0.00    -0.200 F 
ATOM     80  C   UNL A   1      46.246  22.319  24.459  1.00  0.00     0.200 A 
ATOM     81  F   UNL A   1      47.251  24.444  24.280  1.00  0.00    -0.200 F 
ATOM     82  F   UNL A   1      47.178  21.794  23.654  1.00  0.00    -0.200 F 
ENDBRANCH  58  72
BRANCH  59  83
ATOM     83  C   UNL A   1      46.306  31.269  29.082  1.00  0.00     0.064 A 
ATOM     84  C   UNL A   1      46.267  31.737  27.761  1.00  0.00     0.173 A 
ATOM     85  C   UNL A   1      46.897  32.124  30.034  1.00  0.00     0.173 A 
ATOM     86  F   UNL A   1      45.674  31.007  26.804  1.00  0.00    -0.203 F 
ATOM     87  C   UNL A   1      46.779  32.991  27.413  1.00  0.00     0.198 A 
ATOM     88  C   UNL A   1      47.422  33.368  29.684  1.00  0.00     0.198 A 
ATOM     89  F   UNL A   1      46.895  31.813  31.338  1.00  0.00    -0.203 F 
ATOM     90  F   UNL A   1      46.671  33.430  26.152  1.00  0.00    -0.200 F 
ATOM     91  C   UNL A   1      47.352  33.807  28.376  1.00  0.00     0.200 A 
ATOM     92  F   UNL A   1      47.941  34.159  30.633  1.00  0.00    -0.200 F 
ATOM     93  F   UNL A   1      47.799  35.027  28.053  1.00  0.00    -0.200 F 
ENDBRANCH  59  83
BRANCH  71  94
ATOM     94  C   UNL A   1      45.095  26.131  32.527  1.00  0.00     0.064 A 
ATOM     95  C   UNL A   1      43.920  26.815  32.885  1.00  0.00     0.173 A 
ATOM     96  C   UNL A   1      45.912  25.662  33.564  1.00  0.00     0.173 A 
ATOM     97  F   UNL A   1      43.036  27.197  31.954  1.00  0.00    -0.203 F 
ATOM     98  C   UNL A   1      43.610  27.067  34.219  1.00  0.00     0.198 A 
ATOM     99  C   UNL A   1      45.581  25.884  34.898  1.00  0.00     0.198 A 
ATOM    100  F   UNL A   1      47.012  24.946  33.282  1.00  0.00    -0.203 F 
ATOM    101  F   UNL A   1      42.491  27.737  34.535  1.00  0.00    -0.200 F 
ATOM    102  C   UNL A   1      44.438  26.597  35.225  1.00  0.00     0.200 A 
ATOM    103  F   UNL A   1      46.358  25.383  35.870  1.00  0.00    -0.200 F 
ATOM    104  F   UNL A   1      44.121  26.805  36.511  1.00  0.00    -0.200 F 
ENDBRANCH  71  94
ENDBRANCH  45  46
ENDBRANCH  38  40
ENDBRANCH  37  38
ENDBRANCH  36  37
ENDBRANCH  35  36
ENDBRANCH  34  35
ENDBRANCH  33  34
ENDBRANCH  32  33
ENDBRANCH  31  32
ENDBRANCH  30  31
ENDBRANCH   1  30
TORSDOF 25
ENDMDL
