MODEL 1
REMARK VINA RESULT:      -9.5      0.000      0.000
REMARK SMILES CC1=C(C(=O)OCCOCCOCCOCCOC(=O)c2ccc(-c3c4nc(c(-c5c(F)c(F)c(F)c(F)c5F)c5ccc([nH]5)c(-c5c(F)c(F)c(F)c(F)c5F)c5nc(c(-c6c(F)c(F)c(F)c(F)c6F)c6ccc3[nH]6)C=C5)C=C4)cc2)N2C(=O)[C@@H](NC(=O)c3ccn(C)n3)[C@H]2SC1
REMARK SMILES IDX 12 1 11 2 10 3 9 4 8 5 7 6 6 7 4 8 5 9 3 10 1 11 2 12 99 13
REMARK SMILES IDX 84 14 98 15 85 16 97 17 86 18 87 19 88 20 89 21 90 23 91 24
REMARK SMILES IDX 92 25 96 26 93 27 94 28 95 29 13 30 14 31 15 32 16 33 17 34
REMARK SMILES IDX 18 35 19 36 20 37 21 38 22 39 83 40 23 41 82 42 24 43 25 44
REMARK SMILES IDX 26 45 76 46 27 47 81 48 75 49 77 50 28 51 80 52 74 53 73 54
REMARK SMILES IDX 29 56 61 57 41 58 60 59 42 60 45 61 59 62 78 63 43 64 44 65
REMARK SMILES IDX 58 67 79 68 46 69 30 70 31 71 39 72 32 73 33 74 37 75 40 76
REMARK SMILES IDX 34 77 35 78 38 79 36 80 62 81 63 82 71 83 64 84 65 85 69 86
REMARK SMILES IDX 72 87 66 88 67 89 70 90 68 91 47 92 48 93 56 94 49 95 50 96
REMARK SMILES IDX 54 97 57 98 51 99 52 100 55 101 53 102
REMARK H PARENT 88 22 77 55 45 66
REMARK Flexibility Score: inf
ROOT
ATOM      1  O   UNL A   1      32.944  34.631  28.759  1.00  0.00    -0.377 OA
ENDROOT
BRANCH   1   2
ATOM      2  C   UNL A   1      33.923  33.906  28.030  1.00  0.00     0.188 C 
BRANCH   2   3
ATOM      3  C   UNL A   1      34.341  32.511  28.529  1.00  0.00     0.188 C 
BRANCH   3   4
ATOM      4  O   UNL A   1      34.106  31.455  27.597  1.00  0.00    -0.376 OA
BRANCH   4   5
ATOM      5  C   UNL A   1      34.996  30.352  27.725  1.00  0.00     0.202 C 
BRANCH   5   6
ATOM      6  C   UNL A   1      34.487  29.108  27.000  1.00  0.00     0.261 C 
BRANCH   6   7
ATOM      7  O   UNL A   1      33.471  29.391  26.027  1.00  0.00    -0.459 OA
BRANCH   7   8
ATOM      8  C   UNL A   1      32.266  28.806  26.201  1.00  0.00     0.355 C 
ATOM      9  O   UNL A   1      31.588  28.855  27.217  1.00  0.00    -0.244 OA
BRANCH   8  10
ATOM     10  C   UNL A   1      31.835  28.098  24.945  1.00  0.00     0.131 C 
ATOM     11  C   UNL A   1      30.353  29.990  24.111  1.00  0.00     0.043 C 
ATOM     12  C   UNL A   1      30.967  28.612  24.037  1.00  0.00    -0.032 C 
ATOM     13  C   UNL A   1      30.466  27.850  22.816  1.00  0.00     0.105 C 
ATOM     14  N   UNL A   1      32.399  26.880  24.718  1.00  0.00    -0.289 N 
ATOM     15  S   UNL A   1      30.734  26.052  22.874  1.00  0.00    -0.129 SA
ATOM     16  C   UNL A   1      32.834  25.835  25.457  1.00  0.00     0.253 C 
ATOM     17  C   UNL A   1      32.447  26.234  23.430  1.00  0.00     0.181 C 
ATOM     18  O   UNL A   1      32.874  25.622  26.643  1.00  0.00    -0.272 OA
ATOM     19  C   UNL A   1      33.114  25.030  24.148  1.00  0.00     0.206 C 
BRANCH  19  20
ATOM     20  N   UNL A   1      32.468  23.702  23.997  1.00  0.00    -0.336 N 
ATOM     21  C   UNL A   1      33.127  22.505  23.796  1.00  0.00     0.272 C 
ATOM     22  H   UNL A   1      31.485  23.672  24.043  1.00  0.00     0.164 HD
ATOM     23  O   UNL A   1      32.490  21.483  23.553  1.00  0.00    -0.267 OA
BRANCH  21  24
ATOM     24  C   UNL A   1      34.588  22.544  23.892  1.00  0.00     0.150 A 
ATOM     25  C   UNL A   1      35.486  23.123  22.956  1.00  0.00     0.056 A 
ATOM     26  N   UNL A   1      35.258  21.894  24.863  1.00  0.00    -0.168 NA
ATOM     27  C   UNL A   1      36.742  22.811  23.418  1.00  0.00     0.109 A 
ATOM     28  N   UNL A   1      36.553  22.109  24.570  1.00  0.00    -0.275 N 
ATOM     29  C   UNL A   1      37.587  21.555  25.411  1.00  0.00     0.173 C 
ENDBRANCH  21  24
ENDBRANCH  19  20
ENDBRANCH   8  10
ENDBRANCH   7   8
ENDBRANCH   6   7
ENDBRANCH   5   6
ENDBRANCH   4   5
ENDBRANCH   3   4
ENDBRANCH   2   3
ENDBRANCH   1   2
BRANCH   1  30
ATOM     30  C   UNL A   1      33.313  35.848  29.398  1.00  0.00     0.188 C 
BRANCH  30  31
ATOM     31  C   UNL A   1      32.605  36.305  30.690  1.00  0.00     0.188 C 
BRANCH  31  32
ATOM     32  O   UNL A   1      32.994  37.587  31.163  1.00  0.00    -0.376 OA
BRANCH  32  33
ATOM     33  C   UNL A   1      33.812  37.617  32.324  1.00  0.00     0.202 C 
BRANCH  33  34
ATOM     34  C   UNL A   1      33.562  36.456  33.292  1.00  0.00     0.261 C 
BRANCH  34  35
ATOM     35  O   UNL A   1      34.682  35.573  33.472  1.00  0.00    -0.460 OA
BRANCH  35  36
ATOM     36  C   UNL A   1      34.520  34.289  33.093  1.00  0.00     0.338 C 
ATOM     37  O   UNL A   1      33.479  33.673  32.958  1.00  0.00    -0.246 OA
BRANCH  36  38
ATOM     38  C   UNL A   1      35.841  33.777  32.691  1.00  0.00     0.060 A 
ATOM     39  C   UNL A   1      36.465  32.811  33.489  1.00  0.00     0.016 A 
ATOM     40  C   UNL A   1      36.455  34.255  31.531  1.00  0.00     0.016 A 
ATOM     41  C   UNL A   1      37.732  32.345  33.145  1.00  0.00     0.010 A 
ATOM     42  C   UNL A   1      37.731  33.802  31.198  1.00  0.00     0.010 A 
ATOM     43  C   UNL A   1      38.386  32.872  32.024  1.00  0.00    -0.014 A 
BRANCH  43  44
ATOM     44  C   UNL A   1      39.830  32.618  31.826  1.00  0.00     0.031 A 
ATOM     45  C   UNL A   1      40.807  33.508  32.541  1.00  0.00     0.074 A 
ATOM     46  C   UNL A   1      40.265  31.628  31.029  1.00  0.00     0.049 A 
ATOM     47  N   UNL A   1      42.114  33.516  32.496  1.00  0.00    -0.248 NA
ATOM     48  C   UNL A   1      40.227  34.534  33.424  1.00  0.00     0.031 C 
ATOM     49  C   UNL A   1      39.412  30.688  30.306  1.00  0.00     0.029 A 
ATOM     50  N   UNL A   1      41.542  31.263  30.686  1.00  0.00    -0.354 N 
ATOM     51  C   UNL A   1      42.511  34.541  33.342  1.00  0.00     0.074 A 
ATOM     52  C   UNL A   1      41.309  35.155  33.864  1.00  0.00     0.031 C 
ATOM     53  C   UNL A   1      40.191  29.859  29.591  1.00  0.00     0.029 A 
ATOM     54  C   UNL A   1      41.593  30.228  29.788  1.00  0.00     0.049 A 
ATOM     55  H   UNL A   1      42.344  31.702  31.051  1.00  0.00     0.167 HD
ATOM     56  C   UNL A   1      43.766  34.930  33.664  1.00  0.00     0.037 A 
ATOM     57  C   UNL A   1      42.655  29.661  29.182  1.00  0.00     0.037 A 
ATOM     58  C   UNL A   1      44.959  34.328  33.134  1.00  0.00     0.049 A 
ATOM     59  C   UNL A   1      44.041  30.160  29.501  1.00  0.00     0.074 A 
ATOM     60  C   UNL A   1      46.278  34.638  33.409  1.00  0.00     0.029 A 
ATOM     61  N   UNL A   1      44.972  33.297  32.206  1.00  0.00    -0.354 N 
ATOM     62  N   UNL A   1      44.413  31.103  30.333  1.00  0.00    -0.248 NA
ATOM     63  C   UNL A   1      45.157  29.511  28.797  1.00  0.00     0.031 C 
ATOM     64  C   UNL A   1      47.091  33.825  32.612  1.00  0.00     0.029 A 
ATOM     65  C   UNL A   1      46.278  32.976  31.877  1.00  0.00     0.049 A 
ATOM     66  H   UNL A   1      44.172  32.859  31.837  1.00  0.00     0.167 HD
ATOM     67  C   UNL A   1      45.800  31.143  30.273  1.00  0.00     0.074 A 
ATOM     68  C   UNL A   1      46.206  30.121  29.330  1.00  0.00     0.031 C 
ATOM     69  C   UNL A   1      46.662  31.951  30.940  1.00  0.00     0.037 A 
BRANCH  56  70
ATOM     70  C   UNL A   1      43.904  36.080  34.615  1.00  0.00     0.064 A 
ATOM     71  C   UNL A   1      43.985  37.405  34.159  1.00  0.00     0.173 A 
ATOM     72  C   UNL A   1      43.949  35.856  35.998  1.00  0.00     0.173 A 
ATOM     73  F   UNL A   1      43.967  37.669  32.844  1.00  0.00    -0.203 F 
ATOM     74  C   UNL A   1      44.131  38.461  35.054  1.00  0.00     0.198 A 
ATOM     75  C   UNL A   1      44.067  36.917  36.892  1.00  0.00     0.198 A 
ATOM     76  F   UNL A   1      43.877  34.608  36.484  1.00  0.00    -0.203 F 
ATOM     77  F   UNL A   1      44.254  39.715  34.595  1.00  0.00    -0.200 F 
ATOM     78  C   UNL A   1      44.165  38.217  36.419  1.00  0.00     0.200 A 
ATOM     79  F   UNL A   1      44.095  36.681  38.210  1.00  0.00    -0.200 F 
ATOM     80  F   UNL A   1      44.305  39.235  37.280  1.00  0.00    -0.200 F 
ENDBRANCH  56  70
BRANCH  57  81
ATOM     81  C   UNL A   1      42.452  28.561  28.205  1.00  0.00     0.064 A 
ATOM     82  C   UNL A   1      42.264  27.240  28.634  1.00  0.00     0.173 A 
ATOM     83  C   UNL A   1      42.456  28.805  26.824  1.00  0.00     0.173 A 
ATOM     84  F   UNL A   1      42.278  26.953  29.944  1.00  0.00    -0.203 F 
ATOM     85  C   UNL A   1      42.105  26.202  27.718  1.00  0.00     0.198 A 
ATOM     86  C   UNL A   1      42.272  27.770  25.910  1.00  0.00     0.198 A 
ATOM     87  F   UNL A   1      42.636  30.052  26.362  1.00  0.00    -0.203 F 
ATOM     88  F   UNL A   1      41.971  24.941  28.153  1.00  0.00    -0.200 F 
ATOM     89  C   UNL A   1      42.104  26.468  26.357  1.00  0.00     0.200 A 
ATOM     90  F   UNL A   1      42.262  28.033  24.596  1.00  0.00    -0.200 F 
ATOM     91  F   UNL A   1      41.949  25.470  25.477  1.00  0.00    -0.200 F 
ENDBRANCH  57  81
BRANCH  69  92
ATOM     92  C   UNL A   1      48.129  31.744  30.701  1.00  0.00     0.064 A 
ATOM     93  C   UNL A   1      48.818  32.450  29.704  1.00  0.00     0.173 A 
ATOM     94  C   UNL A   1      48.863  30.866  31.514  1.00  0.00     0.173 A 
ATOM     95  F   UNL A   1      48.158  33.290  28.893  1.00  0.00    -0.203 F 
ATOM     96  C   UNL A   1      50.186  32.269  29.517  1.00  0.00     0.198 A 
ATOM     97  C   UNL A   1      50.235  30.709  31.341  1.00  0.00     0.198 A 
ATOM     98  F   UNL A   1      48.251  30.173  32.486  1.00  0.00    -0.203 F 
ATOM     99  F   UNL A   1      50.817  32.922  28.532  1.00  0.00    -0.200 F 
ATOM    100  C   UNL A   1      50.894  31.405  30.340  1.00  0.00     0.200 A 
ATOM    101  F   UNL A   1      50.919  29.884  32.146  1.00  0.00    -0.200 F 
ATOM    102  F   UNL A   1      52.212  31.239  30.163  1.00  0.00    -0.200 F 
ENDBRANCH  69  92
ENDBRANCH  43  44
ENDBRANCH  36  38
ENDBRANCH  35  36
ENDBRANCH  34  35
ENDBRANCH  33  34
ENDBRANCH  32  33
ENDBRANCH  31  32
ENDBRANCH  30  31
ENDBRANCH   1  30
TORSDOF 22
ENDMDL
MODEL 2
REMARK VINA RESULT:      -9.3      5.615      9.538
REMARK SMILES CC1=C(C(=O)OCCOCCOCCOCCOC(=O)c2ccc(-c3c4nc(c(-c5c(F)c(F)c(F)c(F)c5F)c5ccc([nH]5)c(-c5c(F)c(F)c(F)c(F)c5F)c5nc(c(-c6c(F)c(F)c(F)c(F)c6F)c6ccc3[nH]6)C=C5)C=C4)cc2)N2C(=O)[C@@H](NC(=O)c3ccn(C)n3)[C@H]2SC1
REMARK SMILES IDX 12 1 11 2 10 3 9 4 8 5 7 6 6 7 4 8 5 9 3 10 1 11 2 12 99 13
REMARK SMILES IDX 84 14 98 15 85 16 97 17 86 18 87 19 88 20 89 21 90 23 91 24
REMARK SMILES IDX 92 25 96 26 93 27 94 28 95 29 13 30 14 31 15 32 16 33 17 34
REMARK SMILES IDX 18 35 19 36 20 37 21 38 22 39 83 40 23 41 82 42 24 43 25 44
REMARK SMILES IDX 26 45 76 46 27 47 81 48 75 49 77 50 28 51 80 52 74 53 73 54
REMARK SMILES IDX 29 56 61 57 41 58 60 59 42 60 45 61 59 62 78 63 43 64 44 65
REMARK SMILES IDX 58 67 79 68 46 69 30 70 31 71 39 72 32 73 33 74 37 75 40 76
REMARK SMILES IDX 34 77 35 78 38 79 36 80 62 81 63 82 71 83 64 84 65 85 69 86
REMARK SMILES IDX 72 87 66 88 67 89 70 90 68 91 47 92 48 93 56 94 49 95 50 96
REMARK SMILES IDX 54 97 57 98 51 99 52 100 55 101 53 102
REMARK H PARENT 88 22 77 55 45 66
REMARK Flexibility Score: inf
ROOT
ATOM      1  O   UNL A   1      32.511  29.741  27.432  1.00  0.00    -0.377 OA
ENDROOT
BRANCH   1   2
ATOM      2  C   UNL A   1      31.907  29.110  26.314  1.00  0.00     0.188 C 
BRANCH   2   3
ATOM      3  C   UNL A   1      32.805  28.398  25.286  1.00  0.00     0.188 C 
BRANCH   3   4
ATOM      4  O   UNL A   1      33.112  29.175  24.128  1.00  0.00    -0.376 OA
BRANCH   4   5
ATOM      5  C   UNL A   1      34.208  28.684  23.367  1.00  0.00     0.202 C 
BRANCH   5   6
ATOM      6  C   UNL A   1      33.774  28.144  22.005  1.00  0.00     0.261 C 
BRANCH   6   7
ATOM      7  O   UNL A   1      34.065  26.751  21.825  1.00  0.00    -0.459 OA
BRANCH   7   8
ATOM      8  C   UNL A   1      33.085  25.973  21.317  1.00  0.00     0.355 C 
ATOM      9  O   UNL A   1      32.915  25.719  20.133  1.00  0.00    -0.244 OA
BRANCH   8  10
ATOM     10  C   UNL A   1      32.227  25.415  22.420  1.00  0.00     0.131 C 
ATOM     11  C   UNL A   1      30.560  27.337  22.407  1.00  0.00     0.043 C 
ATOM     12  C   UNL A   1      31.127  26.035  22.919  1.00  0.00    -0.032 C 
ATOM     13  C   UNL A   1      30.319  25.507  24.099  1.00  0.00     0.105 C 
ATOM     14  N   UNL A   1      32.584  24.193  22.901  1.00  0.00    -0.289 N 
ATOM     15  S   UNL A   1      31.160  24.242  25.098  1.00  0.00    -0.129 SA
ATOM     16  C   UNL A   1      33.728  23.502  23.102  1.00  0.00     0.253 C 
ATOM     17  C   UNL A   1      31.704  23.321  23.639  1.00  0.00     0.181 C 
ATOM     18  O   UNL A   1      34.890  23.754  22.905  1.00  0.00    -0.272 OA
ATOM     19  C   UNL A   1      32.914  22.360  23.790  1.00  0.00     0.206 C 
BRANCH  19  20
ATOM     20  N   UNL A   1      33.301  21.961  25.166  1.00  0.00    -0.336 N 
ATOM     21  C   UNL A   1      33.402  20.665  25.629  1.00  0.00     0.272 C 
ATOM     22  H   UNL A   1      33.502  22.684  25.803  1.00  0.00     0.164 HD
ATOM     23  O   UNL A   1      33.603  20.449  26.822  1.00  0.00    -0.267 OA
BRANCH  21  24
ATOM     24  C   UNL A   1      33.260  19.604  24.628  1.00  0.00     0.150 A 
ATOM     25  C   UNL A   1      32.180  19.431  23.722  1.00  0.00     0.056 A 
ATOM     26  N   UNL A   1      34.120  18.571  24.554  1.00  0.00    -0.168 NA
ATOM     27  C   UNL A   1      32.437  18.249  23.072  1.00  0.00     0.109 A 
ATOM     28  N   UNL A   1      33.617  17.793  23.578  1.00  0.00    -0.275 N 
ATOM     29  C   UNL A   1      34.289  16.571  23.209  1.00  0.00     0.173 C 
ENDBRANCH  21  24
ENDBRANCH  19  20
ENDBRANCH   8  10
ENDBRANCH   7   8
ENDBRANCH   6   7
ENDBRANCH   5   6
ENDBRANCH   4   5
ENDBRANCH   3   4
ENDBRANCH   2   3
ENDBRANCH   1   2
BRANCH   1  30
ATOM     30  C   UNL A   1      33.442  30.796  27.215  1.00  0.00     0.188 C 
BRANCH  30  31
ATOM     31  C   UNL A   1      34.901  30.671  27.699  1.00  0.00     0.188 C 
BRANCH  31  32
ATOM     32  O   UNL A   1      35.404  31.808  28.386  1.00  0.00    -0.376 OA
BRANCH  32  33
ATOM     33  C   UNL A   1      34.461  32.583  29.112  1.00  0.00     0.202 C 
BRANCH  33  34
ATOM     34  C   UNL A   1      35.018  33.192  30.404  1.00  0.00     0.261 C 
BRANCH  34  35
ATOM     35  O   UNL A   1      34.735  32.436  31.593  1.00  0.00    -0.460 OA
BRANCH  35  36
ATOM     36  C   UNL A   1      34.481  33.134  32.720  1.00  0.00     0.338 C 
ATOM     37  O   UNL A   1      33.423  33.614  33.081  1.00  0.00    -0.246 OA
BRANCH  36  38
ATOM     38  C   UNL A   1      35.693  33.079  33.555  1.00  0.00     0.060 A 
ATOM     39  C   UNL A   1      36.438  31.894  33.589  1.00  0.00     0.016 A 
ATOM     40  C   UNL A   1      36.084  34.194  34.298  1.00  0.00     0.016 A 
ATOM     41  C   UNL A   1      37.565  31.811  34.404  1.00  0.00     0.010 A 
ATOM     42  C   UNL A   1      37.201  34.104  35.127  1.00  0.00     0.010 A 
ATOM     43  C   UNL A   1      37.924  32.901  35.208  1.00  0.00    -0.014 A 
BRANCH  43  44
ATOM     44  C   UNL A   1      38.917  32.723  36.289  1.00  0.00     0.031 A 
ATOM     45  C   UNL A   1      40.351  32.499  35.900  1.00  0.00     0.074 A 
ATOM     46  C   UNL A   1      38.557  32.753  37.583  1.00  0.00     0.049 A 
ATOM     47  N   UNL A   1      41.393  32.274  36.656  1.00  0.00    -0.248 NA
ATOM     48  C   UNL A   1      40.646  32.526  34.457  1.00  0.00     0.031 C 
ATOM     49  C   UNL A   1      37.204  32.988  38.079  1.00  0.00     0.029 A 
ATOM     50  N   UNL A   1      39.309  32.570  38.716  1.00  0.00    -0.354 N 
ATOM     51  C   UNL A   1      42.465  32.137  35.785  1.00  0.00     0.074 A 
ATOM     52  C   UNL A   1      41.944  32.271  34.442  1.00  0.00     0.031 C 
ATOM     53  C   UNL A   1      37.217  32.921  39.421  1.00  0.00     0.029 A 
ATOM     54  C   UNL A   1      38.574  32.613  39.873  1.00  0.00     0.049 A 
ATOM     55  H   UNL A   1      40.282  32.423  38.699  1.00  0.00     0.167 HD
ATOM     56  C   UNL A   1      43.769  31.927  36.078  1.00  0.00     0.037 A 
ATOM     57  C   UNL A   1      38.957  32.407  41.148  1.00  0.00     0.037 A 
ATOM     58  C   UNL A   1      44.282  31.780  37.412  1.00  0.00     0.049 A 
ATOM     59  C   UNL A   1      40.403  32.102  41.446  1.00  0.00     0.074 A 
ATOM     60  C   UNL A   1      45.590  31.581  37.818  1.00  0.00     0.029 A 
ATOM     61  N   UNL A   1      43.504  31.805  38.560  1.00  0.00    -0.354 N 
ATOM     62  N   UNL A   1      41.419  32.013  40.620  1.00  0.00    -0.248 NA
ATOM     63  C   UNL A   1      40.757  31.873  42.854  1.00  0.00     0.031 C 
ATOM     64  C   UNL A   1      45.597  31.439  39.209  1.00  0.00     0.029 A 
ATOM     65  C   UNL A   1      44.301  31.597  39.674  1.00  0.00     0.049 A 
ATOM     66  H   UNL A   1      42.531  31.948  38.580  1.00  0.00     0.167 HD
ATOM     67  C   UNL A   1      42.531  31.745  41.409  1.00  0.00     0.074 A 
ATOM     68  C   UNL A   1      42.068  31.695  42.780  1.00  0.00     0.031 C 
ATOM     69  C   UNL A   1      43.821  31.558  41.032  1.00  0.00     0.037 A 
BRANCH  56  70
ATOM     70  C   UNL A   1      44.721  31.818  34.926  1.00  0.00     0.064 A 
ATOM     71  C   UNL A   1      45.011  30.582  34.327  1.00  0.00     0.173 A 
ATOM     72  C   UNL A   1      45.346  32.962  34.411  1.00  0.00     0.173 A 
ATOM     73  F   UNL A   1      44.453  29.456  34.797  1.00  0.00    -0.203 F 
ATOM     74  C   UNL A   1      45.911  30.494  33.269  1.00  0.00     0.198 A 
ATOM     75  C   UNL A   1      46.225  32.874  33.335  1.00  0.00     0.198 A 
ATOM     76  F   UNL A   1      45.104  34.166  34.950  1.00  0.00    -0.203 F 
ATOM     77  F   UNL A   1      46.210  29.298  32.742  1.00  0.00    -0.200 F 
ATOM     78  C   UNL A   1      46.512  31.640  32.770  1.00  0.00     0.200 A 
ATOM     79  F   UNL A   1      46.801  33.982  32.850  1.00  0.00    -0.200 F 
ATOM     80  F   UNL A   1      47.379  31.554  31.750  1.00  0.00    -0.200 F 
ENDBRANCH  56  70
BRANCH  57  81
ATOM     81  C   UNL A   1      37.957  32.473  42.244  1.00  0.00     0.064 A 
ATOM     82  C   UNL A   1      37.555  33.703  42.782  1.00  0.00     0.173 A 
ATOM     83  C   UNL A   1      37.393  31.308  42.785  1.00  0.00     0.173 A 
ATOM     84  F   UNL A   1      38.086  34.843  42.315  1.00  0.00    -0.203 F 
ATOM     85  C   UNL A   1      36.640  33.765  43.831  1.00  0.00     0.198 A 
ATOM     86  C   UNL A   1      36.460  31.373  43.817  1.00  0.00     0.198 A 
ATOM     87  F   UNL A   1      37.748  30.105  42.308  1.00  0.00    -0.203 F 
ATOM     88  F   UNL A   1      36.306  34.952  44.357  1.00  0.00    -0.200 F 
ATOM     89  C   UNL A   1      36.089  32.601  44.345  1.00  0.00     0.200 A 
ATOM     90  F   UNL A   1      35.923  30.246  44.305  1.00  0.00    -0.200 F 
ATOM     91  F   UNL A   1      35.208  32.661  45.352  1.00  0.00    -0.200 F 
ENDBRANCH  57  81
BRANCH  69  92
ATOM     92  C   UNL A   1      44.829  31.316  42.117  1.00  0.00     0.064 A 
ATOM     93  C   UNL A   1      45.116  30.022  42.579  1.00  0.00     0.173 A 
ATOM     94  C   UNL A   1      45.553  32.386  42.664  1.00  0.00     0.173 A 
ATOM     95  F   UNL A   1      44.441  28.968  42.097  1.00  0.00    -0.203 F 
ATOM     96  C   UNL A   1      46.077  29.813  43.563  1.00  0.00     0.198 A 
ATOM     97  C   UNL A   1      46.533  32.169  43.629  1.00  0.00     0.198 A 
ATOM     98  F   UNL A   1      45.322  33.641  42.250  1.00  0.00    -0.203 F 
ATOM     99  F   UNL A   1      46.307  28.574  44.020  1.00  0.00    -0.200 F 
ATOM    100  C   UNL A   1      46.790  30.884  44.082  1.00  0.00     0.200 A 
ATOM    101  F   UNL A   1      47.230  33.204  44.118  1.00  0.00    -0.200 F 
ATOM    102  F   UNL A   1      47.721  30.679  45.024  1.00  0.00    -0.200 F 
ENDBRANCH  69  92
ENDBRANCH  43  44
ENDBRANCH  36  38
ENDBRANCH  35  36
ENDBRANCH  34  35
ENDBRANCH  33  34
ENDBRANCH  32  33
ENDBRANCH  31  32
ENDBRANCH  30  31
ENDBRANCH   1  30
TORSDOF 22
ENDMDL
MODEL 3
REMARK VINA RESULT:      -9.3      4.077      9.806
REMARK SMILES CC1=C(C(=O)OCCOCCOCCOCCOC(=O)c2ccc(-c3c4nc(c(-c5c(F)c(F)c(F)c(F)c5F)c5ccc([nH]5)c(-c5c(F)c(F)c(F)c(F)c5F)c5nc(c(-c6c(F)c(F)c(F)c(F)c6F)c6ccc3[nH]6)C=C5)C=C4)cc2)N2C(=O)[C@@H](NC(=O)c3ccn(C)n3)[C@H]2SC1
REMARK SMILES IDX 12 1 11 2 10 3 9 4 8 5 7 6 6 7 4 8 5 9 3 10 1 11 2 12 99 13
REMARK SMILES IDX 84 14 98 15 85 16 97 17 86 18 87 19 88 20 89 21 90 23 91 24
REMARK SMILES IDX 92 25 96 26 93 27 94 28 95 29 13 30 14 31 15 32 16 33 17 34
REMARK SMILES IDX 18 35 19 36 20 37 21 38 22 39 83 40 23 41 82 42 24 43 25 44
REMARK SMILES IDX 26 45 76 46 27 47 81 48 75 49 77 50 28 51 80 52 74 53 73 54
REMARK SMILES IDX 29 56 61 57 41 58 60 59 42 60 45 61 59 62 78 63 43 64 44 65
REMARK SMILES IDX 58 67 79 68 46 69 30 70 31 71 39 72 32 73 33 74 37 75 40 76
REMARK SMILES IDX 34 77 35 78 38 79 36 80 62 81 63 82 71 83 64 84 65 85 69 86
REMARK SMILES IDX 72 87 66 88 67 89 70 90 68 91 47 92 48 93 56 94 49 95 50 96
REMARK SMILES IDX 54 97 57 98 51 99 52 100 55 101 53 102
REMARK H PARENT 88 22 77 55 45 66
REMARK Flexibility Score: inf
ROOT
ATOM      1  O   UNL A   1      39.664  21.598  26.956  1.00  0.00    -0.377 OA
ENDROOT
BRANCH   1   2
ATOM      2  C   UNL A   1      39.018  21.379  25.710  1.00  0.00     0.188 C 
BRANCH   2   3
ATOM      3  C   UNL A   1      37.722  22.148  25.398  1.00  0.00     0.188 C 
BRANCH   3   4
ATOM      4  O   UNL A   1      36.576  21.694  26.118  1.00  0.00    -0.376 OA
BRANCH   4   5
ATOM      5  C   UNL A   1      35.414  22.493  25.933  1.00  0.00     0.202 C 
BRANCH   5   6
ATOM      6  C   UNL A   1      34.542  22.548  27.186  1.00  0.00     0.261 C 
BRANCH   6   7
ATOM      7  O   UNL A   1      33.302  21.837  27.050  1.00  0.00    -0.459 OA
BRANCH   7   8
ATOM      8  C   UNL A   1      32.236  22.530  26.597  1.00  0.00     0.355 C 
ATOM      9  O   UNL A   1      31.357  23.023  27.289  1.00  0.00    -0.244 OA
BRANCH   8  10
ATOM     10  C   UNL A   1      32.284  22.654  25.098  1.00  0.00     0.131 C 
ATOM     11  C   UNL A   1      32.160  20.151  24.657  1.00  0.00     0.043 C 
ATOM     12  C   UNL A   1      32.279  21.599  24.244  1.00  0.00    -0.032 C 
ATOM     13  C   UNL A   1      32.422  21.730  22.732  1.00  0.00     0.105 C 
ATOM     14  N   UNL A   1      32.298  23.920  24.599  1.00  0.00    -0.289 N 
ATOM     15  S   UNL A   1      33.055  23.337  22.160  1.00  0.00    -0.129 SA
ATOM     16  C   UNL A   1      32.789  25.125  24.964  1.00  0.00     0.253 C 
ATOM     17  C   UNL A   1      31.941  24.264  23.244  1.00  0.00     0.181 C 
ATOM     18  O   UNL A   1      33.417  25.505  25.920  1.00  0.00    -0.272 OA
ATOM     19  C   UNL A   1      32.318  25.726  23.601  1.00  0.00     0.206 C 
BRANCH  19  20
ATOM     20  N   UNL A   1      33.332  26.397  22.749  1.00  0.00    -0.336 N 
ATOM     21  C   UNL A   1      33.378  27.748  22.466  1.00  0.00     0.272 C 
ATOM     22  H   UNL A   1      34.031  25.829  22.352  1.00  0.00     0.164 HD
ATOM     23  O   UNL A   1      34.183  28.178  21.644  1.00  0.00    -0.267 OA
BRANCH  21  24
ATOM     24  C   UNL A   1      32.432  28.597  23.194  1.00  0.00     0.150 A 
ATOM     25  C   UNL A   1      32.575  29.083  24.521  1.00  0.00     0.056 A 
ATOM     26  N   UNL A   1      31.221  28.909  22.695  1.00  0.00    -0.168 NA
ATOM     27  C   UNL A   1      31.395  29.729  24.799  1.00  0.00     0.109 A 
ATOM     28  N   UNL A   1      30.637  29.626  23.672  1.00  0.00    -0.275 N 
ATOM     29  C   UNL A   1      29.303  30.145  23.490  1.00  0.00     0.173 C 
ENDBRANCH  21  24
ENDBRANCH  19  20
ENDBRANCH   8  10
ENDBRANCH   7   8
ENDBRANCH   6   7
ENDBRANCH   5   6
ENDBRANCH   4   5
ENDBRANCH   3   4
ENDBRANCH   2   3
ENDBRANCH   1   2
BRANCH   1  30
ATOM     30  C   UNL A   1      40.820  20.836  27.282  1.00  0.00     0.188 C 
BRANCH  30  31
ATOM     31  C   UNL A   1      41.513  19.961  26.217  1.00  0.00     0.188 C 
BRANCH  31  32
ATOM     32  O   UNL A   1      42.668  20.541  25.625  1.00  0.00    -0.376 OA
BRANCH  32  33
ATOM     33  C   UNL A   1      42.626  21.940  25.383  1.00  0.00     0.202 C 
BRANCH  33  34
ATOM     34  C   UNL A   1      43.999  22.619  25.413  1.00  0.00     0.261 C 
BRANCH  34  35
ATOM     35  O   UNL A   1      44.013  23.964  24.908  1.00  0.00    -0.460 OA
BRANCH  35  36
ATOM     36  C   UNL A   1      45.175  24.644  25.001  1.00  0.00     0.338 C 
ATOM     37  O   UNL A   1      46.234  24.396  24.456  1.00  0.00    -0.246 OA
BRANCH  36  38
ATOM     38  C   UNL A   1      44.905  25.875  25.763  1.00  0.00     0.060 A 
ATOM     39  C   UNL A   1      44.223  26.925  25.135  1.00  0.00     0.016 A 
ATOM     40  C   UNL A   1      45.327  25.986  27.089  1.00  0.00     0.016 A 
ATOM     41  C   UNL A   1      43.994  28.111  25.829  1.00  0.00     0.010 A 
ATOM     42  C   UNL A   1      45.114  27.180  27.776  1.00  0.00     0.010 A 
ATOM     43  C   UNL A   1      44.478  28.258  27.135  1.00  0.00    -0.014 A 
BRANCH  43  44
ATOM     44  C   UNL A   1      44.513  29.598  27.762  1.00  0.00     0.031 A 
ATOM     45  C   UNL A   1      43.326  30.028  28.576  1.00  0.00     0.074 A 
ATOM     46  C   UNL A   1      45.568  30.415  27.608  1.00  0.00     0.049 A 
ATOM     47  N   UNL A   1      43.100  31.163  29.183  1.00  0.00    -0.248 NA
ATOM     48  C   UNL A   1      42.242  29.040  28.717  1.00  0.00     0.031 C 
ATOM     49  C   UNL A   1      46.784  30.096  26.864  1.00  0.00     0.029 A 
ATOM     50  N   UNL A   1      45.773  31.692  28.065  1.00  0.00    -0.354 N 
ATOM     51  C   UNL A   1      41.855  31.026  29.780  1.00  0.00     0.074 A 
ATOM     52  C   UNL A   1      41.357  29.712  29.435  1.00  0.00     0.031 C 
ATOM     53  C   UNL A   1      47.606  31.159  26.902  1.00  0.00     0.029 A 
ATOM     54  C   UNL A   1      46.962  32.237  27.652  1.00  0.00     0.049 A 
ATOM     55  H   UNL A   1      45.129  32.171  28.635  1.00  0.00     0.167 HD
ATOM     56  C   UNL A   1      41.188  31.914  30.554  1.00  0.00     0.037 A 
ATOM     57  C   UNL A   1      47.458  33.475  27.844  1.00  0.00     0.037 A 
ATOM     58  C   UNL A   1      41.678  33.225  30.883  1.00  0.00     0.049 A 
ATOM     59  C   UNL A   1      46.665  34.473  28.649  1.00  0.00     0.074 A 
ATOM     60  C   UNL A   1      41.087  34.194  31.673  1.00  0.00     0.029 A 
ATOM     61  N   UNL A   1      42.876  33.753  30.425  1.00  0.00    -0.354 N 
ATOM     62  N   UNL A   1      45.505  34.325  29.243  1.00  0.00    -0.248 NA
ATOM     63  C   UNL A   1      47.252  35.811  28.812  1.00  0.00     0.031 C 
ATOM     64  C   UNL A   1      41.907  35.328  31.656  1.00  0.00     0.029 A 
ATOM     65  C   UNL A   1      43.031  35.047  30.895  1.00  0.00     0.049 A 
ATOM     66  H   UNL A   1      43.521  33.279  29.852  1.00  0.00     0.167 HD
ATOM     67  C   UNL A   1      45.238  35.535  29.870  1.00  0.00     0.074 A 
ATOM     68  C   UNL A   1      46.362  36.405  29.593  1.00  0.00     0.031 C 
ATOM     69  C   UNL A   1      44.160  35.895  30.612  1.00  0.00     0.037 A 
BRANCH  56  70
ATOM     70  C   UNL A   1      39.844  31.499  31.070  1.00  0.00     0.064 A 
ATOM     71  C   UNL A   1      39.703  30.831  32.296  1.00  0.00     0.173 A 
ATOM     72  C   UNL A   1      38.684  31.777  30.335  1.00  0.00     0.173 A 
ATOM     73  F   UNL A   1      40.786  30.525  33.028  1.00  0.00    -0.203 F 
ATOM     74  C   UNL A   1      38.449  30.435  32.755  1.00  0.00     0.198 A 
ATOM     75  C   UNL A   1      37.429  31.404  30.809  1.00  0.00     0.198 A 
ATOM     76  F   UNL A   1      38.766  32.411  29.156  1.00  0.00    -0.203 F 
ATOM     77  F   UNL A   1      38.341  29.756  33.906  1.00  0.00    -0.200 F 
ATOM     78  C   UNL A   1      37.314  30.727  32.014  1.00  0.00     0.200 A 
ATOM     79  F   UNL A   1      36.332  31.691  30.095  1.00  0.00    -0.200 F 
ATOM     80  F   UNL A   1      36.107  30.346  32.457  1.00  0.00    -0.200 F 
ENDBRANCH  56  70
BRANCH  57  81
ATOM     81  C   UNL A   1      48.772  33.847  27.259  1.00  0.00     0.064 A 
ATOM     82  C   UNL A   1      48.853  34.480  26.011  1.00  0.00     0.173 A 
ATOM     83  C   UNL A   1      49.971  33.565  27.928  1.00  0.00     0.173 A 
ATOM     84  F   UNL A   1      47.734  34.746  25.321  1.00  0.00    -0.203 F 
ATOM     85  C   UNL A   1      50.086  34.801  25.447  1.00  0.00     0.198 A 
ATOM     86  C   UNL A   1      51.202  33.910  27.374  1.00  0.00     0.198 A 
ATOM     87  F   UNL A   1      49.948  32.957  29.124  1.00  0.00    -0.203 F 
ATOM     88  F   UNL A   1      50.138  35.367  24.232  1.00  0.00    -0.200 F 
ATOM     89  C   UNL A   1      51.259  34.521  26.131  1.00  0.00     0.200 A 
ATOM     90  F   UNL A   1      52.333  33.646  28.042  1.00  0.00    -0.200 F 
ATOM     91  F   UNL A   1      52.444  34.833  25.589  1.00  0.00    -0.200 F 
ENDBRANCH  57  81
BRANCH  69  92
ATOM     92  C   UNL A   1      44.157  37.274  31.202  1.00  0.00     0.064 A 
ATOM     93  C   UNL A   1      43.719  38.387  30.469  1.00  0.00     0.173 A 
ATOM     94  C   UNL A   1      44.548  37.476  32.535  1.00  0.00     0.173 A 
ATOM     95  F   UNL A   1      43.349  38.248  29.187  1.00  0.00    -0.203 F 
ATOM     96  C   UNL A   1      43.693  39.655  31.043  1.00  0.00     0.198 A 
ATOM     97  C   UNL A   1      44.493  38.741  33.113  1.00  0.00     0.198 A 
ATOM     98  F   UNL A   1      44.966  36.443  33.281  1.00  0.00    -0.203 F 
ATOM     99  F   UNL A   1      43.311  40.711  30.312  1.00  0.00    -0.200 F 
ATOM    100  C   UNL A   1      44.072  39.830  32.366  1.00  0.00     0.200 A 
ATOM    101  F   UNL A   1      44.847  38.905  34.396  1.00  0.00    -0.200 F 
ATOM    102  F   UNL A   1      44.038  41.051  32.919  1.00  0.00    -0.200 F 
ENDBRANCH  69  92
ENDBRANCH  43  44
ENDBRANCH  36  38
ENDBRANCH  35  36
ENDBRANCH  34  35
ENDBRANCH  33  34
ENDBRANCH  32  33
ENDBRANCH  31  32
ENDBRANCH  30  31
ENDBRANCH   1  30
TORSDOF 22
ENDMDL
