MODEL 1
REMARK VINA RESULT:     -10.5      0.000      0.000
REMARK SMILES CO[C@H]1C[C@@H](C(=O)OCCOCCOCCOCCOC(=O)c2ccc(-c3c4nc(c(-c5c(F)c(F)c(F)c(F)c5F)c5ccc([nH]5)c(-c5c(F)c(F)c(F)c(F)c5F)c5nc(c(-c6c(F)c(F)c(F)c(F)c6F)c6ccc3[nH]6)C=C5)C=C4)cc2)N(C(=O)Nc2cc(C)cc(F)c2)C1
REMARK SMILES IDX 14 1 13 2 12 3 11 4 10 5 9 6 8 7 6 8 7 9 5 10 3 11 4 12
REMARK SMILES IDX 98 13 86 14 2 15 1 16 87 17 88 18 89 19 90 21 91 22 97 23
REMARK SMILES IDX 92 24 95 25 93 26 94 27 96 28 15 29 16 30 17 31 18 32 19 33
REMARK SMILES IDX 20 34 21 35 22 36 23 37 24 38 85 39 25 40 84 41 26 42 27 43
REMARK SMILES IDX 28 44 78 45 29 46 83 47 77 48 79 49 30 50 82 51 76 52 75 53
REMARK SMILES IDX 31 55 63 56 43 57 62 58 44 59 47 60 61 61 80 62 45 63 46 64
REMARK SMILES IDX 60 66 81 67 48 68 32 69 33 70 41 71 34 72 35 73 39 74 42 75
REMARK SMILES IDX 36 76 37 77 40 78 38 79 64 80 65 81 73 82 66 83 67 84 71 85
REMARK SMILES IDX 74 86 68 87 69 88 72 89 70 90 49 91 50 92 58 93 51 94 52 95
REMARK SMILES IDX 56 96 59 97 53 98 54 99 57 100 55 101
REMARK H PARENT 89 20 79 54 47 65
REMARK Flexibility Score: inf
ROOT
ATOM      1  O   UNL A   1      32.860  22.634  23.394  1.00  0.00    -0.377 OA
ENDROOT
BRANCH   1   2
ATOM      2  C   UNL A   1      34.174  22.958  22.935  1.00  0.00     0.188 C 
BRANCH   2   3
ATOM      3  C   UNL A   1      34.680  24.326  23.456  1.00  0.00     0.188 C 
BRANCH   3   4
ATOM      4  O   UNL A   1      34.542  24.434  24.871  1.00  0.00    -0.376 OA
BRANCH   4   5
ATOM      5  C   UNL A   1      34.000  25.683  25.323  1.00  0.00     0.202 C 
BRANCH   5   6
ATOM      6  C   UNL A   1      32.690  25.467  26.122  1.00  0.00     0.261 C 
BRANCH   6   7
ATOM      7  O   UNL A   1      31.610  25.064  25.257  1.00  0.00    -0.462 OA
BRANCH   7   8
ATOM      8  C   UNL A   1      30.514  25.834  25.455  1.00  0.00     0.329 C 
ATOM      9  O   UNL A   1      29.883  25.791  26.512  1.00  0.00    -0.250 OA
BRANCH   8  10
ATOM     10  C   UNL A   1      30.376  26.998  24.441  1.00  0.00     0.199 C 
ATOM     11  C   UNL A   1      31.448  27.085  22.235  1.00  0.00     0.140 C 
ATOM     12  C   UNL A   1      30.390  26.355  23.039  1.00  0.00     0.071 C 
ATOM     13  C   UNL A   1      31.772  28.352  23.013  1.00  0.00     0.154 C 
ATOM     14  N   UNL A   1      31.240  28.194  24.357  1.00  0.00    -0.308 N 
BRANCH  11  15
ATOM     15  O   UNL A   1      32.583  26.292  21.891  1.00  0.00    -0.380 OA
ATOM     16  C   UNL A   1      32.527  25.577  20.667  1.00  0.00     0.195 C 
ENDBRANCH  11  15
BRANCH  14  17
ATOM     17  C   UNL A   1      31.340  29.312  25.168  1.00  0.00     0.322 C 
ATOM     18  O   UNL A   1      30.654  30.317  24.966  1.00  0.00    -0.248 OA
ATOM     19  N   UNL A   1      32.077  29.210  26.308  1.00  0.00    -0.308 N 
ATOM     20  H   UNL A   1      31.709  28.636  27.018  1.00  0.00     0.171 HD
BRANCH  19  21
ATOM     21  C   UNL A   1      33.309  29.836  26.581  1.00  0.00     0.046 A 
ATOM     22  C   UNL A   1      33.305  31.204  26.899  1.00  0.00     0.029 A 
ATOM     23  C   UNL A   1      34.446  29.089  26.818  1.00  0.00     0.065 A 
ATOM     24  C   UNL A   1      34.270  31.758  27.743  1.00  0.00    -0.046 A 
ATOM     25  C   UNL A   1      35.439  29.650  27.611  1.00  0.00     0.125 A 
ATOM     26  C   UNL A   1      34.100  33.138  28.308  1.00  0.00     0.044 C 
ATOM     27  C   UNL A   1      35.338  30.950  28.114  1.00  0.00     0.042 A 
ATOM     28  F   UNL A   1      36.437  28.869  28.043  1.00  0.00    -0.207 F 
ENDBRANCH  19  21
ENDBRANCH  14  17
ENDBRANCH   8  10
ENDBRANCH   7   8
ENDBRANCH   6   7
ENDBRANCH   5   6
ENDBRANCH   4   5
ENDBRANCH   3   4
ENDBRANCH   2   3
ENDBRANCH   1   2
BRANCH   1  29
ATOM     29  C   UNL A   1      32.653  21.285  23.822  1.00  0.00     0.188 C 
BRANCH  29  30
ATOM     30  C   UNL A   1      33.135  21.030  25.258  1.00  0.00     0.188 C 
BRANCH  30  31
ATOM     31  O   UNL A   1      34.176  20.084  25.444  1.00  0.00    -0.376 OA
BRANCH  31  32
ATOM     32  C   UNL A   1      35.475  20.442  25.001  1.00  0.00     0.202 C 
BRANCH  32  33
ATOM     33  C   UNL A   1      36.223  21.579  25.725  1.00  0.00     0.261 C 
BRANCH  33  34
ATOM     34  O   UNL A   1      37.461  22.020  25.137  1.00  0.00    -0.460 OA
BRANCH  34  35
ATOM     35  C   UNL A   1      38.582  21.605  25.790  1.00  0.00     0.338 C 
ATOM     36  O   UNL A   1      39.076  20.496  25.752  1.00  0.00    -0.246 OA
BRANCH  35  37
ATOM     37  C   UNL A   1      39.218  22.732  26.520  1.00  0.00     0.060 A 
ATOM     38  C   UNL A   1      38.739  24.031  26.302  1.00  0.00     0.016 A 
ATOM     39  C   UNL A   1      40.358  22.538  27.301  1.00  0.00     0.016 A 
ATOM     40  C   UNL A   1      39.409  25.141  26.843  1.00  0.00     0.010 A 
ATOM     41  C   UNL A   1      41.036  23.650  27.827  1.00  0.00     0.010 A 
ATOM     42  C   UNL A   1      40.588  24.963  27.580  1.00  0.00    -0.014 A 
BRANCH  42  43
ATOM     43  C   UNL A   1      41.471  26.115  27.937  1.00  0.00     0.031 A 
ATOM     44  C   UNL A   1      40.891  27.238  28.761  1.00  0.00     0.074 A 
ATOM     45  C   UNL A   1      42.747  26.212  27.520  1.00  0.00     0.049 A 
ATOM     46  N   UNL A   1      41.376  28.428  29.020  1.00  0.00    -0.248 NA
ATOM     47  C   UNL A   1      39.580  26.979  29.372  1.00  0.00     0.031 C 
ATOM     48  C   UNL A   1      43.482  25.188  26.787  1.00  0.00     0.029 A 
ATOM     49  N   UNL A   1      43.643  27.254  27.634  1.00  0.00    -0.354 N 
ATOM     50  C   UNL A   1      40.419  29.068  29.799  1.00  0.00     0.074 A 
ATOM     51  C   UNL A   1      39.322  28.137  29.962  1.00  0.00     0.031 C 
ATOM     52  C   UNL A   1      44.705  25.662  26.484  1.00  0.00     0.029 A 
ATOM     53  C   UNL A   1      44.821  27.044  26.956  1.00  0.00     0.049 A 
ATOM     54  H   UNL A   1      43.458  28.070  28.151  1.00  0.00     0.167 HD
ATOM     55  C   UNL A   1      40.444  30.316  30.326  1.00  0.00     0.037 A 
ATOM     56  C   UNL A   1      45.850  27.880  26.703  1.00  0.00     0.037 A 
ATOM     57  C   UNL A   1      41.531  31.251  30.173  1.00  0.00     0.049 A 
ATOM     58  C   UNL A   1      45.811  29.307  27.205  1.00  0.00     0.074 A 
ATOM     59  C   UNL A   1      41.645  32.532  30.686  1.00  0.00     0.029 A 
ATOM     60  N   UNL A   1      42.685  31.010  29.445  1.00  0.00    -0.354 N 
ATOM     61  N   UNL A   1      44.903  29.909  27.934  1.00  0.00    -0.248 NA
ATOM     62  C   UNL A   1      46.942  30.175  26.834  1.00  0.00     0.031 C 
ATOM     63  C   UNL A   1      42.839  33.088  30.218  1.00  0.00     0.029 A 
ATOM     64  C   UNL A   1      43.500  32.132  29.466  1.00  0.00     0.049 A 
ATOM     65  H   UNL A   1      42.896  30.167  28.982  1.00  0.00     0.167 HD
ATOM     66  C   UNL A   1      45.362  31.208  28.128  1.00  0.00     0.074 A 
ATOM     67  C   UNL A   1      46.639  31.306  27.457  1.00  0.00     0.031 C 
ATOM     68  C   UNL A   1      44.775  32.228  28.801  1.00  0.00     0.037 A 
BRANCH  55  69
ATOM     69  C   UNL A   1      39.232  30.771  31.089  1.00  0.00     0.064 A 
ATOM     70  C   UNL A   1      38.222  31.536  30.490  1.00  0.00     0.173 A 
ATOM     71  C   UNL A   1      39.066  30.401  32.434  1.00  0.00     0.173 A 
ATOM     72  F   UNL A   1      38.336  31.925  29.212  1.00  0.00    -0.203 F 
ATOM     73  C   UNL A   1      37.104  31.941  31.218  1.00  0.00     0.198 A 
ATOM     74  C   UNL A   1      37.933  30.780  33.148  1.00  0.00     0.198 A 
ATOM     75  F   UNL A   1      39.999  29.662  33.053  1.00  0.00    -0.203 F 
ATOM     76  F   UNL A   1      36.177  32.716  30.639  1.00  0.00    -0.200 F 
ATOM     77  C   UNL A   1      36.958  31.556  32.542  1.00  0.00     0.200 A 
ATOM     78  F   UNL A   1      37.786  30.394  34.423  1.00  0.00    -0.200 F 
ATOM     79  F   UNL A   1      35.879  31.942  33.238  1.00  0.00    -0.200 F 
ENDBRANCH  55  69
BRANCH  56  80
ATOM     80  C   UNL A   1      47.006  27.419  25.882  1.00  0.00     0.064 A 
ATOM     81  C   UNL A   1      48.122  26.814  26.478  1.00  0.00     0.173 A 
ATOM     82  C   UNL A   1      47.042  27.624  24.494  1.00  0.00     0.173 A 
ATOM     83  F   UNL A   1      48.158  26.639  27.807  1.00  0.00    -0.203 F 
ATOM     84  C   UNL A   1      49.234  26.447  25.721  1.00  0.00     0.198 A 
ATOM     85  C   UNL A   1      48.141  27.226  23.733  1.00  0.00     0.198 A 
ATOM     86  F   UNL A   1      46.012  28.220  23.876  1.00  0.00    -0.203 F 
ATOM     87  F   UNL A   1      50.312  25.930  26.326  1.00  0.00    -0.200 F 
ATOM     88  C   UNL A   1      49.240  26.646  24.349  1.00  0.00     0.200 A 
ATOM     89  F   UNL A   1      48.142  27.421  22.408  1.00  0.00    -0.200 F 
ATOM     90  F   UNL A   1      50.311  26.296  23.623  1.00  0.00    -0.200 F 
ENDBRANCH  56  80
BRANCH  68  91
ATOM     91  C   UNL A   1      45.513  33.537  28.881  1.00  0.00     0.064 A 
ATOM     92  C   UNL A   1      45.280  34.575  27.966  1.00  0.00     0.173 A 
ATOM     93  C   UNL A   1      46.433  33.777  29.916  1.00  0.00     0.173 A 
ATOM     94  F   UNL A   1      44.421  34.398  26.950  1.00  0.00    -0.203 F 
ATOM     95  C   UNL A   1      45.954  35.791  28.069  1.00  0.00     0.198 A 
ATOM     96  C   UNL A   1      47.081  35.004  30.035  1.00  0.00     0.198 A 
ATOM     97  F   UNL A   1      46.689  32.824  30.826  1.00  0.00    -0.203 F 
ATOM     98  F   UNL A   1      45.748  36.749  27.156  1.00  0.00    -0.200 F 
ATOM     99  C   UNL A   1      46.848  36.006  29.107  1.00  0.00     0.200 A 
ATOM    100  F   UNL A   1      47.931  35.216  31.050  1.00  0.00    -0.200 F 
ATOM    101  F   UNL A   1      47.488  37.180  29.211  1.00  0.00    -0.200 F 
ENDBRANCH  68  91
ENDBRANCH  42  43
ENDBRANCH  35  37
ENDBRANCH  34  35
ENDBRANCH  33  34
ENDBRANCH  32  33
ENDBRANCH  31  32
ENDBRANCH  30  31
ENDBRANCH  29  30
ENDBRANCH   1  29
TORSDOF 23
ENDMDL
MODEL 2
REMARK VINA RESULT:      -9.2      2.317      7.305
REMARK SMILES CO[C@H]1C[C@@H](C(=O)OCCOCCOCCOCCOC(=O)c2ccc(-c3c4nc(c(-c5c(F)c(F)c(F)c(F)c5F)c5ccc([nH]5)c(-c5c(F)c(F)c(F)c(F)c5F)c5nc(c(-c6c(F)c(F)c(F)c(F)c6F)c6ccc3[nH]6)C=C5)C=C4)cc2)N(C(=O)Nc2cc(C)cc(F)c2)C1
REMARK SMILES IDX 14 1 13 2 12 3 11 4 10 5 9 6 8 7 6 8 7 9 5 10 3 11 4 12
REMARK SMILES IDX 98 13 86 14 2 15 1 16 87 17 88 18 89 19 90 21 91 22 97 23
REMARK SMILES IDX 92 24 95 25 93 26 94 27 96 28 15 29 16 30 17 31 18 32 19 33
REMARK SMILES IDX 20 34 21 35 22 36 23 37 24 38 85 39 25 40 84 41 26 42 27 43
REMARK SMILES IDX 28 44 78 45 29 46 83 47 77 48 79 49 30 50 82 51 76 52 75 53
REMARK SMILES IDX 31 55 63 56 43 57 62 58 44 59 47 60 61 61 80 62 45 63 46 64
REMARK SMILES IDX 60 66 81 67 48 68 32 69 33 70 41 71 34 72 35 73 39 74 42 75
REMARK SMILES IDX 36 76 37 77 40 78 38 79 64 80 65 81 73 82 66 83 67 84 71 85
REMARK SMILES IDX 74 86 68 87 69 88 72 89 70 90 49 91 50 92 58 93 51 94 52 95
REMARK SMILES IDX 56 96 59 97 53 98 54 99 57 100 55 101
REMARK H PARENT 89 20 79 54 47 65
REMARK Flexibility Score: inf
ROOT
ATOM      1  O   UNL A   1      33.400  21.895  23.517  1.00  0.00    -0.377 OA
ENDROOT
BRANCH   1   2
ATOM      2  C   UNL A   1      34.547  22.711  23.270  1.00  0.00     0.188 C 
BRANCH   2   3
ATOM      3  C   UNL A   1      34.206  24.219  23.160  1.00  0.00     0.188 C 
BRANCH   3   4
ATOM      4  O   UNL A   1      34.780  24.968  24.229  1.00  0.00    -0.376 OA
BRANCH   4   5
ATOM      5  C   UNL A   1      33.916  25.967  24.788  1.00  0.00     0.202 C 
BRANCH   5   6
ATOM      6  C   UNL A   1      33.387  25.533  26.179  1.00  0.00     0.261 C 
BRANCH   6   7
ATOM      7  O   UNL A   1      31.963  25.316  26.152  1.00  0.00    -0.462 OA
BRANCH   7   8
ATOM      8  C   UNL A   1      31.292  26.443  26.488  1.00  0.00     0.329 C 
ATOM      9  O   UNL A   1      31.455  26.983  27.584  1.00  0.00    -0.250 OA
BRANCH   8  10
ATOM     10  C   UNL A   1      30.645  27.169  25.281  1.00  0.00     0.199 C 
ATOM     11  C   UNL A   1      30.199  26.152  23.093  1.00  0.00     0.140 C 
ATOM     12  C   UNL A   1      29.786  26.116  24.552  1.00  0.00     0.071 C 
ATOM     13  C   UNL A   1      30.993  27.436  22.910  1.00  0.00     0.154 C 
ATOM     14  N   UNL A   1      31.356  27.925  24.230  1.00  0.00    -0.308 N 
BRANCH  11  15
ATOM     15  O   UNL A   1      30.859  24.974  22.635  1.00  0.00    -0.380 OA
ATOM     16  C   UNL A   1      30.621  23.776  23.356  1.00  0.00     0.195 C 
ENDBRANCH  11  15
BRANCH  14  17
ATOM     17  C   UNL A   1      31.982  29.161  24.252  1.00  0.00     0.322 C 
ATOM     18  O   UNL A   1      32.942  29.409  23.520  1.00  0.00    -0.248 OA
ATOM     19  N   UNL A   1      31.396  30.160  24.967  1.00  0.00    -0.308 N 
ATOM     20  H   UNL A   1      30.548  30.514  24.613  1.00  0.00     0.171 HD
BRANCH  19  21
ATOM     21  C   UNL A   1      31.872  30.743  26.158  1.00  0.00     0.046 A 
ATOM     22  C   UNL A   1      32.953  30.132  26.813  1.00  0.00     0.029 A 
ATOM     23  C   UNL A   1      31.495  32.022  26.520  1.00  0.00     0.065 A 
ATOM     24  C   UNL A   1      33.861  30.877  27.569  1.00  0.00    -0.046 A 
ATOM     25  C   UNL A   1      32.364  32.754  27.318  1.00  0.00     0.125 A 
ATOM     26  C   UNL A   1      35.161  30.279  28.023  1.00  0.00     0.044 C 
ATOM     27  C   UNL A   1      33.560  32.214  27.800  1.00  0.00     0.042 A 
ATOM     28  F   UNL A   1      32.134  34.062  27.491  1.00  0.00    -0.207 F 
ENDBRANCH  19  21
ENDBRANCH  14  17
ENDBRANCH   8  10
ENDBRANCH   7   8
ENDBRANCH   6   7
ENDBRANCH   5   6
ENDBRANCH   4   5
ENDBRANCH   3   4
ENDBRANCH   2   3
ENDBRANCH   1   2
BRANCH   1  29
ATOM     29  C   UNL A   1      33.465  21.044  24.665  1.00  0.00     0.188 C 
BRANCH  29  30
ATOM     30  C   UNL A   1      33.502  21.822  25.989  1.00  0.00     0.188 C 
BRANCH  30  31
ATOM     31  O   UNL A   1      34.683  21.734  26.770  1.00  0.00    -0.376 OA
BRANCH  31  32
ATOM     32  C   UNL A   1      35.923  21.923  26.109  1.00  0.00     0.202 C 
BRANCH  32  33
ATOM     33  C   UNL A   1      36.716  23.219  26.367  1.00  0.00     0.261 C 
BRANCH  33  34
ATOM     34  O   UNL A   1      37.976  23.357  25.684  1.00  0.00    -0.460 OA
BRANCH  34  35
ATOM     35  C   UNL A   1      39.066  22.991  26.416  1.00  0.00     0.338 C 
ATOM     36  O   UNL A   1      39.420  21.858  26.674  1.00  0.00    -0.246 OA
BRANCH  35  37
ATOM     37  C   UNL A   1      39.863  24.181  26.810  1.00  0.00     0.060 A 
ATOM     38  C   UNL A   1      40.174  24.365  28.165  1.00  0.00     0.016 A 
ATOM     39  C   UNL A   1      40.185  25.175  25.885  1.00  0.00     0.016 A 
ATOM     40  C   UNL A   1      40.784  25.552  28.603  1.00  0.00     0.010 A 
ATOM     41  C   UNL A   1      40.780  26.368  26.329  1.00  0.00     0.010 A 
ATOM     42  C   UNL A   1      41.058  26.583  27.694  1.00  0.00    -0.014 A 
BRANCH  42  43
ATOM     43  C   UNL A   1      41.450  27.950  28.153  1.00  0.00     0.031 A 
ATOM     44  C   UNL A   1      42.918  28.274  28.278  1.00  0.00     0.074 A 
ATOM     45  C   UNL A   1      40.550  28.888  28.499  1.00  0.00     0.049 A 
ATOM     46  N   UNL A   1      43.508  29.297  28.848  1.00  0.00    -0.248 NA
ATOM     47  C   UNL A   1      43.846  27.303  27.680  1.00  0.00     0.031 C 
ATOM     48  C   UNL A   1      39.102  28.768  28.365  1.00  0.00     0.029 A 
ATOM     49  N   UNL A   1      40.734  30.130  29.070  1.00  0.00    -0.354 N 
ATOM     50  C   UNL A   1      44.872  29.080  28.701  1.00  0.00     0.074 A 
ATOM     51  C   UNL A   1      45.023  27.823  27.997  1.00  0.00     0.031 C 
ATOM     52  C   UNL A   1      38.525  29.873  28.872  1.00  0.00     0.029 A 
ATOM     53  C   UNL A   1      39.559  30.757  29.415  1.00  0.00     0.049 A 
ATOM     54  H   UNL A   1      41.620  30.530  29.217  1.00  0.00     0.167 HD
ATOM     55  C   UNL A   1      45.908  29.850  29.117  1.00  0.00     0.037 A 
ATOM     56  C   UNL A   1      39.341  31.883  30.126  1.00  0.00     0.037 A 
ATOM     57  C   UNL A   1      45.771  31.103  29.815  1.00  0.00     0.049 A 
ATOM     58  C   UNL A   1      40.508  32.671  30.680  1.00  0.00     0.074 A 
ATOM     59  C   UNL A   1      46.768  31.955  30.260  1.00  0.00     0.029 A 
ATOM     60  N   UNL A   1      44.564  31.678  30.179  1.00  0.00    -0.354 N 
ATOM     61  N   UNL A   1      41.795  32.459  30.545  1.00  0.00    -0.248 NA
ATOM     62  C   UNL A   1      40.187  33.853  31.498  1.00  0.00     0.031 C 
ATOM     63  C   UNL A   1      46.167  33.014  30.947  1.00  0.00     0.029 A 
ATOM     64  C   UNL A   1      44.793  32.856  30.874  1.00  0.00     0.049 A 
ATOM     65  H   UNL A   1      43.676  31.307  29.973  1.00  0.00     0.167 HD
ATOM     66  C   UNL A   1      42.430  33.487  31.235  1.00  0.00     0.074 A 
ATOM     67  C   UNL A   1      41.390  34.336  31.773  1.00  0.00     0.031 C 
ATOM     68  C   UNL A   1      43.757  33.705  31.407  1.00  0.00     0.037 A 
BRANCH  55  69
ATOM     69  C   UNL A   1      47.298  29.335  28.867  1.00  0.00     0.064 A 
ATOM     70  C   UNL A   1      48.039  29.717  27.740  1.00  0.00     0.173 A 
ATOM     71  C   UNL A   1      47.908  28.474  29.793  1.00  0.00     0.173 A 
ATOM     72  F   UNL A   1      47.498  30.529  26.819  1.00  0.00    -0.203 F 
ATOM     73  C   UNL A   1      49.328  29.230  27.533  1.00  0.00     0.198 A 
ATOM     74  C   UNL A   1      49.208  28.017  29.600  1.00  0.00     0.198 A 
ATOM     75  F   UNL A   1      47.247  28.085  30.894  1.00  0.00    -0.203 F 
ATOM     76  F   UNL A   1      49.998  29.567  26.422  1.00  0.00    -0.200 F 
ATOM     77  C   UNL A   1      49.914  28.388  28.466  1.00  0.00     0.200 A 
ATOM     78  F   UNL A   1      49.778  27.215  30.511  1.00  0.00    -0.200 F 
ATOM     79  F   UNL A   1      51.156  27.926  28.268  1.00  0.00    -0.200 F 
ENDBRANCH  55  69
BRANCH  56  80
ATOM     80  C   UNL A   1      37.947  32.328  30.416  1.00  0.00     0.064 A 
ATOM     81  C   UNL A   1      37.277  33.214  29.560  1.00  0.00     0.173 A 
ATOM     82  C   UNL A   1      37.280  31.922  31.582  1.00  0.00     0.173 A 
ATOM     83  F   UNL A   1      37.888  33.670  28.457  1.00  0.00    -0.203 F 
ATOM     84  C   UNL A   1      36.002  33.687  29.866  1.00  0.00     0.198 A 
ATOM     85  C   UNL A   1      35.992  32.369  31.870  1.00  0.00     0.198 A 
ATOM     86  F   UNL A   1      37.884  31.095  32.448  1.00  0.00    -0.203 F 
ATOM     87  F   UNL A   1      35.411  34.582  29.062  1.00  0.00    -0.200 F 
ATOM     88  C   UNL A   1      35.357  33.259  31.016  1.00  0.00     0.200 A 
ATOM     89  F   UNL A   1      35.373  31.953  32.983  1.00  0.00    -0.200 F 
ATOM     90  F   UNL A   1      34.132  33.717  31.311  1.00  0.00    -0.200 F 
ENDBRANCH  56  80
BRANCH  68  91
ATOM     91  C   UNL A   1      44.176  34.925  32.183  1.00  0.00     0.064 A 
ATOM     92  C   UNL A   1      44.246  36.193  31.586  1.00  0.00     0.173 A 
ATOM     93  C   UNL A   1      44.467  34.834  33.554  1.00  0.00     0.173 A 
ATOM     94  F   UNL A   1      43.991  36.338  30.277  1.00  0.00    -0.203 F 
ATOM     95  C   UNL A   1      44.612  37.317  32.326  1.00  0.00     0.198 A 
ATOM     96  C   UNL A   1      44.801  35.963  34.297  1.00  0.00     0.198 A 
ATOM     97  F   UNL A   1      44.407  33.648  34.180  1.00  0.00    -0.203 F 
ATOM     98  F   UNL A   1      44.716  38.509  31.723  1.00  0.00    -0.200 F 
ATOM     99  C   UNL A   1      44.882  37.202  33.681  1.00  0.00     0.200 A 
ATOM    100  F   UNL A   1      45.044  35.853  35.611  1.00  0.00    -0.200 F 
ATOM    101  F   UNL A   1      45.224  38.286  34.393  1.00  0.00    -0.200 F 
ENDBRANCH  68  91
ENDBRANCH  42  43
ENDBRANCH  35  37
ENDBRANCH  34  35
ENDBRANCH  33  34
ENDBRANCH  32  33
ENDBRANCH  31  32
ENDBRANCH  30  31
ENDBRANCH  29  30
ENDBRANCH   1  29
TORSDOF 23
ENDMDL
MODEL 3
REMARK VINA RESULT:      -8.5      2.488      7.343
REMARK SMILES CO[C@H]1C[C@@H](C(=O)OCCOCCOCCOCCOC(=O)c2ccc(-c3c4nc(c(-c5c(F)c(F)c(F)c(F)c5F)c5ccc([nH]5)c(-c5c(F)c(F)c(F)c(F)c5F)c5nc(c(-c6c(F)c(F)c(F)c(F)c6F)c6ccc3[nH]6)C=C5)C=C4)cc2)N(C(=O)Nc2cc(C)cc(F)c2)C1
REMARK SMILES IDX 14 1 13 2 12 3 11 4 10 5 9 6 8 7 6 8 7 9 5 10 3 11 4 12
REMARK SMILES IDX 98 13 86 14 2 15 1 16 87 17 88 18 89 19 90 21 91 22 97 23
REMARK SMILES IDX 92 24 95 25 93 26 94 27 96 28 15 29 16 30 17 31 18 32 19 33
REMARK SMILES IDX 20 34 21 35 22 36 23 37 24 38 85 39 25 40 84 41 26 42 27 43
REMARK SMILES IDX 28 44 78 45 29 46 83 47 77 48 79 49 30 50 82 51 76 52 75 53
REMARK SMILES IDX 31 55 63 56 43 57 62 58 44 59 47 60 61 61 80 62 45 63 46 64
REMARK SMILES IDX 60 66 81 67 48 68 32 69 33 70 41 71 34 72 35 73 39 74 42 75
REMARK SMILES IDX 36 76 37 77 40 78 38 79 64 80 65 81 73 82 66 83 67 84 71 85
REMARK SMILES IDX 74 86 68 87 69 88 72 89 70 90 49 91 50 92 58 93 51 94 52 95
REMARK SMILES IDX 56 96 59 97 53 98 54 99 57 100 55 101
REMARK H PARENT 89 20 79 54 47 65
REMARK Flexibility Score: inf
ROOT
ATOM      1  O   UNL A   1      33.235  21.875  23.334  1.00  0.00    -0.377 OA
ENDROOT
BRANCH   1   2
ATOM      2  C   UNL A   1      34.495  22.543  23.245  1.00  0.00     0.188 C 
BRANCH   2   3
ATOM      3  C   UNL A   1      34.359  24.067  23.002  1.00  0.00     0.188 C 
BRANCH   3   4
ATOM      4  O   UNL A   1      34.772  24.821  24.139  1.00  0.00    -0.376 OA
BRANCH   4   5
ATOM      5  C   UNL A   1      33.815  25.789  24.592  1.00  0.00     0.202 C 
BRANCH   5   6
ATOM      6  C   UNL A   1      33.441  25.553  26.076  1.00  0.00     0.261 C 
BRANCH   6   7
ATOM      7  O   UNL A   1      32.020  25.373  26.235  1.00  0.00    -0.462 OA
BRANCH   7   8
ATOM      8  C   UNL A   1      31.419  26.534  26.589  1.00  0.00     0.329 C 
ATOM      9  O   UNL A   1      31.659  27.076  27.670  1.00  0.00    -0.250 OA
BRANCH   8  10
ATOM     10  C   UNL A   1      30.749  27.278  25.406  1.00  0.00     0.199 C 
ATOM     11  C   UNL A   1      30.252  26.291  23.215  1.00  0.00     0.140 C 
ATOM     12  C   UNL A   1      29.871  26.237  24.682  1.00  0.00     0.071 C 
ATOM     13  C   UNL A   1      31.047  27.575  23.031  1.00  0.00     0.154 C 
ATOM     14  N   UNL A   1      31.440  28.045  24.349  1.00  0.00    -0.308 N 
BRANCH  11  15
ATOM     15  O   UNL A   1      30.898  25.116  22.728  1.00  0.00    -0.380 OA
ATOM     16  C   UNL A   1      30.411  23.868  23.192  1.00  0.00     0.195 C 
ENDBRANCH  11  15
BRANCH  14  17
ATOM     17  C   UNL A   1      32.071  29.279  24.374  1.00  0.00     0.322 C 
ATOM     18  O   UNL A   1      32.994  29.544  23.601  1.00  0.00    -0.248 OA
ATOM     19  N   UNL A   1      31.525  30.258  25.144  1.00  0.00    -0.308 N 
ATOM     20  H   UNL A   1      30.661  30.624  24.844  1.00  0.00     0.171 HD
BRANCH  19  21
ATOM     21  C   UNL A   1      32.062  30.807  26.326  1.00  0.00     0.046 A 
ATOM     22  C   UNL A   1      33.139  30.146  26.938  1.00  0.00     0.029 A 
ATOM     23  C   UNL A   1      31.748  32.095  26.715  1.00  0.00     0.065 A 
ATOM     24  C   UNL A   1      34.100  30.845  27.672  1.00  0.00    -0.046 A 
ATOM     25  C   UNL A   1      32.671  32.782  27.492  1.00  0.00     0.125 A 
ATOM     26  C   UNL A   1      35.390  30.191  28.075  1.00  0.00     0.044 C 
ATOM     27  C   UNL A   1      33.860  32.190  27.928  1.00  0.00     0.042 A 
ATOM     28  F   UNL A   1      32.498  34.096  27.687  1.00  0.00    -0.207 F 
ENDBRANCH  19  21
ENDBRANCH  14  17
ENDBRANCH   8  10
ENDBRANCH   7   8
ENDBRANCH   6   7
ENDBRANCH   5   6
ENDBRANCH   4   5
ENDBRANCH   3   4
ENDBRANCH   2   3
ENDBRANCH   1   2
BRANCH   1  29
ATOM     29  C   UNL A   1      32.996  21.134  24.533  1.00  0.00     0.188 C 
BRANCH  29  30
ATOM     30  C   UNL A   1      33.072  21.999  25.800  1.00  0.00     0.188 C 
BRANCH  30  31
ATOM     31  O   UNL A   1      34.155  21.771  26.688  1.00  0.00    -0.376 OA
BRANCH  31  32
ATOM     32  C   UNL A   1      35.461  21.735  26.135  1.00  0.00     0.202 C 
BRANCH  32  33
ATOM     33  C   UNL A   1      36.471  22.827  26.537  1.00  0.00     0.261 C 
BRANCH  33  34
ATOM     34  O   UNL A   1      37.587  23.038  25.652  1.00  0.00    -0.460 OA
BRANCH  34  35
ATOM     35  C   UNL A   1      38.775  22.547  26.105  1.00  0.00     0.338 C 
ATOM     36  O   UNL A   1      39.133  21.386  26.094  1.00  0.00    -0.246 OA
BRANCH  35  37
ATOM     37  C   UNL A   1      39.666  23.648  26.555  1.00  0.00     0.060 A 
ATOM     38  C   UNL A   1      40.298  23.536  27.801  1.00  0.00     0.016 A 
ATOM     39  C   UNL A   1      39.773  24.835  25.829  1.00  0.00     0.016 A 
ATOM     40  C   UNL A   1      41.017  24.617  28.337  1.00  0.00     0.010 A 
ATOM     41  C   UNL A   1      40.479  25.920  26.375  1.00  0.00     0.010 A 
ATOM     42  C   UNL A   1      41.082  25.835  27.645  1.00  0.00    -0.014 A 
BRANCH  42  43
ATOM     43  C   UNL A   1      41.599  27.078  28.294  1.00  0.00     0.031 A 
ATOM     44  C   UNL A   1      43.064  27.153  28.644  1.00  0.00     0.074 A 
ATOM     45  C   UNL A   1      40.804  28.115  28.616  1.00  0.00     0.049 A 
ATOM     46  N   UNL A   1      43.707  28.018  29.390  1.00  0.00    -0.248 NA
ATOM     47  C   UNL A   1      43.917  26.101  28.073  1.00  0.00     0.031 C 
ATOM     48  C   UNL A   1      39.389  28.238  28.282  1.00  0.00     0.029 A 
ATOM     49  N   UNL A   1      41.081  29.259  29.335  1.00  0.00    -0.354 N 
ATOM     50  C   UNL A   1      45.032  27.599  29.401  1.00  0.00     0.074 A 
ATOM     51  C   UNL A   1      45.099  26.398  28.595  1.00  0.00     0.031 C 
ATOM     52  C   UNL A   1      38.911  29.375  28.823  1.00  0.00     0.029 A 
ATOM     53  C   UNL A   1      39.973  30.034  29.587  1.00  0.00     0.049 A 
ATOM     54  H   UNL A   1      41.986  29.499  29.638  1.00  0.00     0.167 HD
ATOM     55  C   UNL A   1      46.097  28.156  30.028  1.00  0.00     0.037 A 
ATOM     56  C   UNL A   1      39.820  31.117  30.378  1.00  0.00     0.037 A 
ATOM     57  C   UNL A   1      46.045  29.352  30.831  1.00  0.00     0.049 A 
ATOM     58  C   UNL A   1      40.997  31.659  31.160  1.00  0.00     0.074 A 
ATOM     59  C   UNL A   1      47.079  29.994  31.490  1.00  0.00     0.029 A 
ATOM     60  N   UNL A   1      44.895  30.080  31.092  1.00  0.00    -0.354 N 
ATOM     61  N   UNL A   1      42.245  31.258  31.173  1.00  0.00    -0.248 NA
ATOM     62  C   UNL A   1      40.736  32.804  32.049  1.00  0.00     0.031 C 
ATOM     63  C   UNL A   1      46.545  31.074  32.201  1.00  0.00     0.029 A 
ATOM     64  C   UNL A   1      45.189  31.143  31.932  1.00  0.00     0.049 A 
ATOM     65  H   UNL A   1      44.001  29.873  30.734  1.00  0.00     0.167 HD
ATOM     66  C   UNL A   1      42.916  32.109  32.045  1.00  0.00     0.074 A 
ATOM     67  C   UNL A   1      41.944  33.064  32.529  1.00  0.00     0.031 C 
ATOM     68  C   UNL A   1      44.221  32.099  32.411  1.00  0.00     0.037 A 
BRANCH  55  69
ATOM     69  C   UNL A   1      47.418  27.450  29.910  1.00  0.00     0.064 A 
ATOM     70  C   UNL A   1      47.840  26.502  30.853  1.00  0.00     0.173 A 
ATOM     71  C   UNL A   1      48.257  27.703  28.813  1.00  0.00     0.173 A 
ATOM     72  F   UNL A   1      47.081  26.232  31.925  1.00  0.00    -0.203 F 
ATOM     73  C   UNL A   1      49.068  25.857  30.719  1.00  0.00     0.198 A 
ATOM     74  C   UNL A   1      49.468  27.032  28.665  1.00  0.00     0.198 A 
ATOM     75  F   UNL A   1      47.898  28.594  27.877  1.00  0.00    -0.203 F 
ATOM     76  F   UNL A   1      49.474  24.993  31.660  1.00  0.00    -0.200 F 
ATOM     77  C   UNL A   1      49.876  26.116  29.622  1.00  0.00     0.200 A 
ATOM     78  F   UNL A   1      50.240  27.273  27.596  1.00  0.00    -0.200 F 
ATOM     79  F   UNL A   1      51.053  25.489  29.492  1.00  0.00    -0.200 F 
ENDBRANCH  55  69
BRANCH  56  80
ATOM     80  C   UNL A   1      38.480  31.751  30.529  1.00  0.00     0.064 A 
ATOM     81  C   UNL A   1      37.536  31.244  31.434  1.00  0.00     0.173 A 
ATOM     82  C   UNL A   1      38.094  32.840  29.732  1.00  0.00     0.173 A 
ATOM     83  F   UNL A   1      37.837  30.175  32.186  1.00  0.00    -0.203 F 
ATOM     84  C   UNL A   1      36.257  31.792  31.525  1.00  0.00     0.198 A 
ATOM     85  C   UNL A   1      36.827  33.408  29.847  1.00  0.00     0.198 A 
ATOM     86  F   UNL A   1      38.949  33.349  28.832  1.00  0.00    -0.203 F 
ATOM     87  F   UNL A   1      35.355  31.246  32.354  1.00  0.00    -0.200 F 
ATOM     88  C   UNL A   1      35.906  32.877  30.738  1.00  0.00     0.200 A 
ATOM     89  F   UNL A   1      36.491  34.456  29.084  1.00  0.00    -0.200 F 
ATOM     90  F   UNL A   1      34.674  33.399  30.824  1.00  0.00    -0.200 F 
ENDBRANCH  56  80
BRANCH  68  91
ATOM     91  C   UNL A   1      44.696  33.166  33.360  1.00  0.00     0.064 A 
ATOM     92  C   UNL A   1      44.727  32.962  34.748  1.00  0.00     0.173 A 
ATOM     93  C   UNL A   1      45.174  34.394  32.871  1.00  0.00     0.173 A 
ATOM     94  F   UNL A   1      44.272  31.814  35.271  1.00  0.00    -0.203 F 
ATOM     95  C   UNL A   1      45.193  33.953  35.610  1.00  0.00     0.198 A 
ATOM     96  C   UNL A   1      45.669  35.369  33.734  1.00  0.00     0.198 A 
ATOM     97  F   UNL A   1      45.177  34.641  31.552  1.00  0.00    -0.203 F 
ATOM     98  F   UNL A   1      45.169  33.752  36.935  1.00  0.00    -0.200 F 
ATOM     99  C   UNL A   1      45.670  35.152  35.102  1.00  0.00     0.200 A 
ATOM    100  F   UNL A   1      46.146  36.520  33.238  1.00  0.00    -0.200 F 
ATOM    101  F   UNL A   1      46.129  36.100  35.933  1.00  0.00    -0.200 F 
ENDBRANCH  68  91
ENDBRANCH  42  43
ENDBRANCH  35  37
ENDBRANCH  34  35
ENDBRANCH  33  34
ENDBRANCH  32  33
ENDBRANCH  31  32
ENDBRANCH  30  31
ENDBRANCH  29  30
ENDBRANCH   1  29
TORSDOF 23
ENDMDL
