MODEL 1
REMARK VINA RESULT:      -9.7      0.000      0.000
REMARK SMILES CC[NH2+]C[C@@H](C)C(=O)N1CCO[C@@H](CC(=O)OCCOCCOCCOCCOC(=O)c2ccc(-c3c4nc(c(-c5c(F)c(F)c(F)c(F)c5F)c5ccc([nH]5)c(-c5c(F)c(F)c(F)c(F)c5F)c5nc(c(-c6c(F)c(F)c(F)c(F)c6F)c6ccc3[nH]6)C=C5)C=C4)cc2)C1
REMARK SMILES IDX 21 1 20 2 19 3 18 4 17 5 15 6 16 7 14 8 13 9 9 10 10 11
REMARK SMILES IDX 95 12 11 13 12 14 7 15 8 16 5 17 6 18 4 19 3 20 2 23 1 24
REMARK SMILES IDX 22 25 23 26 24 27 25 28 26 29 27 30 28 31 29 32 30 33 31 34
REMARK SMILES IDX 32 35 33 36 94 37 34 38 93 39 35 40 36 41 37 42 87 43 38 44
REMARK SMILES IDX 92 45 86 46 88 47 39 48 91 49 85 50 84 51 40 53 72 54 52 55
REMARK SMILES IDX 71 56 53 57 56 58 70 59 89 60 54 61 55 62 69 64 90 65 57 66
REMARK SMILES IDX 41 67 42 68 50 69 43 70 44 71 48 72 51 73 45 74 46 75 49 76
REMARK SMILES IDX 47 77 73 78 74 79 82 80 75 81 76 82 80 83 83 84 77 85 78 86
REMARK SMILES IDX 81 87 79 88 58 89 59 90 67 91 60 92 61 93 65 94 68 95 62 96
REMARK SMILES IDX 63 97 66 98 64 99
REMARK H PARENT 3 21 3 22 88 52 56 63
REMARK Flexibility Score: inf
ROOT
ATOM      1  C   UNL A   1      31.214  26.790  26.372  1.00  0.00     0.188 C 
ENDROOT
BRANCH   1   2
ATOM      2  O   UNL A   1      31.772  25.538  26.716  1.00  0.00    -0.376 OA
BRANCH   2   3
ATOM      3  C   UNL A   1      31.415  24.352  26.019  1.00  0.00     0.202 C 
BRANCH   3   4
ATOM      4  C   UNL A   1      32.096  23.868  24.727  1.00  0.00     0.261 C 
BRANCH   4   5
ATOM      5  O   UNL A   1      33.204  24.644  24.241  1.00  0.00    -0.463 OA
BRANCH   5   6
ATOM      6  C   UNL A   1      33.622  24.341  22.996  1.00  0.00     0.308 C 
ATOM      7  O   UNL A   1      34.491  23.508  22.746  1.00  0.00    -0.252 OA
BRANCH   6   8
ATOM      8  C   UNL A   1      32.951  25.093  21.879  1.00  0.00     0.156 C 
BRANCH   8   9
ATOM      9  C   UNL A   1      32.550  26.560  21.971  1.00  0.00     0.148 C 
ATOM     10  N   UNL A   1      31.105  28.368  22.803  1.00  0.00    -0.337 N 
ATOM     11  C   UNL A   1      32.254  28.963  23.476  1.00  0.00     0.148 C 
ATOM     12  C   UNL A   1      31.220  26.894  22.687  1.00  0.00     0.152 C 
ATOM     13  C   UNL A   1      33.539  28.603  22.744  1.00  0.00     0.182 C 
ATOM     14  O   UNL A   1      33.672  27.181  22.671  1.00  0.00    -0.374 OA
BRANCH  10  15
ATOM     15  C   UNL A   1      29.989  29.012  22.305  1.00  0.00     0.231 C 
ATOM     16  O   UNL A   1      30.067  29.679  21.265  1.00  0.00    -0.274 OA
BRANCH  15  17
ATOM     17  C   UNL A   1      28.678  29.103  23.122  1.00  0.00     0.130 C 
ATOM     18  C   UNL A   1      28.191  27.694  23.452  1.00  0.00     0.024 C 
BRANCH  17  19
ATOM     19  C   UNL A   1      27.555  30.017  22.613  1.00  0.00     0.273 C 
BRANCH  19  20
ATOM     20  N   UNL A   1      27.909  31.429  22.399  1.00  0.00    -0.346 N 
ATOM     21  H   UNL A   1      28.507  31.485  21.574  1.00  0.00     0.346 HD
ATOM     22  H   UNL A   1      27.031  31.936  22.290  1.00  0.00     0.346 HD
BRANCH  20  23
ATOM     23  C   UNL A   1      28.612  32.048  23.514  1.00  0.00     0.257 C 
ATOM     24  C   UNL A   1      28.992  33.474  23.134  1.00  0.00     0.071 C 
ENDBRANCH  20  23
ENDBRANCH  19  20
ENDBRANCH  17  19
ENDBRANCH  15  17
ENDBRANCH  10  15
ENDBRANCH   8   9
ENDBRANCH   6   8
ENDBRANCH   5   6
ENDBRANCH   4   5
ENDBRANCH   3   4
ENDBRANCH   2   3
ENDBRANCH   1   2
BRANCH   1  25
ATOM     25  C   UNL A   1      31.492  28.014  27.252  1.00  0.00     0.188 C 
BRANCH  25  26
ATOM     26  O   UNL A   1      32.841  28.201  27.627  1.00  0.00    -0.377 OA
BRANCH  26  27
ATOM     27  C   UNL A   1      33.655  29.096  26.871  1.00  0.00     0.188 C 
BRANCH  27  28
ATOM     28  C   UNL A   1      34.634  30.062  27.575  1.00  0.00     0.188 C 
BRANCH  28  29
ATOM     29  O   UNL A   1      34.070  31.308  27.947  1.00  0.00    -0.376 OA
BRANCH  29  30
ATOM     30  C   UNL A   1      32.869  31.731  27.321  1.00  0.00     0.202 C 
BRANCH  30  31
ATOM     31  C   UNL A   1      32.599  33.241  27.245  1.00  0.00     0.261 C 
BRANCH  31  32
ATOM     32  O   UNL A   1      32.257  33.889  28.482  1.00  0.00    -0.460 OA
BRANCH  32  33
ATOM     33  C   UNL A   1      32.973  34.973  28.836  1.00  0.00     0.338 C 
ATOM     34  O   UNL A   1      32.641  36.144  28.716  1.00  0.00    -0.246 OA
BRANCH  33  35
ATOM     35  C   UNL A   1      34.170  34.524  29.576  1.00  0.00     0.060 A 
ATOM     36  C   UNL A   1      35.419  34.595  28.948  1.00  0.00     0.016 A 
ATOM     37  C   UNL A   1      34.061  34.008  30.870  1.00  0.00     0.016 A 
ATOM     38  C   UNL A   1      36.555  34.101  29.592  1.00  0.00     0.010 A 
ATOM     39  C   UNL A   1      35.197  33.504  31.511  1.00  0.00     0.010 A 
ATOM     40  C   UNL A   1      36.441  33.507  30.857  1.00  0.00    -0.014 A 
BRANCH  40  41
ATOM     41  C   UNL A   1      37.574  32.707  31.391  1.00  0.00     0.031 A 
ATOM     42  C   UNL A   1      38.110  33.044  32.756  1.00  0.00     0.074 A 
ATOM     43  C   UNL A   1      38.091  31.673  30.707  1.00  0.00     0.049 A 
ATOM     44  N   UNL A   1      39.087  32.494  33.432  1.00  0.00    -0.248 NA
ATOM     45  C   UNL A   1      37.450  34.159  33.453  1.00  0.00     0.031 C 
ATOM     46  C   UNL A   1      37.636  31.217  29.397  1.00  0.00     0.029 A 
ATOM     47  N   UNL A   1      39.116  30.818  31.029  1.00  0.00    -0.354 N 
ATOM     48  C   UNL A   1      39.164  33.200  34.626  1.00  0.00     0.074 A 
ATOM     49  C   UNL A   1      38.163  34.242  34.566  1.00  0.00     0.031 C 
ATOM     50  C   UNL A   1      38.378  30.157  29.026  1.00  0.00     0.029 A 
ATOM     51  C   UNL A   1      39.382  29.887  30.055  1.00  0.00     0.049 A 
ATOM     52  H   UNL A   1      39.614  30.868  31.876  1.00  0.00     0.167 HD
ATOM     53  C   UNL A   1      39.984  32.991  35.684  1.00  0.00     0.037 A 
ATOM     54  C   UNL A   1      40.337  28.938  29.997  1.00  0.00     0.037 A 
ATOM     55  C   UNL A   1      40.986  31.959  35.739  1.00  0.00     0.049 A 
ATOM     56  C   UNL A   1      41.302  28.783  31.146  1.00  0.00     0.074 A 
ATOM     57  C   UNL A   1      41.855  31.653  36.772  1.00  0.00     0.029 A 
ATOM     58  N   UNL A   1      41.264  31.071  34.709  1.00  0.00    -0.354 N 
ATOM     59  N   UNL A   1      41.352  29.431  32.284  1.00  0.00    -0.248 NA
ATOM     60  C   UNL A   1      42.346  27.757  31.000  1.00  0.00     0.031 C 
ATOM     61  C   UNL A   1      42.705  30.630  36.340  1.00  0.00     0.029 A 
ATOM     62  C   UNL A   1      42.317  30.243  35.067  1.00  0.00     0.049 A 
ATOM     63  H   UNL A   1      40.783  31.035  33.850  1.00  0.00     0.167 HD
ATOM     64  C   UNL A   1      42.405  28.874  33.001  1.00  0.00     0.074 A 
ATOM     65  C   UNL A   1      42.960  27.824  32.172  1.00  0.00     0.031 C 
ATOM     66  C   UNL A   1      42.865  29.200  34.235  1.00  0.00     0.037 A 
BRANCH  53  67
ATOM     67  C   UNL A   1      39.858  33.935  36.847  1.00  0.00     0.064 A 
ATOM     68  C   UNL A   1      40.564  35.148  36.901  1.00  0.00     0.173 A 
ATOM     69  C   UNL A   1      39.023  33.619  37.930  1.00  0.00     0.173 A 
ATOM     70  F   UNL A   1      41.387  35.497  35.900  1.00  0.00    -0.203 F 
ATOM     71  C   UNL A   1      40.478  35.980  38.015  1.00  0.00     0.198 A 
ATOM     72  C   UNL A   1      38.909  34.473  39.024  1.00  0.00     0.198 A 
ATOM     73  F   UNL A   1      38.319  32.476  37.931  1.00  0.00    -0.203 F 
ATOM     74  F   UNL A   1      41.220  37.095  38.075  1.00  0.00    -0.200 F 
ATOM     75  C   UNL A   1      39.647  35.645  39.072  1.00  0.00     0.200 A 
ATOM     76  F   UNL A   1      38.094  34.153  40.038  1.00  0.00    -0.200 F 
ATOM     77  F   UNL A   1      39.567  36.445  40.145  1.00  0.00    -0.200 F 
ENDBRANCH  53  67
BRANCH  54  78
ATOM     78  C   UNL A   1      40.428  28.053  28.806  1.00  0.00     0.064 A 
ATOM     79  C   UNL A   1      41.175  28.430  27.682  1.00  0.00     0.173 A 
ATOM     80  C   UNL A   1      39.769  26.815  28.766  1.00  0.00     0.173 A 
ATOM     81  F   UNL A   1      41.798  29.618  27.659  1.00  0.00    -0.203 F 
ATOM     82  C   UNL A   1      41.253  27.607  26.560  1.00  0.00     0.198 A 
ATOM     83  C   UNL A   1      39.873  25.979  27.655  1.00  0.00     0.198 A 
ATOM     84  F   UNL A   1      39.033  26.411  29.811  1.00  0.00    -0.203 F 
ATOM     85  F   UNL A   1      41.941  28.010  25.483  1.00  0.00    -0.200 F 
ATOM     86  C   UNL A   1      40.610  26.378  26.551  1.00  0.00     0.200 A 
ATOM     87  F   UNL A   1      39.258  24.789  27.656  1.00  0.00    -0.200 F 
ATOM     88  F   UNL A   1      40.695  25.582  25.476  1.00  0.00    -0.200 F 
ENDBRANCH  54  78
BRANCH  66  89
ATOM     89  C   UNL A   1      44.004  28.387  34.790  1.00  0.00     0.064 A 
ATOM     90  C   UNL A   1      45.341  28.787  34.646  1.00  0.00     0.173 A 
ATOM     91  C   UNL A   1      43.749  27.212  35.513  1.00  0.00     0.173 A 
ATOM     92  F   UNL A   1      45.645  29.896  33.955  1.00  0.00    -0.203 F 
ATOM     93  C   UNL A   1      46.380  28.024  35.177  1.00  0.00     0.198 A 
ATOM     94  C   UNL A   1      44.786  26.471  36.075  1.00  0.00     0.198 A 
ATOM     95  F   UNL A   1      42.489  26.786  35.691  1.00  0.00    -0.203 F 
ATOM     96  F   UNL A   1      47.652  28.396  34.979  1.00  0.00    -0.200 F 
ATOM     97  C   UNL A   1      46.101  26.872  35.897  1.00  0.00     0.200 A 
ATOM     98  F   UNL A   1      44.513  25.369  36.786  1.00  0.00    -0.200 F 
ATOM     99  F   UNL A   1      47.100  26.145  36.415  1.00  0.00    -0.200 F 
ENDBRANCH  66  89
ENDBRANCH  40  41
ENDBRANCH  33  35
ENDBRANCH  32  33
ENDBRANCH  31  32
ENDBRANCH  30  31
ENDBRANCH  29  30
ENDBRANCH  28  29
ENDBRANCH  27  28
ENDBRANCH  26  27
ENDBRANCH  25  26
ENDBRANCH   1  25
TORSDOF 26
ENDMDL
MODEL 2
REMARK VINA RESULT:      -9.6      4.716     10.035
REMARK SMILES CC[NH2+]C[C@@H](C)C(=O)N1CCO[C@@H](CC(=O)OCCOCCOCCOCCOC(=O)c2ccc(-c3c4nc(c(-c5c(F)c(F)c(F)c(F)c5F)c5ccc([nH]5)c(-c5c(F)c(F)c(F)c(F)c5F)c5nc(c(-c6c(F)c(F)c(F)c(F)c6F)c6ccc3[nH]6)C=C5)C=C4)cc2)C1
REMARK SMILES IDX 21 1 20 2 19 3 18 4 17 5 15 6 16 7 14 8 13 9 9 10 10 11
REMARK SMILES IDX 95 12 11 13 12 14 7 15 8 16 5 17 6 18 4 19 3 20 2 23 1 24
REMARK SMILES IDX 22 25 23 26 24 27 25 28 26 29 27 30 28 31 29 32 30 33 31 34
REMARK SMILES IDX 32 35 33 36 94 37 34 38 93 39 35 40 36 41 37 42 87 43 38 44
REMARK SMILES IDX 92 45 86 46 88 47 39 48 91 49 85 50 84 51 40 53 72 54 52 55
REMARK SMILES IDX 71 56 53 57 56 58 70 59 89 60 54 61 55 62 69 64 90 65 57 66
REMARK SMILES IDX 41 67 42 68 50 69 43 70 44 71 48 72 51 73 45 74 46 75 49 76
REMARK SMILES IDX 47 77 73 78 74 79 82 80 75 81 76 82 80 83 83 84 77 85 78 86
REMARK SMILES IDX 81 87 79 88 58 89 59 90 67 91 60 92 61 93 65 94 68 95 62 96
REMARK SMILES IDX 63 97 66 98 64 99
REMARK H PARENT 3 21 3 22 88 52 56 63
REMARK Flexibility Score: inf
ROOT
ATOM      1  C   UNL A   1      31.724  24.177  25.659  1.00  0.00     0.188 C 
ENDROOT
BRANCH   1   2
ATOM      2  O   UNL A   1      31.268  23.712  24.405  1.00  0.00    -0.376 OA
BRANCH   2   3
ATOM      3  C   UNL A   1      32.163  23.515  23.318  1.00  0.00     0.202 C 
BRANCH   3   4
ATOM      4  C   UNL A   1      33.489  24.273  23.139  1.00  0.00     0.261 C 
BRANCH   4   5
ATOM      5  O   UNL A   1      33.406  25.647  22.724  1.00  0.00    -0.463 OA
BRANCH   5   6
ATOM      6  C   UNL A   1      32.781  25.860  21.548  1.00  0.00     0.308 C 
ATOM      7  O   UNL A   1      33.277  25.612  20.451  1.00  0.00    -0.252 OA
BRANCH   6   8
ATOM      8  C   UNL A   1      31.394  26.436  21.639  1.00  0.00     0.156 C 
BRANCH   8   9
ATOM      9  C   UNL A   1      30.946  27.387  22.741  1.00  0.00     0.148 C 
ATOM     10  N   UNL A   1      31.300  29.326  24.214  1.00  0.00    -0.337 N 
ATOM     11  C   UNL A   1      30.148  29.984  23.608  1.00  0.00     0.148 C 
ATOM     12  C   UNL A   1      31.983  28.405  23.273  1.00  0.00     0.152 C 
ATOM     13  C   UNL A   1      29.159  28.948  23.092  1.00  0.00     0.182 C 
ATOM     14  O   UNL A   1      29.807  28.086  22.151  1.00  0.00    -0.374 OA
BRANCH  10  15
ATOM     15  C   UNL A   1      31.784  29.481  25.498  1.00  0.00     0.231 C 
ATOM     16  O   UNL A   1      31.841  30.605  26.012  1.00  0.00    -0.274 OA
BRANCH  15  17
ATOM     17  C   UNL A   1      32.460  28.310  26.251  1.00  0.00     0.130 C 
ATOM     18  C   UNL A   1      31.410  27.566  27.074  1.00  0.00     0.024 C 
BRANCH  17  19
ATOM     19  C   UNL A   1      33.748  28.588  27.041  1.00  0.00     0.273 C 
BRANCH  19  20
ATOM     20  N   UNL A   1      34.575  29.708  26.565  1.00  0.00    -0.346 N 
ATOM     21  H   UNL A   1      35.323  29.326  25.986  1.00  0.00     0.346 HD
ATOM     22  H   UNL A   1      33.953  30.332  26.051  1.00  0.00     0.346 HD
BRANCH  20  23
ATOM     23  C   UNL A   1      35.180  30.502  27.625  1.00  0.00     0.257 C 
ATOM     24  C   UNL A   1      34.237  31.639  27.997  1.00  0.00     0.071 C 
ENDBRANCH  20  23
ENDBRANCH  19  20
ENDBRANCH  17  19
ENDBRANCH  15  17
ENDBRANCH  10  15
ENDBRANCH   8   9
ENDBRANCH   6   8
ENDBRANCH   5   6
ENDBRANCH   4   5
ENDBRANCH   3   4
ENDBRANCH   2   3
ENDBRANCH   1   2
BRANCH   1  25
ATOM     25  C   UNL A   1      32.108  23.170  26.749  1.00  0.00     0.188 C 
BRANCH  25  26
ATOM     26  O   UNL A   1      32.535  21.905  26.289  1.00  0.00    -0.377 OA
BRANCH  26  27
ATOM     27  C   UNL A   1      33.911  21.709  25.972  1.00  0.00     0.188 C 
BRANCH  27  28
ATOM     28  C   UNL A   1      34.346  20.605  24.982  1.00  0.00     0.188 C 
BRANCH  28  29
ATOM     29  O   UNL A   1      35.729  20.294  25.015  1.00  0.00    -0.376 OA
BRANCH  29  30
ATOM     30  C   UNL A   1      36.658  21.326  25.304  1.00  0.00     0.202 C 
BRANCH  30  31
ATOM     31  C   UNL A   1      38.152  20.979  25.242  1.00  0.00     0.261 C 
BRANCH  31  32
ATOM     32  O   UNL A   1      38.845  20.924  26.500  1.00  0.00    -0.460 OA
BRANCH  32  33
ATOM     33  C   UNL A   1      40.178  21.115  26.487  1.00  0.00     0.338 C 
ATOM     34  O   UNL A   1      41.020  20.387  25.982  1.00  0.00    -0.246 OA
BRANCH  33  35
ATOM     35  C   UNL A   1      40.464  22.460  27.028  1.00  0.00     0.060 A 
ATOM     36  C   UNL A   1      39.782  23.562  26.498  1.00  0.00     0.016 A 
ATOM     37  C   UNL A   1      41.419  22.639  28.032  1.00  0.00     0.016 A 
ATOM     38  C   UNL A   1      40.092  24.851  26.932  1.00  0.00     0.010 A 
ATOM     39  C   UNL A   1      41.735  23.932  28.461  1.00  0.00     0.010 A 
ATOM     40  C   UNL A   1      41.106  25.047  27.881  1.00  0.00    -0.014 A 
BRANCH  40  41
ATOM     41  C   UNL A   1      41.645  26.415  28.099  1.00  0.00     0.031 A 
ATOM     42  C   UNL A   1      43.007  26.744  27.550  1.00  0.00     0.074 A 
ATOM     43  C   UNL A   1      40.929  27.363  28.726  1.00  0.00     0.049 A 
ATOM     44  N   UNL A   1      43.688  27.861  27.612  1.00  0.00    -0.248 NA
ATOM     45  C   UNL A   1      43.696  25.660  26.834  1.00  0.00     0.031 C 
ATOM     46  C   UNL A   1      39.585  27.187  29.265  1.00  0.00     0.029 A 
ATOM     47  N   UNL A   1      41.243  28.669  29.012  1.00  0.00    -0.354 N 
ATOM     48  C   UNL A   1      44.884  27.611  26.953  1.00  0.00     0.074 A 
ATOM     49  C   UNL A   1      44.855  26.227  26.534  1.00  0.00     0.031 C 
ATOM     50  C   UNL A   1      39.183  28.347  29.815  1.00  0.00     0.029 A 
ATOM     51  C   UNL A   1      40.257  29.333  29.698  1.00  0.00     0.049 A 
ATOM     52  H   UNL A   1      42.094  29.090  28.750  1.00  0.00     0.167 HD
ATOM     53  C   UNL A   1      45.910  28.460  26.705  1.00  0.00     0.037 A 
ATOM     54  C   UNL A   1      40.234  30.588  30.190  1.00  0.00     0.037 A 
ATOM     55  C   UNL A   1      45.943  29.836  27.130  1.00  0.00     0.049 A 
ATOM     56  C   UNL A   1      41.426  31.489  29.984  1.00  0.00     0.074 A 
ATOM     57  C   UNL A   1      46.928  30.783  26.914  1.00  0.00     0.029 A 
ATOM     58  N   UNL A   1      44.949  30.456  27.874  1.00  0.00    -0.354 N 
ATOM     59  N   UNL A   1      42.541  31.259  29.335  1.00  0.00    -0.248 NA
ATOM     60  C   UNL A   1      41.352  32.831  30.583  1.00  0.00     0.031 C 
ATOM     61  C   UNL A   1      46.564  31.954  27.587  1.00  0.00     0.029 A 
ATOM     62  C   UNL A   1      45.315  31.763  28.159  1.00  0.00     0.049 A 
ATOM     63  H   UNL A   1      44.107  30.030  28.158  1.00  0.00     0.167 HD
ATOM     64  C   UNL A   1      43.285  32.431  29.418  1.00  0.00     0.074 A 
ATOM     65  C   UNL A   1      42.488  33.376  30.171  1.00  0.00     0.031 C 
ATOM     66  C   UNL A   1      44.515  32.698  28.910  1.00  0.00     0.037 A 
BRANCH  53  67
ATOM     67  C   UNL A   1      47.103  27.903  25.979  1.00  0.00     0.064 A 
ATOM     68  C   UNL A   1      48.252  27.469  26.660  1.00  0.00     0.173 A 
ATOM     69  C   UNL A   1      47.101  27.808  24.579  1.00  0.00     0.173 A 
ATOM     70  F   UNL A   1      48.316  27.547  27.999  1.00  0.00    -0.203 F 
ATOM     71  C   UNL A   1      49.369  27.010  25.965  1.00  0.00     0.198 A 
ATOM     72  C   UNL A   1      48.204  27.312  23.890  1.00  0.00     0.198 A 
ATOM     73  F   UNL A   1      46.028  28.203  23.876  1.00  0.00    -0.203 F 
ATOM     74  F   UNL A   1      50.481  26.672  26.633  1.00  0.00    -0.200 F 
ATOM     75  C   UNL A   1      49.342  26.927  24.581  1.00  0.00     0.200 A 
ATOM     76  F   UNL A   1      48.169  27.219  22.554  1.00  0.00    -0.200 F 
ATOM     77  F   UNL A   1      50.418  26.489  23.913  1.00  0.00    -0.200 F 
ENDBRANCH  53  67
BRANCH  54  78
ATOM     78  C   UNL A   1      39.035  31.072  30.923  1.00  0.00     0.064 A 
ATOM     79  C   UNL A   1      37.994  31.727  30.251  1.00  0.00     0.173 A 
ATOM     80  C   UNL A   1      38.905  30.893  32.309  1.00  0.00     0.173 A 
ATOM     81  F   UNL A   1      38.085  31.950  28.931  1.00  0.00    -0.203 F 
ATOM     82  C   UNL A   1      36.873  32.191  30.936  1.00  0.00     0.198 A 
ATOM     83  C   UNL A   1      37.770  31.331  32.988  1.00  0.00     0.198 A 
ATOM     84  F   UNL A   1      39.876  30.282  33.001  1.00  0.00    -0.203 F 
ATOM     85  F   UNL A   1      35.911  32.850  30.276  1.00  0.00    -0.200 F 
ATOM     86  C   UNL A   1      36.757  31.984  32.303  1.00  0.00     0.200 A 
ATOM     87  F   UNL A   1      37.659  31.120  34.307  1.00  0.00    -0.200 F 
ATOM     88  F   UNL A   1      35.674  32.421  32.960  1.00  0.00    -0.200 F 
ENDBRANCH  54  78
BRANCH  66  89
ATOM     89  C   UNL A   1      45.065  34.085  29.115  1.00  0.00     0.064 A 
ATOM     90  C   UNL A   1      44.827  35.121  28.200  1.00  0.00     0.173 A 
ATOM     91  C   UNL A   1      45.805  34.389  30.268  1.00  0.00     0.173 A 
ATOM     92  F   UNL A   1      44.135  34.885  27.076  1.00  0.00    -0.203 F 
ATOM     93  C   UNL A   1      45.337  36.400  28.416  1.00  0.00     0.198 A 
ATOM     94  C   UNL A   1      46.282  35.677  30.500  1.00  0.00     0.198 A 
ATOM     95  F   UNL A   1      46.056  33.440  31.183  1.00  0.00    -0.203 F 
ATOM     96  F   UNL A   1      45.144  37.360  27.500  1.00  0.00    -0.200 F 
ATOM     97  C   UNL A   1      46.056  36.679  29.568  1.00  0.00     0.200 A 
ATOM     98  F   UNL A   1      46.961  35.949  31.623  1.00  0.00    -0.200 F 
ATOM     99  F   UNL A   1      46.538  37.912  29.779  1.00  0.00    -0.200 F 
ENDBRANCH  66  89
ENDBRANCH  40  41
ENDBRANCH  33  35
ENDBRANCH  32  33
ENDBRANCH  31  32
ENDBRANCH  30  31
ENDBRANCH  29  30
ENDBRANCH  28  29
ENDBRANCH  27  28
ENDBRANCH  26  27
ENDBRANCH  25  26
ENDBRANCH   1  25
TORSDOF 26
ENDMDL
MODEL 3
REMARK VINA RESULT:      -9.3      1.145      2.247
REMARK SMILES CC[NH2+]C[C@@H](C)C(=O)N1CCO[C@@H](CC(=O)OCCOCCOCCOCCOC(=O)c2ccc(-c3c4nc(c(-c5c(F)c(F)c(F)c(F)c5F)c5ccc([nH]5)c(-c5c(F)c(F)c(F)c(F)c5F)c5nc(c(-c6c(F)c(F)c(F)c(F)c6F)c6ccc3[nH]6)C=C5)C=C4)cc2)C1
REMARK SMILES IDX 21 1 20 2 19 3 18 4 17 5 15 6 16 7 14 8 13 9 9 10 10 11
REMARK SMILES IDX 95 12 11 13 12 14 7 15 8 16 5 17 6 18 4 19 3 20 2 23 1 24
REMARK SMILES IDX 22 25 23 26 24 27 25 28 26 29 27 30 28 31 29 32 30 33 31 34
REMARK SMILES IDX 32 35 33 36 94 37 34 38 93 39 35 40 36 41 37 42 87 43 38 44
REMARK SMILES IDX 92 45 86 46 88 47 39 48 91 49 85 50 84 51 40 53 72 54 52 55
REMARK SMILES IDX 71 56 53 57 56 58 70 59 89 60 54 61 55 62 69 64 90 65 57 66
REMARK SMILES IDX 41 67 42 68 50 69 43 70 44 71 48 72 51 73 45 74 46 75 49 76
REMARK SMILES IDX 47 77 73 78 74 79 82 80 75 81 76 82 80 83 83 84 77 85 78 86
REMARK SMILES IDX 81 87 79 88 58 89 59 90 67 91 60 92 61 93 65 94 68 95 62 96
REMARK SMILES IDX 63 97 66 98 64 99
REMARK H PARENT 3 21 3 22 88 52 56 63
REMARK Flexibility Score: inf
ROOT
ATOM      1  C   UNL A   1      31.184  26.083  26.216  1.00  0.00     0.188 C 
ENDROOT
BRANCH   1   2
ATOM      2  O   UNL A   1      31.411  24.834  26.837  1.00  0.00    -0.376 OA
BRANCH   2   3
ATOM      3  C   UNL A   1      30.454  23.785  26.763  1.00  0.00     0.202 C 
BRANCH   3   4
ATOM      4  C   UNL A   1      30.652  22.486  25.964  1.00  0.00     0.261 C 
BRANCH   4   5
ATOM      5  O   UNL A   1      31.998  22.000  25.829  1.00  0.00    -0.463 OA
BRANCH   5   6
ATOM      6  C   UNL A   1      32.162  20.984  24.958  1.00  0.00     0.308 C 
ATOM      7  O   UNL A   1      32.148  19.796  25.276  1.00  0.00    -0.252 OA
BRANCH   6   8
ATOM      8  C   UNL A   1      32.369  21.381  23.521  1.00  0.00     0.156 C 
BRANCH   8   9
ATOM      9  C   UNL A   1      33.104  22.643  23.092  1.00  0.00     0.148 C 
ATOM     10  N   UNL A   1      33.248  25.083  22.807  1.00  0.00    -0.337 N 
ATOM     11  C   UNL A   1      34.377  25.114  23.730  1.00  0.00     0.148 C 
ATOM     12  C   UNL A   1      32.311  23.972  23.100  1.00  0.00     0.152 C 
ATOM     13  C   UNL A   1      35.124  23.788  23.696  1.00  0.00     0.182 C 
ATOM     14  O   UNL A   1      34.229  22.720  24.022  1.00  0.00    -0.374 OA
BRANCH  10  15
ATOM     15  C   UNL A   1      32.988  25.944  21.759  1.00  0.00     0.231 C 
ATOM     16  O   UNL A   1      33.279  25.622  20.601  1.00  0.00    -0.274 OA
BRANCH  15  17
ATOM     17  C   UNL A   1      32.530  27.401  22.008  1.00  0.00     0.130 C 
ATOM     18  C   UNL A   1      33.657  28.174  22.691  1.00  0.00     0.024 C 
BRANCH  17  19
ATOM     19  C   UNL A   1      31.162  27.641  22.663  1.00  0.00     0.273 C 
BRANCH  19  20
ATOM     20  N   UNL A   1      30.340  28.713  22.080  1.00  0.00    -0.346 N 
ATOM     21  H   UNL A   1      30.965  29.450  21.753  1.00  0.00     0.346 HD
ATOM     22  H   UNL A   1      29.797  28.289  21.329  1.00  0.00     0.346 HD
BRANCH  20  23
ATOM     23  C   UNL A   1      29.381  29.306  23.003  1.00  0.00     0.257 C 
ATOM     24  C   UNL A   1      28.033  29.434  22.307  1.00  0.00     0.071 C 
ENDBRANCH  20  23
ENDBRANCH  19  20
ENDBRANCH  17  19
ENDBRANCH  15  17
ENDBRANCH  10  15
ENDBRANCH   8   9
ENDBRANCH   6   8
ENDBRANCH   5   6
ENDBRANCH   4   5
ENDBRANCH   3   4
ENDBRANCH   2   3
ENDBRANCH   1   2
BRANCH   1  25
ATOM     25  C   UNL A   1      31.762  27.358  26.841  1.00  0.00     0.188 C 
BRANCH  25  26
ATOM     26  O   UNL A   1      33.135  27.585  26.603  1.00  0.00    -0.377 OA
BRANCH  26  27
ATOM     27  C   UNL A   1      33.570  28.894  26.237  1.00  0.00     0.188 C 
BRANCH  27  28
ATOM     28  C   UNL A   1      34.038  29.901  27.311  1.00  0.00     0.188 C 
BRANCH  28  29
ATOM     29  O   UNL A   1      33.064  30.860  27.686  1.00  0.00    -0.376 OA
BRANCH  29  30
ATOM     30  C   UNL A   1      32.355  31.552  26.669  1.00  0.00     0.202 C 
BRANCH  30  31
ATOM     31  C   UNL A   1      32.057  33.041  26.895  1.00  0.00     0.261 C 
BRANCH  31  32
ATOM     32  O   UNL A   1      32.141  33.507  28.252  1.00  0.00    -0.460 OA
BRANCH  32  33
ATOM     33  C   UNL A   1      32.918  34.580  28.496  1.00  0.00     0.338 C 
ATOM     34  O   UNL A   1      32.643  35.751  28.281  1.00  0.00    -0.246 OA
BRANCH  33  35
ATOM     35  C   UNL A   1      34.109  34.134  29.248  1.00  0.00     0.060 A 
ATOM     36  C   UNL A   1      35.369  34.244  28.647  1.00  0.00     0.016 A 
ATOM     37  C   UNL A   1      33.985  33.584  30.526  1.00  0.00     0.016 A 
ATOM     38  C   UNL A   1      36.501  33.756  29.301  1.00  0.00     0.010 A 
ATOM     39  C   UNL A   1      35.118  33.086  31.177  1.00  0.00     0.010 A 
ATOM     40  C   UNL A   1      36.375  33.129  30.548  1.00  0.00    -0.014 A 
BRANCH  40  41
ATOM     41  C   UNL A   1      37.513  32.337  31.084  1.00  0.00     0.031 A 
ATOM     42  C   UNL A   1      38.004  32.638  32.474  1.00  0.00     0.074 A 
ATOM     43  C   UNL A   1      38.071  31.339  30.379  1.00  0.00     0.049 A 
ATOM     44  N   UNL A   1      38.977  32.087  33.157  1.00  0.00    -0.248 NA
ATOM     45  C   UNL A   1      37.300  33.711  33.192  1.00  0.00     0.031 C 
ATOM     46  C   UNL A   1      37.663  30.919  29.042  1.00  0.00     0.029 A 
ATOM     47  N   UNL A   1      39.109  30.498  30.699  1.00  0.00    -0.354 N 
ATOM     48  C   UNL A   1      39.005  32.752  34.376  1.00  0.00     0.074 A 
ATOM     49  C   UNL A   1      37.981  33.772  34.325  1.00  0.00     0.031 C 
ATOM     50  C   UNL A   1      38.439  29.891  28.655  1.00  0.00     0.029 A 
ATOM     51  C   UNL A   1      39.422  29.608  29.701  1.00  0.00     0.049 A 
ATOM     52  H   UNL A   1      39.583  30.529  31.560  1.00  0.00     0.167 HD
ATOM     53  C   UNL A   1      39.802  32.525  35.447  1.00  0.00     0.037 A 
ATOM     54  C   UNL A   1      40.401  28.684  29.636  1.00  0.00     0.037 A 
ATOM     55  C   UNL A   1      40.827  31.515  35.494  1.00  0.00     0.049 A 
ATOM     56  C   UNL A   1      41.339  28.511  30.804  1.00  0.00     0.074 A 
ATOM     57  C   UNL A   1      41.676  31.194  36.539  1.00  0.00     0.029 A 
ATOM     58  N   UNL A   1      41.152  30.671  34.442  1.00  0.00    -0.354 N 
ATOM     59  N   UNL A   1      41.343  29.120  31.965  1.00  0.00    -0.248 NA
ATOM     60  C   UNL A   1      42.411  27.515  30.650  1.00  0.00     0.031 C 
ATOM     61  C   UNL A   1      42.561  30.206  36.095  1.00  0.00     0.029 A 
ATOM     62  C   UNL A   1      42.216  29.856  34.799  1.00  0.00     0.049 A 
ATOM     63  H   UNL A   1      40.696  30.654  33.570  1.00  0.00     0.167 HD
ATOM     64  C   UNL A   1      42.390  28.562  32.690  1.00  0.00     0.074 A 
ATOM     65  C   UNL A   1      42.993  27.555  31.841  1.00  0.00     0.031 C 
ATOM     66  C   UNL A   1      42.810  28.855  33.947  1.00  0.00     0.037 A 
BRANCH  53  67
ATOM     67  C   UNL A   1      39.623  33.425  36.639  1.00  0.00     0.064 A 
ATOM     68  C   UNL A   1      40.351  34.616  36.788  1.00  0.00     0.173 A 
ATOM     69  C   UNL A   1      38.714  33.085  37.653  1.00  0.00     0.173 A 
ATOM     70  F   UNL A   1      41.243  34.985  35.855  1.00  0.00    -0.203 F 
ATOM     71  C   UNL A   1      40.212  35.405  37.927  1.00  0.00     0.198 A 
ATOM     72  C   UNL A   1      38.549  33.897  38.773  1.00  0.00     0.198 A 
ATOM     73  F   UNL A   1      37.987  31.961  37.562  1.00  0.00    -0.203 F 
ATOM     74  F   UNL A   1      40.973  36.498  38.081  1.00  0.00    -0.200 F 
ATOM     75  C   UNL A   1      39.308  35.048  38.916  1.00  0.00     0.200 A 
ATOM     76  F   UNL A   1      37.665  33.557  39.719  1.00  0.00    -0.200 F 
ATOM     77  F   UNL A   1      39.178  35.806  40.014  1.00  0.00    -0.200 F 
ENDBRANCH  53  67
BRANCH  54  78
ATOM     78  C   UNL A   1      40.544  27.844  28.417  1.00  0.00     0.064 A 
ATOM     79  C   UNL A   1      39.961  26.571  28.348  1.00  0.00     0.173 A 
ATOM     80  C   UNL A   1      41.266  28.293  27.302  1.00  0.00     0.173 A 
ATOM     81  F   UNL A   1      39.287  26.084  29.400  1.00  0.00    -0.203 F 
ATOM     82  C   UNL A   1      40.101  25.776  27.211  1.00  0.00     0.198 A 
ATOM     83  C   UNL A   1      41.380  27.510  26.155  1.00  0.00     0.198 A 
ATOM     84  F   UNL A   1      41.851  29.499  27.321  1.00  0.00    -0.203 F 
ATOM     85  F   UNL A   1      39.569  24.547  27.186  1.00  0.00    -0.200 F 
ATOM     86  C   UNL A   1      40.802  26.250  26.112  1.00  0.00     0.200 A 
ATOM     87  F   UNL A   1      42.049  27.976  25.092  1.00  0.00    -0.200 F 
ATOM     88  F   UNL A   1      40.928  25.489  25.016  1.00  0.00    -0.200 F 
ENDBRANCH  54  78
BRANCH  66  89
ATOM     89  C   UNL A   1      43.954  28.050  34.503  1.00  0.00     0.064 A 
ATOM     90  C   UNL A   1      45.274  28.526  34.489  1.00  0.00     0.173 A 
ATOM     91  C   UNL A   1      43.717  26.801  35.098  1.00  0.00     0.173 A 
ATOM     92  F   UNL A   1      45.560  29.708  33.924  1.00  0.00    -0.203 F 
ATOM     93  C   UNL A   1      46.316  27.767  35.020  1.00  0.00     0.198 A 
ATOM     94  C   UNL A   1      44.754  26.061  35.661  1.00  0.00     0.198 A 
ATOM     95  F   UNL A   1      42.473  26.300  35.149  1.00  0.00    -0.203 F 
ATOM     96  F   UNL A   1      47.576  28.218  34.945  1.00  0.00    -0.200 F 
ATOM     97  C   UNL A   1      46.054  26.541  35.612  1.00  0.00     0.200 A 
ATOM     98  F   UNL A   1      44.497  24.886  36.249  1.00  0.00    -0.200 F 
ATOM     99  F   UNL A   1      47.056  25.817  36.130  1.00  0.00    -0.200 F 
ENDBRANCH  66  89
ENDBRANCH  40  41
ENDBRANCH  33  35
ENDBRANCH  32  33
ENDBRANCH  31  32
ENDBRANCH  30  31
ENDBRANCH  29  30
ENDBRANCH  28  29
ENDBRANCH  27  28
ENDBRANCH  26  27
ENDBRANCH  25  26
ENDBRANCH   1  25
TORSDOF 26
ENDMDL
