MODEL 1
REMARK VINA RESULT:     -11.5      0.000      0.000
REMARK SMILES Cc1cc(Cl)cc2c1O[C@H](C(F)(F)F)C(C(=O)OCCOCCOCCOCCOC(=O)c1ccc(-c3c4nc(c(-c5c(F)c(F)c(F)c(F)c5F)c5ccc([nH]5)c(-c5c(F)c(F)c(F)c(F)c5F)c5nc(c(-c6c(F)c(F)c(F)c(F)c6F)c6ccc3[nH]6)C=C5)C=C4)cc1)=C2
REMARK SMILES IDX 25 1 24 2 23 3 22 4 21 5 20 6 19 7 18 8 16 9 17 10 15 11
REMARK SMILES IDX 1 12 2 13 3 14 8 15 4 16 7 17 9 18 5 19 6 20 96 21 10 22
REMARK SMILES IDX 11 23 12 24 13 25 14 26 26 27 27 28 28 29 29 30 30 31 31 32
REMARK SMILES IDX 32 33 33 34 34 35 95 36 35 37 94 38 36 39 37 40 38 41 88 42
REMARK SMILES IDX 39 43 93 44 87 45 89 46 40 47 92 48 86 49 85 50 41 52 73 53
REMARK SMILES IDX 53 54 72 55 54 56 57 57 71 58 90 59 55 60 56 61 70 63 91 64
REMARK SMILES IDX 58 65 42 66 43 67 51 68 44 69 45 70 49 71 52 72 46 73 47 74
REMARK SMILES IDX 50 75 48 76 74 77 75 78 83 79 76 80 77 81 81 82 84 83 78 84
REMARK SMILES IDX 79 85 82 86 80 87 59 88 60 89 68 90 61 91 62 92 66 93 69 94
REMARK SMILES IDX 63 95 64 96 67 97 65 98
REMARK H PARENT 89 51 57 62
REMARK Flexibility Score: inf
ROOT
ATOM      1  C   UNL A   1      34.679  34.374  28.298  1.00  0.00     0.188 C 
ENDROOT
BRANCH   1   2
ATOM      2  O   UNL A   1      35.117  33.185  27.635  1.00  0.00    -0.377 OA
BRANCH   2   3
ATOM      3  C   UNL A   1      34.428  31.974  27.903  1.00  0.00     0.188 C 
BRANCH   3   4
ATOM      4  C   UNL A   1      35.347  30.741  27.984  1.00  0.00     0.188 C 
BRANCH   4   5
ATOM      5  O   UNL A   1      35.059  29.773  26.982  1.00  0.00    -0.376 OA
BRANCH   5   6
ATOM      6  C   UNL A   1      33.712  29.368  26.797  1.00  0.00     0.202 C 
BRANCH   6   7
ATOM      7  C   UNL A   1      33.111  29.385  25.382  1.00  0.00     0.261 C 
BRANCH   7   8
ATOM      8  O   UNL A   1      33.789  28.589  24.401  1.00  0.00    -0.460 OA
BRANCH   8   9
ATOM      9  C   UNL A   1      33.208  27.436  24.019  1.00  0.00     0.338 C 
ATOM     10  O   UNL A   1      33.705  26.325  24.049  1.00  0.00    -0.246 OA
BRANCH   9  11
ATOM     11  C   UNL A   1      31.790  27.726  23.708  1.00  0.00     0.087 C 
ATOM     12  C   UNL A   1      26.660  27.983  23.673  1.00  0.00     0.048 C 
ATOM     13  C   UNL A   1      27.786  28.686  22.964  1.00  0.00    -0.007 A 
ATOM     14  C   UNL A   1      27.495  29.806  22.171  1.00  0.00     0.027 A 
ATOM     15  C   UNL A   1      29.128  28.318  23.160  1.00  0.00     0.131 A 
ATOM     16  C   UNL A   1      28.522  30.521  21.560  1.00  0.00     0.042 A 
ATOM     17  C   UNL A   1      30.158  29.072  22.588  1.00  0.00     0.019 A 
ATOM     18  O   UNL A   1      29.358  27.223  23.943  1.00  0.00    -0.475 OA
ATOM     19  Cl  UNL A   1      28.148  31.889  20.586  1.00  0.00    -0.084 Cl
ATOM     20  C   UNL A   1      29.851  30.159  21.761  1.00  0.00     0.032 A 
ATOM     21  C   UNL A   1      31.544  28.777  22.916  1.00  0.00     0.027 C 
ATOM     22  C   UNL A   1      30.719  26.796  24.215  1.00  0.00     0.316 C 
BRANCH  22  23
ATOM     23  C   UNL A   1      30.823  26.541  25.726  1.00  0.00     0.430 C 
ATOM     24  F   UNL A   1      29.737  25.873  26.187  1.00  0.00    -0.167 F 
ATOM     25  F   UNL A   1      31.901  25.792  26.050  1.00  0.00    -0.167 F 
ATOM     26  F   UNL A   1      30.911  27.698  26.421  1.00  0.00    -0.167 F 
ENDBRANCH  22  23
ENDBRANCH   9  11
ENDBRANCH   8   9
ENDBRANCH   7   8
ENDBRANCH   6   7
ENDBRANCH   5   6
ENDBRANCH   4   5
ENDBRANCH   3   4
ENDBRANCH   2   3
ENDBRANCH   1   2
BRANCH   1  27
ATOM     27  C   UNL A   1      33.313  34.475  29.025  1.00  0.00     0.188 C 
BRANCH  27  28
ATOM     28  O   UNL A   1      33.406  34.600  30.438  1.00  0.00    -0.376 OA
BRANCH  28  29
ATOM     29  C   UNL A   1      34.587  34.116  31.057  1.00  0.00     0.202 C 
BRANCH  29  30
ATOM     30  C   UNL A   1      34.350  33.285  32.324  1.00  0.00     0.261 C 
BRANCH  30  31
ATOM     31  O   UNL A   1      35.094  32.059  32.403  1.00  0.00    -0.460 OA
BRANCH  31  32
ATOM     32  C   UNL A   1      36.272  32.087  33.062  1.00  0.00     0.338 C 
ATOM     33  O   UNL A   1      36.477  32.472  34.200  1.00  0.00    -0.246 OA
BRANCH  32  34
ATOM     34  C   UNL A   1      37.261  31.376  32.227  1.00  0.00     0.060 A 
ATOM     35  C   UNL A   1      38.178  30.514  32.842  1.00  0.00     0.016 A 
ATOM     36  C   UNL A   1      37.260  31.541  30.839  1.00  0.00     0.016 A 
ATOM     37  C   UNL A   1      39.117  29.833  32.069  1.00  0.00     0.010 A 
ATOM     38  C   UNL A   1      38.219  30.878  30.069  1.00  0.00     0.010 A 
ATOM     39  C   UNL A   1      39.169  30.046  30.684  1.00  0.00    -0.014 A 
BRANCH  39  40
ATOM     40  C   UNL A   1      40.347  29.574  29.918  1.00  0.00     0.031 A 
ATOM     41  C   UNL A   1      41.489  30.532  29.721  1.00  0.00     0.074 A 
ATOM     42  C   UNL A   1      40.424  28.320  29.441  1.00  0.00     0.049 A 
ATOM     43  N   UNL A   1      42.620  30.360  29.087  1.00  0.00    -0.248 NA
ATOM     44  C   UNL A   1      41.333  31.866  30.326  1.00  0.00     0.031 C 
ATOM     45  C   UNL A   1      39.405  27.287  29.608  1.00  0.00     0.029 A 
ATOM     46  N   UNL A   1      41.415  27.704  28.715  1.00  0.00    -0.354 N 
ATOM     47  C   UNL A   1      43.312  31.555  29.229  1.00  0.00     0.074 A 
ATOM     48  C   UNL A   1      42.461  32.460  29.969  1.00  0.00     0.031 C 
ATOM     49  C   UNL A   1      39.824  26.162  29.003  1.00  0.00     0.029 A 
ATOM     50  C   UNL A   1      41.126  26.405  28.381  1.00  0.00     0.049 A 
ATOM     51  H   UNL A   1      42.253  28.153  28.460  1.00  0.00     0.167 HD
ATOM     52  C   UNL A   1      44.555  31.865  28.794  1.00  0.00     0.037 A 
ATOM     53  C   UNL A   1      41.832  25.520  27.647  1.00  0.00     0.037 A 
ATOM     54  C   UNL A   1      45.397  30.970  28.048  1.00  0.00     0.049 A 
ATOM     55  C   UNL A   1      43.171  25.925  27.082  1.00  0.00     0.074 A 
ATOM     56  C   UNL A   1      46.673  31.193  27.564  1.00  0.00     0.029 A 
ATOM     57  N   UNL A   1      45.042  29.684  27.672  1.00  0.00    -0.354 N 
ATOM     58  N   UNL A   1      43.830  27.049  27.238  1.00  0.00    -0.248 NA
ATOM     59  C   UNL A   1      43.864  24.941  26.236  1.00  0.00     0.031 C 
ATOM     60  C   UNL A   1      47.070  30.061  26.848  1.00  0.00     0.029 A 
ATOM     61  C   UNL A   1      46.064  29.111  26.933  1.00  0.00     0.049 A 
ATOM     62  H   UNL A   1      44.190  29.243  27.896  1.00  0.00     0.167 HD
ATOM     63  C   UNL A   1      45.019  26.898  26.534  1.00  0.00     0.074 A 
ATOM     64  C   UNL A   1      44.999  25.569  25.961  1.00  0.00     0.031 C 
ATOM     65  C   UNL A   1      46.033  27.783  26.375  1.00  0.00     0.037 A 
BRANCH  52  66
ATOM     66  C   UNL A   1      45.078  33.235  29.106  1.00  0.00     0.064 A 
ATOM     67  C   UNL A   1      45.919  33.465  30.205  1.00  0.00     0.173 A 
ATOM     68  C   UNL A   1      44.779  34.319  28.268  1.00  0.00     0.173 A 
ATOM     69  F   UNL A   1      46.219  32.463  31.047  1.00  0.00    -0.203 F 
ATOM     70  C   UNL A   1      46.430  34.733  30.461  1.00  0.00     0.198 A 
ATOM     71  C   UNL A   1      45.315  35.580  28.511  1.00  0.00     0.198 A 
ATOM     72  F   UNL A   1      43.979  34.152  27.204  1.00  0.00    -0.203 F 
ATOM     73  F   UNL A   1      47.201  34.938  31.538  1.00  0.00    -0.200 F 
ATOM     74  C   UNL A   1      46.136  35.788  29.609  1.00  0.00     0.200 A 
ATOM     75  F   UNL A   1      45.040  36.595  27.681  1.00  0.00    -0.200 F 
ATOM     76  F   UNL A   1      46.642  37.006  29.849  1.00  0.00    -0.200 F 
ENDBRANCH  52  66
BRANCH  53  77
ATOM     77  C   UNL A   1      41.289  24.156  27.405  1.00  0.00     0.064 A 
ATOM     78  C   UNL A   1      40.170  23.962  26.582  1.00  0.00     0.173 A 
ATOM     79  C   UNL A   1      41.869  23.022  27.994  1.00  0.00     0.173 A 
ATOM     80  F   UNL A   1      39.561  25.017  26.020  1.00  0.00    -0.203 F 
ATOM     81  C   UNL A   1      39.649  22.688  26.365  1.00  0.00     0.198 A 
ATOM     82  C   UNL A   1      41.363  21.746  27.753  1.00  0.00     0.198 A 
ATOM     83  F   UNL A   1      42.934  23.154  28.797  1.00  0.00    -0.203 F 
ATOM     84  F   UNL A   1      38.555  22.535  25.604  1.00  0.00    -0.200 F 
ATOM     85  C   UNL A   1      40.251  21.581  26.942  1.00  0.00     0.200 A 
ATOM     86  F   UNL A   1      41.953  20.679  28.308  1.00  0.00    -0.200 F 
ATOM     87  F   UNL A   1      39.753  20.355  26.726  1.00  0.00    -0.200 F 
ENDBRANCH  53  77
BRANCH  65  88
ATOM     88  C   UNL A   1      47.222  27.353  25.563  1.00  0.00     0.064 A 
ATOM     89  C   UNL A   1      47.326  27.660  24.199  1.00  0.00     0.173 A 
ATOM     90  C   UNL A   1      48.312  26.716  26.179  1.00  0.00     0.173 A 
ATOM     91  F   UNL A   1      46.309  28.260  23.562  1.00  0.00    -0.203 F 
ATOM     92  C   UNL A   1      48.473  27.337  23.478  1.00  0.00     0.198 A 
ATOM     93  C   UNL A   1      49.469  26.422  25.463  1.00  0.00     0.198 A 
ATOM     94  F   UNL A   1      48.268  26.411  27.484  1.00  0.00    -0.203 F 
ATOM     95  F   UNL A   1      48.539  27.615  22.169  1.00  0.00    -0.200 F 
ATOM     96  C   UNL A   1      49.548  26.730  24.112  1.00  0.00     0.200 A 
ATOM     97  F   UNL A   1      50.512  25.854  26.082  1.00  0.00    -0.200 F 
ATOM     98  F   UNL A   1      50.659  26.442  23.422  1.00  0.00    -0.200 F 
ENDBRANCH  65  88
ENDBRANCH  39  40
ENDBRANCH  32  34
ENDBRANCH  31  32
ENDBRANCH  30  31
ENDBRANCH  29  30
ENDBRANCH  28  29
ENDBRANCH  27  28
ENDBRANCH   1  27
TORSDOF 21
ENDMDL
MODEL 2
REMARK VINA RESULT:     -11.4      5.017      9.529
REMARK SMILES Cc1cc(Cl)cc2c1O[C@H](C(F)(F)F)C(C(=O)OCCOCCOCCOCCOC(=O)c1ccc(-c3c4nc(c(-c5c(F)c(F)c(F)c(F)c5F)c5ccc([nH]5)c(-c5c(F)c(F)c(F)c(F)c5F)c5nc(c(-c6c(F)c(F)c(F)c(F)c6F)c6ccc3[nH]6)C=C5)C=C4)cc1)=C2
REMARK SMILES IDX 25 1 24 2 23 3 22 4 21 5 20 6 19 7 18 8 16 9 17 10 15 11
REMARK SMILES IDX 1 12 2 13 3 14 8 15 4 16 7 17 9 18 5 19 6 20 96 21 10 22
REMARK SMILES IDX 11 23 12 24 13 25 14 26 26 27 27 28 28 29 29 30 30 31 31 32
REMARK SMILES IDX 32 33 33 34 34 35 95 36 35 37 94 38 36 39 37 40 38 41 88 42
REMARK SMILES IDX 39 43 93 44 87 45 89 46 40 47 92 48 86 49 85 50 41 52 73 53
REMARK SMILES IDX 53 54 72 55 54 56 57 57 71 58 90 59 55 60 56 61 70 63 91 64
REMARK SMILES IDX 58 65 42 66 43 67 51 68 44 69 45 70 49 71 52 72 46 73 47 74
REMARK SMILES IDX 50 75 48 76 74 77 75 78 83 79 76 80 77 81 81 82 84 83 78 84
REMARK SMILES IDX 79 85 82 86 80 87 59 88 60 89 68 90 61 91 62 92 66 93 69 94
REMARK SMILES IDX 63 95 64 96 67 97 65 98
REMARK H PARENT 89 51 57 62
REMARK Flexibility Score: inf
ROOT
ATOM      1  C   UNL A   1      34.026  27.791  23.168  1.00  0.00     0.188 C 
ENDROOT
BRANCH   1   2
ATOM      2  O   UNL A   1      33.679  27.664  21.787  1.00  0.00    -0.377 OA
BRANCH   2   3
ATOM      3  C   UNL A   1      33.019  26.480  21.367  1.00  0.00     0.188 C 
BRANCH   3   4
ATOM      4  C   UNL A   1      32.745  25.482  22.509  1.00  0.00     0.188 C 
BRANCH   4   5
ATOM      5  O   UNL A   1      31.364  25.384  22.835  1.00  0.00    -0.376 OA
BRANCH   5   6
ATOM      6  C   UNL A   1      30.923  25.892  24.084  1.00  0.00     0.202 C 
BRANCH   6   7
ATOM      7  C   UNL A   1      30.408  24.912  25.152  1.00  0.00     0.261 C 
BRANCH   7   8
ATOM      8  O   UNL A   1      30.827  23.548  25.008  1.00  0.00    -0.460 OA
BRANCH   8   9
ATOM      9  C   UNL A   1      31.258  22.906  26.110  1.00  0.00     0.338 C 
ATOM     10  O   UNL A   1      30.763  22.954  27.222  1.00  0.00    -0.246 OA
BRANCH   9  11
ATOM     11  C   UNL A   1      32.347  21.990  25.703  1.00  0.00     0.087 C 
ATOM     12  C   UNL A   1      36.880  19.771  24.747  1.00  0.00     0.048 C 
ATOM     13  C   UNL A   1      35.438  19.341  24.734  1.00  0.00    -0.007 A 
ATOM     14  C   UNL A   1      35.136  17.981  24.568  1.00  0.00     0.027 A 
ATOM     15  C   UNL A   1      34.394  20.246  24.991  1.00  0.00     0.131 A 
ATOM     16  C   UNL A   1      33.815  17.542  24.624  1.00  0.00     0.042 A 
ATOM     17  C   UNL A   1      33.075  19.791  25.100  1.00  0.00     0.019 A 
ATOM     18  O   UNL A   1      34.741  21.557  25.148  1.00  0.00    -0.475 OA
ATOM     19  Cl  UNL A   1      33.461  15.872  24.413  1.00  0.00    -0.084 Cl
ATOM     20  C   UNL A   1      32.783  18.439  24.885  1.00  0.00     0.032 A 
ATOM     21  C   UNL A   1      32.022  20.706  25.513  1.00  0.00     0.027 C 
ATOM     22  C   UNL A   1      33.722  22.550  25.443  1.00  0.00     0.316 C 
BRANCH  22  23
ATOM     23  C   UNL A   1      34.242  23.404  26.607  1.00  0.00     0.430 C 
ATOM     24  F   UNL A   1      35.577  23.615  26.503  1.00  0.00    -0.167 F 
ATOM     25  F   UNL A   1      33.663  24.626  26.650  1.00  0.00    -0.167 F 
ATOM     26  F   UNL A   1      34.019  22.809  27.802  1.00  0.00    -0.167 F 
ENDBRANCH  22  23
ENDBRANCH   9  11
ENDBRANCH   8   9
ENDBRANCH   7   8
ENDBRANCH   6   7
ENDBRANCH   5   6
ENDBRANCH   4   5
ENDBRANCH   3   4
ENDBRANCH   2   3
ENDBRANCH   1   2
BRANCH   1  27
ATOM     27  C   UNL A   1      33.447  28.903  24.080  1.00  0.00     0.188 C 
BRANCH  27  28
ATOM     28  O   UNL A   1      32.061  29.156  23.891  1.00  0.00    -0.376 OA
BRANCH  28  29
ATOM     29  C   UNL A   1      31.284  29.413  25.050  1.00  0.00     0.202 C 
BRANCH  29  30
ATOM     30  C   UNL A   1      31.633  30.716  25.778  1.00  0.00     0.261 C 
BRANCH  30  31
ATOM     31  O   UNL A   1      32.601  30.591  26.832  1.00  0.00    -0.460 OA
BRANCH  31  32
ATOM     32  C   UNL A   1      33.210  31.720  27.254  1.00  0.00     0.338 C 
ATOM     33  O   UNL A   1      32.741  32.843  27.303  1.00  0.00    -0.246 OA
BRANCH  32  34
ATOM     34  C   UNL A   1      34.505  31.326  27.845  1.00  0.00     0.060 A 
ATOM     35  C   UNL A   1      34.730  29.979  28.156  1.00  0.00     0.016 A 
ATOM     36  C   UNL A   1      35.501  32.282  28.064  1.00  0.00     0.016 A 
ATOM     37  C   UNL A   1      35.947  29.587  28.713  1.00  0.00     0.010 A 
ATOM     38  C   UNL A   1      36.710  31.892  28.646  1.00  0.00     0.010 A 
ATOM     39  C   UNL A   1      36.925  30.550  29.000  1.00  0.00    -0.014 A 
BRANCH  39  40
ATOM     40  C   UNL A   1      38.072  30.187  29.866  1.00  0.00     0.031 A 
ATOM     41  C   UNL A   1      39.107  29.250  29.308  1.00  0.00     0.074 A 
ATOM     42  C   UNL A   1      38.217  30.701  31.100  1.00  0.00     0.049 A 
ATOM     43  N   UNL A   1      40.192  28.781  29.867  1.00  0.00    -0.248 NA
ATOM     44  C   UNL A   1      38.888  28.782  27.929  1.00  0.00     0.031 C 
ATOM     45  C   UNL A   1      37.308  31.653  31.731  1.00  0.00     0.029 A 
ATOM     46  N   UNL A   1      39.194  30.489  32.042  1.00  0.00    -0.354 N 
ATOM     47  C   UNL A   1      40.789  27.976  28.906  1.00  0.00     0.074 A 
ATOM     48  C   UNL A   1      39.927  27.983  27.744  1.00  0.00     0.031 C 
ATOM     49  C   UNL A   1      37.770  31.947  32.959  1.00  0.00     0.029 A 
ATOM     50  C   UNL A   1      38.991  31.180  33.211  1.00  0.00     0.049 A 
ATOM     51  H   UNL A   1      39.966  29.897  31.893  1.00  0.00     0.167 HD
ATOM     52  C   UNL A   1      41.960  27.304  28.978  1.00  0.00     0.037 A 
ATOM     53  C   UNL A   1      39.707  31.181  34.354  1.00  0.00     0.037 A 
ATOM     54  C   UNL A   1      42.811  27.288  30.137  1.00  0.00     0.049 A 
ATOM     55  C   UNL A   1      40.955  30.338  34.448  1.00  0.00     0.074 A 
ATOM     56  C   UNL A   1      44.019  26.636  30.307  1.00  0.00     0.029 A 
ATOM     57  N   UNL A   1      42.539  27.947  31.325  1.00  0.00    -0.354 N 
ATOM     58  N   UNL A   1      41.526  29.597  33.528  1.00  0.00    -0.248 NA
ATOM     59  C   UNL A   1      41.658  30.329  35.741  1.00  0.00     0.031 C 
ATOM     60  C   UNL A   1      44.452  26.857  31.617  1.00  0.00     0.029 A 
ATOM     61  C   UNL A   1      43.542  27.692  32.246  1.00  0.00     0.049 A 
ATOM     62  H   UNL A   1      41.749  28.513  31.491  1.00  0.00     0.167 HD
ATOM     63  C   UNL A   1      42.661  29.056  34.120  1.00  0.00     0.074 A 
ATOM     64  C   UNL A   1      42.708  29.565  35.475  1.00  0.00     0.031 C 
ATOM     65  C   UNL A   1      43.579  28.212  33.590  1.00  0.00     0.037 A 
BRANCH  52  66
ATOM     66  C   UNL A   1      42.388  26.521  27.774  1.00  0.00     0.064 A 
ATOM     67  C   UNL A   1      43.267  27.061  26.824  1.00  0.00     0.173 A 
ATOM     68  C   UNL A   1      41.956  25.199  27.594  1.00  0.00     0.173 A 
ATOM     69  F   UNL A   1      43.694  28.329  26.942  1.00  0.00    -0.203 F 
ATOM     70  C   UNL A   1      43.688  26.310  25.731  1.00  0.00     0.198 A 
ATOM     71  C   UNL A   1      42.402  24.441  26.515  1.00  0.00     0.198 A 
ATOM     72  F   UNL A   1      41.115  24.636  28.474  1.00  0.00    -0.203 F 
ATOM     73  F   UNL A   1      44.499  26.859  24.815  1.00  0.00    -0.200 F 
ATOM     74  C   UNL A   1      43.263  24.998  25.582  1.00  0.00     0.200 A 
ATOM     75  F   UNL A   1      41.999  23.170  26.379  1.00  0.00    -0.200 F 
ATOM     76  F   UNL A   1      43.682  24.271  24.537  1.00  0.00    -0.200 F 
ENDBRANCH  52  66
BRANCH  53  77
ATOM     77  C   UNL A   1      39.265  32.012  35.506  1.00  0.00     0.064 A 
ATOM     78  C   UNL A   1      38.438  31.477  36.504  1.00  0.00     0.173 A 
ATOM     79  C   UNL A   1      39.652  33.354  35.630  1.00  0.00     0.173 A 
ATOM     80  F   UNL A   1      38.016  30.207  36.415  1.00  0.00    -0.203 F 
ATOM     81  C   UNL A   1      38.009  32.257  37.577  1.00  0.00     0.198 A 
ATOM     82  C   UNL A   1      39.244  34.124  36.718  1.00  0.00     0.198 A 
ATOM     83  F   UNL A   1      40.434  33.917  34.698  1.00  0.00    -0.203 F 
ATOM     84  F   UNL A   1      37.187  31.732  38.497  1.00  0.00    -0.200 F 
ATOM     85  C   UNL A   1      38.420  33.576  37.688  1.00  0.00     0.200 A 
ATOM     86  F   UNL A   1      39.650  35.397  36.824  1.00  0.00    -0.200 F 
ATOM     87  F   UNL A   1      38.013  34.323  38.724  1.00  0.00    -0.200 F 
ENDBRANCH  53  77
BRANCH  65  88
ATOM     88  C   UNL A   1      44.730  27.786  34.457  1.00  0.00     0.064 A 
ATOM     89  C   UNL A   1      45.905  28.546  34.537  1.00  0.00     0.173 A 
ATOM     90  C   UNL A   1      44.615  26.662  35.290  1.00  0.00     0.173 A 
ATOM     91  F   UNL A   1      46.068  29.624  33.755  1.00  0.00    -0.203 F 
ATOM     92  C   UNL A   1      46.929  28.191  35.412  1.00  0.00     0.198 A 
ATOM     93  C   UNL A   1      45.627  26.327  36.186  1.00  0.00     0.198 A 
ATOM     94  F   UNL A   1      43.506  25.907  35.261  1.00  0.00    -0.203 F 
ATOM     95  F   UNL A   1      48.054  28.915  35.452  1.00  0.00    -0.200 F 
ATOM     96  C   UNL A   1      46.784  27.090  36.245  1.00  0.00     0.200 A 
ATOM     97  F   UNL A   1      45.476  25.275  37.002  1.00  0.00    -0.200 F 
ATOM     98  F   UNL A   1      47.759  26.764  37.103  1.00  0.00    -0.200 F 
ENDBRANCH  65  88
ENDBRANCH  39  40
ENDBRANCH  32  34
ENDBRANCH  31  32
ENDBRANCH  30  31
ENDBRANCH  29  30
ENDBRANCH  28  29
ENDBRANCH  27  28
ENDBRANCH   1  27
TORSDOF 21
ENDMDL
MODEL 3
REMARK VINA RESULT:     -11.2      4.866      9.687
REMARK SMILES Cc1cc(Cl)cc2c1O[C@H](C(F)(F)F)C(C(=O)OCCOCCOCCOCCOC(=O)c1ccc(-c3c4nc(c(-c5c(F)c(F)c(F)c(F)c5F)c5ccc([nH]5)c(-c5c(F)c(F)c(F)c(F)c5F)c5nc(c(-c6c(F)c(F)c(F)c(F)c6F)c6ccc3[nH]6)C=C5)C=C4)cc1)=C2
REMARK SMILES IDX 25 1 24 2 23 3 22 4 21 5 20 6 19 7 18 8 16 9 17 10 15 11
REMARK SMILES IDX 1 12 2 13 3 14 8 15 4 16 7 17 9 18 5 19 6 20 96 21 10 22
REMARK SMILES IDX 11 23 12 24 13 25 14 26 26 27 27 28 28 29 29 30 30 31 31 32
REMARK SMILES IDX 32 33 33 34 34 35 95 36 35 37 94 38 36 39 37 40 38 41 88 42
REMARK SMILES IDX 39 43 93 44 87 45 89 46 40 47 92 48 86 49 85 50 41 52 73 53
REMARK SMILES IDX 53 54 72 55 54 56 57 57 71 58 90 59 55 60 56 61 70 63 91 64
REMARK SMILES IDX 58 65 42 66 43 67 51 68 44 69 45 70 49 71 52 72 46 73 47 74
REMARK SMILES IDX 50 75 48 76 74 77 75 78 83 79 76 80 77 81 81 82 84 83 78 84
REMARK SMILES IDX 79 85 82 86 80 87 59 88 60 89 68 90 61 91 62 92 66 93 69 94
REMARK SMILES IDX 63 95 64 96 67 97 65 98
REMARK H PARENT 89 51 57 62
REMARK Flexibility Score: inf
ROOT
ATOM      1  C   UNL A   1      31.659  26.754  24.751  1.00  0.00     0.188 C 
ENDROOT
BRANCH   1   2
ATOM      2  O   UNL A   1      30.985  26.204  23.616  1.00  0.00    -0.377 OA
BRANCH   2   3
ATOM      3  C   UNL A   1      30.057  25.153  23.830  1.00  0.00     0.188 C 
BRANCH   3   4
ATOM      4  C   UNL A   1      30.695  23.751  23.837  1.00  0.00     0.188 C 
BRANCH   4   5
ATOM      5  O   UNL A   1      30.766  23.185  25.141  1.00  0.00    -0.376 OA
BRANCH   5   6
ATOM      6  C   UNL A   1      31.403  21.928  25.301  1.00  0.00     0.202 C 
BRANCH   6   7
ATOM      7  C   UNL A   1      32.178  21.323  24.118  1.00  0.00     0.261 C 
BRANCH   7   8
ATOM      8  O   UNL A   1      33.607  21.327  24.236  1.00  0.00    -0.460 OA
BRANCH   8   9
ATOM      9  C   UNL A   1      34.291  22.245  23.528  1.00  0.00     0.338 C 
ATOM     10  O   UNL A   1      33.921  22.808  22.514  1.00  0.00    -0.246 OA
BRANCH   9  11
ATOM     11  C   UNL A   1      35.515  22.583  24.290  1.00  0.00     0.087 C 
ATOM     12  C   UNL A   1      39.028  24.745  27.352  1.00  0.00     0.048 C 
ATOM     13  C   UNL A   1      38.895  23.448  26.600  1.00  0.00    -0.007 A 
ATOM     14  C   UNL A   1      39.842  22.437  26.819  1.00  0.00     0.027 A 
ATOM     15  C   UNL A   1      37.794  23.184  25.768  1.00  0.00     0.131 A 
ATOM     16  C   UNL A   1      39.708  21.200  26.192  1.00  0.00     0.042 A 
ATOM     17  C   UNL A   1      37.635  21.922  25.185  1.00  0.00     0.019 A 
ATOM     18  O   UNL A   1      36.899  24.201  25.590  1.00  0.00    -0.475 OA
ATOM     19  Cl  UNL A   1      40.880  19.971  26.467  1.00  0.00    -0.084 Cl
ATOM     20  C   UNL A   1      38.611  20.938  25.374  1.00  0.00     0.032 A 
ATOM     21  C   UNL A   1      36.419  21.609  24.450  1.00  0.00     0.027 C 
ATOM     22  C   UNL A   1      35.720  23.997  24.767  1.00  0.00     0.316 C 
BRANCH  22  23
ATOM     23  C   UNL A   1      34.517  24.537  25.553  1.00  0.00     0.430 C 
ATOM     24  F   UNL A   1      34.195  23.716  26.582  1.00  0.00    -0.167 F 
ATOM     25  F   UNL A   1      34.757  25.753  26.093  1.00  0.00    -0.167 F 
ATOM     26  F   UNL A   1      33.420  24.653  24.769  1.00  0.00    -0.167 F 
ENDBRANCH  22  23
ENDBRANCH   9  11
ENDBRANCH   8   9
ENDBRANCH   7   8
ENDBRANCH   6   7
ENDBRANCH   5   6
ENDBRANCH   4   5
ENDBRANCH   3   4
ENDBRANCH   2   3
ENDBRANCH   1   2
BRANCH   1  27
ATOM     27  C   UNL A   1      31.174  28.036  25.475  1.00  0.00     0.188 C 
BRANCH  27  28
ATOM     28  O   UNL A   1      30.840  29.111  24.607  1.00  0.00    -0.376 OA
BRANCH  28  29
ATOM     29  C   UNL A   1      31.121  30.425  25.063  1.00  0.00     0.202 C 
BRANCH  29  30
ATOM     30  C   UNL A   1      31.775  30.495  26.448  1.00  0.00     0.261 C 
BRANCH  30  31
ATOM     31  O   UNL A   1      33.168  30.849  26.453  1.00  0.00    -0.460 OA
BRANCH  31  32
ATOM     32  C   UNL A   1      33.557  31.831  27.295  1.00  0.00     0.338 C 
ATOM     33  O   UNL A   1      32.926  32.820  27.623  1.00  0.00    -0.246 OA
BRANCH  32  34
ATOM     34  C   UNL A   1      34.823  31.398  27.919  1.00  0.00     0.060 A 
ATOM     35  C   UNL A   1      34.971  30.060  28.303  1.00  0.00     0.016 A 
ATOM     36  C   UNL A   1      35.869  32.308  28.097  1.00  0.00     0.016 A 
ATOM     37  C   UNL A   1      36.160  29.632  28.893  1.00  0.00     0.010 A 
ATOM     38  C   UNL A   1      37.050  31.885  28.711  1.00  0.00     0.010 A 
ATOM     39  C   UNL A   1      37.188  30.554  29.138  1.00  0.00    -0.014 A 
BRANCH  39  40
ATOM     40  C   UNL A   1      38.307  30.175  30.033  1.00  0.00     0.031 A 
ATOM     41  C   UNL A   1      39.374  29.270  29.484  1.00  0.00     0.074 A 
ATOM     42  C   UNL A   1      38.400  30.649  31.288  1.00  0.00     0.049 A 
ATOM     43  N   UNL A   1      40.444  28.794  30.067  1.00  0.00    -0.248 NA
ATOM     44  C   UNL A   1      39.211  28.845  28.083  1.00  0.00     0.031 C 
ATOM     45  C   UNL A   1      37.457  31.570  31.916  1.00  0.00     0.029 A 
ATOM     46  N   UNL A   1      39.345  30.417  32.258  1.00  0.00    -0.354 N 
ATOM     47  C   UNL A   1      41.085  28.029  29.103  1.00  0.00     0.074 A 
ATOM     48  C   UNL A   1      40.267  28.065  27.911  1.00  0.00     0.031 C 
ATOM     49  C   UNL A   1      37.870  31.827  33.170  1.00  0.00     0.029 A 
ATOM     50  C   UNL A   1      39.090  31.066  33.441  1.00  0.00     0.049 A 
ATOM     51  H   UNL A   1      40.129  29.840  32.118  1.00  0.00     0.167 HD
ATOM     52  C   UNL A   1      42.262  27.369  29.196  1.00  0.00     0.037 A 
ATOM     53  C   UNL A   1      39.764  31.037  34.609  1.00  0.00     0.037 A 
ATOM     54  C   UNL A   1      43.070  27.323  30.385  1.00  0.00     0.049 A 
ATOM     55  C   UNL A   1      41.018  30.206  34.722  1.00  0.00     0.074 A 
ATOM     56  C   UNL A   1      44.279  26.680  30.578  1.00  0.00     0.029 A 
ATOM     57  N   UNL A   1      42.745  27.939  31.583  1.00  0.00    -0.354 N 
ATOM     58  N   UNL A   1      41.632  29.503  33.800  1.00  0.00    -0.248 NA
ATOM     59  C   UNL A   1      41.673  30.162  36.039  1.00  0.00     0.031 C 
ATOM     60  C   UNL A   1      44.660  26.862  31.910  1.00  0.00     0.029 A 
ATOM     61  C   UNL A   1      43.717  27.665  32.531  1.00  0.00     0.049 A 
ATOM     62  H   UNL A   1      41.944  28.490  31.737  1.00  0.00     0.167 HD
ATOM     63  C   UNL A   1      42.751  28.956  34.416  1.00  0.00     0.074 A 
ATOM     64  C   UNL A   1      42.742  29.420  35.787  1.00  0.00     0.031 C 
ATOM     65  C   UNL A   1      43.699  28.140  33.892  1.00  0.00     0.037 A 
BRANCH  52  66
ATOM     66  C   UNL A   1      42.743  26.631  27.984  1.00  0.00     0.064 A 
ATOM     67  C   UNL A   1      43.451  27.283  26.963  1.00  0.00     0.173 A 
ATOM     68  C   UNL A   1      42.540  25.249  27.864  1.00  0.00     0.173 A 
ATOM     69  F   UNL A   1      43.655  28.609  27.023  1.00  0.00    -0.203 F 
ATOM     70  C   UNL A   1      43.928  26.580  25.861  1.00  0.00     0.198 A 
ATOM     71  C   UNL A   1      43.043  24.544  26.774  1.00  0.00     0.198 A 
ATOM     72  F   UNL A   1      41.869  24.578  28.812  1.00  0.00    -0.203 F 
ATOM     73  F   UNL A   1      44.569  27.229  24.880  1.00  0.00    -0.200 F 
ATOM     74  C   UNL A   1      43.731  25.210  25.772  1.00  0.00     0.200 A 
ATOM     75  F   UNL A   1      42.862  23.218  26.694  1.00  0.00    -0.200 F 
ATOM     76  F   UNL A   1      44.204  24.531  24.717  1.00  0.00    -0.200 F 
ENDBRANCH  52  66
BRANCH  53  77
ATOM     77  C   UNL A   1      39.269  31.824  35.771  1.00  0.00     0.064 A 
ATOM     78  C   UNL A   1      38.301  31.298  36.637  1.00  0.00     0.173 A 
ATOM     79  C   UNL A   1      39.746  33.117  36.035  1.00  0.00     0.173 A 
ATOM     80  F   UNL A   1      37.791  30.078  36.411  1.00  0.00    -0.203 F 
ATOM     81  C   UNL A   1      37.823  32.038  37.718  1.00  0.00     0.198 A 
ATOM     82  C   UNL A   1      39.287  33.844  37.132  1.00  0.00     0.198 A 
ATOM     83  F   UNL A   1      40.665  33.670  35.231  1.00  0.00    -0.203 F 
ATOM     84  F   UNL A   1      36.870  31.525  38.508  1.00  0.00    -0.200 F 
ATOM     85  C   UNL A   1      38.324  33.306  37.969  1.00  0.00     0.200 A 
ATOM     86  F   UNL A   1      39.780  35.066  37.374  1.00  0.00    -0.200 F 
ATOM     87  F   UNL A   1      37.870  34.014  39.013  1.00  0.00    -0.200 F 
ENDBRANCH  53  77
BRANCH  65  88
ATOM     88  C   UNL A   1      44.822  27.699  34.787  1.00  0.00     0.064 A 
ATOM     89  C   UNL A   1      45.974  28.480  34.954  1.00  0.00     0.173 A 
ATOM     90  C   UNL A   1      44.701  26.533  35.560  1.00  0.00     0.173 A 
ATOM     91  F   UNL A   1      46.142  29.599  34.231  1.00  0.00    -0.203 F 
ATOM     92  C   UNL A   1      46.968  28.107  35.854  1.00  0.00     0.198 A 
ATOM     93  C   UNL A   1      45.682  26.179  36.481  1.00  0.00     0.198 A 
ATOM     94  F   UNL A   1      43.613  25.756  35.447  1.00  0.00    -0.203 F 
ATOM     95  F   UNL A   1      48.073  28.854  35.977  1.00  0.00    -0.200 F 
ATOM     96  C   UNL A   1      46.816  26.964  36.626  1.00  0.00     0.200 A 
ATOM     97  F   UNL A   1      45.523  25.085  37.239  1.00  0.00    -0.200 F 
ATOM     98  F   UNL A   1      47.762  26.619  37.509  1.00  0.00    -0.200 F 
ENDBRANCH  65  88
ENDBRANCH  39  40
ENDBRANCH  32  34
ENDBRANCH  31  32
ENDBRANCH  30  31
ENDBRANCH  29  30
ENDBRANCH  28  29
ENDBRANCH  27  28
ENDBRANCH   1  27
TORSDOF 21
ENDMDL
