MODEL 1
REMARK VINA RESULT:     -10.1      0.000      0.000
REMARK SMILES CCCc1cc(OC(F)(F)F)cc2c1O[C@@H](C(F)(F)F)C(C(=O)OCCOCCOCCOCCOC(=O)c1ccc(-c3c4nc(c(-c5c(F)c(F)c(F)c(F)c5F)c5ccc([nH]5)c(-c5c(F)c(F)c(F)c(F)c5F)c5nc(c(-c6c(F)c(F)c(F)c(F)c6F)c6ccc3[nH]6)C=C5)C=C4)cc1)=C2
REMARK SMILES IDX 30 1 29 2 28 3 27 4 26 5 25 6 24 7 22 8 23 9 21 10 4 11 5 12
REMARK SMILES IDX 14 13 6 14 13 15 15 16 12 17 102 18 16 19 3 20 2 21 1 22
REMARK SMILES IDX 7 23 8 24 9 25 10 26 11 27 17 28 18 29 19 30 20 31 31 32
REMARK SMILES IDX 32 33 33 34 34 35 35 36 36 37 37 38 38 39 39 40 40 41 101 42
REMARK SMILES IDX 41 43 100 44 42 45 43 46 44 47 94 48 45 49 99 50 93 51 95 52
REMARK SMILES IDX 46 53 98 54 92 55 91 56 47 58 79 59 59 60 78 61 60 62 63 63
REMARK SMILES IDX 77 64 96 65 61 66 62 67 76 69 97 70 64 71 48 72 49 73 57 74
REMARK SMILES IDX 50 75 51 76 55 77 58 78 52 79 53 80 56 81 54 82 80 83 81 84
REMARK SMILES IDX 89 85 82 86 83 87 87 88 90 89 84 90 85 91 88 92 86 93 65 94
REMARK SMILES IDX 66 95 74 96 67 97 68 98 72 99 75 100 69 101 70 102 73 103
REMARK SMILES IDX 71 104
REMARK H PARENT 95 57 63 68
REMARK Flexibility Score: inf
ROOT
ATOM      1  O   UNL A   1      34.073  31.140  27.240  1.00  0.00    -0.377 OA
ENDROOT
BRANCH   1   2
ATOM      2  C   UNL A   1      32.702  30.805  27.103  1.00  0.00     0.188 C 
BRANCH   2   3
ATOM      3  C   UNL A   1      32.225  30.024  25.860  1.00  0.00     0.188 C 
BRANCH   3   4
ATOM      4  O   UNL A   1      33.259  29.554  25.008  1.00  0.00    -0.376 OA
BRANCH   4   5
ATOM      5  C   UNL A   1      32.873  29.092  23.723  1.00  0.00     0.202 C 
BRANCH   5   6
ATOM      6  C   UNL A   1      33.147  27.605  23.464  1.00  0.00     0.261 C 
BRANCH   6   7
ATOM      7  O   UNL A   1      32.398  26.718  24.307  1.00  0.00    -0.460 OA
BRANCH   7   8
ATOM      8  C   UNL A   1      33.050  26.215  25.378  1.00  0.00     0.338 C 
ATOM      9  O   UNL A   1      33.121  26.721  26.482  1.00  0.00    -0.246 OA
BRANCH   8  10
ATOM     10  C   UNL A   1      33.539  24.862  25.060  1.00  0.00     0.087 C 
ATOM     11  C   UNL A   1      34.804  20.905  25.190  1.00  0.00    -0.002 A 
ATOM     12  C   UNL A   1      36.183  20.622  25.139  1.00  0.00     0.054 A 
ATOM     13  C   UNL A   1      34.386  22.229  25.009  1.00  0.00     0.131 A 
ATOM     14  C   UNL A   1      37.119  21.638  24.916  1.00  0.00     0.130 A 
ATOM     15  C   UNL A   1      35.317  23.264  24.882  1.00  0.00     0.021 A 
ATOM     16  O   UNL A   1      33.042  22.450  25.017  1.00  0.00    -0.475 OA
ATOM     17  C   UNL A   1      36.676  22.960  24.793  1.00  0.00     0.058 A 
ATOM     18  C   UNL A   1      34.863  24.644  25.023  1.00  0.00     0.027 C 
ATOM     19  C   UNL A   1      32.545  23.775  24.728  1.00  0.00     0.316 C 
BRANCH  11  20
ATOM     20  C   UNL A   1      33.814  19.780  25.433  1.00  0.00     0.039 C 
BRANCH  20  21
ATOM     21  C   UNL A   1      33.602  18.796  24.268  1.00  0.00     0.001 C 
ATOM     22  C   UNL A   1      34.571  17.623  24.219  1.00  0.00     0.004 C 
ENDBRANCH  20  21
ENDBRANCH  11  20
BRANCH  14  23
ATOM     23  O   UNL A   1      38.473  21.487  24.823  1.00  0.00    -0.406 OA
BRANCH  23  24
ATOM     24  C   UNL A   1      39.247  21.697  25.992  1.00  0.00     0.573 C 
ATOM     25  F   UNL A   1      40.369  22.395  25.713  1.00  0.00    -0.132 F 
ATOM     26  F   UNL A   1      38.536  22.344  26.939  1.00  0.00    -0.132 F 
ATOM     27  F   UNL A   1      39.613  20.495  26.490  1.00  0.00    -0.132 F 
ENDBRANCH  23  24
ENDBRANCH  14  23
BRANCH  19  28
ATOM     28  C   UNL A   1      31.121  23.875  25.312  1.00  0.00     0.430 C 
ATOM     29  F   UNL A   1      30.288  24.584  24.517  1.00  0.00    -0.167 F 
ATOM     30  F   UNL A   1      30.566  22.636  25.399  1.00  0.00    -0.167 F 
ATOM     31  F   UNL A   1      31.094  24.415  26.546  1.00  0.00    -0.167 F 
ENDBRANCH  19  28
ENDBRANCH   8  10
ENDBRANCH   7   8
ENDBRANCH   6   7
ENDBRANCH   5   6
ENDBRANCH   4   5
ENDBRANCH   3   4
ENDBRANCH   2   3
ENDBRANCH   1   2
BRANCH   1  32
ATOM     32  C   UNL A   1      34.493  31.850  28.397  1.00  0.00     0.188 C 
BRANCH  32  33
ATOM     33  C   UNL A   1      35.310  33.156  28.256  1.00  0.00     0.188 C 
BRANCH  33  34
ATOM     34  O   UNL A   1      34.965  34.178  29.180  1.00  0.00    -0.376 OA
BRANCH  34  35
ATOM     35  C   UNL A   1      34.153  35.236  28.699  1.00  0.00     0.202 C 
BRANCH  35  36
ATOM     36  C   UNL A   1      32.906  35.557  29.532  1.00  0.00     0.261 C 
BRANCH  36  37
ATOM     37  O   UNL A   1      33.142  36.247  30.770  1.00  0.00    -0.460 OA
BRANCH  37  38
ATOM     38  C   UNL A   1      32.755  35.635  31.909  1.00  0.00     0.338 C 
ATOM     39  O   UNL A   1      31.626  35.535  32.353  1.00  0.00    -0.246 OA
BRANCH  38  40
ATOM     40  C   UNL A   1      33.936  34.923  32.441  1.00  0.00     0.060 A 
ATOM     41  C   UNL A   1      35.195  35.540  32.390  1.00  0.00     0.016 A 
ATOM     42  C   UNL A   1      33.784  33.670  33.036  1.00  0.00     0.016 A 
ATOM     43  C   UNL A   1      36.311  34.895  32.924  1.00  0.00     0.010 A 
ATOM     44  C   UNL A   1      34.905  33.011  33.539  1.00  0.00     0.010 A 
ATOM     45  C   UNL A   1      36.176  33.608  33.461  1.00  0.00    -0.014 A 
BRANCH  45  46
ATOM     46  C   UNL A   1      37.378  32.785  33.729  1.00  0.00     0.031 A 
ATOM     47  C   UNL A   1      38.131  33.044  35.002  1.00  0.00     0.074 A 
ATOM     48  C   UNL A   1      37.800  31.847  32.865  1.00  0.00     0.049 A 
ATOM     49  N   UNL A   1      39.265  32.543  35.419  1.00  0.00    -0.248 NA
ATOM     50  C   UNL A   1      37.522  34.012  35.931  1.00  0.00     0.031 C 
ATOM     51  C   UNL A   1      37.129  31.473  31.623  1.00  0.00     0.029 A 
ATOM     52  N   UNL A   1      38.917  31.048  32.902  1.00  0.00    -0.354 N 
ATOM     53  C   UNL A   1      39.507  33.141  36.649  1.00  0.00     0.074 A 
ATOM     54  C   UNL A   1      38.421  34.062  36.900  1.00  0.00     0.031 C 
ATOM     55  C   UNL A   1      37.861  30.529  31.002  1.00  0.00     0.029 A 
ATOM     56  C   UNL A   1      39.068  30.263  31.785  1.00  0.00     0.049 A 
ATOM     57  H   UNL A   1      39.550  31.039  33.656  1.00  0.00     0.167 HD
ATOM     58  C   UNL A   1      40.542  32.934  37.496  1.00  0.00     0.037 A 
ATOM     59  C   UNL A   1      40.082  29.451  31.427  1.00  0.00     0.037 A 
ATOM     60  C   UNL A   1      41.623  32.024  37.237  1.00  0.00     0.049 A 
ATOM     61  C   UNL A   1      41.269  29.303  32.349  1.00  0.00     0.074 A 
ATOM     62  C   UNL A   1      42.715  31.733  38.036  1.00  0.00     0.029 A 
ATOM     63  N   UNL A   1      41.755  31.265  36.083  1.00  0.00    -0.354 N 
ATOM     64  N   UNL A   1      41.484  29.851  33.522  1.00  0.00    -0.248 NA
ATOM     65  C   UNL A   1      42.357  28.424  31.895  1.00  0.00     0.031 C 
ATOM     66  C   UNL A   1      43.537  30.841  37.339  1.00  0.00     0.029 A 
ATOM     67  C   UNL A   1      42.924  30.526  36.137  1.00  0.00     0.049 A 
ATOM     68  H   UNL A   1      41.111  31.253  35.338  1.00  0.00     0.167 HD
ATOM     69  C   UNL A   1      42.708  29.357  33.958  1.00  0.00     0.074 A 
ATOM     70  C   UNL A   1      43.185  28.458  32.930  1.00  0.00     0.031 C 
ATOM     71  C   UNL A   1      43.375  29.620  35.110  1.00  0.00     0.037 A 
BRANCH  58  72
ATOM     72  C   UNL A   1      40.567  33.735  38.764  1.00  0.00     0.064 A 
ATOM     73  C   UNL A   1      39.867  33.328  39.909  1.00  0.00     0.173 A 
ATOM     74  C   UNL A   1      41.325  34.914  38.843  1.00  0.00     0.173 A 
ATOM     75  F   UNL A   1      39.111  32.218  39.881  1.00  0.00    -0.203 F 
ATOM     76  C   UNL A   1      39.902  34.084  41.078  1.00  0.00     0.198 A 
ATOM     77  C   UNL A   1      41.384  35.650  40.022  1.00  0.00     0.198 A 
ATOM     78  F   UNL A   1      42.012  35.348  37.776  1.00  0.00    -0.203 F 
ATOM     79  F   UNL A   1      39.184  33.703  42.143  1.00  0.00    -0.200 F 
ATOM     80  C   UNL A   1      40.668  35.240  41.136  1.00  0.00     0.200 A 
ATOM     81  F   UNL A   1      42.134  36.759  40.080  1.00  0.00    -0.200 F 
ATOM     82  F   UNL A   1      40.709  35.962  42.264  1.00  0.00    -0.200 F 
ENDBRANCH  58  72
BRANCH  59  83
ATOM     83  C   UNL A   1      40.039  28.725  30.130  1.00  0.00     0.064 A 
ATOM     84  C   UNL A   1      39.451  27.456  30.030  1.00  0.00     0.173 A 
ATOM     85  C   UNL A   1      40.616  29.267  28.971  1.00  0.00     0.173 A 
ATOM     86  F   UNL A   1      38.911  26.881  31.115  1.00  0.00    -0.203 F 
ATOM     87  C   UNL A   1      39.461  26.749  28.828  1.00  0.00     0.198 A 
ATOM     88  C   UNL A   1      40.597  28.573  27.764  1.00  0.00     0.198 A 
ATOM     89  F   UNL A   1      41.197  30.475  29.012  1.00  0.00    -0.203 F 
ATOM     90  F   UNL A   1      38.940  25.516  28.775  1.00  0.00    -0.200 F 
ATOM     91  C   UNL A   1      40.029  27.311  27.694  1.00  0.00     0.200 A 
ATOM     92  F   UNL A   1      41.137  29.125  26.668  1.00  0.00    -0.200 F 
ATOM     93  F   UNL A   1      40.037  26.631  26.540  1.00  0.00    -0.200 F 
ENDBRANCH  59  83
BRANCH  71  94
ATOM     94  C   UNL A   1      44.668  28.892  35.350  1.00  0.00     0.064 A 
ATOM     95  C   UNL A   1      44.707  27.642  35.982  1.00  0.00     0.173 A 
ATOM     96  C   UNL A   1      45.877  29.430  34.881  1.00  0.00     0.173 A 
ATOM     97  F   UNL A   1      43.582  27.090  36.459  1.00  0.00    -0.203 F 
ATOM     98  C   UNL A   1      45.914  26.968  36.158  1.00  0.00     0.198 A 
ATOM     99  C   UNL A   1      47.075  28.737  35.028  1.00  0.00     0.198 A 
ATOM    100  F   UNL A   1      45.893  30.619  34.260  1.00  0.00    -0.203 F 
ATOM    101  F   UNL A   1      45.935  25.793  36.805  1.00  0.00    -0.200 F 
ATOM    102  C   UNL A   1      47.094  27.510  35.671  1.00  0.00     0.200 A 
ATOM    103  F   UNL A   1      48.211  29.256  34.540  1.00  0.00    -0.200 F 
ATOM    104  F   UNL A   1      48.251  26.852  35.829  1.00  0.00    -0.200 F 
ENDBRANCH  71  94
ENDBRANCH  45  46
ENDBRANCH  38  40
ENDBRANCH  37  38
ENDBRANCH  36  37
ENDBRANCH  35  36
ENDBRANCH  34  35
ENDBRANCH  33  34
ENDBRANCH  32  33
ENDBRANCH   1  32
TORSDOF 25
ENDMDL
MODEL 2
REMARK VINA RESULT:      -9.3      2.216      7.531
REMARK SMILES CCCc1cc(OC(F)(F)F)cc2c1O[C@@H](C(F)(F)F)C(C(=O)OCCOCCOCCOCCOC(=O)c1ccc(-c3c4nc(c(-c5c(F)c(F)c(F)c(F)c5F)c5ccc([nH]5)c(-c5c(F)c(F)c(F)c(F)c5F)c5nc(c(-c6c(F)c(F)c(F)c(F)c6F)c6ccc3[nH]6)C=C5)C=C4)cc1)=C2
REMARK SMILES IDX 30 1 29 2 28 3 27 4 26 5 25 6 24 7 22 8 23 9 21 10 4 11 5 12
REMARK SMILES IDX 14 13 6 14 13 15 15 16 12 17 102 18 16 19 3 20 2 21 1 22
REMARK SMILES IDX 7 23 8 24 9 25 10 26 11 27 17 28 18 29 19 30 20 31 31 32
REMARK SMILES IDX 32 33 33 34 34 35 35 36 36 37 37 38 38 39 39 40 40 41 101 42
REMARK SMILES IDX 41 43 100 44 42 45 43 46 44 47 94 48 45 49 99 50 93 51 95 52
REMARK SMILES IDX 46 53 98 54 92 55 91 56 47 58 79 59 59 60 78 61 60 62 63 63
REMARK SMILES IDX 77 64 96 65 61 66 62 67 76 69 97 70 64 71 48 72 49 73 57 74
REMARK SMILES IDX 50 75 51 76 55 77 58 78 52 79 53 80 56 81 54 82 80 83 81 84
REMARK SMILES IDX 89 85 82 86 83 87 87 88 90 89 84 90 85 91 88 92 86 93 65 94
REMARK SMILES IDX 66 95 74 96 67 97 68 98 72 99 75 100 69 101 70 102 73 103
REMARK SMILES IDX 71 104
REMARK H PARENT 95 57 63 68
REMARK Flexibility Score: inf
ROOT
ATOM      1  O   UNL A   1      31.708  27.558  24.515  1.00  0.00    -0.377 OA
ENDROOT
BRANCH   1   2
ATOM      2  C   UNL A   1      31.904  27.534  23.112  1.00  0.00     0.188 C 
BRANCH   2   3
ATOM      3  C   UNL A   1      31.115  26.529  22.244  1.00  0.00     0.188 C 
BRANCH   3   4
ATOM      4  O   UNL A   1      31.848  25.947  21.177  1.00  0.00    -0.376 OA
BRANCH   4   5
ATOM      5  C   UNL A   1      33.093  25.350  21.502  1.00  0.00     0.202 C 
BRANCH   5   6
ATOM      6  C   UNL A   1      33.002  23.908  22.019  1.00  0.00     0.261 C 
BRANCH   6   7
ATOM      7  O   UNL A   1      34.194  23.445  22.670  1.00  0.00    -0.460 OA
BRANCH   7   8
ATOM      8  C   UNL A   1      34.017  22.652  23.750  1.00  0.00     0.338 C 
ATOM      9  O   UNL A   1      33.153  21.806  23.889  1.00  0.00    -0.246 OA
BRANCH   8  10
ATOM     10  C   UNL A   1      35.137  22.848  24.687  1.00  0.00     0.087 C 
ATOM     11  C   UNL A   1      38.656  24.013  26.568  1.00  0.00    -0.002 A 
ATOM     12  C   UNL A   1      39.748  23.124  26.592  1.00  0.00     0.054 A 
ATOM     13  C   UNL A   1      37.436  23.558  26.052  1.00  0.00     0.131 A 
ATOM     14  C   UNL A   1      39.624  21.816  26.110  1.00  0.00     0.130 A 
ATOM     15  C   UNL A   1      37.328  22.287  25.481  1.00  0.00     0.021 A 
ATOM     16  O   UNL A   1      36.393  24.433  26.092  1.00  0.00    -0.475 OA
ATOM     17  C   UNL A   1      38.409  21.407  25.551  1.00  0.00     0.058 A 
ATOM     18  C   UNL A   1      36.154  21.972  24.671  1.00  0.00     0.027 C 
ATOM     19  C   UNL A   1      35.083  23.988  25.676  1.00  0.00     0.316 C 
BRANCH  11  20
ATOM     20  C   UNL A   1      38.822  25.424  27.099  1.00  0.00     0.039 C 
BRANCH  20  21
ATOM     21  C   UNL A   1      39.654  25.576  28.385  1.00  0.00     0.001 C 
ATOM     22  C   UNL A   1      39.255  26.734  29.289  1.00  0.00     0.004 C 
ENDBRANCH  20  21
ENDBRANCH  11  20
BRANCH  14  23
ATOM     23  O   UNL A   1      40.599  20.860  26.102  1.00  0.00    -0.406 OA
BRANCH  23  24
ATOM     24  C   UNL A   1      41.399  20.715  27.263  1.00  0.00     0.573 C 
ATOM     25  F   UNL A   1      42.531  21.445  27.167  1.00  0.00    -0.132 F 
ATOM     26  F   UNL A   1      40.720  21.079  28.372  1.00  0.00    -0.132 F 
ATOM     27  F   UNL A   1      41.747  19.416  27.392  1.00  0.00    -0.132 F 
ENDBRANCH  23  24
ENDBRANCH  14  23
BRANCH  19  28
ATOM     28  C   UNL A   1      34.260  25.241  25.313  1.00  0.00     0.430 C 
ATOM     29  F   UNL A   1      32.937  24.977  25.224  1.00  0.00    -0.167 F 
ATOM     30  F   UNL A   1      34.376  26.173  26.296  1.00  0.00    -0.167 F 
ATOM     31  F   UNL A   1      34.658  25.817  24.162  1.00  0.00    -0.167 F 
ENDBRANCH  19  28
ENDBRANCH   8  10
ENDBRANCH   7   8
ENDBRANCH   6   7
ENDBRANCH   5   6
ENDBRANCH   4   5
ENDBRANCH   3   4
ENDBRANCH   2   3
ENDBRANCH   1   2
BRANCH   1  32
ATOM     32  C   UNL A   1      31.579  28.813  25.168  1.00  0.00     0.188 C 
BRANCH  32  33
ATOM     33  C   UNL A   1      32.391  29.111  26.451  1.00  0.00     0.188 C 
BRANCH  33  34
ATOM     34  O   UNL A   1      33.574  29.869  26.245  1.00  0.00    -0.376 OA
BRANCH  34  35
ATOM     35  C   UNL A   1      34.017  30.679  27.321  1.00  0.00     0.202 C 
BRANCH  35  36
ATOM     36  C   UNL A   1      33.163  31.917  27.625  1.00  0.00     0.261 C 
BRANCH  36  37
ATOM     37  O   UNL A   1      33.878  33.157  27.738  1.00  0.00    -0.460 OA
BRANCH  37  38
ATOM     38  C   UNL A   1      33.926  33.742  28.954  1.00  0.00     0.338 C 
ATOM     39  O   UNL A   1      33.045  34.371  29.512  1.00  0.00    -0.246 OA
BRANCH  38  40
ATOM     40  C   UNL A   1      35.190  33.314  29.590  1.00  0.00     0.060 A 
ATOM     41  C   UNL A   1      35.165  32.305  30.563  1.00  0.00     0.016 A 
ATOM     42  C   UNL A   1      36.400  33.878  29.183  1.00  0.00     0.016 A 
ATOM     43  C   UNL A   1      36.355  31.865  31.143  1.00  0.00     0.010 A 
ATOM     44  C   UNL A   1      37.585  33.462  29.788  1.00  0.00     0.010 A 
ATOM     45  C   UNL A   1      37.565  32.474  30.788  1.00  0.00    -0.014 A 
BRANCH  45  46
ATOM     46  C   UNL A   1      38.776  32.257  31.612  1.00  0.00     0.031 A 
ATOM     47  C   UNL A   1      39.843  31.354  31.061  1.00  0.00     0.074 A 
ATOM     48  C   UNL A   1      38.924  32.830  32.819  1.00  0.00     0.049 A 
ATOM     49  N   UNL A   1      40.940  30.917  31.624  1.00  0.00    -0.248 NA
ATOM     50  C   UNL A   1      39.635  30.869  29.686  1.00  0.00     0.031 C 
ATOM     51  C   UNL A   1      37.983  33.760  33.437  1.00  0.00     0.029 A 
ATOM     52  N   UNL A   1      39.925  32.692  33.748  1.00  0.00    -0.354 N 
ATOM     53  C   UNL A   1      41.545  30.101  30.677  1.00  0.00     0.074 A 
ATOM     54  C   UNL A   1      40.683  30.079  29.516  1.00  0.00     0.031 C 
ATOM     55  C   UNL A   1      38.442  34.094  34.658  1.00  0.00     0.029 A 
ATOM     56  C   UNL A   1      39.687  33.371  34.918  1.00  0.00     0.049 A 
ATOM     57  H   UNL A   1      40.736  32.156  33.592  1.00  0.00     0.167 HD
ATOM     58  C   UNL A   1      42.719  29.435  30.766  1.00  0.00     0.037 A 
ATOM     59  C   UNL A   1      40.381  33.378  36.073  1.00  0.00     0.037 A 
ATOM     60  C   UNL A   1      43.567  29.453  31.926  1.00  0.00     0.049 A 
ATOM     61  C   UNL A   1      41.644  32.555  36.180  1.00  0.00     0.074 A 
ATOM     62  C   UNL A   1      44.783  28.821  32.115  1.00  0.00     0.029 A 
ATOM     63  N   UNL A   1      43.280  30.133  33.101  1.00  0.00    -0.354 N 
ATOM     64  N   UNL A   1      42.226  31.805  35.275  1.00  0.00    -0.248 NA
ATOM     65  C   UNL A   1      42.345  32.581  37.472  1.00  0.00     0.031 C 
ATOM     66  C   UNL A   1      45.203  29.071  33.425  1.00  0.00     0.029 A 
ATOM     67  C   UNL A   1      44.283  29.912  34.030  1.00  0.00     0.049 A 
ATOM     68  H   UNL A   1      42.482  30.689  33.251  1.00  0.00     0.167 HD
ATOM     69  C   UNL A   1      43.374  31.301  35.874  1.00  0.00     0.074 A 
ATOM     70  C   UNL A   1      43.413  31.838  37.218  1.00  0.00     0.031 C 
ATOM     71  C   UNL A   1      44.315  30.471  35.358  1.00  0.00     0.037 A 
BRANCH  58  72
ATOM     72  C   UNL A   1      43.133  28.603  29.589  1.00  0.00     0.064 A 
ATOM     73  C   UNL A   1      42.871  27.226  29.528  1.00  0.00     0.173 A 
ATOM     74  C   UNL A   1      43.778  29.197  28.493  1.00  0.00     0.173 A 
ATOM     75  F   UNL A   1      42.273  26.605  30.557  1.00  0.00    -0.203 F 
ATOM     76  C   UNL A   1      43.263  26.469  28.426  1.00  0.00     0.198 A 
ATOM     77  C   UNL A   1      44.139  28.444  27.380  1.00  0.00     0.198 A 
ATOM     78  F   UNL A   1      44.053  30.510  28.502  1.00  0.00    -0.203 F 
ATOM     79  F   UNL A   1      43.048  25.147  28.413  1.00  0.00    -0.200 F 
ATOM     80  C   UNL A   1      43.889  27.081  27.350  1.00  0.00     0.200 A 
ATOM     81  F   UNL A   1      44.733  29.039  26.336  1.00  0.00    -0.200 F 
ATOM     82  F   UNL A   1      44.257  26.354  26.286  1.00  0.00    -0.200 F 
ENDBRANCH  58  72
BRANCH  59  83
ATOM     83  C   UNL A   1      39.896  34.170  37.234  1.00  0.00     0.064 A 
ATOM     84  C   UNL A   1      39.034  33.607  38.186  1.00  0.00     0.173 A 
ATOM     85  C   UNL A   1      40.254  35.518  37.398  1.00  0.00     0.173 A 
ATOM     86  F   UNL A   1      38.639  32.332  38.059  1.00  0.00    -0.203 F 
ATOM     87  C   UNL A   1      38.532  34.366  39.243  1.00  0.00     0.198 A 
ATOM     88  C   UNL A   1      39.777  36.265  38.472  1.00  0.00     0.198 A 
ATOM     89  F   UNL A   1      41.071  36.108  36.514  1.00  0.00    -0.203 F 
ATOM     90  F   UNL A   1      37.667  33.816  40.106  1.00  0.00    -0.200 F 
ATOM     91  C   UNL A   1      38.909  35.692  39.388  1.00  0.00     0.200 A 
ATOM     92  F   UNL A   1      40.152  37.543  38.615  1.00  0.00    -0.200 F 
ATOM     93  F   UNL A   1      38.425  36.420  40.405  1.00  0.00    -0.200 F 
ENDBRANCH  59  83
BRANCH  71  94
ATOM     94  C   UNL A   1      45.495  30.130  36.223  1.00  0.00     0.064 A 
ATOM     95  C   UNL A   1      46.661  30.910  36.227  1.00  0.00     0.173 A 
ATOM     96  C   UNL A   1      45.431  29.041  37.107  1.00  0.00     0.173 A 
ATOM     97  F   UNL A   1      46.778  31.954  35.393  1.00  0.00    -0.203 F 
ATOM     98  C   UNL A   1      47.727  30.597  37.067  1.00  0.00     0.198 A 
ATOM     99  C   UNL A   1      46.485  28.753  37.969  1.00  0.00     0.198 A 
ATOM    100  F   UNL A   1      44.335  28.269  37.150  1.00  0.00    -0.203 F 
ATOM    101  F   UNL A   1      48.850  31.329  37.022  1.00  0.00    -0.200 F 
ATOM    102  C   UNL A   1      47.634  29.527  37.944  1.00  0.00     0.200 A 
ATOM    103  F   UNL A   1      46.384  27.728  38.828  1.00  0.00    -0.200 F 
ATOM    104  F   UNL A   1      48.656  29.237  38.761  1.00  0.00    -0.200 F 
ENDBRANCH  71  94
ENDBRANCH  45  46
ENDBRANCH  38  40
ENDBRANCH  37  38
ENDBRANCH  36  37
ENDBRANCH  35  36
ENDBRANCH  34  35
ENDBRANCH  33  34
ENDBRANCH  32  33
ENDBRANCH   1  32
TORSDOF 25
ENDMDL
MODEL 3
REMARK VINA RESULT:      -9.1      7.601     13.269
REMARK SMILES CCCc1cc(OC(F)(F)F)cc2c1O[C@@H](C(F)(F)F)C(C(=O)OCCOCCOCCOCCOC(=O)c1ccc(-c3c4nc(c(-c5c(F)c(F)c(F)c(F)c5F)c5ccc([nH]5)c(-c5c(F)c(F)c(F)c(F)c5F)c5nc(c(-c6c(F)c(F)c(F)c(F)c6F)c6ccc3[nH]6)C=C5)C=C4)cc1)=C2
REMARK SMILES IDX 30 1 29 2 28 3 27 4 26 5 25 6 24 7 22 8 23 9 21 10 4 11 5 12
REMARK SMILES IDX 14 13 6 14 13 15 15 16 12 17 102 18 16 19 3 20 2 21 1 22
REMARK SMILES IDX 7 23 8 24 9 25 10 26 11 27 17 28 18 29 19 30 20 31 31 32
REMARK SMILES IDX 32 33 33 34 34 35 35 36 36 37 37 38 38 39 39 40 40 41 101 42
REMARK SMILES IDX 41 43 100 44 42 45 43 46 44 47 94 48 45 49 99 50 93 51 95 52
REMARK SMILES IDX 46 53 98 54 92 55 91 56 47 58 79 59 59 60 78 61 60 62 63 63
REMARK SMILES IDX 77 64 96 65 61 66 62 67 76 69 97 70 64 71 48 72 49 73 57 74
REMARK SMILES IDX 50 75 51 76 55 77 58 78 52 79 53 80 56 81 54 82 80 83 81 84
REMARK SMILES IDX 89 85 82 86 83 87 87 88 90 89 84 90 85 91 88 92 86 93 65 94
REMARK SMILES IDX 66 95 74 96 67 97 68 98 72 99 75 100 69 101 70 102 73 103
REMARK SMILES IDX 71 104
REMARK H PARENT 95 57 63 68
REMARK Flexibility Score: inf
ROOT
ATOM      1  O   UNL A   1      51.756  29.238  21.613  1.00  0.00    -0.377 OA
ENDROOT
BRANCH   1   2
ATOM      2  C   UNL A   1      51.501  27.877  21.914  1.00  0.00     0.188 C 
BRANCH   2   3
ATOM      3  C   UNL A   1      52.581  27.035  22.627  1.00  0.00     0.188 C 
BRANCH   3   4
ATOM      4  O   UNL A   1      52.222  26.560  23.916  1.00  0.00    -0.376 OA
BRANCH   4   5
ATOM      5  C   UNL A   1      51.135  27.206  24.560  1.00  0.00     0.202 C 
BRANCH   5   6
ATOM      6  C   UNL A   1      50.155  26.264  25.271  1.00  0.00     0.261 C 
BRANCH   6   7
ATOM      7  O   UNL A   1      49.018  26.928  25.841  1.00  0.00    -0.460 OA
BRANCH   7   8
ATOM      8  C   UNL A   1      47.979  27.158  25.009  1.00  0.00     0.338 C 
ATOM      9  O   UNL A   1      47.872  26.764  23.863  1.00  0.00    -0.246 OA
BRANCH   8  10
ATOM     10  C   UNL A   1      46.899  27.833  25.752  1.00  0.00     0.087 C 
ATOM     11  C   UNL A   1      43.303  29.508  26.990  1.00  0.00    -0.002 A 
ATOM     12  C   UNL A   1      43.137  30.905  26.925  1.00  0.00     0.054 A 
ATOM     13  C   UNL A   1      44.563  28.970  26.699  1.00  0.00     0.131 A 
ATOM     14  C   UNL A   1      44.203  31.741  26.575  1.00  0.00     0.130 A 
ATOM     15  C   UNL A   1      45.606  29.787  26.255  1.00  0.00     0.021 A 
ATOM     16  O   UNL A   1      44.692  27.620  26.822  1.00  0.00    -0.475 OA
ATOM     17  C   UNL A   1      45.435  31.172  26.236  1.00  0.00     0.058 A 
ATOM     18  C   UNL A   1      46.784  29.166  25.656  1.00  0.00     0.027 C 
ATOM     19  C   UNL A   1      45.992  27.017  26.641  1.00  0.00     0.316 C 
BRANCH  11  20
ATOM     20  C   UNL A   1      42.128  28.628  27.374  1.00  0.00     0.039 C 
BRANCH  20  21
ATOM     21  C   UNL A   1      40.792  28.927  26.669  1.00  0.00     0.001 C 
ATOM     22  C   UNL A   1      39.565  28.938  27.571  1.00  0.00     0.004 C 
ENDBRANCH  20  21
ENDBRANCH  11  20
BRANCH  14  23
ATOM     23  O   UNL A   1      44.173  33.105  26.500  1.00  0.00    -0.406 OA
BRANCH  23  24
ATOM     24  C   UNL A   1      44.052  33.698  25.218  1.00  0.00     0.573 C 
ATOM     25  F   UNL A   1      43.840  32.762  24.268  1.00  0.00    -0.132 F 
ATOM     26  F   UNL A   1      43.051  34.603  25.191  1.00  0.00    -0.132 F 
ATOM     27  F   UNL A   1      45.205  34.339  24.925  1.00  0.00    -0.132 F 
ENDBRANCH  23  24
ENDBRANCH  14  23
BRANCH  19  28
ATOM     28  C   UNL A   1      45.771  25.528  26.304  1.00  0.00     0.430 C 
ATOM     29  F   UNL A   1      46.797  24.750  26.719  1.00  0.00    -0.167 F 
ATOM     30  F   UNL A   1      44.677  25.060  26.960  1.00  0.00    -0.167 F 
ATOM     31  F   UNL A   1      45.577  25.310  24.989  1.00  0.00    -0.167 F 
ENDBRANCH  19  28
ENDBRANCH   8  10
ENDBRANCH   7   8
ENDBRANCH   6   7
ENDBRANCH   5   6
ENDBRANCH   4   5
ENDBRANCH   3   4
ENDBRANCH   2   3
ENDBRANCH   1   2
BRANCH   1  32
ATOM     32  C   UNL A   1      52.961  29.830  22.078  1.00  0.00     0.188 C 
BRANCH  32  33
ATOM     33  C   UNL A   1      52.923  30.887  23.208  1.00  0.00     0.188 C 
BRANCH  33  34
ATOM     34  O   UNL A   1      54.197  31.327  23.655  1.00  0.00    -0.376 OA
BRANCH  34  35
ATOM     35  C   UNL A   1      54.321  31.659  25.028  1.00  0.00     0.202 C 
BRANCH  35  36
ATOM     36  C   UNL A   1      53.207  32.541  25.608  1.00  0.00     0.261 C 
BRANCH  36  37
ATOM     37  O   UNL A   1      52.496  31.993  26.729  1.00  0.00    -0.460 OA
BRANCH  37  38
ATOM     38  C   UNL A   1      52.266  32.807  27.781  1.00  0.00     0.338 C 
ATOM     39  O   UNL A   1      52.992  33.683  28.216  1.00  0.00    -0.246 OA
BRANCH  38  40
ATOM     40  C   UNL A   1      50.869  32.581  28.207  1.00  0.00     0.060 A 
ATOM     41  C   UNL A   1      49.914  32.190  27.257  1.00  0.00     0.016 A 
ATOM     42  C   UNL A   1      50.523  32.707  29.553  1.00  0.00     0.016 A 
ATOM     43  C   UNL A   1      48.600  31.936  27.653  1.00  0.00     0.010 A 
ATOM     44  C   UNL A   1      49.202  32.486  29.942  1.00  0.00     0.010 A 
ATOM     45  C   UNL A   1      48.231  32.126  28.991  1.00  0.00    -0.014 A 
BRANCH  45  46
ATOM     46  C   UNL A   1      46.799  32.181  29.366  1.00  0.00     0.031 A 
ATOM     47  C   UNL A   1      46.143  30.902  29.802  1.00  0.00     0.074 A 
ATOM     48  C   UNL A   1      46.095  33.324  29.308  1.00  0.00     0.049 A 
ATOM     49  N   UNL A   1      44.887  30.658  30.076  1.00  0.00    -0.248 NA
ATOM     50  C   UNL A   1      47.028  29.732  29.940  1.00  0.00     0.031 C 
ATOM     51  C   UNL A   1      46.631  34.633  28.946  1.00  0.00     0.029 A 
ATOM     52  N   UNL A   1      44.761  33.555  29.540  1.00  0.00    -0.354 N 
ATOM     53  C   UNL A   1      44.832  29.311  30.407  1.00  0.00     0.074 A 
ATOM     54  C   UNL A   1      46.171  28.781  30.273  1.00  0.00     0.031 C 
ATOM     55  C   UNL A   1      45.628  35.531  28.959  1.00  0.00     0.029 A 
ATOM     56  C   UNL A   1      44.377  34.850  29.292  1.00  0.00     0.049 A 
ATOM     57  H   UNL A   1      44.139  32.859  29.852  1.00  0.00     0.167 HD
ATOM     58  C   UNL A   1      43.760  28.582  30.794  1.00  0.00     0.037 A 
ATOM     59  C   UNL A   1      43.149  35.407  29.302  1.00  0.00     0.037 A 
ATOM     60  C   UNL A   1      42.430  29.112  30.917  1.00  0.00     0.049 A 
ATOM     61  C   UNL A   1      41.954  34.552  29.652  1.00  0.00     0.074 A 
ATOM     62  C   UNL A   1      41.276  28.460  31.313  1.00  0.00     0.029 A 
ATOM     63  N   UNL A   1      42.075  30.423  30.633  1.00  0.00    -0.354 N 
ATOM     64  N   UNL A   1      41.909  33.285  29.988  1.00  0.00    -0.248 NA
ATOM     65  C   UNL A   1      40.638  35.207  29.622  1.00  0.00     0.031 C 
ATOM     66  C   UNL A   1      40.212  29.362  31.212  1.00  0.00     0.029 A 
ATOM     67  C   UNL A   1      40.713  30.592  30.818  1.00  0.00     0.049 A 
ATOM     68  H   UNL A   1      42.699  31.127  30.343  1.00  0.00     0.167 HD
ATOM     69  C   UNL A   1      40.572  33.002  30.243  1.00  0.00     0.074 A 
ATOM     70  C   UNL A   1      39.839  34.232  30.032  1.00  0.00     0.031 C 
ATOM     71  C   UNL A   1      40.002  31.830  30.621  1.00  0.00     0.037 A 
BRANCH  58  72
ATOM     72  C   UNL A   1      43.980  27.125  31.078  1.00  0.00     0.064 A 
ATOM     73  C   UNL A   1      44.444  26.677  32.324  1.00  0.00     0.173 A 
ATOM     74  C   UNL A   1      43.698  26.162  30.097  1.00  0.00     0.173 A 
ATOM     75  F   UNL A   1      44.747  27.558  33.290  1.00  0.00    -0.203 F 
ATOM     76  C   UNL A   1      44.643  25.321  32.568  1.00  0.00     0.198 A 
ATOM     77  C   UNL A   1      43.866  24.806  30.356  1.00  0.00     0.198 A 
ATOM     78  F   UNL A   1      43.253  26.538  28.889  1.00  0.00    -0.203 F 
ATOM     79  F   UNL A   1      45.135  24.920  33.748  1.00  0.00    -0.200 F 
ATOM     80  C   UNL A   1      44.345  24.386  31.587  1.00  0.00     0.200 A 
ATOM     81  F   UNL A   1      43.567  23.903  29.411  1.00  0.00    -0.200 F 
ATOM     82  F   UNL A   1      44.527  23.080  31.827  1.00  0.00    -0.200 F 
ENDBRANCH  58  72
BRANCH  59  83
ATOM     83  C   UNL A   1      42.975  36.842  28.953  1.00  0.00     0.064 A 
ATOM     84  C   UNL A   1      42.455  37.226  27.709  1.00  0.00     0.173 A 
ATOM     85  C   UNL A   1      43.357  37.860  29.840  1.00  0.00     0.173 A 
ATOM     86  F   UNL A   1      42.101  36.292  26.814  1.00  0.00    -0.203 F 
ATOM     87  C   UNL A   1      42.344  38.571  27.357  1.00  0.00     0.198 A 
ATOM     88  C   UNL A   1      43.217  39.203  29.500  1.00  0.00     0.198 A 
ATOM     89  F   UNL A   1      43.866  37.549  31.041  1.00  0.00    -0.203 F 
ATOM     90  F   UNL A   1      41.895  38.907  26.141  1.00  0.00    -0.200 F 
ATOM     91  C   UNL A   1      42.720  39.558  28.256  1.00  0.00     0.200 A 
ATOM     92  F   UNL A   1      43.570  40.154  30.375  1.00  0.00    -0.200 F 
ATOM     93  F   UNL A   1      42.614  40.850  27.916  1.00  0.00    -0.200 F 
ENDBRANCH  59  83
BRANCH  71  94
ATOM     94  C   UNL A   1      38.523  31.827  30.885  1.00  0.00     0.064 A 
ATOM     95  C   UNL A   1      37.999  32.032  32.169  1.00  0.00     0.173 A 
ATOM     96  C   UNL A   1      37.617  31.679  29.822  1.00  0.00     0.173 A 
ATOM     97  F   UNL A   1      38.820  32.167  33.221  1.00  0.00    -0.203 F 
ATOM     98  C   UNL A   1      36.622  32.064  32.383  1.00  0.00     0.198 A 
ATOM     99  C   UNL A   1      36.244  31.746  30.034  1.00  0.00     0.198 A 
ATOM    100  F   UNL A   1      38.067  31.490  28.572  1.00  0.00    -0.203 F 
ATOM    101  F   UNL A   1      36.142  32.216  33.626  1.00  0.00    -0.200 F 
ATOM    102  C   UNL A   1      35.747  31.933  31.315  1.00  0.00     0.200 A 
ATOM    103  F   UNL A   1      35.401  31.637  28.997  1.00  0.00    -0.200 F 
ATOM    104  F   UNL A   1      34.424  31.979  31.521  1.00  0.00    -0.200 F 
ENDBRANCH  71  94
ENDBRANCH  45  46
ENDBRANCH  38  40
ENDBRANCH  37  38
ENDBRANCH  36  37
ENDBRANCH  35  36
ENDBRANCH  34  35
ENDBRANCH  33  34
ENDBRANCH  32  33
ENDBRANCH   1  32
TORSDOF 25
ENDMDL
