MODEL 1
REMARK VINA RESULT:      -8.9      0.000      0.000
REMARK SMILES O=C(CCOc1cc(-c2ccncc2)nc(-c2ccc(C(F)(F)F)cc2)n1)OCCOCCOCCOCCOC(=O)c1ccc(-c2c3nc(c(-c4c(F)c(F)c(F)c(F)c4F)c4ccc([nH]4)c(-c4c(F)c(F)c(F)c(F)c4F)c4nc(c(-c5c(F)c(F)c(F)c(F)c5F)c5ccc2[nH]5)C=C4)C=C3)cc1
REMARK SMILES IDX 32 1 31 2 30 3 29 4 28 5 2 6 1 7 3 8 4 9 5 10 6 11 7 12
REMARK SMILES IDX 27 13 8 14 16 15 15 16 9 17 10 18 14 19 11 20 13 21 12 22
REMARK SMILES IDX 17 23 18 24 26 25 19 26 25 27 20 28 21 29 22 30 23 31 24 32
REMARK SMILES IDX 33 33 34 34 35 35 36 36 37 37 38 38 39 39 40 40 41 41 42 42
REMARK SMILES IDX 43 43 44 44 105 45 45 46 104 47 46 48 47 49 48 50 98 51
REMARK SMILES IDX 49 52 103 53 97 54 99 55 50 56 102 57 96 58 95 59 51 61
REMARK SMILES IDX 83 62 63 63 82 64 64 65 67 66 81 67 100 68 65 69 66 70 80 72
REMARK SMILES IDX 101 73 68 74 52 75 53 76 61 77 54 78 55 79 59 80 62 81 56 82
REMARK SMILES IDX 57 83 60 84 58 85 84 86 85 87 93 88 86 89 87 90 91 91 94 92
REMARK SMILES IDX 88 93 89 94 92 95 90 96 69 97 70 98 78 99 71 100 72 101
REMARK SMILES IDX 76 102 79 103 73 104 74 105 77 106 75 107
REMARK H PARENT 99 60 67 71
REMARK Flexibility Score: inf
ROOT
ATOM      1  C   UNL A   1      45.524  23.143  26.538  1.00  0.00     0.188 C 
ENDROOT
BRANCH   1   2
ATOM      2  O   UNL A   1      45.395  21.784  26.137  1.00  0.00    -0.376 OA
BRANCH   2   3
ATOM      3  C   UNL A   1      44.351  21.350  25.290  1.00  0.00     0.202 C 
BRANCH   3   4
ATOM      4  C   UNL A   1      43.198  20.594  25.938  1.00  0.00     0.261 C 
BRANCH   4   5
ATOM      5  O   UNL A   1      41.924  21.229  25.759  1.00  0.00    -0.463 OA
BRANCH   5   6
ATOM      6  C   UNL A   1      41.022  21.508  26.718  1.00  0.00     0.309 C 
ATOM      7  O   UNL A   1      40.834  20.713  27.634  1.00  0.00    -0.252 OA
BRANCH   6   8
ATOM      8  C   UNL A   1      40.285  22.799  26.643  1.00  0.00     0.164 C 
BRANCH   8   9
ATOM      9  C   UNL A   1      38.762  22.701  26.559  1.00  0.00     0.243 C 
BRANCH   9  10
ATOM     10  O   UNL A   1      38.205  21.724  25.673  1.00  0.00    -0.477 OA
BRANCH  10  11
ATOM     11  C   UNL A   1      36.827  21.748  25.565  1.00  0.00     0.217 A 
ATOM     12  C   UNL A   1      36.270  20.702  24.881  1.00  0.00     0.097 A 
ATOM     13  N   UNL A   1      36.122  22.775  26.059  1.00  0.00    -0.193 NA
ATOM     14  C   UNL A   1      34.898  20.601  24.952  1.00  0.00     0.078 A 
ATOM     15  C   UNL A   1      34.779  22.692  25.876  1.00  0.00     0.163 A 
ATOM     16  N   UNL A   1      34.130  21.588  25.452  1.00  0.00    -0.228 NA
BRANCH  14  17
ATOM     17  C   UNL A   1      34.245  19.350  24.561  1.00  0.00     0.003 A 
ATOM     18  C   UNL A   1      34.963  18.149  24.522  1.00  0.00     0.030 A 
ATOM     19  C   UNL A   1      32.931  19.344  24.082  1.00  0.00     0.030 A 
ATOM     20  C   UNL A   1      34.357  17.024  23.987  1.00  0.00     0.111 A 
ATOM     21  C   UNL A   1      32.405  18.165  23.581  1.00  0.00     0.111 A 
ATOM     22  N   UNL A   1      33.091  17.005  23.522  1.00  0.00    -0.265 NA
ENDBRANCH  14  17
BRANCH  15  23
ATOM     23  C   UNL A   1      34.007  23.955  25.834  1.00  0.00     0.019 A 
ATOM     24  C   UNL A   1      32.718  23.997  26.397  1.00  0.00     0.012 A 
ATOM     25  C   UNL A   1      34.550  25.176  25.387  1.00  0.00     0.012 A 
ATOM     26  C   UNL A   1      32.015  25.196  26.542  1.00  0.00     0.014 A 
ATOM     27  C   UNL A   1      33.840  26.383  25.516  1.00  0.00     0.014 A 
ATOM     28  C   UNL A   1      32.570  26.406  26.110  1.00  0.00     0.056 A 
BRANCH  28  29
ATOM     29  C   UNL A   1      31.801  27.690  26.316  1.00  0.00     0.416 C 
ATOM     30  F   UNL A   1      30.706  27.518  27.108  1.00  0.00    -0.166 F 
ATOM     31  F   UNL A   1      32.550  28.654  26.919  1.00  0.00    -0.166 F 
ATOM     32  F   UNL A   1      31.342  28.243  25.158  1.00  0.00    -0.166 F 
ENDBRANCH  28  29
ENDBRANCH  15  23
ENDBRANCH  10  11
ENDBRANCH   9  10
ENDBRANCH   8   9
ENDBRANCH   6   8
ENDBRANCH   5   6
ENDBRANCH   4   5
ENDBRANCH   3   4
ENDBRANCH   2   3
ENDBRANCH   1   2
BRANCH   1  33
ATOM     33  C   UNL A   1      45.077  23.420  27.991  1.00  0.00     0.188 C 
BRANCH  33  34
ATOM     34  O   UNL A   1      43.713  23.145  28.305  1.00  0.00    -0.377 OA
BRANCH  34  35
ATOM     35  C   UNL A   1      42.971  24.230  28.834  1.00  0.00     0.188 C 
BRANCH  35  36
ATOM     36  C   UNL A   1      42.951  25.511  27.961  1.00  0.00     0.188 C 
BRANCH  36  37
ATOM     37  O   UNL A   1      43.643  26.694  28.338  1.00  0.00    -0.376 OA
BRANCH  37  38
ATOM     38  C   UNL A   1      43.876  27.725  27.393  1.00  0.00     0.202 C 
BRANCH  38  39
ATOM     39  C   UNL A   1      44.294  27.363  25.960  1.00  0.00     0.261 C 
BRANCH  39  40
ATOM     40  O   UNL A   1      45.452  28.044  25.452  1.00  0.00    -0.460 OA
BRANCH  40  41
ATOM     41  C   UNL A   1      46.480  27.243  25.110  1.00  0.00     0.338 C 
ATOM     42  O   UNL A   1      46.732  26.788  23.993  1.00  0.00    -0.246 OA
BRANCH  41  43
ATOM     43  C   UNL A   1      47.414  27.090  26.241  1.00  0.00     0.060 A 
ATOM     44  C   UNL A   1      47.876  25.798  26.540  1.00  0.00     0.016 A 
ATOM     45  C   UNL A   1      47.757  28.171  27.056  1.00  0.00     0.016 A 
ATOM     46  C   UNL A   1      48.602  25.565  27.699  1.00  0.00     0.010 A 
ATOM     47  C   UNL A   1      48.453  27.931  28.244  1.00  0.00     0.010 A 
ATOM     48  C   UNL A   1      48.807  26.615  28.600  1.00  0.00    -0.014 A 
BRANCH  48  49
ATOM     49  C   UNL A   1      49.048  26.255  30.017  1.00  0.00     0.031 A 
ATOM     50  C   UNL A   1      50.481  26.148  30.471  1.00  0.00     0.074 A 
ATOM     51  C   UNL A   1      48.041  26.138  30.898  1.00  0.00     0.049 A 
ATOM     52  N   UNL A   1      50.967  25.886  31.657  1.00  0.00    -0.248 NA
ATOM     53  C   UNL A   1      51.511  26.375  29.441  1.00  0.00     0.031 C 
ATOM     54  C   UNL A   1      46.623  26.293  30.589  1.00  0.00     0.029 A 
ATOM     55  N   UNL A   1      48.070  25.871  32.242  1.00  0.00    -0.354 N 
ATOM     56  C   UNL A   1      52.349  25.902  31.510  1.00  0.00     0.074 A 
ATOM     57  C   UNL A   1      52.629  26.169  30.118  1.00  0.00     0.031 C 
ATOM     58  C   UNL A   1      45.911  26.112  31.716  1.00  0.00     0.029 A 
ATOM     59  C   UNL A   1      46.825  25.803  32.816  1.00  0.00     0.049 A 
ATOM     60  H   UNL A   1      48.904  25.740  32.748  1.00  0.00     0.167 HD
ATOM     61  C   UNL A   1      53.303  25.722  32.453  1.00  0.00     0.037 A 
ATOM     62  C   UNL A   1      46.474  25.511  34.083  1.00  0.00     0.037 A 
ATOM     63  C   UNL A   1      53.019  25.466  33.839  1.00  0.00     0.049 A 
ATOM     64  C   UNL A   1      47.555  25.243  35.102  1.00  0.00     0.074 A 
ATOM     65  C   UNL A   1      53.908  25.274  34.880  1.00  0.00     0.029 A 
ATOM     66  N   UNL A   1      51.744  25.359  34.373  1.00  0.00    -0.354 N 
ATOM     67  N   UNL A   1      48.860  25.272  34.960  1.00  0.00    -0.248 NA
ATOM     68  C   UNL A   1      47.111  24.911  36.462  1.00  0.00     0.031 C 
ATOM     69  C   UNL A   1      53.170  24.991  36.034  1.00  0.00     0.029 A 
ATOM     70  C   UNL A   1      51.821  25.080  35.727  1.00  0.00     0.049 A 
ATOM     71  H   UNL A   1      50.907  25.466  33.865  1.00  0.00     0.167 HD
ATOM     72  C   UNL A   1      49.389  25.008  36.218  1.00  0.00     0.074 A 
ATOM     73  C   UNL A   1      48.263  24.830  37.111  1.00  0.00     0.031 C 
ATOM     74  C   UNL A   1      50.687  24.926  36.603  1.00  0.00     0.037 A 
BRANCH  61  75
ATOM     75  C   UNL A   1      54.735  25.753  32.004  1.00  0.00     0.064 A 
ATOM     76  C   UNL A   1      55.436  24.586  31.663  1.00  0.00     0.173 A 
ATOM     77  C   UNL A   1      55.416  26.976  31.904  1.00  0.00     0.173 A 
ATOM     78  F   UNL A   1      54.840  23.387  31.762  1.00  0.00    -0.203 F 
ATOM     79  C   UNL A   1      56.770  24.639  31.268  1.00  0.00     0.198 A 
ATOM     80  C   UNL A   1      56.739  27.030  31.475  1.00  0.00     0.198 A 
ATOM     81  F   UNL A   1      54.794  28.123  32.218  1.00  0.00    -0.203 F 
ATOM     82  F   UNL A   1      57.435  23.506  31.000  1.00  0.00    -0.200 F 
ATOM     83  C   UNL A   1      57.418  25.862  31.166  1.00  0.00     0.200 A 
ATOM     84  F   UNL A   1      57.358  28.213  31.365  1.00  0.00    -0.200 F 
ATOM     85  F   UNL A   1      58.700  25.913  30.777  1.00  0.00    -0.200 F 
ENDBRANCH  61  75
BRANCH  62  86
ATOM     86  C   UNL A   1      45.039  25.457  34.467  1.00  0.00     0.064 A 
ATOM     87  C   UNL A   1      44.382  26.581  34.986  1.00  0.00     0.173 A 
ATOM     88  C   UNL A   1      44.301  24.269  34.353  1.00  0.00     0.173 A 
ATOM     89  F   UNL A   1      45.051  27.735  35.137  1.00  0.00    -0.203 F 
ATOM     90  C   UNL A   1      43.053  26.515  35.400  1.00  0.00     0.198 A 
ATOM     91  C   UNL A   1      42.963  24.212  34.737  1.00  0.00     0.198 A 
ATOM     92  F   UNL A   1      44.879  23.163  33.864  1.00  0.00    -0.203 F 
ATOM     93  F   UNL A   1      42.471  27.590  35.948  1.00  0.00    -0.200 F 
ATOM     94  C   UNL A   1      42.343  25.331  35.270  1.00  0.00     0.200 A 
ATOM     95  F   UNL A   1      42.277  23.069  34.597  1.00  0.00    -0.200 F 
ATOM     96  F   UNL A   1      41.066  25.266  35.670  1.00  0.00    -0.200 F 
ENDBRANCH  62  86
BRANCH  74  97
ATOM     97  C   UNL A   1      50.963  24.700  38.064  1.00  0.00     0.064 A 
ATOM     98  C   UNL A   1      51.141  25.763  38.962  1.00  0.00     0.173 A 
ATOM     99  C   UNL A   1      51.023  23.393  38.575  1.00  0.00     0.173 A 
ATOM    100  F   UNL A   1      51.103  27.031  38.525  1.00  0.00    -0.203 F 
ATOM    101  C   UNL A   1      51.412  25.525  40.307  1.00  0.00     0.198 A 
ATOM    102  C   UNL A   1      51.255  23.161  39.928  1.00  0.00     0.198 A 
ATOM    103  F   UNL A   1      50.846  22.340  37.763  1.00  0.00    -0.203 F 
ATOM    104  F   UNL A   1      51.644  26.554  41.134  1.00  0.00    -0.200 F 
ATOM    105  C   UNL A   1      51.462  24.226  40.790  1.00  0.00     0.200 A 
ATOM    106  F   UNL A   1      51.282  21.905  40.394  1.00  0.00    -0.200 F 
ATOM    107  F   UNL A   1      51.719  23.999  42.086  1.00  0.00    -0.200 F 
ENDBRANCH  74  97
ENDBRANCH  48  49
ENDBRANCH  41  43
ENDBRANCH  40  41
ENDBRANCH  39  40
ENDBRANCH  38  39
ENDBRANCH  37  38
ENDBRANCH  36  37
ENDBRANCH  35  36
ENDBRANCH  34  35
ENDBRANCH  33  34
ENDBRANCH   1  33
TORSDOF 26
ENDMDL
MODEL 2
REMARK VINA RESULT:      -8.9      9.161     13.490
REMARK SMILES O=C(CCOc1cc(-c2ccncc2)nc(-c2ccc(C(F)(F)F)cc2)n1)OCCOCCOCCOCCOC(=O)c1ccc(-c2c3nc(c(-c4c(F)c(F)c(F)c(F)c4F)c4ccc([nH]4)c(-c4c(F)c(F)c(F)c(F)c4F)c4nc(c(-c5c(F)c(F)c(F)c(F)c5F)c5ccc2[nH]5)C=C4)C=C3)cc1
REMARK SMILES IDX 32 1 31 2 30 3 29 4 28 5 2 6 1 7 3 8 4 9 5 10 6 11 7 12
REMARK SMILES IDX 27 13 8 14 16 15 15 16 9 17 10 18 14 19 11 20 13 21 12 22
REMARK SMILES IDX 17 23 18 24 26 25 19 26 25 27 20 28 21 29 22 30 23 31 24 32
REMARK SMILES IDX 33 33 34 34 35 35 36 36 37 37 38 38 39 39 40 40 41 41 42 42
REMARK SMILES IDX 43 43 44 44 105 45 45 46 104 47 46 48 47 49 48 50 98 51
REMARK SMILES IDX 49 52 103 53 97 54 99 55 50 56 102 57 96 58 95 59 51 61
REMARK SMILES IDX 83 62 63 63 82 64 64 65 67 66 81 67 100 68 65 69 66 70 80 72
REMARK SMILES IDX 101 73 68 74 52 75 53 76 61 77 54 78 55 79 59 80 62 81 56 82
REMARK SMILES IDX 57 83 60 84 58 85 84 86 85 87 93 88 86 89 87 90 91 91 94 92
REMARK SMILES IDX 88 93 89 94 92 95 90 96 69 97 70 98 78 99 71 100 72 101
REMARK SMILES IDX 76 102 79 103 73 104 74 105 77 106 75 107
REMARK H PARENT 99 60 67 71
REMARK Flexibility Score: inf
ROOT
ATOM      1  C   UNL A   1      44.521  33.014  26.292  1.00  0.00     0.188 C 
ENDROOT
BRANCH   1   2
ATOM      2  O   UNL A   1      44.681  31.607  26.431  1.00  0.00    -0.376 OA
BRANCH   2   3
ATOM      3  C   UNL A   1      43.853  30.841  27.282  1.00  0.00     0.202 C 
BRANCH   3   4
ATOM      4  C   UNL A   1      43.707  29.358  26.962  1.00  0.00     0.261 C 
BRANCH   4   5
ATOM      5  O   UNL A   1      42.407  29.003  26.473  1.00  0.00    -0.463 OA
BRANCH   5   6
ATOM      6  C   UNL A   1      42.095  27.934  25.718  1.00  0.00     0.309 C 
ATOM      7  O   UNL A   1      42.385  27.919  24.525  1.00  0.00    -0.252 OA
BRANCH   6   8
ATOM      8  C   UNL A   1      41.414  26.781  26.369  1.00  0.00     0.164 C 
BRANCH   8   9
ATOM      9  C   UNL A   1      42.263  25.527  26.577  1.00  0.00     0.243 C 
BRANCH   9  10
ATOM     10  O   UNL A   1      41.819  24.576  27.551  1.00  0.00    -0.477 OA
BRANCH  10  11
ATOM     11  C   UNL A   1      41.196  23.455  27.034  1.00  0.00     0.217 A 
ATOM     12  C   UNL A   1      42.032  22.454  26.618  1.00  0.00     0.097 A 
ATOM     13  N   UNL A   1      39.863  23.411  26.911  1.00  0.00    -0.193 NA
ATOM     14  C   UNL A   1      41.427  21.258  26.306  1.00  0.00     0.078 A 
ATOM     15  C   UNL A   1      39.372  22.263  26.376  1.00  0.00     0.163 A 
ATOM     16  N   UNL A   1      40.091  21.138  26.183  1.00  0.00    -0.228 NA
BRANCH  14  17
ATOM     17  C   UNL A   1      42.240  20.045  26.193  1.00  0.00     0.003 A 
ATOM     18  C   UNL A   1      42.153  19.031  27.154  1.00  0.00     0.030 A 
ATOM     19  C   UNL A   1      43.225  19.929  25.205  1.00  0.00     0.030 A 
ATOM     20  C   UNL A   1      43.057  17.982  27.105  1.00  0.00     0.111 A 
ATOM     21  C   UNL A   1      44.072  18.834  25.229  1.00  0.00     0.111 A 
ATOM     22  N   UNL A   1      44.011  17.859  26.158  1.00  0.00    -0.265 NA
ENDBRANCH  14  17
BRANCH  15  23
ATOM     23  C   UNL A   1      38.069  22.328  25.675  1.00  0.00     0.019 A 
ATOM     24  C   UNL A   1      37.448  21.137  25.256  1.00  0.00     0.012 A 
ATOM     25  C   UNL A   1      37.332  23.520  25.528  1.00  0.00     0.012 A 
ATOM     26  C   UNL A   1      36.146  21.123  24.749  1.00  0.00     0.014 A 
ATOM     27  C   UNL A   1      36.027  23.514  25.003  1.00  0.00     0.014 A 
ATOM     28  C   UNL A   1      35.416  22.311  24.622  1.00  0.00     0.056 A 
BRANCH  28  29
ATOM     29  C   UNL A   1      33.998  22.257  24.105  1.00  0.00     0.416 C 
ATOM     30  F   UNL A   1      33.830  22.986  22.967  1.00  0.00    -0.166 F 
ATOM     31  F   UNL A   1      33.604  20.989  23.797  1.00  0.00    -0.166 F 
ATOM     32  F   UNL A   1      33.076  22.729  24.991  1.00  0.00    -0.166 F 
ENDBRANCH  28  29
ENDBRANCH  15  23
ENDBRANCH  10  11
ENDBRANCH   9  10
ENDBRANCH   8   9
ENDBRANCH   6   8
ENDBRANCH   5   6
ENDBRANCH   4   5
ENDBRANCH   3   4
ENDBRANCH   2   3
ENDBRANCH   1   2
BRANCH   1  33
ATOM     33  C   UNL A   1      45.172  33.841  27.424  1.00  0.00     0.188 C 
BRANCH  33  34
ATOM     34  O   UNL A   1      44.410  34.932  27.939  1.00  0.00    -0.377 OA
BRANCH  34  35
ATOM     35  C   UNL A   1      43.073  35.022  27.478  1.00  0.00     0.188 C 
BRANCH  35  36
ATOM     36  C   UNL A   1      42.656  36.404  26.915  1.00  0.00     0.188 C 
BRANCH  36  37
ATOM     37  O   UNL A   1      42.032  37.393  27.723  1.00  0.00    -0.376 OA
BRANCH  37  38
ATOM     38  C   UNL A   1      42.737  38.563  28.104  1.00  0.00     0.202 C 
BRANCH  38  39
ATOM     39  C   UNL A   1      43.419  38.628  29.479  1.00  0.00     0.261 C 
BRANCH  39  40
ATOM     40  O   UNL A   1      43.353  37.431  30.271  1.00  0.00    -0.460 OA
BRANCH  40  41
ATOM     41  C   UNL A   1      44.477  37.138  30.955  1.00  0.00     0.338 C 
ATOM     42  O   UNL A   1      45.626  37.090  30.517  1.00  0.00    -0.246 OA
BRANCH  41  43
ATOM     43  C   UNL A   1      44.190  37.033  32.398  1.00  0.00     0.060 A 
ATOM     44  C   UNL A   1      44.604  35.871  33.067  1.00  0.00     0.016 A 
ATOM     45  C   UNL A   1      43.444  38.007  33.066  1.00  0.00     0.016 A 
ATOM     46  C   UNL A   1      44.201  35.632  34.372  1.00  0.00     0.010 A 
ATOM     47  C   UNL A   1      43.002  37.748  34.368  1.00  0.00     0.010 A 
ATOM     48  C   UNL A   1      43.320  36.525  34.989  1.00  0.00    -0.014 A 
BRANCH  48  49
ATOM     49  C   UNL A   1      42.478  35.996  36.089  1.00  0.00     0.031 A 
ATOM     50  C   UNL A   1      41.388  35.022  35.719  1.00  0.00     0.074 A 
ATOM     51  C   UNL A   1      42.737  36.276  37.376  1.00  0.00     0.049 A 
ATOM     52  N   UNL A   1      40.540  34.385  36.484  1.00  0.00    -0.248 NA
ATOM     53  C   UNL A   1      41.241  34.721  34.284  1.00  0.00     0.031 C 
ATOM     54  C   UNL A   1      43.809  37.145  37.854  1.00  0.00     0.029 A 
ATOM     55  N   UNL A   1      42.115  35.841  38.517  1.00  0.00    -0.354 N 
ATOM     56  C   UNL A   1      39.755  33.626  35.624  1.00  0.00     0.074 A 
ATOM     57  C   UNL A   1      40.203  33.900  34.279  1.00  0.00     0.031 C 
ATOM     58  C   UNL A   1      43.766  37.185  39.198  1.00  0.00     0.029 A 
ATOM     59  C   UNL A   1      42.648  36.365  39.667  1.00  0.00     0.049 A 
ATOM     60  H   UNL A   1      41.356  35.213  38.512  1.00  0.00     0.167 HD
ATOM     61  C   UNL A   1      38.755  32.765  35.928  1.00  0.00     0.037 A 
ATOM     62  C   UNL A   1      42.263  36.205  40.948  1.00  0.00     0.037 A 
ATOM     63  C   UNL A   1      38.318  32.489  37.270  1.00  0.00     0.049 A 
ATOM     64  C   UNL A   1      41.098  35.296  41.256  1.00  0.00     0.074 A 
ATOM     65  C   UNL A   1      37.319  31.632  37.693  1.00  0.00     0.029 A 
ATOM     66  N   UNL A   1      38.854  33.075  38.407  1.00  0.00    -0.354 N 
ATOM     67  N   UNL A   1      40.368  34.571  40.442  1.00  0.00    -0.248 NA
ATOM     68  C   UNL A   1      40.711  35.177  42.668  1.00  0.00     0.031 C 
ATOM     69  C   UNL A   1      37.210  31.744  39.083  1.00  0.00     0.029 A 
ATOM     70  C   UNL A   1      38.191  32.615  39.532  1.00  0.00     0.049 A 
ATOM     71  H   UNL A   1      39.596  33.722  38.413  1.00  0.00     0.167 HD
ATOM     72  C   UNL A   1      39.469  33.878  41.245  1.00  0.00     0.074 A 
ATOM     73  C   UNL A   1      39.752  34.264  42.611  1.00  0.00     0.031 C 
ATOM     74  C   UNL A   1      38.501  32.997  40.887  1.00  0.00     0.037 A 
BRANCH  61  75
ATOM     75  C   UNL A   1      38.041  32.101  34.787  1.00  0.00     0.064 A 
ATOM     76  C   UNL A   1      36.909  32.668  34.183  1.00  0.00     0.173 A 
ATOM     77  C   UNL A   1      38.508  30.878  34.282  1.00  0.00     0.173 A 
ATOM     78  F   UNL A   1      36.408  33.825  34.641  1.00  0.00    -0.203 F 
ATOM     79  C   UNL A   1      36.254  32.021  33.137  1.00  0.00     0.198 A 
ATOM     80  C   UNL A   1      37.872  30.251  33.214  1.00  0.00     0.198 A 
ATOM     81  F   UNL A   1      39.587  30.290  34.822  1.00  0.00    -0.203 F 
ATOM     82  F   UNL A   1      35.142  32.555  32.612  1.00  0.00    -0.200 F 
ATOM     83  C   UNL A   1      36.742  30.818  32.648  1.00  0.00     0.200 A 
ATOM     84  F   UNL A   1      38.352  29.095  32.735  1.00  0.00    -0.200 F 
ATOM     85  F   UNL A   1      36.115  30.201  31.636  1.00  0.00    -0.200 F 
ENDBRANCH  61  75
BRANCH  62  86
ATOM     86  C   UNL A   1      42.980  36.917  42.039  1.00  0.00     0.064 A 
ATOM     87  C   UNL A   1      42.669  38.244  42.368  1.00  0.00     0.173 A 
ATOM     88  C   UNL A   1      44.013  36.295  42.755  1.00  0.00     0.173 A 
ATOM     89  F   UNL A   1      41.705  38.891  41.697  1.00  0.00    -0.203 F 
ATOM     90  C   UNL A   1      43.380  38.929  43.351  1.00  0.00     0.198 A 
ATOM     91  C   UNL A   1      44.702  36.970  43.760  1.00  0.00     0.198 A 
ATOM     92  F   UNL A   1      44.353  35.028  42.480  1.00  0.00    -0.203 F 
ATOM     93  F   UNL A   1      43.100  40.215  43.603  1.00  0.00    -0.200 F 
ATOM     94  C   UNL A   1      44.393  38.290  44.051  1.00  0.00     0.200 A 
ATOM     95  F   UNL A   1      45.671  36.344  44.441  1.00  0.00    -0.200 F 
ATOM     96  F   UNL A   1      45.078  38.949  44.995  1.00  0.00    -0.200 F 
ENDBRANCH  62  86
BRANCH  74  97
ATOM     97  C   UNL A   1      37.723  32.337  41.991  1.00  0.00     0.064 A 
ATOM     98  C   UNL A   1      36.522  32.872  42.479  1.00  0.00     0.173 A 
ATOM     99  C   UNL A   1      38.179  31.132  42.549  1.00  0.00     0.173 A 
ATOM    100  F   UNL A   1      36.046  34.026  41.988  1.00  0.00    -0.203 F 
ATOM    101  C   UNL A   1      35.829  32.248  43.514  1.00  0.00     0.198 A 
ATOM    102  C   UNL A   1      37.463  30.490  43.556  1.00  0.00     0.198 A 
ATOM    103  F   UNL A   1      39.315  30.569  42.109  1.00  0.00    -0.203 F 
ATOM    104  F   UNL A   1      34.719  32.811  44.010  1.00  0.00    -0.200 F 
ATOM    105  C   UNL A   1      36.297  31.055  44.047  1.00  0.00     0.200 A 
ATOM    106  F   UNL A   1      37.907  29.328  44.054  1.00  0.00    -0.200 F 
ATOM    107  F   UNL A   1      35.627  30.454  45.041  1.00  0.00    -0.200 F 
ENDBRANCH  74  97
ENDBRANCH  48  49
ENDBRANCH  41  43
ENDBRANCH  40  41
ENDBRANCH  39  40
ENDBRANCH  38  39
ENDBRANCH  37  38
ENDBRANCH  36  37
ENDBRANCH  35  36
ENDBRANCH  34  35
ENDBRANCH  33  34
ENDBRANCH   1  33
TORSDOF 26
ENDMDL
MODEL 3
REMARK VINA RESULT:      -8.7      5.789     10.464
REMARK SMILES O=C(CCOc1cc(-c2ccncc2)nc(-c2ccc(C(F)(F)F)cc2)n1)OCCOCCOCCOCCOC(=O)c1ccc(-c2c3nc(c(-c4c(F)c(F)c(F)c(F)c4F)c4ccc([nH]4)c(-c4c(F)c(F)c(F)c(F)c4F)c4nc(c(-c5c(F)c(F)c(F)c(F)c5F)c5ccc2[nH]5)C=C4)C=C3)cc1
REMARK SMILES IDX 32 1 31 2 30 3 29 4 28 5 2 6 1 7 3 8 4 9 5 10 6 11 7 12
REMARK SMILES IDX 27 13 8 14 16 15 15 16 9 17 10 18 14 19 11 20 13 21 12 22
REMARK SMILES IDX 17 23 18 24 26 25 19 26 25 27 20 28 21 29 22 30 23 31 24 32
REMARK SMILES IDX 33 33 34 34 35 35 36 36 37 37 38 38 39 39 40 40 41 41 42 42
REMARK SMILES IDX 43 43 44 44 105 45 45 46 104 47 46 48 47 49 48 50 98 51
REMARK SMILES IDX 49 52 103 53 97 54 99 55 50 56 102 57 96 58 95 59 51 61
REMARK SMILES IDX 83 62 63 63 82 64 64 65 67 66 81 67 100 68 65 69 66 70 80 72
REMARK SMILES IDX 101 73 68 74 52 75 53 76 61 77 54 78 55 79 59 80 62 81 56 82
REMARK SMILES IDX 57 83 60 84 58 85 84 86 85 87 93 88 86 89 87 90 91 91 94 92
REMARK SMILES IDX 88 93 89 94 92 95 90 96 69 97 70 98 78 99 71 100 72 101
REMARK SMILES IDX 76 102 79 103 73 104 74 105 77 106 75 107
REMARK H PARENT 99 60 67 71
REMARK Flexibility Score: inf
ROOT
ATOM      1  C   UNL A   1      35.797  32.873  28.574  1.00  0.00     0.188 C 
ENDROOT
BRANCH   1   2
ATOM      2  O   UNL A   1      37.173  32.908  28.934  1.00  0.00    -0.376 OA
BRANCH   2   3
ATOM      3  C   UNL A   1      37.965  31.738  28.974  1.00  0.00     0.202 C 
BRANCH   3   4
ATOM      4  C   UNL A   1      39.097  31.699  29.993  1.00  0.00     0.261 C 
BRANCH   4   5
ATOM      5  O   UNL A   1      40.055  30.661  29.744  1.00  0.00    -0.463 OA
BRANCH   5   6
ATOM      6  C   UNL A   1      39.905  29.348  30.002  1.00  0.00     0.309 C 
ATOM      7  O   UNL A   1      39.483  28.982  31.095  1.00  0.00    -0.252 OA
BRANCH   6   8
ATOM      8  C   UNL A   1      40.246  28.372  28.930  1.00  0.00     0.164 C 
BRANCH   8   9
ATOM      9  C   UNL A   1      40.804  27.028  29.397  1.00  0.00     0.243 C 
BRANCH   9  10
ATOM     10  O   UNL A   1      42.032  26.578  28.813  1.00  0.00    -0.477 OA
BRANCH  10  11
ATOM     11  C   UNL A   1      41.902  25.559  27.888  1.00  0.00     0.217 A 
ATOM     12  C   UNL A   1      42.866  25.516  26.918  1.00  0.00     0.097 A 
ATOM     13  N   UNL A   1      40.857  24.722  27.938  1.00  0.00    -0.193 NA
ATOM     14  C   UNL A   1      42.872  24.389  26.127  1.00  0.00     0.078 A 
ATOM     15  C   UNL A   1      40.833  23.773  26.966  1.00  0.00     0.163 A 
ATOM     16  N   UNL A   1      41.862  23.497  26.138  1.00  0.00    -0.228 NA
BRANCH  14  17
ATOM     17  C   UNL A   1      44.049  24.086  25.310  1.00  0.00     0.003 A 
ATOM     18  C   UNL A   1      44.085  22.945  24.501  1.00  0.00     0.030 A 
ATOM     19  C   UNL A   1      45.218  24.847  25.423  1.00  0.00     0.030 A 
ATOM     20  C   UNL A   1      45.274  22.603  23.877  1.00  0.00     0.111 A 
ATOM     21  C   UNL A   1      46.354  24.435  24.747  1.00  0.00     0.111 A 
ATOM     22  N   UNL A   1      46.408  23.328  23.978  1.00  0.00    -0.265 NA
ENDBRANCH  14  17
BRANCH  15  23
ATOM     23  C   UNL A   1      39.518  23.218  26.573  1.00  0.00     0.019 A 
ATOM     24  C   UNL A   1      38.404  24.072  26.484  1.00  0.00     0.012 A 
ATOM     25  C   UNL A   1      39.342  21.890  26.135  1.00  0.00     0.012 A 
ATOM     26  C   UNL A   1      37.184  23.643  25.953  1.00  0.00     0.014 A 
ATOM     27  C   UNL A   1      38.112  21.448  25.615  1.00  0.00     0.014 A 
ATOM     28  C   UNL A   1      37.025  22.326  25.506  1.00  0.00     0.056 A 
BRANCH  28  29
ATOM     29  C   UNL A   1      35.706  21.904  24.902  1.00  0.00     0.416 C 
ATOM     30  F   UNL A   1      35.430  22.563  23.742  1.00  0.00    -0.166 F 
ATOM     31  F   UNL A   1      35.676  20.577  24.593  1.00  0.00    -0.166 F 
ATOM     32  F   UNL A   1      34.638  22.121  25.720  1.00  0.00    -0.166 F 
ENDBRANCH  28  29
ENDBRANCH  15  23
ENDBRANCH  10  11
ENDBRANCH   9  10
ENDBRANCH   8   9
ENDBRANCH   6   8
ENDBRANCH   5   6
ENDBRANCH   4   5
ENDBRANCH   3   4
ENDBRANCH   2   3
ENDBRANCH   1   2
BRANCH   1  33
ATOM     33  C   UNL A   1      35.160  34.267  28.369  1.00  0.00     0.188 C 
BRANCH  33  34
ATOM     34  O   UNL A   1      34.011  34.568  29.159  1.00  0.00    -0.377 OA
BRANCH  34  35
ATOM     35  C   UNL A   1      33.966  33.960  30.438  1.00  0.00     0.188 C 
BRANCH  35  36
ATOM     36  C   UNL A   1      34.545  34.808  31.599  1.00  0.00     0.188 C 
BRANCH  36  37
ATOM     37  O   UNL A   1      34.005  34.761  32.913  1.00  0.00    -0.376 OA
BRANCH  37  38
ATOM     38  C   UNL A   1      34.842  34.936  34.043  1.00  0.00     0.202 C 
BRANCH  38  39
ATOM     39  C   UNL A   1      35.837  33.832  34.431  1.00  0.00     0.261 C 
BRANCH  39  40
ATOM     40  O   UNL A   1      37.060  33.794  33.679  1.00  0.00    -0.460 OA
BRANCH  40  41
ATOM     41  C   UNL A   1      38.169  34.106  34.378  1.00  0.00     0.338 C 
ATOM     42  O   UNL A   1      38.347  35.091  35.095  1.00  0.00    -0.246 OA
BRANCH  41  43
ATOM     43  C   UNL A   1      39.144  33.001  34.320  1.00  0.00     0.060 A 
ATOM     44  C   UNL A   1      40.459  33.264  34.734  1.00  0.00     0.016 A 
ATOM     45  C   UNL A   1      38.806  31.757  33.781  1.00  0.00     0.016 A 
ATOM     46  C   UNL A   1      41.460  32.325  34.527  1.00  0.00     0.010 A 
ATOM     47  C   UNL A   1      39.820  30.827  33.535  1.00  0.00     0.010 A 
ATOM     48  C   UNL A   1      41.158  31.145  33.839  1.00  0.00    -0.014 A 
BRANCH  48  49
ATOM     49  C   UNL A   1      42.274  30.462  33.143  1.00  0.00     0.031 A 
ATOM     50  C   UNL A   1      42.889  31.169  31.962  1.00  0.00     0.074 A 
ATOM     51  C   UNL A   1      42.800  29.316  33.604  1.00  0.00     0.049 A 
ATOM     52  N   UNL A   1      43.894  30.813  31.204  1.00  0.00    -0.248 NA
ATOM     53  C   UNL A   1      42.288  32.461  31.588  1.00  0.00     0.031 C 
ATOM     54  C   UNL A   1      42.335  28.583  34.778  1.00  0.00     0.029 A 
ATOM     55  N   UNL A   1      43.855  28.577  33.136  1.00  0.00    -0.354 N 
ATOM     56  C   UNL A   1      44.032  31.827  30.263  1.00  0.00     0.074 A 
ATOM     57  C   UNL A   1      42.993  32.796  30.521  1.00  0.00     0.031 C 
ATOM     58  C   UNL A   1      43.102  27.489  34.937  1.00  0.00     0.029 A 
ATOM     59  C   UNL A   1      44.091  27.436  33.860  1.00  0.00     0.049 A 
ATOM     60  H   UNL A   1      44.392  28.839  32.354  1.00  0.00     0.167 HD
ATOM     61  C   UNL A   1      44.950  31.946  29.275  1.00  0.00     0.037 A 
ATOM     62  C   UNL A   1      44.996  26.459  33.660  1.00  0.00     0.037 A 
ATOM     63  C   UNL A   1      45.988  30.982  29.028  1.00  0.00     0.049 A 
ATOM     64  C   UNL A   1      45.964  26.579  32.508  1.00  0.00     0.074 A 
ATOM     65  C   UNL A   1      46.974  31.006  28.060  1.00  0.00     0.029 A 
ATOM     66  N   UNL A   1      46.166  29.815  29.756  1.00  0.00    -0.354 N 
ATOM     67  N   UNL A   1      46.099  27.545  31.629  1.00  0.00    -0.248 NA
ATOM     68  C   UNL A   1      46.915  25.474  32.330  1.00  0.00     0.031 C 
ATOM     69  C   UNL A   1      47.713  29.822  28.163  1.00  0.00     0.029 A 
ATOM     70  C   UNL A   1      47.233  29.097  29.243  1.00  0.00     0.049 A 
ATOM     71  H   UNL A   1      45.615  29.538  30.524  1.00  0.00     0.167 HD
ATOM     72  C   UNL A   1      47.174  27.185  30.825  1.00  0.00     0.074 A 
ATOM     73  C   UNL A   1      47.660  25.917  31.326  1.00  0.00     0.031 C 
ATOM     74  C   UNL A   1      47.715  27.845  29.770  1.00  0.00     0.037 A 
BRANCH  61  75
ATOM     75  C   UNL A   1      44.841  33.136  28.368  1.00  0.00     0.064 A 
ATOM     76  C   UNL A   1      44.192  33.071  27.125  1.00  0.00     0.173 A 
ATOM     77  C   UNL A   1      45.388  34.369  28.755  1.00  0.00     0.173 A 
ATOM     78  F   UNL A   1      43.670  31.911  26.697  1.00  0.00    -0.203 F 
ATOM     79  C   UNL A   1      44.121  34.186  26.293  1.00  0.00     0.198 A 
ATOM     80  C   UNL A   1      45.286  35.490  27.936  1.00  0.00     0.198 A 
ATOM     81  F   UNL A   1      46.021  34.488  29.932  1.00  0.00    -0.203 F 
ATOM     82  F   UNL A   1      43.545  34.085  25.087  1.00  0.00    -0.200 F 
ATOM     83  C   UNL A   1      44.661  35.396  26.703  1.00  0.00     0.200 A 
ATOM     84  F   UNL A   1      45.796  36.662  28.340  1.00  0.00    -0.200 F 
ATOM     85  F   UNL A   1      44.584  36.471  25.905  1.00  0.00    -0.200 F 
ENDBRANCH  61  75
BRANCH  62  86
ATOM     86  C   UNL A   1      45.038  25.281  34.567  1.00  0.00     0.064 A 
ATOM     87  C   UNL A   1      45.706  25.335  35.798  1.00  0.00     0.173 A 
ATOM     88  C   UNL A   1      44.437  24.066  34.207  1.00  0.00     0.173 A 
ATOM     89  F   UNL A   1      46.318  26.467  36.178  1.00  0.00    -0.203 F 
ATOM     90  C   UNL A   1      45.795  24.214  36.621  1.00  0.00     0.198 A 
ATOM     91  C   UNL A   1      44.497  22.955  35.046  1.00  0.00     0.198 A 
ATOM     92  F   UNL A   1      43.785  23.959  33.040  1.00  0.00    -0.203 F 
ATOM     93  F   UNL A   1      46.491  24.279  37.764  1.00  0.00    -0.200 F 
ATOM     94  C   UNL A   1      45.185  23.027  36.247  1.00  0.00     0.200 A 
ATOM     95  F   UNL A   1      43.896  21.814  34.685  1.00  0.00    -0.200 F 
ATOM     96  F   UNL A   1      45.271  21.948  37.037  1.00  0.00    -0.200 F 
ENDBRANCH  62  86
BRANCH  74  97
ATOM     97  C   UNL A   1      48.936  27.246  29.131  1.00  0.00     0.064 A 
ATOM     98  C   UNL A   1      48.852  26.367  28.041  1.00  0.00     0.173 A 
ATOM     99  C   UNL A   1      50.215  27.582  29.604  1.00  0.00     0.173 A 
ATOM    100  F   UNL A   1      47.656  26.005  27.554  1.00  0.00    -0.203 F 
ATOM    101  C   UNL A   1      50.000  25.813  27.478  1.00  0.00     0.198 A 
ATOM    102  C   UNL A   1      51.361  27.057  29.013  1.00  0.00     0.198 A 
ATOM    103  F   UNL A   1      50.354  28.429  30.636  1.00  0.00    -0.203 F 
ATOM    104  F   UNL A   1      49.893  24.925  26.480  1.00  0.00    -0.200 F 
ATOM    105  C   UNL A   1      51.252  26.164  27.960  1.00  0.00     0.200 A 
ATOM    106  F   UNL A   1      52.570  27.414  29.469  1.00  0.00    -0.200 F 
ATOM    107  F   UNL A   1      52.356  25.633  27.414  1.00  0.00    -0.200 F 
ENDBRANCH  74  97
ENDBRANCH  48  49
ENDBRANCH  41  43
ENDBRANCH  40  41
ENDBRANCH  39  40
ENDBRANCH  38  39
ENDBRANCH  37  38
ENDBRANCH  36  37
ENDBRANCH  35  36
ENDBRANCH  34  35
ENDBRANCH  33  34
ENDBRANCH   1  33
TORSDOF 26
ENDMDL
