MODEL 1
REMARK VINA RESULT:     -10.5      0.000      0.000
REMARK SMILES COc1cccc(C(=O)N[C@H]2C=C[C@@H](C(=O)OCCOCCOCCOCCOC(=O)c3ccc(-c4c5nc(c(-c6c(F)c(F)c(F)c(F)c6F)c6ccc([nH]6)c(-c6c(F)c(F)c(F)c(F)c6F)c6nc(c(-c7c(F)c(F)c(F)c(F)c7F)c7ccc4[nH]7)C=C6)C=C5)cc3)C2)c1
REMARK SMILES IDX 22 1 21 2 20 3 19 4 18 5 17 6 15 7 16 8 14 9 11 10 12 11
REMARK SMILES IDX 95 12 13 13 10 14 8 15 9 16 7 18 3 19 4 20 96 21 5 22 6 23
REMARK SMILES IDX 2 24 1 25 23 26 24 27 25 28 26 29 27 30 28 31 29 32 30 33
REMARK SMILES IDX 31 34 32 35 33 36 94 37 34 38 93 39 35 40 36 41 37 42 87 43
REMARK SMILES IDX 38 44 92 45 86 46 88 47 39 48 91 49 85 50 84 51 40 53 72 54
REMARK SMILES IDX 52 55 71 56 53 57 56 58 70 59 89 60 54 61 55 62 69 64 90 65
REMARK SMILES IDX 57 66 41 67 42 68 50 69 43 70 44 71 48 72 51 73 45 74 46 75
REMARK SMILES IDX 49 76 47 77 73 78 74 79 82 80 75 81 76 82 80 83 83 84 77 85
REMARK SMILES IDX 78 86 81 87 79 88 58 89 59 90 67 91 60 92 61 93 65 94 68 95
REMARK SMILES IDX 62 96 63 97 66 98 64 99
REMARK H PARENT 10 17 88 52 56 63
REMARK Flexibility Score: inf
ROOT
ATOM      1  C   UNL A   1      34.627  22.217  27.082  1.00  0.00     0.188 C 
ENDROOT
BRANCH   1   2
ATOM      2  C   UNL A   1      33.129  21.943  27.285  1.00  0.00     0.188 C 
BRANCH   2   3
ATOM      3  O   UNL A   1      32.251  22.961  27.725  1.00  0.00    -0.376 OA
BRANCH   3   4
ATOM      4  C   UNL A   1      31.190  23.483  26.938  1.00  0.00     0.202 C 
BRANCH   4   5
ATOM      5  C   UNL A   1      31.028  24.951  26.524  1.00  0.00     0.261 C 
BRANCH   5   6
ATOM      6  O   UNL A   1      32.044  25.846  26.975  1.00  0.00    -0.463 OA
BRANCH   6   7
ATOM      7  C   UNL A   1      31.738  27.149  26.817  1.00  0.00     0.312 C 
ATOM      8  O   UNL A   1      31.169  27.839  27.660  1.00  0.00    -0.252 OA
BRANCH   7   9
ATOM      9  C   UNL A   1      32.253  27.748  25.532  1.00  0.00     0.124 C 
ATOM     10  C   UNL A   1      32.825  27.829  23.257  1.00  0.00     0.106 C 
ATOM     11  C   UNL A   1      31.363  28.088  23.409  1.00  0.00    -0.006 C 
ATOM     12  C   UNL A   1      33.085  26.965  24.492  1.00  0.00     0.048 C 
ATOM     13  C   UNL A   1      31.053  28.122  24.707  1.00  0.00    -0.014 C 
BRANCH  10  14
ATOM     14  N   UNL A   1      33.166  27.377  21.944  1.00  0.00    -0.346 N 
ATOM     15  C   UNL A   1      32.947  26.099  21.441  1.00  0.00     0.251 C 
ATOM     16  O   UNL A   1      33.226  25.835  20.276  1.00  0.00    -0.269 OA
ATOM     17  H   UNL A   1      33.592  28.028  21.341  1.00  0.00     0.164 HD
BRANCH  15  18
ATOM     18  C   UNL A   1      32.497  25.006  22.361  1.00  0.00     0.043 A 
ATOM     19  C   UNL A   1      32.835  22.797  23.297  1.00  0.00     0.119 A 
ATOM     20  C   UNL A   1      31.463  22.698  23.531  1.00  0.00     0.046 A 
ATOM     21  C   UNL A   1      33.359  23.994  22.810  1.00  0.00     0.060 A 
ATOM     22  C   UNL A   1      30.615  23.767  23.236  1.00  0.00     0.005 A 
ATOM     23  C   UNL A   1      31.126  24.915  22.628  1.00  0.00     0.014 A 
BRANCH  19  24
ATOM     24  O   UNL A   1      33.560  21.664  23.552  1.00  0.00    -0.497 OA
ATOM     25  C   UNL A   1      32.832  20.544  24.052  1.00  0.00     0.278 C 
ENDBRANCH  19  24
ENDBRANCH  15  18
ENDBRANCH  10  14
ENDBRANCH   7   9
ENDBRANCH   6   7
ENDBRANCH   5   6
ENDBRANCH   4   5
ENDBRANCH   3   4
ENDBRANCH   2   3
ENDBRANCH   1   2
BRANCH   1  26
ATOM     26  O   UNL A   1      34.935  23.230  26.150  1.00  0.00    -0.377 OA
BRANCH  26  27
ATOM     27  C   UNL A   1      36.206  23.202  25.509  1.00  0.00     0.188 C 
BRANCH  27  28
ATOM     28  C   UNL A   1      37.213  22.070  25.809  1.00  0.00     0.188 C 
BRANCH  28  29
ATOM     29  O   UNL A   1      37.617  21.324  24.672  1.00  0.00    -0.376 OA
BRANCH  29  30
ATOM     30  C   UNL A   1      37.821  19.927  24.817  1.00  0.00     0.202 C 
BRANCH  30  31
ATOM     31  C   UNL A   1      38.998  19.475  25.698  1.00  0.00     0.261 C 
BRANCH  31  32
ATOM     32  O   UNL A   1      40.146  20.340  25.721  1.00  0.00    -0.460 OA
BRANCH  32  33
ATOM     33  C   UNL A   1      40.902  20.356  26.837  1.00  0.00     0.338 C 
ATOM     34  O   UNL A   1      41.488  19.411  27.343  1.00  0.00    -0.246 OA
BRANCH  33  35
ATOM     35  C   UNL A   1      41.081  21.762  27.251  1.00  0.00     0.060 A 
ATOM     36  C   UNL A   1      40.477  22.772  26.491  1.00  0.00     0.016 A 
ATOM     37  C   UNL A   1      41.851  22.086  28.371  1.00  0.00     0.016 A 
ATOM     38  C   UNL A   1      40.677  24.112  26.825  1.00  0.00     0.010 A 
ATOM     39  C   UNL A   1      42.068  23.431  28.691  1.00  0.00     0.010 A 
ATOM     40  C   UNL A   1      41.513  24.450  27.897  1.00  0.00    -0.014 A 
BRANCH  40  41
ATOM     41  C   UNL A   1      41.955  25.858  28.057  1.00  0.00     0.031 A 
ATOM     42  C   UNL A   1      43.285  26.264  27.485  1.00  0.00     0.074 A 
ATOM     43  C   UNL A   1      41.173  26.772  28.659  1.00  0.00     0.049 A 
ATOM     44  N   UNL A   1      43.886  27.426  27.511  1.00  0.00    -0.248 NA
ATOM     45  C   UNL A   1      44.041  25.212  26.784  1.00  0.00     0.031 C 
ATOM     46  C   UNL A   1      39.848  26.516  29.216  1.00  0.00     0.029 A 
ATOM     47  N   UNL A   1      41.391  28.107  28.903  1.00  0.00    -0.354 N 
ATOM     48  C   UNL A   1      45.088  27.244  26.838  1.00  0.00     0.074 A 
ATOM     49  C   UNL A   1      45.149  25.854  26.445  1.00  0.00     0.031 C 
ATOM     50  C   UNL A   1      39.371  27.657  29.746  1.00  0.00     0.029 A 
ATOM     51  C   UNL A   1      40.371  28.713  29.595  1.00  0.00     0.049 A 
ATOM     52  H   UNL A   1      42.201  28.583  28.610  1.00  0.00     0.167 HD
ATOM     53  C   UNL A   1      46.050  28.157  26.564  1.00  0.00     0.037 A 
ATOM     54  C   UNL A   1      40.271  29.970  30.070  1.00  0.00     0.037 A 
ATOM     55  C   UNL A   1      45.991  29.540  26.959  1.00  0.00     0.049 A 
ATOM     56  C   UNL A   1      41.394  30.947  29.821  1.00  0.00     0.074 A 
ATOM     57  C   UNL A   1      46.907  30.548  26.713  1.00  0.00     0.029 A 
ATOM     58  N   UNL A   1      44.961  30.108  27.695  1.00  0.00    -0.354 N 
ATOM     59  N   UNL A   1      42.512  30.777  29.159  1.00  0.00    -0.248 NA
ATOM     60  C   UNL A   1      41.235  32.296  30.385  1.00  0.00     0.031 C 
ATOM     61  C   UNL A   1      46.464  31.708  27.357  1.00  0.00     0.029 A 
ATOM     62  C   UNL A   1      45.236  31.444  27.941  1.00  0.00     0.049 A 
ATOM     63  H   UNL A   1      44.154  29.631  27.998  1.00  0.00     0.167 HD
ATOM     64  C   UNL A   1      43.172  32.000  29.197  1.00  0.00     0.074 A 
ATOM     65  C   UNL A   1      42.318  32.909  29.932  1.00  0.00     0.031 C 
ATOM     66  C   UNL A   1      44.375  32.341  28.672  1.00  0.00     0.037 A 
BRANCH  53  67
ATOM     67  C   UNL A   1      47.269  27.682  25.825  1.00  0.00     0.064 A 
ATOM     68  C   UNL A   1      47.340  27.696  24.424  1.00  0.00     0.173 A 
ATOM     69  C   UNL A   1      48.398  27.238  26.533  1.00  0.00     0.173 A 
ATOM     70  F   UNL A   1      46.285  28.097  23.698  1.00  0.00    -0.203 F 
ATOM     71  C   UNL A   1      48.483  27.260  23.759  1.00  0.00     0.198 A 
ATOM     72  C   UNL A   1      49.551  26.833  25.866  1.00  0.00     0.198 A 
ATOM     73  F   UNL A   1      48.385  27.205  27.874  1.00  0.00    -0.203 F 
ATOM     74  F   UNL A   1      48.509  27.233  22.420  1.00  0.00    -0.200 F 
ATOM     75  C   UNL A   1      49.590  26.837  24.481  1.00  0.00     0.200 A 
ATOM     76  F   UNL A   1      50.623  26.441  26.566  1.00  0.00    -0.200 F 
ATOM     77  F   UNL A   1      50.694  26.426  23.839  1.00  0.00    -0.200 F 
ENDBRANCH  53  67
BRANCH  54  78
ATOM     78  C   UNL A   1      39.071  30.382  30.847  1.00  0.00     0.064 A 
ATOM     79  C   UNL A   1      37.962  30.968  30.218  1.00  0.00     0.173 A 
ATOM     80  C   UNL A   1      39.021  30.230  32.242  1.00  0.00     0.173 A 
ATOM     81  F   UNL A   1      37.971  31.160  28.891  1.00  0.00    -0.203 F 
ATOM     82  C   UNL A   1      36.865  31.410  30.955  1.00  0.00     0.198 A 
ATOM     83  C   UNL A   1      37.908  30.641  32.974  1.00  0.00     0.198 A 
ATOM     84  F   UNL A   1      40.055  29.680  32.895  1.00  0.00    -0.203 F 
ATOM     85  F   UNL A   1      35.846  32.019  30.334  1.00  0.00    -0.200 F 
ATOM     86  C   UNL A   1      36.835  31.240  32.331  1.00  0.00     0.200 A 
ATOM     87  F   UNL A   1      37.879  30.463  34.301  1.00  0.00    -0.200 F 
ATOM     88  F   UNL A   1      35.779  31.662  33.039  1.00  0.00    -0.200 F 
ENDBRANCH  54  78
BRANCH  66  89
ATOM     89  C   UNL A   1      44.824  33.768  28.835  1.00  0.00     0.064 A 
ATOM     90  C   UNL A   1      45.614  34.178  29.920  1.00  0.00     0.173 A 
ATOM     91  C   UNL A   1      44.481  34.733  27.876  1.00  0.00     0.173 A 
ATOM     92  F   UNL A   1      45.962  33.299  30.872  1.00  0.00    -0.203 F 
ATOM     93  C   UNL A   1      46.008  35.507  30.058  1.00  0.00     0.198 A 
ATOM     94  C   UNL A   1      44.910  36.052  27.996  1.00  0.00     0.198 A 
ATOM     95  F   UNL A   1      43.737  34.396  26.811  1.00  0.00    -0.203 F 
ATOM     96  F   UNL A   1      46.708  35.887  31.136  1.00  0.00    -0.200 F 
ATOM     97  C   UNL A   1      45.663  36.440  29.094  1.00  0.00     0.200 A 
ATOM     98  F   UNL A   1      44.591  36.948  27.052  1.00  0.00    -0.200 F 
ATOM     99  F   UNL A   1      46.047  37.718  29.225  1.00  0.00    -0.200 F 
ENDBRANCH  66  89
ENDBRANCH  40  41
ENDBRANCH  33  35
ENDBRANCH  32  33
ENDBRANCH  31  32
ENDBRANCH  30  31
ENDBRANCH  29  30
ENDBRANCH  28  29
ENDBRANCH  27  28
ENDBRANCH  26  27
ENDBRANCH   1  26
TORSDOF 23
ENDMDL
MODEL 2
REMARK VINA RESULT:     -10.3      1.268      2.853
REMARK SMILES COc1cccc(C(=O)N[C@H]2C=C[C@@H](C(=O)OCCOCCOCCOCCOC(=O)c3ccc(-c4c5nc(c(-c6c(F)c(F)c(F)c(F)c6F)c6ccc([nH]6)c(-c6c(F)c(F)c(F)c(F)c6F)c6nc(c(-c7c(F)c(F)c(F)c(F)c7F)c7ccc4[nH]7)C=C6)C=C5)cc3)C2)c1
REMARK SMILES IDX 22 1 21 2 20 3 19 4 18 5 17 6 15 7 16 8 14 9 11 10 12 11
REMARK SMILES IDX 95 12 13 13 10 14 8 15 9 16 7 18 3 19 4 20 96 21 5 22 6 23
REMARK SMILES IDX 2 24 1 25 23 26 24 27 25 28 26 29 27 30 28 31 29 32 30 33
REMARK SMILES IDX 31 34 32 35 33 36 94 37 34 38 93 39 35 40 36 41 37 42 87 43
REMARK SMILES IDX 38 44 92 45 86 46 88 47 39 48 91 49 85 50 84 51 40 53 72 54
REMARK SMILES IDX 52 55 71 56 53 57 56 58 70 59 89 60 54 61 55 62 69 64 90 65
REMARK SMILES IDX 57 66 41 67 42 68 50 69 43 70 44 71 48 72 51 73 45 74 46 75
REMARK SMILES IDX 49 76 47 77 73 78 74 79 82 80 75 81 76 82 80 83 83 84 77 85
REMARK SMILES IDX 78 86 81 87 79 88 58 89 59 90 67 91 60 92 61 93 65 94 68 95
REMARK SMILES IDX 62 96 63 97 66 98 64 99
REMARK H PARENT 10 17 88 52 56 63
REMARK Flexibility Score: inf
ROOT
ATOM      1  C   UNL A   1      34.710  20.800  25.107  1.00  0.00     0.188 C 
ENDROOT
BRANCH   1   2
ATOM      2  C   UNL A   1      33.520  20.124  24.407  1.00  0.00     0.188 C 
BRANCH   2   3
ATOM      3  O   UNL A   1      32.328  20.835  24.136  1.00  0.00    -0.376 OA
BRANCH   3   4
ATOM      4  C   UNL A   1      32.153  21.683  23.010  1.00  0.00     0.202 C 
BRANCH   4   5
ATOM      5  C   UNL A   1      32.116  23.216  23.048  1.00  0.00     0.261 C 
BRANCH   5   6
ATOM      6  O   UNL A   1      33.379  23.876  22.972  1.00  0.00    -0.463 OA
BRANCH   6   7
ATOM      7  C   UNL A   1      33.395  24.936  22.140  1.00  0.00     0.312 C 
ATOM      8  O   UNL A   1      32.952  24.929  20.994  1.00  0.00    -0.252 OA
BRANCH   7   9
ATOM      9  C   UNL A   1      33.916  26.202  22.771  1.00  0.00     0.124 C 
ATOM     10  C   UNL A   1      33.832  28.214  23.977  1.00  0.00     0.106 C 
ATOM     11  C   UNL A   1      33.936  27.070  24.931  1.00  0.00    -0.006 C 
ATOM     12  C   UNL A   1      33.133  27.534  22.800  1.00  0.00     0.048 C 
ATOM     13  C   UNL A   1      34.064  25.933  24.243  1.00  0.00    -0.014 C 
BRANCH  10  14
ATOM     14  N   UNL A   1      33.292  29.388  24.591  1.00  0.00    -0.346 N 
ATOM     15  C   UNL A   1      32.022  29.504  25.145  1.00  0.00     0.251 C 
ATOM     16  O   UNL A   1      31.681  30.545  25.700  1.00  0.00    -0.269 OA
ATOM     17  H   UNL A   1      33.870  30.185  24.624  1.00  0.00     0.164 HD
BRANCH  15  18
ATOM     18  C   UNL A   1      31.021  28.408  24.947  1.00  0.00     0.043 A 
ATOM     19  C   UNL A   1      30.330  26.120  25.340  1.00  0.00     0.119 A 
ATOM     20  C   UNL A   1      29.589  26.152  24.158  1.00  0.00     0.046 A 
ATOM     21  C   UNL A   1      30.958  27.283  25.783  1.00  0.00     0.060 A 
ATOM     22  C   UNL A   1      29.513  27.322  23.401  1.00  0.00     0.005 A 
ATOM     23  C   UNL A   1      30.249  28.446  23.781  1.00  0.00     0.014 A 
BRANCH  19  24
ATOM     24  O   UNL A   1      30.397  24.901  25.961  1.00  0.00    -0.497 OA
ATOM     25  C   UNL A   1      31.651  24.552  26.543  1.00  0.00     0.278 C 
ENDBRANCH  19  24
ENDBRANCH  15  18
ENDBRANCH  10  14
ENDBRANCH   7   9
ENDBRANCH   6   7
ENDBRANCH   5   6
ENDBRANCH   4   5
ENDBRANCH   3   4
ENDBRANCH   2   3
ENDBRANCH   1   2
BRANCH   1  26
ATOM     26  O   UNL A   1      35.365  21.798  24.356  1.00  0.00    -0.377 OA
BRANCH  26  27
ATOM     27  C   UNL A   1      36.268  22.672  25.026  1.00  0.00     0.188 C 
BRANCH  27  28
ATOM     28  C   UNL A   1      37.470  22.107  25.815  1.00  0.00     0.188 C 
BRANCH  28  29
ATOM     29  O   UNL A   1      38.390  21.363  25.033  1.00  0.00    -0.376 OA
BRANCH  29  30
ATOM     30  C   UNL A   1      38.306  19.946  25.054  1.00  0.00     0.202 C 
BRANCH  30  31
ATOM     31  C   UNL A   1      39.422  19.185  25.788  1.00  0.00     0.261 C 
BRANCH  31  32
ATOM     32  O   UNL A   1      40.771  19.539  25.439  1.00  0.00    -0.460 OA
BRANCH  32  33
ATOM     33  C   UNL A   1      41.671  19.653  26.436  1.00  0.00     0.338 C 
ATOM     34  O   UNL A   1      42.423  18.786  26.852  1.00  0.00    -0.246 OA
BRANCH  33  35
ATOM     35  C   UNL A   1      41.752  21.077  26.822  1.00  0.00     0.060 A 
ATOM     36  C   UNL A   1      41.549  22.055  25.839  1.00  0.00     0.016 A 
ATOM     37  C   UNL A   1      42.038  21.446  28.138  1.00  0.00     0.016 A 
ATOM     38  C   UNL A   1      41.677  23.406  26.162  1.00  0.00     0.010 A 
ATOM     39  C   UNL A   1      42.187  22.802  28.454  1.00  0.00     0.010 A 
ATOM     40  C   UNL A   1      42.044  23.785  27.459  1.00  0.00    -0.014 A 
BRANCH  40  41
ATOM     41  C   UNL A   1      42.465  25.185  27.716  1.00  0.00     0.031 A 
ATOM     42  C   UNL A   1      43.866  25.594  27.349  1.00  0.00     0.074 A 
ATOM     43  C   UNL A   1      41.610  26.091  28.222  1.00  0.00     0.049 A 
ATOM     44  N   UNL A   1      44.462  26.750  27.489  1.00  0.00    -0.248 NA
ATOM     45  C   UNL A   1      44.709  24.552  26.738  1.00  0.00     0.031 C 
ATOM     46  C   UNL A   1      40.217  25.833  28.577  1.00  0.00     0.029 A 
ATOM     47  N   UNL A   1      41.797  27.418  28.527  1.00  0.00    -0.354 N 
ATOM     48  C   UNL A   1      45.747  26.574  26.991  1.00  0.00     0.074 A 
ATOM     49  C   UNL A   1      45.857  25.193  26.576  1.00  0.00     0.031 C 
ATOM     50  C   UNL A   1      39.675  26.965  29.061  1.00  0.00     0.029 A 
ATOM     51  C   UNL A   1      40.692  28.016  29.080  1.00  0.00     0.049 A 
ATOM     52  H   UNL A   1      42.643  27.894  28.364  1.00  0.00     0.167 HD
ATOM     53  C   UNL A   1      46.743  27.485  26.878  1.00  0.00     0.037 A 
ATOM     54  C   UNL A   1      40.530  29.263  29.567  1.00  0.00     0.037 A 
ATOM     55  C   UNL A   1      46.634  28.859  27.295  1.00  0.00     0.049 A 
ATOM     56  C   UNL A   1      41.682  30.236  29.505  1.00  0.00     0.074 A 
ATOM     57  C   UNL A   1      47.581  29.865  27.207  1.00  0.00     0.029 A 
ATOM     58  N   UNL A   1      45.512  29.418  27.890  1.00  0.00    -0.354 N 
ATOM     59  N   UNL A   1      42.883  30.072  29.004  1.00  0.00    -0.248 NA
ATOM     60  C   UNL A   1      41.450  31.573  30.072  1.00  0.00     0.031 C 
ATOM     61  C   UNL A   1      47.056  31.013  27.809  1.00  0.00     0.029 A 
ATOM     62  C   UNL A   1      45.755  30.745  28.205  1.00  0.00     0.049 A 
ATOM     63  H   UNL A   1      44.668  28.941  28.063  1.00  0.00     0.167 HD
ATOM     64  C   UNL A   1      43.535  31.289  29.166  1.00  0.00     0.074 A 
ATOM     65  C   UNL A   1      42.590  32.188  29.794  1.00  0.00     0.031 C 
ATOM     66  C   UNL A   1      44.804  31.632  28.827  1.00  0.00     0.037 A 
BRANCH  53  67
ATOM     67  C   UNL A   1      48.053  27.018  26.310  1.00  0.00     0.064 A 
ATOM     68  C   UNL A   1      48.325  27.069  24.935  1.00  0.00     0.173 A 
ATOM     69  C   UNL A   1      49.064  26.543  27.160  1.00  0.00     0.173 A 
ATOM     70  F   UNL A   1      47.389  27.501  24.076  1.00  0.00    -0.203 F 
ATOM     71  C   UNL A   1      49.550  26.639  24.429  1.00  0.00     0.198 A 
ATOM     72  C   UNL A   1      50.299  26.144  26.655  1.00  0.00     0.198 A 
ATOM     73  F   UNL A   1      48.858  26.474  28.484  1.00  0.00    -0.203 F 
ATOM     74  F   UNL A   1      49.769  26.649  23.108  1.00  0.00    -0.200 F 
ATOM     75  C   UNL A   1      50.538  26.186  25.291  1.00  0.00     0.200 A 
ATOM     76  F   UNL A   1      51.257  25.721  27.491  1.00  0.00    -0.200 F 
ATOM     77  F   UNL A   1      51.720  25.780  24.804  1.00  0.00    -0.200 F 
ENDBRANCH  53  67
BRANCH  54  78
ATOM     78  C   UNL A   1      39.233  29.666  30.174  1.00  0.00     0.064 A 
ATOM     79  C   UNL A   1      38.974  29.462  31.538  1.00  0.00     0.173 A 
ATOM     80  C   UNL A   1      38.211  30.230  29.396  1.00  0.00     0.173 A 
ATOM     81  F   UNL A   1      39.908  28.901  32.319  1.00  0.00    -0.203 F 
ATOM     82  C   UNL A   1      37.736  29.782  32.093  1.00  0.00     0.198 A 
ATOM     83  C   UNL A   1      36.985  30.582  29.960  1.00  0.00     0.198 A 
ATOM     84  F   UNL A   1      38.403  30.442  28.086  1.00  0.00    -0.203 F 
ATOM     85  F   UNL A   1      37.497  29.523  33.385  1.00  0.00    -0.200 F 
ATOM     86  C   UNL A   1      36.745  30.348  31.305  1.00  0.00     0.200 A 
ATOM     87  F   UNL A   1      36.036  31.139  29.197  1.00  0.00    -0.200 F 
ATOM     88  F   UNL A   1      35.556  30.658  31.839  1.00  0.00    -0.200 F 
ENDBRANCH  54  78
BRANCH  66  89
ATOM     89  C   UNL A   1      45.231  33.052  29.087  1.00  0.00     0.064 A 
ATOM     90  C   UNL A   1      45.005  34.077  28.157  1.00  0.00     0.173 A 
ATOM     91  C   UNL A   1      45.851  33.394  30.299  1.00  0.00     0.173 A 
ATOM     92  F   UNL A   1      44.427  33.803  26.978  1.00  0.00    -0.203 F 
ATOM     93  C   UNL A   1      45.420  35.382  28.414  1.00  0.00     0.198 A 
ATOM     94  C   UNL A   1      46.228  34.707  30.570  1.00  0.00     0.198 A 
ATOM     95  F   UNL A   1      46.081  32.457  31.231  1.00  0.00    -0.203 F 
ATOM     96  F   UNL A   1      45.250  36.331  27.483  1.00  0.00    -0.200 F 
ATOM     97  C   UNL A   1      46.023  35.697  29.621  1.00  0.00     0.200 A 
ATOM     98  F   UNL A   1      46.793  35.012  31.745  1.00  0.00    -0.200 F 
ATOM     99  F   UNL A   1      46.417  36.954  29.869  1.00  0.00    -0.200 F 
ENDBRANCH  66  89
ENDBRANCH  40  41
ENDBRANCH  33  35
ENDBRANCH  32  33
ENDBRANCH  31  32
ENDBRANCH  30  31
ENDBRANCH  29  30
ENDBRANCH  28  29
ENDBRANCH  27  28
ENDBRANCH  26  27
ENDBRANCH   1  26
TORSDOF 23
ENDMDL
MODEL 3
REMARK VINA RESULT:     -10.3      2.280      4.328
REMARK SMILES COc1cccc(C(=O)N[C@H]2C=C[C@@H](C(=O)OCCOCCOCCOCCOC(=O)c3ccc(-c4c5nc(c(-c6c(F)c(F)c(F)c(F)c6F)c6ccc([nH]6)c(-c6c(F)c(F)c(F)c(F)c6F)c6nc(c(-c7c(F)c(F)c(F)c(F)c7F)c7ccc4[nH]7)C=C6)C=C5)cc3)C2)c1
REMARK SMILES IDX 22 1 21 2 20 3 19 4 18 5 17 6 15 7 16 8 14 9 11 10 12 11
REMARK SMILES IDX 95 12 13 13 10 14 8 15 9 16 7 18 3 19 4 20 96 21 5 22 6 23
REMARK SMILES IDX 2 24 1 25 23 26 24 27 25 28 26 29 27 30 28 31 29 32 30 33
REMARK SMILES IDX 31 34 32 35 33 36 94 37 34 38 93 39 35 40 36 41 37 42 87 43
REMARK SMILES IDX 38 44 92 45 86 46 88 47 39 48 91 49 85 50 84 51 40 53 72 54
REMARK SMILES IDX 52 55 71 56 53 57 56 58 70 59 89 60 54 61 55 62 69 64 90 65
REMARK SMILES IDX 57 66 41 67 42 68 50 69 43 70 44 71 48 72 51 73 45 74 46 75
REMARK SMILES IDX 49 76 47 77 73 78 74 79 82 80 75 81 76 82 80 83 83 84 77 85
REMARK SMILES IDX 78 86 81 87 79 88 58 89 59 90 67 91 60 92 61 93 65 94 68 95
REMARK SMILES IDX 62 96 63 97 66 98 64 99
REMARK H PARENT 10 17 88 52 56 63
REMARK Flexibility Score: inf
ROOT
ATOM      1  C   UNL A   1      38.118  23.101  26.166  1.00  0.00     0.188 C 
ENDROOT
BRANCH   1   2
ATOM      2  C   UNL A   1      38.055  21.741  25.453  1.00  0.00     0.188 C 
BRANCH   2   3
ATOM      3  O   UNL A   1      36.923  21.362  24.695  1.00  0.00    -0.376 OA
BRANCH   3   4
ATOM      4  C   UNL A   1      36.169  20.183  24.935  1.00  0.00     0.202 C 
BRANCH   4   5
ATOM      5  C   UNL A   1      34.638  20.099  24.981  1.00  0.00     0.261 C 
BRANCH   5   6
ATOM      6  O   UNL A   1      33.974  21.137  25.701  1.00  0.00    -0.463 OA
BRANCH   6   7
ATOM      7  C   UNL A   1      32.685  21.312  25.348  1.00  0.00     0.312 C 
ATOM      8  O   UNL A   1      31.901  20.400  25.099  1.00  0.00    -0.252 OA
BRANCH   7   9
ATOM      9  C   UNL A   1      32.229  22.749  25.386  1.00  0.00     0.124 C 
ATOM     10  C   UNL A   1      30.725  24.547  25.272  1.00  0.00     0.106 C 
ATOM     11  C   UNL A   1      30.670  23.942  26.636  1.00  0.00    -0.006 C 
ATOM     12  C   UNL A   1      31.152  23.334  24.446  1.00  0.00     0.048 C 
ATOM     13  C   UNL A   1      31.582  22.971  26.725  1.00  0.00    -0.014 C 
BRANCH  10  14
ATOM     14  N   UNL A   1      29.543  25.288  24.956  1.00  0.00    -0.346 N 
ATOM     15  C   UNL A   1      29.459  26.334  24.044  1.00  0.00     0.251 C 
ATOM     16  O   UNL A   1      28.377  26.863  23.806  1.00  0.00    -0.269 OA
ATOM     17  H   UNL A   1      28.715  25.035  25.425  1.00  0.00     0.164 HD
BRANCH  15  18
ATOM     18  C   UNL A   1      30.710  26.906  23.452  1.00  0.00     0.043 A 
ATOM     19  C   UNL A   1      32.640  26.650  22.011  1.00  0.00     0.119 A 
ATOM     20  C   UNL A   1      33.325  27.594  22.778  1.00  0.00     0.046 A 
ATOM     21  C   UNL A   1      31.299  26.389  22.288  1.00  0.00     0.060 A 
ATOM     22  C   UNL A   1      32.690  28.236  23.843  1.00  0.00     0.005 A 
ATOM     23  C   UNL A   1      31.389  27.876  24.197  1.00  0.00     0.014 A 
BRANCH  19  24
ATOM     24  O   UNL A   1      33.382  26.029  21.042  1.00  0.00    -0.497 OA
ATOM     25  C   UNL A   1      32.655  25.437  19.967  1.00  0.00     0.278 C 
ENDBRANCH  19  24
ENDBRANCH  15  18
ENDBRANCH  10  14
ENDBRANCH   7   9
ENDBRANCH   6   7
ENDBRANCH   5   6
ENDBRANCH   4   5
ENDBRANCH   3   4
ENDBRANCH   2   3
ENDBRANCH   1   2
BRANCH   1  26
ATOM     26  O   UNL A   1      39.396  23.486  26.621  1.00  0.00    -0.377 OA
BRANCH  26  27
ATOM     27  C   UNL A   1      40.465  22.550  26.520  1.00  0.00     0.188 C 
BRANCH  27  28
ATOM     28  C   UNL A   1      41.300  22.172  27.763  1.00  0.00     0.188 C 
BRANCH  28  29
ATOM     29  O   UNL A   1      42.126  21.031  27.593  1.00  0.00    -0.376 OA
BRANCH  29  30
ATOM     30  C   UNL A   1      41.550  19.854  27.047  1.00  0.00     0.202 C 
BRANCH  30  31
ATOM     31  C   UNL A   1      42.200  19.274  25.780  1.00  0.00     0.261 C 
BRANCH  31  32
ATOM     32  O   UNL A   1      43.637  19.284  25.739  1.00  0.00    -0.460 OA
BRANCH  32  33
ATOM     33  C   UNL A   1      44.233  19.796  24.645  1.00  0.00     0.338 C 
ATOM     34  O   UNL A   1      44.282  19.297  23.531  1.00  0.00    -0.246 OA
BRANCH  33  35
ATOM     35  C   UNL A   1      44.655  21.178  24.954  1.00  0.00     0.060 A 
ATOM     36  C   UNL A   1      45.285  21.433  26.179  1.00  0.00     0.016 A 
ATOM     37  C   UNL A   1      44.419  22.217  24.051  1.00  0.00     0.016 A 
ATOM     38  C   UNL A   1      45.642  22.736  26.523  1.00  0.00     0.010 A 
ATOM     39  C   UNL A   1      44.758  23.527  24.408  1.00  0.00     0.010 A 
ATOM     40  C   UNL A   1      45.336  23.798  25.661  1.00  0.00    -0.014 A 
BRANCH  40  41
ATOM     41  C   UNL A   1      45.445  25.192  26.157  1.00  0.00     0.031 A 
ATOM     42  C   UNL A   1      46.784  25.876  26.092  1.00  0.00     0.074 A 
ATOM     43  C   UNL A   1      44.370  25.858  26.615  1.00  0.00     0.049 A 
ATOM     44  N   UNL A   1      47.126  27.080  26.476  1.00  0.00    -0.248 NA
ATOM     45  C   UNL A   1      47.888  25.093  25.513  1.00  0.00     0.031 C 
ATOM     46  C   UNL A   1      43.013  25.323  26.688  1.00  0.00     0.029 A 
ATOM     47  N   UNL A   1      44.258  27.135  27.109  1.00  0.00    -0.354 N 
ATOM     48  C   UNL A   1      48.480  27.196  26.190  1.00  0.00     0.074 A 
ATOM     49  C   UNL A   1      48.907  25.931  25.633  1.00  0.00     0.031 C 
ATOM     50  C   UNL A   1      42.203  26.263  27.207  1.00  0.00     0.029 A 
ATOM     51  C   UNL A   1      42.991  27.451  27.532  1.00  0.00     0.049 A 
ATOM     52  H   UNL A   1      45.014  27.762  27.156  1.00  0.00     0.167 HD
ATOM     53  C   UNL A   1      49.294  28.264  26.365  1.00  0.00     0.037 A 
ATOM     54  C   UNL A   1      42.528  28.566  28.133  1.00  0.00     0.037 A 
ATOM     55  C   UNL A   1      48.869  29.522  26.923  1.00  0.00     0.049 A 
ATOM     56  C   UNL A   1      43.474  29.713  28.392  1.00  0.00     0.074 A 
ATOM     57  C   UNL A   1      49.613  30.671  27.125  1.00  0.00     0.029 A 
ATOM     58  N   UNL A   1      47.587  29.791  27.379  1.00  0.00    -0.354 N 
ATOM     59  N   UNL A   1      44.745  29.827  28.092  1.00  0.00    -0.248 NA
ATOM     60  C   UNL A   1      42.914  30.891  29.072  1.00  0.00     0.031 C 
ATOM     61  C   UNL A   1      48.799  31.612  27.764  1.00  0.00     0.029 A 
ATOM     62  C   UNL A   1      47.527  31.077  27.892  1.00  0.00     0.049 A 
ATOM     63  H   UNL A   1      46.830  29.161  27.342  1.00  0.00     0.167 HD
ATOM     64  C   UNL A   1      45.127  31.096  28.514  1.00  0.00     0.074 A 
ATOM     65  C   UNL A   1      43.948  31.721  29.073  1.00  0.00     0.031 C 
ATOM     66  C   UNL A   1      46.345  31.690  28.444  1.00  0.00     0.037 A 
BRANCH  53  67
ATOM     67  C   UNL A   1      50.737  28.111  25.980  1.00  0.00     0.064 A 
ATOM     68  C   UNL A   1      51.165  28.219  24.648  1.00  0.00     0.173 A 
ATOM     69  C   UNL A   1      51.713  27.885  26.964  1.00  0.00     0.173 A 
ATOM     70  F   UNL A   1      50.273  28.419  23.666  1.00  0.00    -0.203 F 
ATOM     71  C   UNL A   1      52.510  28.082  24.313  1.00  0.00     0.198 A 
ATOM     72  C   UNL A   1      53.060  27.782  26.630  1.00  0.00     0.198 A 
ATOM     73  F   UNL A   1      51.360  27.775  28.253  1.00  0.00    -0.203 F 
ATOM     74  F   UNL A   1      52.889  28.137  23.029  1.00  0.00    -0.200 F 
ATOM     75  C   UNL A   1      53.457  27.872  25.305  1.00  0.00     0.200 A 
ATOM     76  F   UNL A   1      53.974  27.595  27.592  1.00  0.00    -0.200 F 
ATOM     77  F   UNL A   1      54.753  27.750  24.982  1.00  0.00    -0.200 F 
ENDBRANCH  53  67
BRANCH  54  78
ATOM     78  C   UNL A   1      41.103  28.653  28.551  1.00  0.00     0.064 A 
ATOM     79  C   UNL A   1      40.701  28.290  29.845  1.00  0.00     0.173 A 
ATOM     80  C   UNL A   1      40.106  29.066  27.654  1.00  0.00     0.173 A 
ATOM     81  F   UNL A   1      41.611  27.862  30.733  1.00  0.00    -0.203 F 
ATOM     82  C   UNL A   1      39.358  28.312  30.216  1.00  0.00     0.198 A 
ATOM     83  C   UNL A   1      38.767  29.121  28.037  1.00  0.00     0.198 A 
ATOM     84  F   UNL A   1      40.434  29.420  26.403  1.00  0.00    -0.203 F 
ATOM     85  F   UNL A   1      38.997  27.905  31.440  1.00  0.00    -0.200 F 
ATOM     86  C   UNL A   1      38.393  28.734  29.314  1.00  0.00     0.200 A 
ATOM     87  F   UNL A   1      37.841  29.541  27.165  1.00  0.00    -0.200 F 
ATOM     88  F   UNL A   1      37.102  28.758  29.672  1.00  0.00    -0.200 F 
ENDBRANCH  54  78
BRANCH  66  89
ATOM     89  C   UNL A   1      46.456  33.104  28.948  1.00  0.00     0.064 A 
ATOM     90  C   UNL A   1      46.195  34.208  28.123  1.00  0.00     0.173 A 
ATOM     91  C   UNL A   1      46.801  33.355  30.285  1.00  0.00     0.173 A 
ATOM     92  F   UNL A   1      45.872  34.026  26.833  1.00  0.00    -0.203 F 
ATOM     93  C   UNL A   1      46.315  35.509  28.607  1.00  0.00     0.198 A 
ATOM     94  C   UNL A   1      46.881  34.655  30.777  1.00  0.00     0.198 A 
ATOM     95  F   UNL A   1      47.049  32.337  31.124  1.00  0.00    -0.203 F 
ATOM     96  F   UNL A   1      46.124  36.548  27.783  1.00  0.00    -0.200 F 
ATOM     97  C   UNL A   1      46.650  35.731  29.933  1.00  0.00     0.200 A 
ATOM     98  F   UNL A   1      47.186  34.866  32.064  1.00  0.00    -0.200 F 
ATOM     99  F   UNL A   1      46.760  36.983  30.399  1.00  0.00    -0.200 F 
ENDBRANCH  66  89
ENDBRANCH  40  41
ENDBRANCH  33  35
ENDBRANCH  32  33
ENDBRANCH  31  32
ENDBRANCH  30  31
ENDBRANCH  29  30
ENDBRANCH  28  29
ENDBRANCH  27  28
ENDBRANCH  26  27
ENDBRANCH   1  26
TORSDOF 23
ENDMDL
