MODEL 1
REMARK VINA RESULT:     -10.4      0.000      0.000
REMARK SMILES C[C@@H](C(=O)OCCOCCOCCOCCOC(=O)c1ccc(-c2c3nc(c(-c4c(F)c(F)c(F)c(F)c4F)c4ccc([nH]4)c(-c4c(F)c(F)c(F)c(F)c4F)c4nc(c(-c5c(F)c(F)c(F)c(F)c5F)c5ccc2[nH]5)C=C4)C=C3)cc1)c1ccc(-c2ccccc2)c(F)c1
REMARK SMILES IDX 11 1 10 2 9 3 8 4 7 5 6 6 5 7 3 8 4 9 2 10 1 11 83 12 84 13
REMARK SMILES IDX 95 14 85 15 93 16 86 17 94 18 87 19 88 20 92 21 89 22 91 23
REMARK SMILES IDX 90 24 12 25 13 26 14 27 15 28 16 29 17 30 18 31 19 32 20 33
REMARK SMILES IDX 21 34 82 35 22 36 81 37 23 38 24 39 25 40 75 41 26 42 80 43
REMARK SMILES IDX 74 44 76 45 27 46 79 47 73 48 72 49 28 51 60 52 40 53 59 54
REMARK SMILES IDX 41 55 44 56 58 57 77 58 42 59 43 60 57 62 78 63 45 64 29 65
REMARK SMILES IDX 30 66 38 67 31 68 32 69 36 70 39 71 33 72 34 73 37 74 35 75
REMARK SMILES IDX 61 76 62 77 70 78 63 79 64 80 68 81 71 82 65 83 66 84 69 85
REMARK SMILES IDX 67 86 46 87 47 88 55 89 48 90 49 91 53 92 56 93 50 94 51 95
REMARK SMILES IDX 54 96 52 97
REMARK H PARENT 76 50 44 61
REMARK Flexibility Score: inf
ROOT
ATOM      1  O   UNL A   1      27.905  32.322  22.726  1.00  0.00    -0.377 OA
ENDROOT
BRANCH   1   2
ATOM      2  C   UNL A   1      27.957  31.626  21.495  1.00  0.00     0.188 C 
BRANCH   2   3
ATOM      3  C   UNL A   1      28.577  30.221  21.557  1.00  0.00     0.188 C 
BRANCH   3   4
ATOM      4  O   UNL A   1      29.952  30.110  21.255  1.00  0.00    -0.376 OA
BRANCH   4   5
ATOM      5  C   UNL A   1      30.823  29.318  22.050  1.00  0.00     0.202 C 
BRANCH   5   6
ATOM      6  C   UNL A   1      30.451  28.011  22.785  1.00  0.00     0.261 C 
BRANCH   6   7
ATOM      7  O   UNL A   1      30.277  28.085  24.202  1.00  0.00    -0.463 OA
BRANCH   7   8
ATOM      8  C   UNL A   1      31.201  27.476  24.980  1.00  0.00     0.313 C 
ATOM      9  O   UNL A   1      32.049  28.074  25.633  1.00  0.00    -0.252 OA
BRANCH   8  10
ATOM     10  C   UNL A   1      31.022  25.947  25.038  1.00  0.00     0.126 C 
ATOM     11  C   UNL A   1      29.923  25.505  26.021  1.00  0.00     0.025 C 
BRANCH  10  12
ATOM     12  C   UNL A   1      32.361  25.198  25.089  1.00  0.00    -0.031 A 
ATOM     13  C   UNL A   1      33.334  25.240  24.077  1.00  0.00     0.005 A 
ATOM     14  C   UNL A   1      32.672  24.451  26.237  1.00  0.00     0.044 A 
ATOM     15  C   UNL A   1      34.565  24.567  24.219  1.00  0.00     0.012 A 
ATOM     16  C   UNL A   1      33.890  23.783  26.371  1.00  0.00     0.131 A 
ATOM     17  C   UNL A   1      34.873  23.839  25.379  1.00  0.00     0.017 A 
ATOM     18  F   UNL A   1      34.112  23.106  27.508  1.00  0.00    -0.206 F 
BRANCH  17  19
ATOM     19  C   UNL A   1      36.196  23.223  25.584  1.00  0.00    -0.015 A 
ATOM     20  C   UNL A   1      36.453  21.919  25.125  1.00  0.00     0.009 A 
ATOM     21  C   UNL A   1      37.254  23.931  26.177  1.00  0.00     0.009 A 
ATOM     22  C   UNL A   1      37.723  21.349  25.241  1.00  0.00     0.001 A 
ATOM     23  C   UNL A   1      38.526  23.359  26.298  1.00  0.00     0.001 A 
ATOM     24  C   UNL A   1      38.761  22.070  25.826  1.00  0.00     0.000 A 
ENDBRANCH  17  19
ENDBRANCH  10  12
ENDBRANCH   8  10
ENDBRANCH   7   8
ENDBRANCH   6   7
ENDBRANCH   5   6
ENDBRANCH   4   5
ENDBRANCH   3   4
ENDBRANCH   2   3
ENDBRANCH   1   2
BRANCH   1  25
ATOM     25  C   UNL A   1      29.109  32.494  23.461  1.00  0.00     0.188 C 
BRANCH  25  26
ATOM     26  C   UNL A   1      29.456  31.574  24.650  1.00  0.00     0.188 C 
BRANCH  26  27
ATOM     27  O   UNL A   1      30.828  31.544  25.006  1.00  0.00    -0.376 OA
BRANCH  27  28
ATOM     28  C   UNL A   1      31.177  31.489  26.380  1.00  0.00     0.202 C 
BRANCH  28  29
ATOM     29  C   UNL A   1      31.704  32.779  27.030  1.00  0.00     0.261 C 
BRANCH  29  30
ATOM     30  O   UNL A   1      33.123  32.991  26.965  1.00  0.00    -0.460 OA
BRANCH  30  31
ATOM     31  C   UNL A   1      33.711  33.638  27.991  1.00  0.00     0.338 C 
ATOM     32  O   UNL A   1      33.270  34.587  28.618  1.00  0.00    -0.246 OA
BRANCH  31  33
ATOM     33  C   UNL A   1      34.920  32.878  28.370  1.00  0.00     0.060 A 
ATOM     34  C   UNL A   1      34.802  31.509  28.643  1.00  0.00     0.016 A 
ATOM     35  C   UNL A   1      36.162  33.512  28.456  1.00  0.00     0.016 A 
ATOM     36  C   UNL A   1      35.921  30.777  29.044  1.00  0.00     0.010 A 
ATOM     37  C   UNL A   1      37.277  32.783  28.880  1.00  0.00     0.010 A 
ATOM     38  C   UNL A   1      37.153  31.421  29.211  1.00  0.00    -0.014 A 
BRANCH  38  39
ATOM     39  C   UNL A   1      38.252  30.730  29.929  1.00  0.00     0.031 A 
ATOM     40  C   UNL A   1      38.487  31.077  31.373  1.00  0.00     0.074 A 
ATOM     41  C   UNL A   1      39.011  29.798  29.327  1.00  0.00     0.049 A 
ATOM     42  N   UNL A   1      39.416  30.658  32.193  1.00  0.00    -0.248 NA
ATOM     43  C   UNL A   1      37.542  32.032  31.974  1.00  0.00     0.031 C 
ATOM     44  C   UNL A   1      38.853  29.342  27.949  1.00  0.00     0.029 A 
ATOM     45  N   UNL A   1      40.078  29.078  29.804  1.00  0.00    -0.354 N 
ATOM     46  C   UNL A   1      39.172  31.302  33.400  1.00  0.00     0.074 A 
ATOM     47  C   UNL A   1      38.031  32.168  33.196  1.00  0.00     0.031 C 
ATOM     48  C   UNL A   1      39.803  28.427  27.684  1.00  0.00     0.029 A 
ATOM     49  C   UNL A   1      40.656  28.264  28.860  1.00  0.00     0.049 A 
ATOM     50  H   UNL A   1      40.399  29.139  30.731  1.00  0.00     0.167 HD
ATOM     51  C   UNL A   1      39.832  31.175  34.575  1.00  0.00     0.037 A 
ATOM     52  C   UNL A   1      41.763  27.499  28.935  1.00  0.00     0.037 A 
ATOM     53  C   UNL A   1      40.972  30.319  34.771  1.00  0.00     0.049 A 
ATOM     54  C   UNL A   1      42.536  27.439  30.229  1.00  0.00     0.074 A 
ATOM     55  C   UNL A   1      41.709  30.113  35.924  1.00  0.00     0.029 A 
ATOM     56  N   UNL A   1      41.548  29.533  33.783  1.00  0.00    -0.354 N 
ATOM     57  N   UNL A   1      42.290  28.034  31.372  1.00  0.00    -0.248 NA
ATOM     58  C   UNL A   1      43.741  26.597  30.244  1.00  0.00     0.031 C 
ATOM     59  C   UNL A   1      42.768  29.252  35.618  1.00  0.00     0.029 A 
ATOM     60  C   UNL A   1      42.649  28.863  34.293  1.00  0.00     0.049 A 
ATOM     61  H   UNL A   1      41.223  29.461  32.857  1.00  0.00     0.167 HD
ATOM     62  C   UNL A   1      43.285  27.614  32.247  1.00  0.00     0.074 A 
ATOM     63  C   UNL A   1      44.131  26.702  31.507  1.00  0.00     0.031 C 
ATOM     64  C   UNL A   1      43.478  27.951  33.547  1.00  0.00     0.037 A 
BRANCH  51  65
ATOM     65  C   UNL A   1      39.357  32.009  35.730  1.00  0.00     0.064 A 
ATOM     66  C   UNL A   1      39.817  33.318  35.939  1.00  0.00     0.173 A 
ATOM     67  C   UNL A   1      38.409  31.497  36.629  1.00  0.00     0.173 A 
ATOM     68  F   UNL A   1      40.734  33.851  35.117  1.00  0.00    -0.203 F 
ATOM     69  C   UNL A   1      39.370  34.072  37.021  1.00  0.00     0.198 A 
ATOM     70  C   UNL A   1      37.938  32.266  37.691  1.00  0.00     0.198 A 
ATOM     71  F   UNL A   1      37.932  30.252  36.476  1.00  0.00    -0.203 F 
ATOM     72  F   UNL A   1      39.866  35.299  37.232  1.00  0.00    -0.200 F 
ATOM     73  C   UNL A   1      38.425  33.548  37.892  1.00  0.00     0.200 A 
ATOM     74  F   UNL A   1      37.014  31.763  38.522  1.00  0.00    -0.200 F 
ATOM     75  F   UNL A   1      37.991  34.277  38.929  1.00  0.00    -0.200 F 
ENDBRANCH  51  65
BRANCH  52  76
ATOM     76  C   UNL A   1      42.226  26.741  27.740  1.00  0.00     0.064 A 
ATOM     77  C   UNL A   1      41.747  25.452  27.466  1.00  0.00     0.173 A 
ATOM     78  C   UNL A   1      43.178  27.281  26.862  1.00  0.00     0.173 A 
ATOM     79  F   UNL A   1      40.857  24.880  28.290  1.00  0.00    -0.203 F 
ATOM     80  C   UNL A   1      42.218  24.725  26.374  1.00  0.00     0.198 A 
ATOM     81  C   UNL A   1      43.623  26.566  25.752  1.00  0.00     0.198 A 
ATOM     82  F   UNL A   1      43.673  28.508  27.079  1.00  0.00    -0.203 F 
ATOM     83  F   UNL A   1      41.783  23.475  26.167  1.00  0.00    -0.200 F 
ATOM     84  C   UNL A   1      43.150  25.286  25.513  1.00  0.00     0.200 A 
ATOM     85  F   UNL A   1      44.514  27.118  24.916  1.00  0.00    -0.200 F 
ATOM     86  F   UNL A   1      43.600  24.587  24.462  1.00  0.00    -0.200 F 
ENDBRANCH  52  76
BRANCH  64  87
ATOM     87  C   UNL A   1      44.622  27.296  34.272  1.00  0.00     0.064 A 
ATOM     88  C   UNL A   1      45.928  27.806  34.214  1.00  0.00     0.173 A 
ATOM     89  C   UNL A   1      44.397  26.166  35.076  1.00  0.00     0.173 A 
ATOM     90  F   UNL A   1      46.201  28.877  33.454  1.00  0.00    -0.203 F 
ATOM     91  C   UNL A   1      46.968  27.192  34.908  1.00  0.00     0.198 A 
ATOM     92  C   UNL A   1      45.432  25.578  35.796  1.00  0.00     0.198 A 
ATOM     93  F   UNL A   1      43.165  25.643  35.176  1.00  0.00    -0.203 F 
ATOM     94  F   UNL A   1      48.217  27.666  34.794  1.00  0.00    -0.200 F 
ATOM     95  C   UNL A   1      46.718  26.085  35.704  1.00  0.00     0.200 A 
ATOM     96  F   UNL A   1      45.184  24.519  36.580  1.00  0.00    -0.200 F 
ATOM     97  F   UNL A   1      47.719  25.502  36.379  1.00  0.00    -0.200 F 
ENDBRANCH  64  87
ENDBRANCH  38  39
ENDBRANCH  31  33
ENDBRANCH  30  31
ENDBRANCH  29  30
ENDBRANCH  28  29
ENDBRANCH  27  28
ENDBRANCH  26  27
ENDBRANCH  25  26
ENDBRANCH   1  25
TORSDOF 22
ENDMDL
MODEL 2
REMARK VINA RESULT:     -10.3      2.343      7.839
REMARK SMILES C[C@@H](C(=O)OCCOCCOCCOCCOC(=O)c1ccc(-c2c3nc(c(-c4c(F)c(F)c(F)c(F)c4F)c4ccc([nH]4)c(-c4c(F)c(F)c(F)c(F)c4F)c4nc(c(-c5c(F)c(F)c(F)c(F)c5F)c5ccc2[nH]5)C=C4)C=C3)cc1)c1ccc(-c2ccccc2)c(F)c1
REMARK SMILES IDX 11 1 10 2 9 3 8 4 7 5 6 6 5 7 3 8 4 9 2 10 1 11 83 12 84 13
REMARK SMILES IDX 95 14 85 15 93 16 86 17 94 18 87 19 88 20 92 21 89 22 91 23
REMARK SMILES IDX 90 24 12 25 13 26 14 27 15 28 16 29 17 30 18 31 19 32 20 33
REMARK SMILES IDX 21 34 82 35 22 36 81 37 23 38 24 39 25 40 75 41 26 42 80 43
REMARK SMILES IDX 74 44 76 45 27 46 79 47 73 48 72 49 28 51 60 52 40 53 59 54
REMARK SMILES IDX 41 55 44 56 58 57 77 58 42 59 43 60 57 62 78 63 45 64 29 65
REMARK SMILES IDX 30 66 38 67 31 68 32 69 36 70 39 71 33 72 34 73 37 74 35 75
REMARK SMILES IDX 61 76 62 77 70 78 63 79 64 80 68 81 71 82 65 83 66 84 69 85
REMARK SMILES IDX 67 86 46 87 47 88 55 89 48 90 49 91 53 92 56 93 50 94 51 95
REMARK SMILES IDX 54 96 52 97
REMARK H PARENT 76 50 44 61
REMARK Flexibility Score: inf
ROOT
ATOM      1  O   UNL A   1      33.287  27.905  24.020  1.00  0.00    -0.377 OA
ENDROOT
BRANCH   1   2
ATOM      2  C   UNL A   1      33.685  27.666  25.356  1.00  0.00     0.188 C 
BRANCH   2   3
ATOM      3  C   UNL A   1      33.912  26.190  25.723  1.00  0.00     0.188 C 
BRANCH   3   4
ATOM      4  O   UNL A   1      32.878  25.535  26.427  1.00  0.00    -0.376 OA
BRANCH   4   5
ATOM      5  C   UNL A   1      31.524  25.945  26.306  1.00  0.00     0.202 C 
BRANCH   5   6
ATOM      6  C   UNL A   1      30.353  25.083  25.783  1.00  0.00     0.261 C 
BRANCH   6   7
ATOM      7  O   UNL A   1      30.597  24.283  24.624  1.00  0.00    -0.463 OA
BRANCH   7   8
ATOM      8  C   UNL A   1      31.142  24.892  23.545  1.00  0.00     0.313 C 
ATOM      9  O   UNL A   1      30.681  25.901  23.022  1.00  0.00    -0.252 OA
BRANCH   8  10
ATOM     10  C   UNL A   1      32.462  24.240  23.093  1.00  0.00     0.126 C 
ATOM     11  C   UNL A   1      32.926  24.715  21.704  1.00  0.00     0.025 C 
BRANCH  10  12
ATOM     12  C   UNL A   1      32.502  22.732  23.376  1.00  0.00    -0.031 A 
ATOM     13  C   UNL A   1      32.031  21.744  22.496  1.00  0.00     0.005 A 
ATOM     14  C   UNL A   1      33.087  22.286  24.574  1.00  0.00     0.044 A 
ATOM     15  C   UNL A   1      32.150  20.373  22.804  1.00  0.00     0.012 A 
ATOM     16  C   UNL A   1      33.199  20.929  24.876  1.00  0.00     0.131 A 
ATOM     17  C   UNL A   1      32.755  19.940  23.995  1.00  0.00     0.017 A 
ATOM     18  F   UNL A   1      33.787  20.591  26.034  1.00  0.00    -0.206 F 
BRANCH  17  19
ATOM     19  C   UNL A   1      32.982  18.512  24.277  1.00  0.00    -0.015 A 
ATOM     20  C   UNL A   1      33.653  17.699  23.348  1.00  0.00     0.009 A 
ATOM     21  C   UNL A   1      32.600  17.933  25.499  1.00  0.00     0.009 A 
ATOM     22  C   UNL A   1      33.946  16.363  23.633  1.00  0.00     0.001 A 
ATOM     23  C   UNL A   1      32.888  16.593  25.785  1.00  0.00     0.001 A 
ATOM     24  C   UNL A   1      33.565  15.811  24.853  1.00  0.00     0.000 A 
ENDBRANCH  17  19
ENDBRANCH  10  12
ENDBRANCH   8  10
ENDBRANCH   7   8
ENDBRANCH   6   7
ENDBRANCH   5   6
ENDBRANCH   4   5
ENDBRANCH   3   4
ENDBRANCH   2   3
ENDBRANCH   1   2
BRANCH   1  25
ATOM     25  C   UNL A   1      32.392  28.979  23.759  1.00  0.00     0.188 C 
BRANCH  25  26
ATOM     26  C   UNL A   1      31.184  29.253  24.678  1.00  0.00     0.188 C 
BRANCH  26  27
ATOM     27  O   UNL A   1      31.118  30.566  25.208  1.00  0.00    -0.376 OA
BRANCH  27  28
ATOM     28  C   UNL A   1      31.751  30.837  26.449  1.00  0.00     0.202 C 
BRANCH  28  29
ATOM     29  C   UNL A   1      31.781  32.297  26.927  1.00  0.00     0.261 C 
BRANCH  29  30
ATOM     30  O   UNL A   1      33.080  32.855  27.187  1.00  0.00    -0.460 OA
BRANCH  30  31
ATOM     31  C   UNL A   1      33.165  33.863  28.078  1.00  0.00     0.338 C 
ATOM     32  O   UNL A   1      32.375  34.778  28.238  1.00  0.00    -0.246 OA
BRANCH  31  33
ATOM     33  C   UNL A   1      34.298  33.572  28.980  1.00  0.00     0.060 A 
ATOM     34  C   UNL A   1      35.579  34.015  28.624  1.00  0.00     0.016 A 
ATOM     35  C   UNL A   1      34.099  32.869  30.170  1.00  0.00     0.016 A 
ATOM     36  C   UNL A   1      36.673  33.717  29.438  1.00  0.00     0.010 A 
ATOM     37  C   UNL A   1      35.198  32.551  30.973  1.00  0.00     0.010 A 
ATOM     38  C   UNL A   1      36.494  32.943  30.591  1.00  0.00    -0.014 A 
BRANCH  38  39
ATOM     39  C   UNL A   1      37.676  32.365  31.278  1.00  0.00     0.031 A 
ATOM     40  C   UNL A   1      38.443  31.276  30.579  1.00  0.00     0.074 A 
ATOM     41  C   UNL A   1      38.078  32.808  32.481  1.00  0.00     0.049 A 
ATOM     42  N   UNL A   1      39.466  30.576  30.995  1.00  0.00    -0.248 NA
ATOM     43  C   UNL A   1      37.988  30.929  29.222  1.00  0.00     0.031 C 
ATOM     44  C   UNL A   1      37.448  33.887  33.238  1.00  0.00     0.029 A 
ATOM     45  N   UNL A   1      39.112  32.389  33.282  1.00  0.00    -0.354 N 
ATOM     46  C   UNL A   1      39.772  29.703  29.958  1.00  0.00     0.074 A 
ATOM     47  C   UNL A   1      38.804  29.935  28.908  1.00  0.00     0.031 C 
ATOM     48  C   UNL A   1      38.101  34.036  34.404  1.00  0.00     0.029 A 
ATOM     49  C   UNL A   1      39.167  33.038  34.491  1.00  0.00     0.049 A 
ATOM     50  H   UNL A   1      39.752  31.691  33.015  1.00  0.00     0.167 HD
ATOM     51  C   UNL A   1      40.776  28.798  29.882  1.00  0.00     0.037 A 
ATOM     52  C   UNL A   1      39.970  32.828  35.553  1.00  0.00     0.037 A 
ATOM     53  C   UNL A   1      41.732  28.565  30.931  1.00  0.00     0.049 A 
ATOM     54  C   UNL A   1      41.027  31.754  35.481  1.00  0.00     0.074 A 
ATOM     55  C   UNL A   1      42.792  27.674  30.952  1.00  0.00     0.029 A 
ATOM     56  N   UNL A   1      41.737  29.219  32.155  1.00  0.00    -0.354 N 
ATOM     57  N   UNL A   1      41.324  30.946  34.492  1.00  0.00    -0.248 NA
ATOM     58  C   UNL A   1      41.863  31.565  36.676  1.00  0.00     0.031 C 
ATOM     59  C   UNL A   1      43.398  27.746  32.210  1.00  0.00     0.029 A 
ATOM     60  C   UNL A   1      42.763  28.732  32.949  1.00  0.00     0.049 A 
ATOM     61  H   UNL A   1      41.105  29.926  32.420  1.00  0.00     0.167 HD
ATOM     62  C   UNL A   1      42.398  30.179  34.930  1.00  0.00     0.074 A 
ATOM     63  C   UNL A   1      42.709  30.629  36.270  1.00  0.00     0.031 C 
ATOM     64  C   UNL A   1      43.067  29.194  34.279  1.00  0.00     0.037 A 
BRANCH  51  65
ATOM     65  C   UNL A   1      40.868  27.969  28.633  1.00  0.00     0.064 A 
ATOM     66  C   UNL A   1      40.141  26.779  28.477  1.00  0.00     0.173 A 
ATOM     67  C   UNL A   1      41.680  28.384  27.566  1.00  0.00     0.173 A 
ATOM     68  F   UNL A   1      39.361  26.329  29.472  1.00  0.00    -0.203 F 
ATOM     69  C   UNL A   1      40.247  26.020  27.315  1.00  0.00     0.198 A 
ATOM     70  C   UNL A   1      41.757  27.641  26.390  1.00  0.00     0.198 A 
ATOM     71  F   UNL A   1      42.395  29.516  27.659  1.00  0.00    -0.203 F 
ATOM     72  F   UNL A   1      39.587  24.858  27.211  1.00  0.00    -0.200 F 
ATOM     73  C   UNL A   1      41.049  26.456  26.269  1.00  0.00     0.200 A 
ATOM     74  F   UNL A   1      42.520  28.072  25.377  1.00  0.00    -0.200 F 
ATOM     75  F   UNL A   1      41.145  25.728  25.148  1.00  0.00    -0.200 F 
ENDBRANCH  51  65
BRANCH  52  76
ATOM     76  C   UNL A   1      39.794  33.637  36.790  1.00  0.00     0.064 A 
ATOM     77  C   UNL A   1      38.889  33.252  37.789  1.00  0.00     0.173 A 
ATOM     78  C   UNL A   1      40.509  34.829  36.985  1.00  0.00     0.173 A 
ATOM     79  F   UNL A   1      38.161  32.137  37.638  1.00  0.00    -0.203 F 
ATOM     80  C   UNL A   1      38.691  34.038  38.923  1.00  0.00     0.198 A 
ATOM     81  C   UNL A   1      40.335  35.595  38.135  1.00  0.00     0.198 A 
ATOM     82  F   UNL A   1      41.385  35.247  36.059  1.00  0.00    -0.203 F 
ATOM     83  F   UNL A   1      37.780  33.673  39.836  1.00  0.00    -0.200 F 
ATOM     84  C   UNL A   1      39.419  35.205  39.099  1.00  0.00     0.200 A 
ATOM     85  F   UNL A   1      41.050  36.716  38.306  1.00  0.00    -0.200 F 
ATOM     86  F   UNL A   1      39.230  35.957  40.192  1.00  0.00    -0.200 F 
ENDBRANCH  52  76
BRANCH  64  87
ATOM     87  C   UNL A   1      44.235  28.564  34.986  1.00  0.00     0.064 A 
ATOM     88  C   UNL A   1      44.097  27.402  35.760  1.00  0.00     0.173 A 
ATOM     89  C   UNL A   1      45.524  29.107  34.848  1.00  0.00     0.173 A 
ATOM     90  F   UNL A   1      42.888  26.847  35.934  1.00  0.00    -0.203 F 
ATOM     91  C   UNL A   1      45.197  26.826  36.392  1.00  0.00     0.198 A 
ATOM     92  C   UNL A   1      46.626  28.507  35.451  1.00  0.00     0.198 A 
ATOM     93  F   UNL A   1      45.716  30.211  34.111  1.00  0.00    -0.203 F 
ATOM     94  F   UNL A   1      45.030  25.747  37.170  1.00  0.00    -0.200 F 
ATOM     95  C   UNL A   1      46.460  27.373  36.230  1.00  0.00     0.200 A 
ATOM     96  F   UNL A   1      47.848  29.028  35.277  1.00  0.00    -0.200 F 
ATOM     97  F   UNL A   1      47.518  26.812  36.831  1.00  0.00    -0.200 F 
ENDBRANCH  64  87
ENDBRANCH  38  39
ENDBRANCH  31  33
ENDBRANCH  30  31
ENDBRANCH  29  30
ENDBRANCH  28  29
ENDBRANCH  27  28
ENDBRANCH  26  27
ENDBRANCH  25  26
ENDBRANCH   1  25
TORSDOF 22
ENDMDL
MODEL 3
REMARK VINA RESULT:     -10.1      4.439      8.796
REMARK SMILES C[C@@H](C(=O)OCCOCCOCCOCCOC(=O)c1ccc(-c2c3nc(c(-c4c(F)c(F)c(F)c(F)c4F)c4ccc([nH]4)c(-c4c(F)c(F)c(F)c(F)c4F)c4nc(c(-c5c(F)c(F)c(F)c(F)c5F)c5ccc2[nH]5)C=C4)C=C3)cc1)c1ccc(-c2ccccc2)c(F)c1
REMARK SMILES IDX 11 1 10 2 9 3 8 4 7 5 6 6 5 7 3 8 4 9 2 10 1 11 83 12 84 13
REMARK SMILES IDX 95 14 85 15 93 16 86 17 94 18 87 19 88 20 92 21 89 22 91 23
REMARK SMILES IDX 90 24 12 25 13 26 14 27 15 28 16 29 17 30 18 31 19 32 20 33
REMARK SMILES IDX 21 34 82 35 22 36 81 37 23 38 24 39 25 40 75 41 26 42 80 43
REMARK SMILES IDX 74 44 76 45 27 46 79 47 73 48 72 49 28 51 60 52 40 53 59 54
REMARK SMILES IDX 41 55 44 56 58 57 77 58 42 59 43 60 57 62 78 63 45 64 29 65
REMARK SMILES IDX 30 66 38 67 31 68 32 69 36 70 39 71 33 72 34 73 37 74 35 75
REMARK SMILES IDX 61 76 62 77 70 78 63 79 64 80 68 81 71 82 65 83 66 84 69 85
REMARK SMILES IDX 67 86 46 87 47 88 55 89 48 90 49 91 53 92 56 93 50 94 51 95
REMARK SMILES IDX 54 96 52 97
REMARK H PARENT 76 50 44 61
REMARK Flexibility Score: inf
ROOT
ATOM      1  O   UNL A   1      34.896  33.871  29.431  1.00  0.00    -0.377 OA
ENDROOT
BRANCH   1   2
ATOM      2  C   UNL A   1      35.109  33.389  28.118  1.00  0.00     0.188 C 
BRANCH   2   3
ATOM      3  C   UNL A   1      35.980  32.127  28.010  1.00  0.00     0.188 C 
BRANCH   3   4
ATOM      4  O   UNL A   1      35.322  30.915  27.704  1.00  0.00    -0.376 OA
BRANCH   4   5
ATOM      5  C   UNL A   1      33.921  30.870  27.478  1.00  0.00     0.202 C 
BRANCH   5   6
ATOM      6  C   UNL A   1      33.112  29.639  27.013  1.00  0.00     0.261 C 
BRANCH   6   7
ATOM      7  O   UNL A   1      33.358  29.156  25.689  1.00  0.00    -0.463 OA
BRANCH   7   8
ATOM      8  C   UNL A   1      32.490  28.252  25.180  1.00  0.00     0.313 C 
ATOM      9  O   UNL A   1      31.381  28.025  25.652  1.00  0.00    -0.252 OA
BRANCH   8  10
ATOM     10  C   UNL A   1      33.000  27.597  23.883  1.00  0.00     0.126 C 
ATOM     11  C   UNL A   1      32.074  27.842  22.678  1.00  0.00     0.025 C 
BRANCH  10  12
ATOM     12  C   UNL A   1      33.510  26.166  24.106  1.00  0.00    -0.031 A 
ATOM     13  C   UNL A   1      33.866  25.634  25.356  1.00  0.00     0.005 A 
ATOM     14  C   UNL A   1      33.590  25.299  23.003  1.00  0.00     0.044 A 
ATOM     15  C   UNL A   1      34.275  24.292  25.490  1.00  0.00     0.012 A 
ATOM     16  C   UNL A   1      34.000  23.973  23.139  1.00  0.00     0.131 A 
ATOM     17  C   UNL A   1      34.332  23.430  24.383  1.00  0.00     0.017 A 
ATOM     18  F   UNL A   1      34.032  23.210  22.036  1.00  0.00    -0.206 F 
BRANCH  17  19
ATOM     19  C   UNL A   1      34.654  21.999  24.527  1.00  0.00    -0.015 A 
ATOM     20  C   UNL A   1      35.973  21.588  24.787  1.00  0.00     0.009 A 
ATOM     21  C   UNL A   1      33.657  21.011  24.476  1.00  0.00     0.009 A 
ATOM     22  C   UNL A   1      36.282  20.242  25.003  1.00  0.00     0.001 A 
ATOM     23  C   UNL A   1      33.965  19.662  24.687  1.00  0.00     0.001 A 
ATOM     24  C   UNL A   1      35.277  19.280  24.955  1.00  0.00     0.000 A 
ENDBRANCH  17  19
ENDBRANCH  10  12
ENDBRANCH   8  10
ENDBRANCH   7   8
ENDBRANCH   6   7
ENDBRANCH   5   6
ENDBRANCH   4   5
ENDBRANCH   3   4
ENDBRANCH   2   3
ENDBRANCH   1   2
BRANCH   1  25
ATOM     25  C   UNL A   1      33.729  34.639  29.693  1.00  0.00     0.188 C 
BRANCH  25  26
ATOM     26  C   UNL A   1      33.512  35.319  31.061  1.00  0.00     0.188 C 
BRANCH  26  27
ATOM     27  O   UNL A   1      33.806  34.510  32.187  1.00  0.00    -0.376 OA
BRANCH  27  28
ATOM     28  C   UNL A   1      34.666  35.023  33.193  1.00  0.00     0.202 C 
BRANCH  28  29
ATOM     29  C   UNL A   1      36.090  34.448  33.271  1.00  0.00     0.261 C 
BRANCH  29  30
ATOM     30  O   UNL A   1      36.268  33.120  32.752  1.00  0.00    -0.460 OA
BRANCH  30  31
ATOM     31  C   UNL A   1      37.022  32.260  33.467  1.00  0.00     0.338 C 
ATOM     32  O   UNL A   1      36.870  31.936  34.633  1.00  0.00    -0.246 OA
BRANCH  31  33
ATOM     33  C   UNL A   1      37.970  31.612  32.538  1.00  0.00     0.060 A 
ATOM     34  C   UNL A   1      39.045  30.885  33.066  1.00  0.00     0.016 A 
ATOM     35  C   UNL A   1      37.800  31.720  31.157  1.00  0.00     0.016 A 
ATOM     36  C   UNL A   1      39.980  30.299  32.211  1.00  0.00     0.010 A 
ATOM     37  C   UNL A   1      38.748  31.151  30.301  1.00  0.00     0.010 A 
ATOM     38  C   UNL A   1      39.862  30.470  30.826  1.00  0.00    -0.014 A 
BRANCH  38  39
ATOM     39  C   UNL A   1      41.003  30.124  29.943  1.00  0.00     0.031 A 
ATOM     40  C   UNL A   1      41.020  28.763  29.304  1.00  0.00     0.074 A 
ATOM     41  C   UNL A   1      41.990  31.000  29.691  1.00  0.00     0.049 A 
ATOM     42  N   UNL A   1      41.930  28.206  28.547  1.00  0.00    -0.248 NA
ATOM     43  C   UNL A   1      39.846  27.911  29.557  1.00  0.00     0.031 C 
ATOM     44  C   UNL A   1      42.064  32.363  30.212  1.00  0.00     0.029 A 
ATOM     45  N   UNL A   1      43.130  30.862  28.937  1.00  0.00    -0.354 N 
ATOM     46  C   UNL A   1      41.444  26.941  28.241  1.00  0.00     0.074 A 
ATOM     47  C   UNL A   1      40.176  26.797  28.923  1.00  0.00     0.031 C 
ATOM     48  C   UNL A   1      43.200  32.933  29.774  1.00  0.00     0.029 A 
ATOM     49  C   UNL A   1      43.950  31.963  28.976  1.00  0.00     0.049 A 
ATOM     50  H   UNL A   1      43.339  30.053  28.419  1.00  0.00     0.167 HD
ATOM     51  C   UNL A   1      41.998  25.990  27.453  1.00  0.00     0.037 A 
ATOM     52  C   UNL A   1      45.177  32.151  28.450  1.00  0.00     0.037 A 
ATOM     53  C   UNL A   1      43.262  26.135  26.782  1.00  0.00     0.049 A 
ATOM     54  C   UNL A   1      45.815  31.044  27.647  1.00  0.00     0.074 A 
ATOM     55  C   UNL A   1      43.910  25.233  25.955  1.00  0.00     0.029 A 
ATOM     56  N   UNL A   1      44.080  27.252  26.871  1.00  0.00    -0.354 N 
ATOM     57  N   UNL A   1      45.342  29.859  27.345  1.00  0.00    -0.248 NA
ATOM     58  C   UNL A   1      47.158  31.305  27.109  1.00  0.00     0.031 C 
ATOM     59  C   UNL A   1      45.146  25.779  25.595  1.00  0.00     0.029 A 
ATOM     60  C   UNL A   1      45.238  27.051  26.137  1.00  0.00     0.049 A 
ATOM     61  H   UNL A   1      43.868  28.068  27.379  1.00  0.00     0.167 HD
ATOM     62  C   UNL A   1      46.312  29.247  26.557  1.00  0.00     0.074 A 
ATOM     63  C   UNL A   1      47.393  30.199  26.417  1.00  0.00     0.031 C 
ATOM     64  C   UNL A   1      46.305  28.011  25.999  1.00  0.00     0.037 A 
BRANCH  51  65
ATOM     65  C   UNL A   1      41.252  24.695  27.303  1.00  0.00     0.064 A 
ATOM     66  C   UNL A   1      41.659  23.524  27.961  1.00  0.00     0.173 A 
ATOM     67  C   UNL A   1      40.100  24.630  26.505  1.00  0.00     0.173 A 
ATOM     68  F   UNL A   1      42.762  23.527  28.724  1.00  0.00    -0.203 F 
ATOM     69  C   UNL A   1      40.959  22.331  27.802  1.00  0.00     0.198 A 
ATOM     70  C   UNL A   1      39.382  23.443  26.375  1.00  0.00     0.198 A 
ATOM     71  F   UNL A   1      39.663  25.719  25.854  1.00  0.00    -0.203 F 
ATOM     72  F   UNL A   1      41.399  21.213  28.395  1.00  0.00    -0.200 F 
ATOM     73  C   UNL A   1      39.817  22.293  27.015  1.00  0.00     0.200 A 
ATOM     74  F   UNL A   1      38.270  23.414  25.627  1.00  0.00    -0.200 F 
ATOM     75  F   UNL A   1      39.140  21.146  26.868  1.00  0.00    -0.200 F 
ENDBRANCH  51  65
BRANCH  52  76
ATOM     76  C   UNL A   1      45.898  33.432  28.682  1.00  0.00     0.064 A 
ATOM     77  C   UNL A   1      45.764  34.513  27.798  1.00  0.00     0.173 A 
ATOM     78  C   UNL A   1      46.758  33.592  29.779  1.00  0.00     0.173 A 
ATOM     79  F   UNL A   1      44.976  34.401  26.719  1.00  0.00    -0.203 F 
ATOM     80  C   UNL A   1      46.478  35.694  27.991  1.00  0.00     0.198 A 
ATOM     81  C   UNL A   1      47.445  34.786  29.989  1.00  0.00     0.198 A 
ATOM     82  F   UNL A   1      46.927  32.589  30.653  1.00  0.00    -0.203 F 
ATOM     83  F   UNL A   1      46.373  36.690  27.102  1.00  0.00    -0.200 F 
ATOM     84  C   UNL A   1      47.312  35.832  29.090  1.00  0.00     0.200 A 
ATOM     85  F   UNL A   1      48.240  34.919  31.060  1.00  0.00    -0.200 F 
ATOM     86  F   UNL A   1      47.996  36.970  29.276  1.00  0.00    -0.200 F 
ENDBRANCH  52  76
BRANCH  64  87
ATOM     87  C   UNL A   1      47.481  27.628  25.143  1.00  0.00     0.064 A 
ATOM     88  C   UNL A   1      47.489  27.832  23.756  1.00  0.00     0.173 A 
ATOM     89  C   UNL A   1      48.639  27.091  25.731  1.00  0.00     0.173 A 
ATOM     90  F   UNL A   1      46.406  28.332  23.141  1.00  0.00    -0.203 F 
ATOM     91  C   UNL A   1      48.597  27.486  22.986  1.00  0.00     0.198 A 
ATOM     92  C   UNL A   1      49.757  26.780  24.963  1.00  0.00     0.198 A 
ATOM     93  F   UNL A   1      48.690  26.885  27.056  1.00  0.00    -0.203 F 
ATOM     94  F   UNL A   1      48.559  27.640  21.655  1.00  0.00    -0.200 F 
ATOM     95  C   UNL A   1      49.732  26.968  23.591  1.00  0.00     0.200 A 
ATOM     96  F   UNL A   1      50.860  26.298  25.554  1.00  0.00    -0.200 F 
ATOM     97  F   UNL A   1      50.801  26.645  22.849  1.00  0.00    -0.200 F 
ENDBRANCH  64  87
ENDBRANCH  38  39
ENDBRANCH  31  33
ENDBRANCH  30  31
ENDBRANCH  29  30
ENDBRANCH  28  29
ENDBRANCH  27  28
ENDBRANCH  26  27
ENDBRANCH  25  26
ENDBRANCH   1  25
TORSDOF 22
ENDMDL
