MODEL 1
REMARK VINA RESULT:      -9.3      0.000      0.000
REMARK SMILES CCc1nnc(/[NH+]=C2/S/C(=C/c3ccccc3OCCC(=O)OCCOCCOCCOCCOC(=O)c3ccc(-c4c5nc(c(-c6c(F)c(F)c(F)c(F)c6F)c6ccc([nH]6)c(-c6c(F)c(F)c(F)c(F)c6F)c6nc(c(-c7c(F)c(F)c(F)c(F)c7F)c7ccc4[nH]7)C=C6)C=C5)cc3)C(=O)N2C)s1
REMARK SMILES IDX 27 1 26 2 25 3 24 4 23 5 21 6 22 7 20 8 19 9 18 10 17 11
REMARK SMILES IDX 12 12 13 13 14 14 16 15 15 16 11 17 7 18 8 19 9 21 103 22
REMARK SMILES IDX 10 23 101 24 104 25 102 26 6 27 3 28 4 29 105 30 5 31 2 32
REMARK SMILES IDX 1 33 28 34 29 35 30 36 31 37 32 38 33 39 34 40 35 41 36 42
REMARK SMILES IDX 37 43 38 44 39 45 100 46 40 47 99 48 41 49 42 50 43 51 93 52
REMARK SMILES IDX 44 53 98 54 92 55 94 56 45 57 97 58 91 59 90 60 46 62 78 63
REMARK SMILES IDX 58 64 77 65 59 66 62 67 76 68 95 69 60 70 61 71 75 73 96 74
REMARK SMILES IDX 63 75 47 76 48 77 56 78 49 79 50 80 54 81 57 82 51 83 52 84
REMARK SMILES IDX 55 85 53 86 79 87 80 88 88 89 81 90 82 91 86 92 89 93 83 94
REMARK SMILES IDX 84 95 87 96 85 97 64 98 65 99 73 100 66 101 67 102 71 103
REMARK SMILES IDX 74 104 68 105 69 106 72 107 70 108
REMARK H PARENT 7 20 94 61 62 72
REMARK Flexibility Score: inf
ROOT
ATOM      1  C   UNL A   1      36.984  30.791  28.923  1.00  0.00     0.188 C 
ENDROOT
BRANCH   1   2
ATOM      2  O   UNL A   1      36.583  30.036  27.786  1.00  0.00    -0.376 OA
BRANCH   2   3
ATOM      3  C   UNL A   1      35.173  29.773  27.676  1.00  0.00     0.202 C 
BRANCH   3   4
ATOM      4  C   UNL A   1      34.259  30.974  27.322  1.00  0.00     0.261 C 
BRANCH   4   5
ATOM      5  O   UNL A   1      32.857  30.770  27.670  1.00  0.00    -0.463 OA
BRANCH   5   6
ATOM      6  C   UNL A   1      31.970  31.357  26.808  1.00  0.00     0.309 C 
ATOM      7  O   UNL A   1      31.548  32.501  26.973  1.00  0.00    -0.252 OA
BRANCH   6   8
ATOM      8  C   UNL A   1      31.365  30.450  25.722  1.00  0.00     0.164 C 
BRANCH   8   9
ATOM      9  C   UNL A   1      32.200  29.570  24.773  1.00  0.00     0.241 C 
BRANCH   9  10
ATOM     10  O   UNL A   1      31.663  29.152  23.505  1.00  0.00    -0.492 OA
BRANCH  10  11
ATOM     11  C   UNL A   1      30.712  28.191  23.632  1.00  0.00     0.126 A 
ATOM     12  C   UNL A   1      30.889  27.025  24.370  1.00  0.00     0.018 A 
ATOM     13  C   UNL A   1      29.719  26.301  24.620  1.00  0.00     0.012 A 
ATOM     14  C   UNL A   1      28.467  26.625  24.091  1.00  0.00     0.001 A 
ATOM     15  C   UNL A   1      29.489  28.472  22.987  1.00  0.00     0.047 A 
ATOM     16  C   UNL A   1      28.365  27.682  23.211  1.00  0.00     0.004 A 
BRANCH  12  17
ATOM     17  C   UNL A   1      32.177  26.344  24.672  1.00  0.00     0.035 C 
ATOM     18  N   UNL A   1      34.231  22.197  25.323  1.00  0.00    -0.226 N 
ATOM     19  C   UNL A   1      33.950  23.158  24.511  1.00  0.00     0.271 C 
ATOM     20  H   UNL A   1      34.902  22.314  26.034  1.00  0.00     0.268 HD
ATOM     21  S   UNL A   1      34.338  24.787  25.062  1.00  0.00    -0.012 SA
ATOM     22  N   UNL A   1      33.275  23.235  23.319  1.00  0.00    -0.222 N 
ATOM     23  C   UNL A   1      32.983  25.398  24.154  1.00  0.00     0.100 C 
ATOM     24  C   UNL A   1      32.926  24.526  22.944  1.00  0.00     0.321 C 
ATOM     25  C   UNL A   1      32.952  22.140  22.413  1.00  0.00     0.252 C 
ATOM     26  O   UNL A   1      32.637  24.894  21.832  1.00  0.00    -0.250 OA
BRANCH  18  27
ATOM     27  C   UNL A   1      33.580  21.029  25.170  1.00  0.00     0.345 A 
ATOM     28  C   UNL A   1      33.065  18.724  24.854  1.00  0.00     0.138 A 
ATOM     29  N   UNL A   1      32.002  19.432  25.166  1.00  0.00    -0.067 NA
ATOM     30  S   UNL A   1      34.490  19.648  24.646  1.00  0.00    -0.044 S 
ATOM     31  N   UNL A   1      32.297  20.772  25.325  1.00  0.00     0.023 NA
BRANCH  28  32
ATOM     32  C   UNL A   1      33.104  17.238  24.757  1.00  0.00     0.068 C 
ATOM     33  C   UNL A   1      34.225  16.797  23.824  1.00  0.00     0.012 C 
ENDBRANCH  28  32
ENDBRANCH  18  27
ENDBRANCH  12  17
ENDBRANCH  10  11
ENDBRANCH   9  10
ENDBRANCH   8   9
ENDBRANCH   6   8
ENDBRANCH   5   6
ENDBRANCH   4   5
ENDBRANCH   3   4
ENDBRANCH   2   3
ENDBRANCH   1   2
BRANCH   1  34
ATOM     34  C   UNL A   1      36.490  30.266  30.281  1.00  0.00     0.188 C 
BRANCH  34  35
ATOM     35  O   UNL A   1      35.934  31.236  31.165  1.00  0.00    -0.377 OA
BRANCH  35  36
ATOM     36  C   UNL A   1      35.284  32.326  30.527  1.00  0.00     0.188 C 
BRANCH  36  37
ATOM     37  C   UNL A   1      35.881  33.696  30.879  1.00  0.00     0.188 C 
BRANCH  37  38
ATOM     38  O   UNL A   1      35.159  34.364  31.908  1.00  0.00    -0.376 OA
BRANCH  38  39
ATOM     39  C   UNL A   1      35.863  34.534  33.138  1.00  0.00     0.202 C 
BRANCH  39  40
ATOM     40  C   UNL A   1      35.675  33.448  34.213  1.00  0.00     0.261 C 
BRANCH  40  41
ATOM     41  O   UNL A   1      36.611  32.356  34.188  1.00  0.00    -0.460 OA
BRANCH  41  42
ATOM     42  C   UNL A   1      37.429  32.225  35.250  1.00  0.00     0.338 C 
ATOM     43  O   UNL A   1      37.232  32.587  36.394  1.00  0.00    -0.246 OA
BRANCH  42  44
ATOM     44  C   UNL A   1      38.621  31.479  34.813  1.00  0.00     0.060 A 
ATOM     45  C   UNL A   1      39.872  31.805  35.350  1.00  0.00     0.016 A 
ATOM     46  C   UNL A   1      38.508  30.520  33.803  1.00  0.00     0.016 A 
ATOM     47  C   UNL A   1      41.022  31.194  34.849  1.00  0.00     0.010 A 
ATOM     48  C   UNL A   1      39.663  29.921  33.292  1.00  0.00     0.010 A 
ATOM     49  C   UNL A   1      40.927  30.286  33.785  1.00  0.00    -0.014 A 
BRANCH  49  50
ATOM     50  C   UNL A   1      42.155  29.908  33.042  1.00  0.00     0.031 A 
ATOM     51  C   UNL A   1      42.933  28.712  33.523  1.00  0.00     0.074 A 
ATOM     52  C   UNL A   1      42.552  30.576  31.946  1.00  0.00     0.049 A 
ATOM     53  N   UNL A   1      44.024  28.176  33.038  1.00  0.00    -0.248 NA
ATOM     54  C   UNL A   1      42.399  28.020  34.708  1.00  0.00     0.031 C 
ATOM     55  C   UNL A   1      41.860  31.716  31.351  1.00  0.00     0.029 A 
ATOM     56  N   UNL A   1      43.644  30.384  31.135  1.00  0.00    -0.354 N 
ATOM     57  C   UNL A   1      44.294  27.078  33.846  1.00  0.00     0.074 A 
ATOM     58  C   UNL A   1      43.278  27.046  34.875  1.00  0.00     0.031 C 
ATOM     59  C   UNL A   1      42.549  32.131  30.273  1.00  0.00     0.029 A 
ATOM     60  C   UNL A   1      43.744  31.300  30.117  1.00  0.00     0.049 A 
ATOM     61  H   UNL A   1      44.295  29.658  31.271  1.00  0.00     0.167 HD
ATOM     62  C   UNL A   1      45.292  26.171  33.735  1.00  0.00     0.037 A 
ATOM     63  C   UNL A   1      44.700  31.452  29.179  1.00  0.00     0.037 A 
ATOM     64  C   UNL A   1      46.322  26.220  32.733  1.00  0.00     0.049 A 
ATOM     65  C   UNL A   1      45.863  30.490  29.144  1.00  0.00     0.074 A 
ATOM     66  C   UNL A   1      47.395  25.363  32.553  1.00  0.00     0.029 A 
ATOM     67  N   UNL A   1      46.416  27.191  31.748  1.00  0.00    -0.354 N 
ATOM     68  N   UNL A   1      46.098  29.442  29.895  1.00  0.00    -0.248 NA
ATOM     69  C   UNL A   1      46.894  30.733  28.122  1.00  0.00     0.031 C 
ATOM     70  C   UNL A   1      48.162  25.843  31.487  1.00  0.00     0.029 A 
ATOM     71  C   UNL A   1      47.538  26.966  30.968  1.00  0.00     0.049 A 
ATOM     72  H   UNL A   1      45.779  27.932  31.622  1.00  0.00     0.167 HD
ATOM     73  C   UNL A   1      47.273  28.877  29.410  1.00  0.00     0.074 A 
ATOM     74  C   UNL A   1      47.700  29.695  28.297  1.00  0.00     0.031 C 
ATOM     75  C   UNL A   1      47.936  27.777  29.845  1.00  0.00     0.037 A 
BRANCH  62  76
ATOM     76  C   UNL A   1      45.326  25.059  34.742  1.00  0.00     0.064 A 
ATOM     77  C   UNL A   1      44.793  23.793  34.455  1.00  0.00     0.173 A 
ATOM     78  C   UNL A   1      45.916  25.255  35.999  1.00  0.00     0.173 A 
ATOM     79  F   UNL A   1      44.203  23.562  33.273  1.00  0.00    -0.203 F 
ATOM     80  C   UNL A   1      44.829  22.770  35.399  1.00  0.00     0.198 A 
ATOM     81  C   UNL A   1      45.974  24.221  36.931  1.00  0.00     0.198 A 
ATOM     82  F   UNL A   1      46.440  26.446  36.323  1.00  0.00    -0.203 F 
ATOM     83  F   UNL A   1      44.273  21.584  35.120  1.00  0.00    -0.200 F 
ATOM     84  C   UNL A   1      45.425  22.984  36.633  1.00  0.00     0.200 A 
ATOM     85  F   UNL A   1      46.560  24.425  38.119  1.00  0.00    -0.200 F 
ATOM     86  F   UNL A   1      45.464  21.996  37.539  1.00  0.00    -0.200 F 
ENDBRANCH  62  76
BRANCH  63  87
ATOM     87  C   UNL A   1      44.615  32.562  28.191  1.00  0.00     0.064 A 
ATOM     88  C   UNL A   1      44.130  32.342  26.893  1.00  0.00     0.173 A 
ATOM     89  C   UNL A   1      45.069  33.852  28.505  1.00  0.00     0.173 A 
ATOM     90  F   UNL A   1      43.711  31.120  26.534  1.00  0.00    -0.203 F 
ATOM     91  C   UNL A   1      44.128  33.360  25.942  1.00  0.00     0.198 A 
ATOM     92  C   UNL A   1      45.038  34.877  27.562  1.00  0.00     0.198 A 
ATOM     93  F   UNL A   1      45.547  34.116  29.729  1.00  0.00    -0.203 F 
ATOM     94  F   UNL A   1      43.714  33.106  24.692  1.00  0.00    -0.200 F 
ATOM     95  C   UNL A   1      44.579  34.628  26.278  1.00  0.00     0.200 A 
ATOM     96  F   UNL A   1      45.466  36.102  27.894  1.00  0.00    -0.200 F 
ATOM     97  F   UNL A   1      44.582  35.605  25.361  1.00  0.00    -0.200 F 
ENDBRANCH  63  87
BRANCH  75  98
ATOM     98  C   UNL A   1      49.158  27.352  29.081  1.00  0.00     0.064 A 
ATOM     99  C   UNL A   1      50.451  27.693  29.502  1.00  0.00     0.173 A 
ATOM    100  C   UNL A   1      49.031  26.551  27.936  1.00  0.00     0.173 A 
ATOM    101  F   UNL A   1      50.628  28.468  30.583  1.00  0.00    -0.203 F 
ATOM    102  C   UNL A   1      51.570  27.271  28.789  1.00  0.00     0.198 A 
ATOM    103  C   UNL A   1      50.152  26.104  27.244  1.00  0.00     0.198 A 
ATOM    104  F   UNL A   1      47.815  26.188  27.496  1.00  0.00    -0.203 F 
ATOM    105  F   UNL A   1      52.795  27.649  29.181  1.00  0.00    -0.200 F 
ATOM    106  C   UNL A   1      51.420  26.471  27.665  1.00  0.00     0.200 A 
ATOM    107  F   UNL A   1      50.005  25.318  26.168  1.00  0.00    -0.200 F 
ATOM    108  F   UNL A   1      52.499  26.059  26.985  1.00  0.00    -0.200 F 
ENDBRANCH  75  98
ENDBRANCH  49  50
ENDBRANCH  42  44
ENDBRANCH  41  42
ENDBRANCH  40  41
ENDBRANCH  39  40
ENDBRANCH  38  39
ENDBRANCH  37  38
ENDBRANCH  36  37
ENDBRANCH  35  36
ENDBRANCH  34  35
ENDBRANCH   1  34
TORSDOF 26
ENDMDL
MODEL 2
REMARK VINA RESULT:      -9.0     10.087     16.183
REMARK SMILES CCc1nnc(/[NH+]=C2/S/C(=C/c3ccccc3OCCC(=O)OCCOCCOCCOCCOC(=O)c3ccc(-c4c5nc(c(-c6c(F)c(F)c(F)c(F)c6F)c6ccc([nH]6)c(-c6c(F)c(F)c(F)c(F)c6F)c6nc(c(-c7c(F)c(F)c(F)c(F)c7F)c7ccc4[nH]7)C=C6)C=C5)cc3)C(=O)N2C)s1
REMARK SMILES IDX 27 1 26 2 25 3 24 4 23 5 21 6 22 7 20 8 19 9 18 10 17 11
REMARK SMILES IDX 12 12 13 13 14 14 16 15 15 16 11 17 7 18 8 19 9 21 103 22
REMARK SMILES IDX 10 23 101 24 104 25 102 26 6 27 3 28 4 29 105 30 5 31 2 32
REMARK SMILES IDX 1 33 28 34 29 35 30 36 31 37 32 38 33 39 34 40 35 41 36 42
REMARK SMILES IDX 37 43 38 44 39 45 100 46 40 47 99 48 41 49 42 50 43 51 93 52
REMARK SMILES IDX 44 53 98 54 92 55 94 56 45 57 97 58 91 59 90 60 46 62 78 63
REMARK SMILES IDX 58 64 77 65 59 66 62 67 76 68 95 69 60 70 61 71 75 73 96 74
REMARK SMILES IDX 63 75 47 76 48 77 56 78 49 79 50 80 54 81 57 82 51 83 52 84
REMARK SMILES IDX 55 85 53 86 79 87 80 88 88 89 81 90 82 91 86 92 89 93 83 94
REMARK SMILES IDX 84 95 87 96 85 97 64 98 65 99 73 100 66 101 67 102 71 103
REMARK SMILES IDX 74 104 68 105 69 106 72 107 70 108
REMARK H PARENT 7 20 94 61 62 72
REMARK Flexibility Score: inf
ROOT
ATOM      1  C   UNL A   1      43.289  41.827  25.111  1.00  0.00     0.188 C 
ENDROOT
BRANCH   1   2
ATOM      2  O   UNL A   1      43.739  43.143  25.407  1.00  0.00    -0.376 OA
BRANCH   2   3
ATOM      3  C   UNL A   1      44.323  43.866  24.310  1.00  0.00     0.202 C 
BRANCH   3   4
ATOM      4  C   UNL A   1      43.422  44.123  23.076  1.00  0.00     0.261 C 
BRANCH   4   5
ATOM      5  O   UNL A   1      44.159  44.255  21.824  1.00  0.00    -0.463 OA
BRANCH   5   6
ATOM      6  C   UNL A   1      44.899  43.154  21.486  1.00  0.00     0.309 C 
ATOM      7  O   UNL A   1      44.388  42.053  21.280  1.00  0.00    -0.252 OA
BRANCH   6   8
ATOM      8  C   UNL A   1      46.428  43.303  21.566  1.00  0.00     0.164 C 
BRANCH   8   9
ATOM      9  C   UNL A   1      47.238  44.315  20.734  1.00  0.00     0.241 C 
BRANCH   9  10
ATOM     10  O   UNL A   1      47.819  43.927  19.476  1.00  0.00    -0.492 OA
BRANCH  10  11
ATOM     11  C   UNL A   1      49.153  44.178  19.417  1.00  0.00     0.126 A 
ATOM     12  C   UNL A   1      49.689  45.400  19.025  1.00  0.00     0.018 A 
ATOM     13  C   UNL A   1      51.052  45.561  19.298  1.00  0.00     0.012 A 
ATOM     14  C   UNL A   1      51.872  44.557  19.817  1.00  0.00     0.001 A 
ATOM     15  C   UNL A   1      49.979  43.111  19.827  1.00  0.00     0.047 A 
ATOM     16  C   UNL A   1      51.345  43.298  20.020  1.00  0.00     0.004 A 
BRANCH  12  17
ATOM     17  C   UNL A   1      49.061  46.406  18.127  1.00  0.00     0.035 C 
ATOM     18  N   UNL A   1      45.007  47.967  16.404  1.00  0.00    -0.226 N 
ATOM     19  C   UNL A   1      45.929  48.086  17.297  1.00  0.00     0.271 C 
ATOM     20  H   UNL A   1      45.170  48.227  15.469  1.00  0.00     0.268 HD
ATOM     21  S   UNL A   1      47.588  48.153  16.704  1.00  0.00    -0.012 SA
ATOM     22  N   UNL A   1      45.942  48.045  18.668  1.00  0.00    -0.222 N 
ATOM     23  C   UNL A   1      48.124  47.372  18.166  1.00  0.00     0.100 C 
ATOM     24  C   UNL A   1      47.208  47.896  19.222  1.00  0.00     0.321 C 
ATOM     25  C   UNL A   1      44.807  48.196  19.569  1.00  0.00     0.252 C 
ATOM     26  O   UNL A   1      47.527  48.156  20.355  1.00  0.00    -0.250 OA
BRANCH  18  27
ATOM     27  C   UNL A   1      43.814  47.477  16.790  1.00  0.00     0.345 A 
ATOM     28  C   UNL A   1      42.073  46.044  17.560  1.00  0.00     0.138 A 
ATOM     29  N   UNL A   1      41.685  47.298  17.479  1.00  0.00    -0.067 NA
ATOM     30  S   UNL A   1      43.661  45.761  16.990  1.00  0.00    -0.044 S 
ATOM     31  N   UNL A   1      42.687  48.123  17.009  1.00  0.00     0.023 NA
BRANCH  28  32
ATOM     32  C   UNL A   1      41.275  44.940  18.162  1.00  0.00     0.068 C 
ATOM     33  C   UNL A   1      42.147  44.098  19.084  1.00  0.00     0.012 C 
ENDBRANCH  28  32
ENDBRANCH  18  27
ENDBRANCH  12  17
ENDBRANCH  10  11
ENDBRANCH   9  10
ENDBRANCH   8   9
ENDBRANCH   6   8
ENDBRANCH   5   6
ENDBRANCH   4   5
ENDBRANCH   3   4
ENDBRANCH   2   3
ENDBRANCH   1   2
BRANCH   1  34
ATOM     34  C   UNL A   1      43.234  40.857  26.303  1.00  0.00     0.188 C 
BRANCH  34  35
ATOM     35  O   UNL A   1      42.306  39.781  26.195  1.00  0.00    -0.377 OA
BRANCH  35  36
ATOM     36  C   UNL A   1      42.536  38.698  27.086  1.00  0.00     0.188 C 
BRANCH  36  37
ATOM     37  C   UNL A   1      42.905  39.135  28.510  1.00  0.00     0.188 C 
BRANCH  37  38
ATOM     38  O   UNL A   1      44.309  39.121  28.745  1.00  0.00    -0.376 OA
BRANCH  38  39
ATOM     39  C   UNL A   1      44.702  38.829  30.086  1.00  0.00     0.202 C 
BRANCH  39  40
ATOM     40  C   UNL A   1      46.212  38.801  30.386  1.00  0.00     0.261 C 
BRANCH  40  41
ATOM     41  O   UNL A   1      46.832  37.504  30.422  1.00  0.00    -0.460 OA
BRANCH  41  42
ATOM     42  C   UNL A   1      47.016  36.878  29.244  1.00  0.00     0.338 C 
ATOM     43  O   UNL A   1      47.777  37.185  28.346  1.00  0.00    -0.246 OA
BRANCH  42  44
ATOM     44  C   UNL A   1      46.172  35.671  29.235  1.00  0.00     0.060 A 
ATOM     45  C   UNL A   1      46.368  34.688  30.212  1.00  0.00     0.016 A 
ATOM     46  C   UNL A   1      45.252  35.476  28.202  1.00  0.00     0.016 A 
ATOM     47  C   UNL A   1      45.664  33.486  30.136  1.00  0.00     0.010 A 
ATOM     48  C   UNL A   1      44.559  34.265  28.119  1.00  0.00     0.010 A 
ATOM     49  C   UNL A   1      44.793  33.249  29.062  1.00  0.00    -0.014 A 
BRANCH  49  50
ATOM     50  C   UNL A   1      44.319  31.867  28.803  1.00  0.00     0.031 A 
ATOM     51  C   UNL A   1      42.970  31.470  29.338  1.00  0.00     0.074 A 
ATOM     52  C   UNL A   1      45.041  30.996  28.078  1.00  0.00     0.049 A 
ATOM     53  N   UNL A   1      42.332  30.331  29.233  1.00  0.00    -0.248 NA
ATOM     54  C   UNL A   1      42.235  32.503  30.087  1.00  0.00     0.031 C 
ATOM     55  C   UNL A   1      46.336  31.275  27.463  1.00  0.00     0.029 A 
ATOM     56  N   UNL A   1      44.779  29.692  27.736  1.00  0.00    -0.354 N 
ATOM     57  C   UNL A   1      41.119  30.520  29.885  1.00  0.00     0.074 A 
ATOM     58  C   UNL A   1      41.124  31.865  30.416  1.00  0.00     0.031 C 
ATOM     59  C   UNL A   1      46.762  30.170  26.824  1.00  0.00     0.029 A 
ATOM     60  C   UNL A   1      45.781  29.100  27.007  1.00  0.00     0.049 A 
ATOM     61  H   UNL A   1      43.950  29.226  27.990  1.00  0.00     0.167 HD
ATOM     62  C   UNL A   1      40.087  29.653  30.019  1.00  0.00     0.037 A 
ATOM     63  C   UNL A   1      45.892  27.834  26.556  1.00  0.00     0.037 A 
ATOM     64  C   UNL A   1      40.093  28.305  29.521  1.00  0.00     0.049 A 
ATOM     65  C   UNL A   1      44.773  26.855  26.814  1.00  0.00     0.074 A 
ATOM     66  C   UNL A   1      39.108  27.339  29.629  1.00  0.00     0.029 A 
ATOM     67  N   UNL A   1      41.147  27.726  28.829  1.00  0.00    -0.354 N 
ATOM     68  N   UNL A   1      43.621  27.047  27.408  1.00  0.00    -0.248 NA
ATOM     69  C   UNL A   1      44.971  25.480  26.331  1.00  0.00     0.031 C 
ATOM     70  C   UNL A   1      39.585  26.162  29.044  1.00  0.00     0.029 A 
ATOM     71  C   UNL A   1      40.843  26.411  28.522  1.00  0.00     0.049 A 
ATOM     72  H   UNL A   1      41.986  28.184  28.592  1.00  0.00     0.167 HD
ATOM     73  C   UNL A   1      42.941  25.836  27.331  1.00  0.00     0.074 A 
ATOM     74  C   UNL A   1      43.808  24.916  26.627  1.00  0.00     0.031 C 
ATOM     75  C   UNL A   1      41.708  25.515  27.797  1.00  0.00     0.037 A 
BRANCH  62  76
ATOM     76  C   UNL A   1      38.874  30.139  30.756  1.00  0.00     0.064 A 
ATOM     77  C   UNL A   1      38.800  30.092  32.156  1.00  0.00     0.173 A 
ATOM     78  C   UNL A   1      37.784  30.677  30.057  1.00  0.00     0.173 A 
ATOM     79  F   UNL A   1      39.810  29.571  32.869  1.00  0.00    -0.203 F 
ATOM     80  C   UNL A   1      37.667  30.545  32.829  1.00  0.00     0.198 A 
ATOM     81  C   UNL A   1      36.664  31.154  30.735  1.00  0.00     0.198 A 
ATOM     82  F   UNL A   1      37.805  30.745  28.717  1.00  0.00    -0.203 F 
ATOM     83  F   UNL A   1      37.599  30.448  34.163  1.00  0.00    -0.200 F 
ATOM     84  C   UNL A   1      36.604  31.081  32.118  1.00  0.00     0.200 A 
ATOM     85  F   UNL A   1      35.642  31.682  30.047  1.00  0.00    -0.200 F 
ATOM     86  F   UNL A   1      35.517  31.522  32.767  1.00  0.00    -0.200 F 
ENDBRANCH  62  76
BRANCH  63  87
ATOM     87  C   UNL A   1      47.110  27.404  25.815  1.00  0.00     0.064 A 
ATOM     88  C   UNL A   1      47.224  27.600  24.432  1.00  0.00     0.173 A 
ATOM     89  C   UNL A   1      48.159  26.737  26.466  1.00  0.00     0.173 A 
ATOM     90  F   UNL A   1      46.236  28.207  23.758  1.00  0.00    -0.203 F 
ATOM     91  C   UNL A   1      48.326  27.123  23.724  1.00  0.00     0.198 A 
ATOM     92  C   UNL A   1      49.274  26.287  25.762  1.00  0.00     0.198 A 
ATOM     93  F   UNL A   1      48.099  26.519  27.788  1.00  0.00    -0.203 F 
ATOM     94  F   UNL A   1      48.381  27.272  22.393  1.00  0.00    -0.200 F 
ATOM     95  C   UNL A   1      49.351  26.470  24.391  1.00  0.00     0.200 A 
ATOM     96  F   UNL A   1      50.267  25.665  26.412  1.00  0.00    -0.200 F 
ATOM     97  F   UNL A   1      50.408  26.006  23.709  1.00  0.00    -0.200 F 
ENDBRANCH  63  87
BRANCH  75  98
ATOM     98  C   UNL A   1      41.192  24.134  27.508  1.00  0.00     0.064 A 
ATOM     99  C   UNL A   1      40.168  23.904  26.580  1.00  0.00     0.173 A 
ATOM    100  C   UNL A   1      41.768  23.020  28.139  1.00  0.00     0.173 A 
ATOM    101  F   UNL A   1      39.575  24.935  25.958  1.00  0.00    -0.203 F 
ATOM    102  C   UNL A   1      39.719  22.612  26.313  1.00  0.00     0.198 A 
ATOM    103  C   UNL A   1      41.340  21.729  27.848  1.00  0.00     0.198 A 
ATOM    104  F   UNL A   1      42.759  23.184  29.029  1.00  0.00    -0.203 F 
ATOM    105  F   UNL A   1      38.706  22.419  25.458  1.00  0.00    -0.200 F 
ATOM    106  C   UNL A   1      40.312  21.526  26.942  1.00  0.00     0.200 A 
ATOM    107  F   UNL A   1      41.924  20.679  28.443  1.00  0.00    -0.200 F 
ATOM    108  F   UNL A   1      39.884  20.283  26.678  1.00  0.00    -0.200 F 
ENDBRANCH  75  98
ENDBRANCH  49  50
ENDBRANCH  42  44
ENDBRANCH  41  42
ENDBRANCH  40  41
ENDBRANCH  39  40
ENDBRANCH  38  39
ENDBRANCH  37  38
ENDBRANCH  36  37
ENDBRANCH  35  36
ENDBRANCH  34  35
ENDBRANCH   1  34
TORSDOF 26
ENDMDL
MODEL 3
REMARK VINA RESULT:      -8.9      3.084      6.122
REMARK SMILES CCc1nnc(/[NH+]=C2/S/C(=C/c3ccccc3OCCC(=O)OCCOCCOCCOCCOC(=O)c3ccc(-c4c5nc(c(-c6c(F)c(F)c(F)c(F)c6F)c6ccc([nH]6)c(-c6c(F)c(F)c(F)c(F)c6F)c6nc(c(-c7c(F)c(F)c(F)c(F)c7F)c7ccc4[nH]7)C=C6)C=C5)cc3)C(=O)N2C)s1
REMARK SMILES IDX 27 1 26 2 25 3 24 4 23 5 21 6 22 7 20 8 19 9 18 10 17 11
REMARK SMILES IDX 12 12 13 13 14 14 16 15 15 16 11 17 7 18 8 19 9 21 103 22
REMARK SMILES IDX 10 23 101 24 104 25 102 26 6 27 3 28 4 29 105 30 5 31 2 32
REMARK SMILES IDX 1 33 28 34 29 35 30 36 31 37 32 38 33 39 34 40 35 41 36 42
REMARK SMILES IDX 37 43 38 44 39 45 100 46 40 47 99 48 41 49 42 50 43 51 93 52
REMARK SMILES IDX 44 53 98 54 92 55 94 56 45 57 97 58 91 59 90 60 46 62 78 63
REMARK SMILES IDX 58 64 77 65 59 66 62 67 76 68 95 69 60 70 61 71 75 73 96 74
REMARK SMILES IDX 63 75 47 76 48 77 56 78 49 79 50 80 54 81 57 82 51 83 52 84
REMARK SMILES IDX 55 85 53 86 79 87 80 88 88 89 81 90 82 91 86 92 89 93 83 94
REMARK SMILES IDX 84 95 87 96 85 97 64 98 65 99 73 100 66 101 67 102 71 103
REMARK SMILES IDX 74 104 68 105 69 106 72 107 70 108
REMARK H PARENT 7 20 94 61 62 72
REMARK Flexibility Score: inf
ROOT
ATOM      1  C   UNL A   1      36.647  30.871  28.819  1.00  0.00     0.188 C 
ENDROOT
BRANCH   1   2
ATOM      2  O   UNL A   1      36.490  29.767  27.935  1.00  0.00    -0.376 OA
BRANCH   2   3
ATOM      3  C   UNL A   1      35.148  29.509  27.489  1.00  0.00     0.202 C 
BRANCH   3   4
ATOM      4  C   UNL A   1      34.240  30.740  27.239  1.00  0.00     0.261 C 
BRANCH   4   5
ATOM      5  O   UNL A   1      32.832  30.506  27.545  1.00  0.00    -0.463 OA
BRANCH   5   6
ATOM      6  C   UNL A   1      31.960  31.064  26.650  1.00  0.00     0.309 C 
ATOM      7  O   UNL A   1      31.467  32.180  26.816  1.00  0.00    -0.252 OA
BRANCH   6   8
ATOM      8  C   UNL A   1      31.462  30.151  25.516  1.00  0.00     0.164 C 
BRANCH   8   9
ATOM      9  C   UNL A   1      32.392  29.431  24.521  1.00  0.00     0.241 C 
BRANCH   9  10
ATOM     10  O   UNL A   1      31.860  28.850  23.317  1.00  0.00    -0.492 OA
BRANCH  10  11
ATOM     11  C   UNL A   1      30.886  27.936  23.563  1.00  0.00     0.126 A 
ATOM     12  C   UNL A   1      31.059  26.830  24.389  1.00  0.00     0.018 A 
ATOM     13  C   UNL A   1      29.879  26.170  24.747  1.00  0.00     0.012 A 
ATOM     14  C   UNL A   1      28.616  26.492  24.245  1.00  0.00     0.001 A 
ATOM     15  C   UNL A   1      29.645  28.205  22.948  1.00  0.00     0.047 A 
ATOM     16  C   UNL A   1      28.508  27.476  23.284  1.00  0.00     0.004 A 
BRANCH  12  17
ATOM     17  C   UNL A   1      32.337  26.132  24.694  1.00  0.00     0.035 C 
ATOM     18  N   UNL A   1      34.332  21.959  25.357  1.00  0.00    -0.226 N 
ATOM     19  C   UNL A   1      34.065  22.921  24.543  1.00  0.00     0.271 C 
ATOM     20  H   UNL A   1      35.004  22.068  26.068  1.00  0.00     0.268 HD
ATOM     21  S   UNL A   1      34.476  24.546  25.090  1.00  0.00    -0.012 SA
ATOM     22  N   UNL A   1      33.393  23.004  23.349  1.00  0.00    -0.222 N 
ATOM     23  C   UNL A   1      33.131  25.174  24.178  1.00  0.00     0.100 C 
ATOM     24  C   UNL A   1      33.062  24.299  22.971  1.00  0.00     0.321 C 
ATOM     25  C   UNL A   1      33.055  21.912  22.446  1.00  0.00     0.252 C 
ATOM     26  O   UNL A   1      32.779  24.668  21.858  1.00  0.00    -0.250 OA
BRANCH  18  27
ATOM     27  C   UNL A   1      33.665  20.799  25.206  1.00  0.00     0.345 A 
ATOM     28  C   UNL A   1      33.119  18.501  24.893  1.00  0.00     0.138 A 
ATOM     29  N   UNL A   1      32.066  19.224  25.207  1.00  0.00    -0.067 NA
ATOM     30  S   UNL A   1      34.556  19.406  24.682  1.00  0.00    -0.044 S 
ATOM     31  N   UNL A   1      32.380  20.559  25.365  1.00  0.00     0.023 NA
BRANCH  28  32
ATOM     32  C   UNL A   1      33.138  17.015  24.797  1.00  0.00     0.068 C 
ATOM     33  C   UNL A   1      33.933  16.572  23.575  1.00  0.00     0.012 C 
ENDBRANCH  28  32
ENDBRANCH  18  27
ENDBRANCH  12  17
ENDBRANCH  10  11
ENDBRANCH   9  10
ENDBRANCH   8   9
ENDBRANCH   6   8
ENDBRANCH   5   6
ENDBRANCH   4   5
ENDBRANCH   3   4
ENDBRANCH   2   3
ENDBRANCH   1   2
BRANCH   1  34
ATOM     34  C   UNL A   1      36.364  30.583  30.303  1.00  0.00     0.188 C 
BRANCH  34  35
ATOM     35  O   UNL A   1      35.595  31.561  30.997  1.00  0.00    -0.377 OA
BRANCH  35  36
ATOM     36  C   UNL A   1      34.808  32.405  30.168  1.00  0.00     0.188 C 
BRANCH  36  37
ATOM     37  C   UNL A   1      34.852  33.885  30.571  1.00  0.00     0.188 C 
BRANCH  37  38
ATOM     38  O   UNL A   1      33.911  34.208  31.588  1.00  0.00    -0.376 OA
BRANCH  38  39
ATOM     39  C   UNL A   1      34.473  34.587  32.844  1.00  0.00     0.202 C 
BRANCH  39  40
ATOM     40  C   UNL A   1      34.823  33.456  33.828  1.00  0.00     0.261 C 
BRANCH  40  41
ATOM     41  O   UNL A   1      36.053  32.753  33.581  1.00  0.00    -0.460 OA
BRANCH  41  42
ATOM     42  C   UNL A   1      36.966  32.747  34.572  1.00  0.00     0.338 C 
ATOM     43  O   UNL A   1      36.866  33.231  35.684  1.00  0.00    -0.246 OA
BRANCH  42  44
ATOM     44  C   UNL A   1      38.128  31.967  34.112  1.00  0.00     0.060 A 
ATOM     45  C   UNL A   1      38.166  30.588  34.344  1.00  0.00     0.016 A 
ATOM     46  C   UNL A   1      39.219  32.623  33.535  1.00  0.00     0.016 A 
ATOM     47  C   UNL A   1      39.316  29.864  34.028  1.00  0.00     0.010 A 
ATOM     48  C   UNL A   1      40.376  31.899  33.235  1.00  0.00     0.010 A 
ATOM     49  C   UNL A   1      40.444  30.524  33.518  1.00  0.00    -0.014 A 
BRANCH  49  50
ATOM     50  C   UNL A   1      41.752  29.825  33.508  1.00  0.00     0.031 A 
ATOM     51  C   UNL A   1      42.114  29.018  32.290  1.00  0.00     0.074 A 
ATOM     52  C   UNL A   1      42.619  29.931  34.530  1.00  0.00     0.049 A 
ATOM     53  N   UNL A   1      43.198  28.330  32.036  1.00  0.00    -0.248 NA
ATOM     54  C   UNL A   1      41.118  28.991  31.206  1.00  0.00     0.031 C 
ATOM     55  C   UNL A   1      42.409  30.721  35.740  1.00  0.00     0.029 A 
ATOM     56  N   UNL A   1      43.859  29.367  34.706  1.00  0.00    -0.354 N 
ATOM     57  C   UNL A   1      43.021  27.808  30.760  1.00  0.00     0.074 A 
ATOM     58  C   UNL A   1      41.711  28.223  30.308  1.00  0.00     0.031 C 
ATOM     59  C   UNL A   1      43.481  30.584  36.541  1.00  0.00     0.029 A 
ATOM     60  C   UNL A   1      44.441  29.678  35.910  1.00  0.00     0.049 A 
ATOM     61  H   UNL A   1      44.289  28.793  34.032  1.00  0.00     0.167 HD
ATOM     62  C   UNL A   1      43.878  27.060  30.026  1.00  0.00     0.037 A 
ATOM     63  C   UNL A   1      45.608  29.262  36.441  1.00  0.00     0.037 A 
ATOM     64  C   UNL A   1      45.166  26.619  30.486  1.00  0.00     0.049 A 
ATOM     65  C   UNL A   1      46.498  28.338  35.644  1.00  0.00     0.074 A 
ATOM     66  C   UNL A   1      46.097  25.833  29.829  1.00  0.00     0.029 A 
ATOM     67  N   UNL A   1      45.700  26.915  31.731  1.00  0.00    -0.354 N 
ATOM     68  N   UNL A   1      46.335  27.869  34.431  1.00  0.00    -0.248 NA
ATOM     69  C   UNL A   1      47.739  27.889  36.293  1.00  0.00     0.031 C 
ATOM     70  C   UNL A   1      47.173  25.616  30.694  1.00  0.00     0.029 A 
ATOM     71  C   UNL A   1      46.939  26.312  31.868  1.00  0.00     0.049 A 
ATOM     72  H   UNL A   1      45.262  27.471  32.416  1.00  0.00     0.167 HD
ATOM     73  C   UNL A   1      47.467  27.111  34.155  1.00  0.00     0.074 A 
ATOM     74  C   UNL A   1      48.314  27.187  35.326  1.00  0.00     0.031 C 
ATOM     75  C   UNL A   1      47.782  26.419  33.033  1.00  0.00     0.037 A 
BRANCH  62  76
ATOM     76  C   UNL A   1      43.431  26.654  28.652  1.00  0.00     0.064 A 
ATOM     77  C   UNL A   1      42.729  25.458  28.433  1.00  0.00     0.173 A 
ATOM     78  C   UNL A   1      43.686  27.479  27.547  1.00  0.00     0.173 A 
ATOM     79  F   UNL A   1      42.476  24.628  29.455  1.00  0.00    -0.203 F 
ATOM     80  C   UNL A   1      42.321  25.092  27.153  1.00  0.00     0.198 A 
ATOM     81  C   UNL A   1      43.252  27.122  26.272  1.00  0.00     0.198 A 
ATOM     82  F   UNL A   1      44.353  28.633  27.703  1.00  0.00    -0.203 F 
ATOM     83  F   UNL A   1      41.694  23.924  26.960  1.00  0.00    -0.200 F 
ATOM     84  C   UNL A   1      42.577  25.928  26.075  1.00  0.00     0.200 A 
ATOM     85  F   UNL A   1      43.491  27.935  25.234  1.00  0.00    -0.200 F 
ATOM     86  F   UNL A   1      42.179  25.577  24.844  1.00  0.00    -0.200 F 
ENDBRANCH  62  76
BRANCH  63  87
ATOM     87  C   UNL A   1      46.016  29.706  37.802  1.00  0.00     0.064 A 
ATOM     88  C   UNL A   1      46.770  30.873  37.990  1.00  0.00     0.173 A 
ATOM     89  C   UNL A   1      45.709  28.941  38.937  1.00  0.00     0.173 A 
ATOM     90  F   UNL A   1      47.114  31.624  36.933  1.00  0.00    -0.203 F 
ATOM     91  C   UNL A   1      47.223  31.244  39.254  1.00  0.00     0.198 A 
ATOM     92  C   UNL A   1      46.138  29.328  40.206  1.00  0.00     0.198 A 
ATOM     93  F   UNL A   1      44.995  27.812  38.815  1.00  0.00    -0.203 F 
ATOM     94  F   UNL A   1      47.992  32.333  39.396  1.00  0.00    -0.200 F 
ATOM     95  C   UNL A   1      46.903  30.473  40.362  1.00  0.00     0.200 A 
ATOM     96  F   UNL A   1      45.818  28.586  41.274  1.00  0.00    -0.200 F 
ATOM     97  F   UNL A   1      47.345  30.826  41.577  1.00  0.00    -0.200 F 
ENDBRANCH  63  87
BRANCH  75  98
ATOM     98  C   UNL A   1      49.120  25.738  32.985  1.00  0.00     0.064 A 
ATOM     99  C   UNL A   1      49.308  24.437  33.474  1.00  0.00     0.173 A 
ATOM    100  C   UNL A   1      50.219  26.383  32.398  1.00  0.00     0.173 A 
ATOM    101  F   UNL A   1      48.293  23.781  34.057  1.00  0.00    -0.203 F 
ATOM    102  C   UNL A   1      50.554  23.818  33.402  1.00  0.00     0.198 A 
ATOM    103  C   UNL A   1      51.454  25.750  32.297  1.00  0.00     0.198 A 
ATOM    104  F   UNL A   1      50.090  27.625  31.905  1.00  0.00    -0.203 F 
ATOM    105  F   UNL A   1      50.723  22.594  33.919  1.00  0.00    -0.200 F 
ATOM    106  C   UNL A   1      51.623  24.473  32.806  1.00  0.00     0.200 A 
ATOM    107  F   UNL A   1      52.481  26.377  31.707  1.00  0.00    -0.200 F 
ATOM    108  F   UNL A   1      52.819  23.871  32.729  1.00  0.00    -0.200 F 
ENDBRANCH  75  98
ENDBRANCH  49  50
ENDBRANCH  42  44
ENDBRANCH  41  42
ENDBRANCH  40  41
ENDBRANCH  39  40
ENDBRANCH  38  39
ENDBRANCH  37  38
ENDBRANCH  36  37
ENDBRANCH  35  36
ENDBRANCH  34  35
ENDBRANCH   1  34
TORSDOF 26
ENDMDL
