MODEL 1
REMARK VINA RESULT:     -10.6      0.000      0.000
REMARK SMILES Cc1nn(C(C)C)cc1-c1cnccc1C(=O)OCCOCCOCCOCCOC(=O)c1ccc(-c2c3nc(c(-c4c(F)c(F)c(F)c(F)c4F)c4ccc([nH]4)c(-c4c(F)c(F)c(F)c(F)c4F)c4nc(c(-c5c(F)c(F)c(F)c(F)c5F)c5ccc2[nH]5)C=C4)C=C3)cc1
REMARK SMILES IDX 24 1 23 2 22 3 21 4 20 5 19 6 18 7 16 8 17 9 15 10 10 11
REMARK SMILES IDX 11 12 12 13 14 14 13 15 9 16 1 17 2 18 3 19 4 20 8 21 5 22
REMARK SMILES IDX 6 23 7 24 25 25 26 26 27 27 28 28 29 29 30 30 31 31 32 32
REMARK SMILES IDX 33 33 34 34 95 35 35 36 94 37 36 38 37 39 38 40 88 41 39 42
REMARK SMILES IDX 93 43 87 44 89 45 40 46 92 47 86 48 85 49 41 51 73 52 53 53
REMARK SMILES IDX 72 54 54 55 57 56 71 57 90 58 55 59 56 60 70 62 91 63 58 64
REMARK SMILES IDX 42 65 43 66 51 67 44 68 45 69 49 70 52 71 46 72 47 73 50 74
REMARK SMILES IDX 48 75 74 76 75 77 83 78 76 79 77 80 81 81 84 82 78 83 79 84
REMARK SMILES IDX 82 85 80 86 59 87 60 88 68 89 61 90 62 91 66 92 69 93 63 94
REMARK SMILES IDX 64 95 67 96 65 97
REMARK H PARENT 89 50 57 61
REMARK Flexibility Score: inf
ROOT
ATOM      1  O   UNL A   1      41.457  21.059  26.150  1.00  0.00    -0.377 OA
ENDROOT
BRANCH   1   2
ATOM      2  C   UNL A   1      40.330  21.678  26.755  1.00  0.00     0.188 C 
BRANCH   2   3
ATOM      3  C   UNL A   1      38.953  21.798  26.055  1.00  0.00     0.188 C 
BRANCH   3   4
ATOM      4  O   UNL A   1      38.397  23.095  26.056  1.00  0.00    -0.376 OA
BRANCH   4   5
ATOM      5  C   UNL A   1      37.027  23.318  25.827  1.00  0.00     0.202 C 
BRANCH   5   6
ATOM      6  C   UNL A   1      36.479  23.465  24.407  1.00  0.00     0.261 C 
BRANCH   6   7
ATOM      7  O   UNL A   1      35.307  24.269  24.286  1.00  0.00    -0.460 OA
BRANCH   7   8
ATOM      8  C   UNL A   1      34.368  23.892  23.400  1.00  0.00     0.338 C 
ATOM      9  O   UNL A   1      34.564  23.337  22.322  1.00  0.00    -0.246 OA
BRANCH   8  10
ATOM     10  C   UNL A   1      33.028  24.063  24.005  1.00  0.00     0.071 A 
ATOM     11  C   UNL A   1      32.340  23.050  24.693  1.00  0.00     0.018 A 
ATOM     12  C   UNL A   1      31.068  23.376  25.154  1.00  0.00     0.120 A 
ATOM     13  N   UNL A   1      30.448  24.564  24.942  1.00  0.00    -0.264 NA
ATOM     14  C   UNL A   1      32.412  25.303  23.778  1.00  0.00     0.036 A 
ATOM     15  C   UNL A   1      31.129  25.495  24.248  1.00  0.00     0.112 A 
BRANCH  11  16
ATOM     16  C   UNL A   1      32.844  21.701  24.876  1.00  0.00     0.025 A 
ATOM     17  C   UNL A   1      34.085  21.747  27.194  1.00  0.00     0.069 C 
ATOM     18  C   UNL A   1      33.570  21.111  25.953  1.00  0.00     0.067 A 
ATOM     19  N   UNL A   1      33.735  19.794  25.771  1.00  0.00    -0.177 NA
ATOM     20  N   UNL A   1      33.064  19.532  24.636  1.00  0.00    -0.269 N 
ATOM     21  C   UNL A   1      32.600  20.654  24.013  1.00  0.00     0.118 A 
BRANCH  20  22
ATOM     22  C   UNL A   1      32.857  18.156  24.198  1.00  0.00     0.101 C 
ATOM     23  C   UNL A   1      34.138  17.577  23.609  1.00  0.00     0.033 C 
ATOM     24  C   UNL A   1      32.302  17.274  25.318  1.00  0.00     0.033 C 
ENDBRANCH  20  22
ENDBRANCH  11  16
ENDBRANCH   8  10
ENDBRANCH   7   8
ENDBRANCH   6   7
ENDBRANCH   5   6
ENDBRANCH   4   5
ENDBRANCH   3   4
ENDBRANCH   2   3
ENDBRANCH   1   2
BRANCH   1  25
ATOM     25  C   UNL A   1      42.137  19.985  26.783  1.00  0.00     0.188 C 
BRANCH  25  26
ATOM     26  C   UNL A   1      42.469  18.683  26.014  1.00  0.00     0.188 C 
BRANCH  26  27
ATOM     27  O   UNL A   1      43.847  18.405  25.848  1.00  0.00    -0.376 OA
BRANCH  27  28
ATOM     28  C   UNL A   1      44.556  18.613  24.647  1.00  0.00     0.202 C 
BRANCH  28  29
ATOM     29  C   UNL A   1      45.462  19.821  24.451  1.00  0.00     0.261 C 
BRANCH  29  30
ATOM     30  O   UNL A   1      44.846  20.929  23.835  1.00  0.00    -0.460 OA
BRANCH  30  31
ATOM     31  C   UNL A   1      45.318  22.115  24.233  1.00  0.00     0.338 C 
ATOM     32  O   UNL A   1      46.391  22.634  23.914  1.00  0.00    -0.246 OA
BRANCH  31  33
ATOM     33  C   UNL A   1      44.429  22.637  25.265  1.00  0.00     0.060 A 
ATOM     34  C   UNL A   1      43.343  23.367  24.792  1.00  0.00     0.016 A 
ATOM     35  C   UNL A   1      44.932  22.780  26.572  1.00  0.00     0.016 A 
ATOM     36  C   UNL A   1      42.973  24.469  25.514  1.00  0.00     0.010 A 
ATOM     37  C   UNL A   1      44.567  23.889  27.287  1.00  0.00     0.010 A 
ATOM     38  C   UNL A   1      43.673  24.770  26.693  1.00  0.00    -0.014 A 
BRANCH  38  39
ATOM     39  C   UNL A   1      43.356  26.026  27.324  1.00  0.00     0.031 A 
ATOM     40  C   UNL A   1      44.345  27.067  26.997  1.00  0.00     0.074 A 
ATOM     41  C   UNL A   1      42.280  26.201  28.109  1.00  0.00     0.049 A 
ATOM     42  N   UNL A   1      45.199  27.610  27.797  1.00  0.00    -0.248 NA
ATOM     43  C   UNL A   1      44.540  27.393  25.576  1.00  0.00     0.031 C 
ATOM     44  C   UNL A   1      41.124  25.324  28.296  1.00  0.00     0.029 A 
ATOM     45  N   UNL A   1      41.969  27.286  28.864  1.00  0.00    -0.354 N 
ATOM     46  C   UNL A   1      45.928  28.491  27.010  1.00  0.00     0.074 A 
ATOM     47  C   UNL A   1      45.603  28.193  25.640  1.00  0.00     0.031 C 
ATOM     48  C   UNL A   1      40.144  26.013  28.926  1.00  0.00     0.029 A 
ATOM     49  C   UNL A   1      40.655  27.323  29.300  1.00  0.00     0.049 A 
ATOM     50  H   UNL A   1      42.624  27.989  29.083  1.00  0.00     0.167 HD
ATOM     51  C   UNL A   1      46.533  29.568  27.570  1.00  0.00     0.037 A 
ATOM     52  C   UNL A   1      40.036  28.398  29.846  1.00  0.00     0.037 A 
ATOM     53  C   UNL A   1      46.747  29.373  28.982  1.00  0.00     0.049 A 
ATOM     54  C   UNL A   1      41.094  29.318  30.341  1.00  0.00     0.074 A 
ATOM     55  C   UNL A   1      47.471  28.468  29.734  1.00  0.00     0.029 A 
ATOM     56  N   UNL A   1      45.864  29.961  29.854  1.00  0.00    -0.354 N 
ATOM     57  N   UNL A   1      41.868  29.056  31.357  1.00  0.00    -0.248 NA
ATOM     58  C   UNL A   1      41.590  30.338  29.428  1.00  0.00     0.031 C 
ATOM     59  C   UNL A   1      46.685  28.233  30.900  1.00  0.00     0.029 A 
ATOM     60  C   UNL A   1      45.548  29.041  30.819  1.00  0.00     0.049 A 
ATOM     61  H   UNL A   1      45.519  30.881  29.796  1.00  0.00     0.167 HD
ATOM     62  C   UNL A   1      43.114  29.539  30.984  1.00  0.00     0.074 A 
ATOM     63  C   UNL A   1      42.860  30.403  29.836  1.00  0.00     0.031 C 
ATOM     64  C   UNL A   1      44.258  28.968  31.463  1.00  0.00     0.037 A 
BRANCH  51  65
ATOM     65  C   UNL A   1      46.528  30.928  26.924  1.00  0.00     0.064 A 
ATOM     66  C   UNL A   1      47.727  31.662  26.882  1.00  0.00     0.173 A 
ATOM     67  C   UNL A   1      45.353  31.660  26.634  1.00  0.00     0.173 A 
ATOM     68  F   UNL A   1      48.899  31.070  27.157  1.00  0.00    -0.203 F 
ATOM     69  C   UNL A   1      47.737  33.040  26.658  1.00  0.00     0.198 A 
ATOM     70  C   UNL A   1      45.374  33.024  26.357  1.00  0.00     0.198 A 
ATOM     71  F   UNL A   1      44.130  31.126  26.723  1.00  0.00    -0.203 F 
ATOM     72  F   UNL A   1      48.886  33.721  26.763  1.00  0.00    -0.200 F 
ATOM     73  C   UNL A   1      46.560  33.721  26.403  1.00  0.00     0.200 A 
ATOM     74  F   UNL A   1      44.218  33.666  26.133  1.00  0.00    -0.200 F 
ATOM     75  F   UNL A   1      46.559  35.051  26.258  1.00  0.00    -0.200 F 
ENDBRANCH  51  65
BRANCH  52  76
ATOM     76  C   UNL A   1      38.634  28.839  29.651  1.00  0.00     0.064 A 
ATOM     77  C   UNL A   1      37.815  29.144  30.751  1.00  0.00     0.173 A 
ATOM     78  C   UNL A   1      38.161  29.242  28.388  1.00  0.00     0.173 A 
ATOM     79  F   UNL A   1      38.215  28.837  31.994  1.00  0.00    -0.203 F 
ATOM     80  C   UNL A   1      36.611  29.840  30.598  1.00  0.00     0.198 A 
ATOM     81  C   UNL A   1      36.955  29.928  28.235  1.00  0.00     0.198 A 
ATOM     82  F   UNL A   1      38.903  29.069  27.285  1.00  0.00    -0.203 F 
ATOM     83  F   UNL A   1      35.891  30.174  31.677  1.00  0.00    -0.200 F 
ATOM     84  C   UNL A   1      36.188  30.240  29.342  1.00  0.00     0.200 A 
ATOM     85  F   UNL A   1      36.576  30.343  27.018  1.00  0.00    -0.200 F 
ATOM     86  F   UNL A   1      35.067  30.961  29.200  1.00  0.00    -0.200 F 
ENDBRANCH  52  76
BRANCH  64  87
ATOM     87  C   UNL A   1      44.124  28.009  32.614  1.00  0.00     0.064 A 
ATOM     88  C   UNL A   1      43.939  26.623  32.470  1.00  0.00     0.173 A 
ATOM     89  C   UNL A   1      44.315  28.502  33.912  1.00  0.00     0.173 A 
ATOM     90  F   UNL A   1      43.849  26.061  31.257  1.00  0.00    -0.203 F 
ATOM     91  C   UNL A   1      43.899  25.780  33.579  1.00  0.00     0.198 A 
ATOM     92  C   UNL A   1      44.313  27.653  35.015  1.00  0.00     0.198 A 
ATOM     93  F   UNL A   1      44.551  29.809  34.106  1.00  0.00    -0.203 F 
ATOM     94  F   UNL A   1      43.701  24.463  33.417  1.00  0.00    -0.200 F 
ATOM     95  C   UNL A   1      44.092  26.296  34.850  1.00  0.00     0.200 A 
ATOM     96  F   UNL A   1      44.551  28.150  36.237  1.00  0.00    -0.200 F 
ATOM     97  F   UNL A   1      44.092  25.481  35.915  1.00  0.00    -0.200 F 
ENDBRANCH  64  87
ENDBRANCH  38  39
ENDBRANCH  31  33
ENDBRANCH  30  31
ENDBRANCH  29  30
ENDBRANCH  28  29
ENDBRANCH  27  28
ENDBRANCH  26  27
ENDBRANCH  25  26
ENDBRANCH   1  25
TORSDOF 22
ENDMDL
MODEL 2
REMARK VINA RESULT:     -10.6      2.130      2.730
REMARK SMILES Cc1nn(C(C)C)cc1-c1cnccc1C(=O)OCCOCCOCCOCCOC(=O)c1ccc(-c2c3nc(c(-c4c(F)c(F)c(F)c(F)c4F)c4ccc([nH]4)c(-c4c(F)c(F)c(F)c(F)c4F)c4nc(c(-c5c(F)c(F)c(F)c(F)c5F)c5ccc2[nH]5)C=C4)C=C3)cc1
REMARK SMILES IDX 24 1 23 2 22 3 21 4 20 5 19 6 18 7 16 8 17 9 15 10 10 11
REMARK SMILES IDX 11 12 12 13 14 14 13 15 9 16 1 17 2 18 3 19 4 20 8 21 5 22
REMARK SMILES IDX 6 23 7 24 25 25 26 26 27 27 28 28 29 29 30 30 31 31 32 32
REMARK SMILES IDX 33 33 34 34 95 35 35 36 94 37 36 38 37 39 38 40 88 41 39 42
REMARK SMILES IDX 93 43 87 44 89 45 40 46 92 47 86 48 85 49 41 51 73 52 53 53
REMARK SMILES IDX 72 54 54 55 57 56 71 57 90 58 55 59 56 60 70 62 91 63 58 64
REMARK SMILES IDX 42 65 43 66 51 67 44 68 45 69 49 70 52 71 46 72 47 73 50 74
REMARK SMILES IDX 48 75 74 76 75 77 83 78 76 79 77 80 81 81 84 82 78 83 79 84
REMARK SMILES IDX 82 85 80 86 59 87 60 88 68 89 61 90 62 91 66 92 69 93 63 94
REMARK SMILES IDX 64 95 67 96 65 97
REMARK H PARENT 89 50 57 61
REMARK Flexibility Score: inf
ROOT
ATOM      1  O   UNL A   1      41.684  21.054  27.358  1.00  0.00    -0.377 OA
ENDROOT
BRANCH   1   2
ATOM      2  C   UNL A   1      40.373  21.603  27.383  1.00  0.00     0.188 C 
BRANCH   2   3
ATOM      3  C   UNL A   1      39.664  22.161  26.124  1.00  0.00     0.188 C 
BRANCH   3   4
ATOM      4  O   UNL A   1      38.484  21.481  25.757  1.00  0.00    -0.376 OA
BRANCH   4   5
ATOM      5  C   UNL A   1      37.245  22.141  25.657  1.00  0.00     0.202 C 
BRANCH   5   6
ATOM      6  C   UNL A   1      37.167  23.612  25.247  1.00  0.00     0.261 C 
BRANCH   6   7
ATOM      7  O   UNL A   1      35.874  24.068  24.853  1.00  0.00    -0.460 OA
BRANCH   7   8
ATOM      8  C   UNL A   1      35.450  23.775  23.610  1.00  0.00     0.338 C 
ATOM      9  O   UNL A   1      36.101  23.217  22.731  1.00  0.00    -0.246 OA
BRANCH   8  10
ATOM     10  C   UNL A   1      33.998  24.048  23.512  1.00  0.00     0.071 A 
ATOM     11  C   UNL A   1      32.999  23.146  23.915  1.00  0.00     0.018 A 
ATOM     12  C   UNL A   1      31.685  23.552  23.703  1.00  0.00     0.120 A 
ATOM     13  N   UNL A   1      31.320  24.712  23.102  1.00  0.00    -0.264 NA
ATOM     14  C   UNL A   1      33.647  25.257  22.893  1.00  0.00     0.036 A 
ATOM     15  C   UNL A   1      32.309  25.532  22.699  1.00  0.00     0.112 A 
BRANCH  11  16
ATOM     16  C   UNL A   1      33.263  21.825  24.455  1.00  0.00     0.025 A 
ATOM     17  C   UNL A   1      33.505  22.186  27.048  1.00  0.00     0.069 C 
ATOM     18  C   UNL A   1      33.455  21.384  25.798  1.00  0.00     0.067 A 
ATOM     19  N   UNL A   1      33.553  20.050  25.868  1.00  0.00    -0.177 NA
ATOM     20  N   UNL A   1      33.353  19.639  24.603  1.00  0.00    -0.269 N 
ATOM     21  C   UNL A   1      33.276  20.666  23.708  1.00  0.00     0.118 A 
BRANCH  20  22
ATOM     22  C   UNL A   1      33.204  18.220  24.300  1.00  0.00     0.101 C 
ATOM     23  C   UNL A   1      32.472  17.499  25.426  1.00  0.00     0.033 C 
ATOM     24  C   UNL A   1      32.526  17.989  22.948  1.00  0.00     0.033 C 
ENDBRANCH  20  22
ENDBRANCH  11  16
ENDBRANCH   8  10
ENDBRANCH   7   8
ENDBRANCH   6   7
ENDBRANCH   5   6
ENDBRANCH   4   5
ENDBRANCH   3   4
ENDBRANCH   2   3
ENDBRANCH   1   2
BRANCH   1  25
ATOM     25  C   UNL A   1      41.894  19.652  27.287  1.00  0.00     0.188 C 
BRANCH  25  26
ATOM     26  C   UNL A   1      42.636  19.013  26.086  1.00  0.00     0.188 C 
BRANCH  26  27
ATOM     27  O   UNL A   1      43.097  19.918  25.102  1.00  0.00    -0.376 OA
BRANCH  27  28
ATOM     28  C   UNL A   1      44.222  20.754  25.262  1.00  0.00     0.202 C 
BRANCH  28  29
ATOM     29  C   UNL A   1      44.169  22.240  24.930  1.00  0.00     0.261 C 
BRANCH  29  30
ATOM     30  O   UNL A   1      43.155  22.958  25.595  1.00  0.00    -0.460 OA
BRANCH  30  31
ATOM     31  C   UNL A   1      43.202  24.281  25.409  1.00  0.00     0.338 C 
ATOM     32  O   UNL A   1      44.000  24.905  24.704  1.00  0.00    -0.246 OA
BRANCH  31  33
ATOM     33  C   UNL A   1      42.256  24.905  26.328  1.00  0.00     0.060 A 
ATOM     34  C   UNL A   1      41.384  25.818  25.744  1.00  0.00     0.016 A 
ATOM     35  C   UNL A   1      42.567  24.919  27.700  1.00  0.00     0.016 A 
ATOM     36  C   UNL A   1      41.083  26.940  26.467  1.00  0.00     0.010 A 
ATOM     37  C   UNL A   1      42.273  26.048  28.418  1.00  0.00     0.010 A 
ATOM     38  C   UNL A   1      41.631  27.083  27.752  1.00  0.00    -0.014 A 
BRANCH  38  39
ATOM     39  C   UNL A   1      41.419  28.351  28.401  1.00  0.00     0.031 A 
ATOM     40  C   UNL A   1      42.521  29.292  28.134  1.00  0.00     0.074 A 
ATOM     41  C   UNL A   1      40.339  28.619  29.153  1.00  0.00     0.049 A 
ATOM     42  N   UNL A   1      43.394  29.729  28.976  1.00  0.00    -0.248 NA
ATOM     43  C   UNL A   1      42.799  29.626  26.729  1.00  0.00     0.031 C 
ATOM     44  C   UNL A   1      39.094  27.860  29.279  1.00  0.00     0.029 A 
ATOM     45  N   UNL A   1      40.112  29.714  29.923  1.00  0.00    -0.354 N 
ATOM     46  C   UNL A   1      44.237  30.546  28.236  1.00  0.00     0.074 A 
ATOM     47  C   UNL A   1      43.934  30.311  26.849  1.00  0.00     0.031 C 
ATOM     48  C   UNL A   1      38.166  28.633  29.891  1.00  0.00     0.029 A 
ATOM     49  C   UNL A   1      38.793  29.876  30.314  1.00  0.00     0.049 A 
ATOM     50  H   UNL A   1      40.826  30.342  30.182  1.00  0.00     0.167 HD
ATOM     51  C   UNL A   1      44.927  31.545  28.843  1.00  0.00     0.037 A 
ATOM     52  C   UNL A   1      38.266  30.997  30.865  1.00  0.00     0.037 A 
ATOM     53  C   UNL A   1      45.068  31.300  30.256  1.00  0.00     0.049 A 
ATOM     54  C   UNL A   1      39.393  31.794  31.418  1.00  0.00     0.074 A 
ATOM     55  C   UNL A   1      45.670  30.310  31.010  1.00  0.00     0.029 A 
ATOM     56  N   UNL A   1      44.219  31.956  31.111  1.00  0.00    -0.354 N 
ATOM     57  N   UNL A   1      40.099  31.433  32.453  1.00  0.00    -0.248 NA
ATOM     58  C   UNL A   1      40.023  32.776  30.547  1.00  0.00     0.031 C 
ATOM     59  C   UNL A   1      44.821  30.133  32.142  1.00  0.00     0.029 A 
ATOM     60  C   UNL A   1      43.776  31.053  32.042  1.00  0.00     0.049 A 
ATOM     61  H   UNL A   1      43.971  32.908  31.063  1.00  0.00     0.167 HD
ATOM     62  C   UNL A   1      41.401  31.794  32.135  1.00  0.00     0.074 A 
ATOM     63  C   UNL A   1      41.277  32.703  31.000  1.00  0.00     0.031 C 
ATOM     64  C   UNL A   1      42.462  31.099  32.639  1.00  0.00     0.037 A 
BRANCH  51  65
ATOM     65  C   UNL A   1      45.084  32.911  28.230  1.00  0.00     0.064 A 
ATOM     66  C   UNL A   1      46.381  33.398  27.985  1.00  0.00     0.173 A 
ATOM     67  C   UNL A   1      44.048  33.872  28.167  1.00  0.00     0.173 A 
ATOM     68  F   UNL A   1      47.440  32.577  28.037  1.00  0.00    -0.203 F 
ATOM     69  C   UNL A   1      46.628  34.758  27.785  1.00  0.00     0.198 A 
ATOM     70  C   UNL A   1      44.293  35.218  27.913  1.00  0.00     0.198 A 
ATOM     71  F   UNL A   1      42.777  33.582  28.466  1.00  0.00    -0.203 F 
ATOM     72  F   UNL A   1      47.891  35.196  27.694  1.00  0.00    -0.200 F 
ATOM     73  C   UNL A   1      45.586  35.667  27.757  1.00  0.00     0.200 A 
ATOM     74  F   UNL A   1      43.269  36.083  27.911  1.00  0.00    -0.200 F 
ATOM     75  F   UNL A   1      45.826  36.978  27.636  1.00  0.00    -0.200 F 
ENDBRANCH  51  65
BRANCH  52  76
ATOM     76  C   UNL A   1      36.924  31.582  30.632  1.00  0.00     0.064 A 
ATOM     77  C   UNL A   1      36.024  31.766  31.695  1.00  0.00     0.173 A 
ATOM     78  C   UNL A   1      36.607  32.234  29.424  1.00  0.00     0.173 A 
ATOM     79  F   UNL A   1      36.276  31.218  32.893  1.00  0.00    -0.203 F 
ATOM     80  C   UNL A   1      34.892  32.577  31.565  1.00  0.00     0.198 A 
ATOM     81  C   UNL A   1      35.473  33.036  29.294  1.00  0.00     0.198 A 
ATOM     82  F   UNL A   1      37.441  32.188  28.376  1.00  0.00    -0.203 F 
ATOM     83  F   UNL A   1      34.093  32.783  32.622  1.00  0.00    -0.200 F 
ATOM     84  C   UNL A   1      34.623  33.220  30.369  1.00  0.00     0.200 A 
ATOM     85  F   UNL A   1      35.246  33.682  28.141  1.00  0.00    -0.200 F 
ATOM     86  F   UNL A   1      33.575  34.047  30.262  1.00  0.00    -0.200 F 
ENDBRANCH  52  76
BRANCH  64  87
ATOM     87  C   UNL A   1      42.190  30.136  33.761  1.00  0.00     0.064 A 
ATOM     88  C   UNL A   1      41.774  28.805  33.576  1.00  0.00     0.173 A 
ATOM     89  C   UNL A   1      42.481  30.544  35.070  1.00  0.00     0.173 A 
ATOM     90  F   UNL A   1      41.573  28.310  32.349  1.00  0.00    -0.203 F 
ATOM     91  C   UNL A   1      41.613  27.942  34.659  1.00  0.00     0.198 A 
ATOM     92  C   UNL A   1      42.356  29.668  36.145  1.00  0.00     0.198 A 
ATOM     93  F   UNL A   1      42.934  31.787  35.301  1.00  0.00    -0.203 F 
ATOM     94  F   UNL A   1      41.197  26.682  34.459  1.00  0.00    -0.200 F 
ATOM     95  C   UNL A   1      41.910  28.373  35.941  1.00  0.00     0.200 A 
ATOM     96  F   UNL A   1      42.693  30.075  37.377  1.00  0.00    -0.200 F 
ATOM     97  F   UNL A   1      41.792  27.532  36.979  1.00  0.00    -0.200 F 
ENDBRANCH  64  87
ENDBRANCH  38  39
ENDBRANCH  31  33
ENDBRANCH  30  31
ENDBRANCH  29  30
ENDBRANCH  28  29
ENDBRANCH  27  28
ENDBRANCH  26  27
ENDBRANCH  25  26
ENDBRANCH   1  25
TORSDOF 22
ENDMDL
MODEL 3
REMARK VINA RESULT:     -10.5      0.848      2.483
REMARK SMILES Cc1nn(C(C)C)cc1-c1cnccc1C(=O)OCCOCCOCCOCCOC(=O)c1ccc(-c2c3nc(c(-c4c(F)c(F)c(F)c(F)c4F)c4ccc([nH]4)c(-c4c(F)c(F)c(F)c(F)c4F)c4nc(c(-c5c(F)c(F)c(F)c(F)c5F)c5ccc2[nH]5)C=C4)C=C3)cc1
REMARK SMILES IDX 24 1 23 2 22 3 21 4 20 5 19 6 18 7 16 8 17 9 15 10 10 11
REMARK SMILES IDX 11 12 12 13 14 14 13 15 9 16 1 17 2 18 3 19 4 20 8 21 5 22
REMARK SMILES IDX 6 23 7 24 25 25 26 26 27 27 28 28 29 29 30 30 31 31 32 32
REMARK SMILES IDX 33 33 34 34 95 35 35 36 94 37 36 38 37 39 38 40 88 41 39 42
REMARK SMILES IDX 93 43 87 44 89 45 40 46 92 47 86 48 85 49 41 51 73 52 53 53
REMARK SMILES IDX 72 54 54 55 57 56 71 57 90 58 55 59 56 60 70 62 91 63 58 64
REMARK SMILES IDX 42 65 43 66 51 67 44 68 45 69 49 70 52 71 46 72 47 73 50 74
REMARK SMILES IDX 48 75 74 76 75 77 83 78 76 79 77 80 81 81 84 82 78 83 79 84
REMARK SMILES IDX 82 85 80 86 59 87 60 88 68 89 61 90 62 91 66 92 69 93 63 94
REMARK SMILES IDX 64 95 67 96 65 97
REMARK H PARENT 89 50 57 61
REMARK Flexibility Score: inf
ROOT
ATOM      1  O   UNL A   1      42.233  20.539  26.695  1.00  0.00    -0.377 OA
ENDROOT
BRANCH   1   2
ATOM      2  C   UNL A   1      41.852  21.566  27.601  1.00  0.00     0.188 C 
BRANCH   2   3
ATOM      3  C   UNL A   1      40.433  22.187  27.630  1.00  0.00     0.188 C 
BRANCH   3   4
ATOM      4  O   UNL A   1      39.970  22.667  26.387  1.00  0.00    -0.376 OA
BRANCH   4   5
ATOM      5  C   UNL A   1      38.606  22.915  26.147  1.00  0.00     0.202 C 
BRANCH   5   6
ATOM      6  C   UNL A   1      37.701  21.837  25.547  1.00  0.00     0.261 C 
BRANCH   6   7
ATOM      7  O   UNL A   1      36.304  22.113  25.603  1.00  0.00    -0.460 OA
BRANCH   7   8
ATOM      8  C   UNL A   1      35.618  22.149  24.446  1.00  0.00     0.338 C 
ATOM      9  O   UNL A   1      36.005  22.630  23.384  1.00  0.00    -0.246 OA
BRANCH   8  10
ATOM     10  C   UNL A   1      34.387  21.339  24.582  1.00  0.00     0.071 A 
ATOM     11  C   UNL A   1      33.087  21.872  24.556  1.00  0.00     0.018 A 
ATOM     12  C   UNL A   1      32.048  20.966  24.747  1.00  0.00     0.120 A 
ATOM     13  N   UNL A   1      32.211  19.644  25.000  1.00  0.00    -0.264 NA
ATOM     14  C   UNL A   1      34.582  19.973  24.835  1.00  0.00     0.036 A 
ATOM     15  C   UNL A   1      33.474  19.179  25.051  1.00  0.00     0.112 A 
BRANCH  11  16
ATOM     16  C   UNL A   1      32.789  23.286  24.418  1.00  0.00     0.025 A 
ATOM     17  C   UNL A   1      33.094  23.799  21.858  1.00  0.00     0.069 C 
ATOM     18  C   UNL A   1      32.757  24.128  23.267  1.00  0.00     0.067 A 
ATOM     19  N   UNL A   1      32.312  25.355  23.569  1.00  0.00    -0.177 NA
ATOM     20  N   UNL A   1      31.994  25.279  24.873  1.00  0.00    -0.269 N 
ATOM     21  C   UNL A   1      32.355  24.095  25.447  1.00  0.00     0.118 A 
BRANCH  20  22
ATOM     22  C   UNL A   1      31.298  26.379  25.531  1.00  0.00     0.101 C 
ATOM     23  C   UNL A   1      32.132  26.939  26.677  1.00  0.00     0.033 C 
ATOM     24  C   UNL A   1      30.888  27.473  24.544  1.00  0.00     0.033 C 
ENDBRANCH  20  22
ENDBRANCH  11  16
ENDBRANCH   8  10
ENDBRANCH   7   8
ENDBRANCH   6   7
ENDBRANCH   5   6
ENDBRANCH   4   5
ENDBRANCH   3   4
ENDBRANCH   2   3
ENDBRANCH   1   2
BRANCH   1  25
ATOM     25  C   UNL A   1      42.203  19.172  27.075  1.00  0.00     0.188 C 
BRANCH  25  26
ATOM     26  C   UNL A   1      42.724  18.065  26.125  1.00  0.00     0.188 C 
BRANCH  26  27
ATOM     27  O   UNL A   1      44.095  18.148  25.785  1.00  0.00    -0.376 OA
BRANCH  27  28
ATOM     28  C   UNL A   1      44.583  18.768  24.616  1.00  0.00     0.202 C 
BRANCH  28  29
ATOM     29  C   UNL A   1      45.408  20.047  24.673  1.00  0.00     0.261 C 
BRANCH  29  30
ATOM     30  O   UNL A   1      44.915  21.104  23.882  1.00  0.00    -0.460 OA
BRANCH  30  31
ATOM     31  C   UNL A   1      45.364  22.313  24.233  1.00  0.00     0.338 C 
ATOM     32  O   UNL A   1      46.392  22.869  23.836  1.00  0.00    -0.246 OA
BRANCH  31  33
ATOM     33  C   UNL A   1      44.527  22.813  25.318  1.00  0.00     0.060 A 
ATOM     34  C   UNL A   1      43.366  23.464  24.913  1.00  0.00     0.016 A 
ATOM     35  C   UNL A   1      45.120  23.025  26.577  1.00  0.00     0.016 A 
ATOM     36  C   UNL A   1      42.986  24.563  25.633  1.00  0.00     0.010 A 
ATOM     37  C   UNL A   1      44.744  24.132  27.290  1.00  0.00     0.010 A 
ATOM     38  C   UNL A   1      43.755  24.941  26.745  1.00  0.00    -0.014 A 
BRANCH  38  39
ATOM     39  C   UNL A   1      43.411  26.194  27.366  1.00  0.00     0.031 A 
ATOM     40  C   UNL A   1      44.384  27.252  27.039  1.00  0.00     0.074 A 
ATOM     41  C   UNL A   1      42.328  26.355  28.144  1.00  0.00     0.049 A 
ATOM     42  N   UNL A   1      45.223  27.815  27.841  1.00  0.00    -0.248 NA
ATOM     43  C   UNL A   1      44.581  27.572  25.618  1.00  0.00     0.031 C 
ATOM     44  C   UNL A   1      41.187  25.458  28.330  1.00  0.00     0.029 A 
ATOM     45  N   UNL A   1      41.993  27.439  28.890  1.00  0.00    -0.354 N 
ATOM     46  C   UNL A   1      45.940  28.703  27.053  1.00  0.00     0.074 A 
ATOM     47  C   UNL A   1      45.629  28.391  25.683  1.00  0.00     0.031 C 
ATOM     48  C   UNL A   1      40.190  26.134  28.950  1.00  0.00     0.029 A 
ATOM     49  C   UNL A   1      40.676  27.454  29.318  1.00  0.00     0.049 A 
ATOM     50  H   UNL A   1      42.633  28.155  29.110  1.00  0.00     0.167 HD
ATOM     51  C   UNL A   1      46.522  29.795  27.610  1.00  0.00     0.037 A 
ATOM     52  C   UNL A   1      40.034  28.521  29.855  1.00  0.00     0.037 A 
ATOM     53  C   UNL A   1      46.731  29.612  29.024  1.00  0.00     0.049 A 
ATOM     54  C   UNL A   1      41.072  29.463  30.350  1.00  0.00     0.074 A 
ATOM     55  C   UNL A   1      47.468  28.725  29.786  1.00  0.00     0.029 A 
ATOM     56  N   UNL A   1      45.833  30.189  29.887  1.00  0.00    -0.354 N 
ATOM     57  N   UNL A   1      41.845  29.221  31.372  1.00  0.00    -0.248 NA
ATOM     58  C   UNL A   1      41.556  30.486  29.434  1.00  0.00     0.031 C 
ATOM     59  C   UNL A   1      46.678  28.483  30.949  1.00  0.00     0.029 A 
ATOM     60  C   UNL A   1      45.528  29.269  30.856  1.00  0.00     0.049 A 
ATOM     61  H   UNL A   1      45.472  31.103  29.821  1.00  0.00     0.167 HD
ATOM     62  C   UNL A   1      43.084  29.725  31.004  1.00  0.00     0.074 A 
ATOM     63  C   UNL A   1      42.822  30.577  29.849  1.00  0.00     0.031 C 
ATOM     64  C   UNL A   1      44.236  29.177  31.493  1.00  0.00     0.037 A 
BRANCH  51  65
ATOM     65  C   UNL A   1      46.497  31.151  26.955  1.00  0.00     0.064 A 
ATOM     66  C   UNL A   1      47.688  31.896  26.895  1.00  0.00     0.173 A 
ATOM     67  C   UNL A   1      45.311  31.870  26.674  1.00  0.00     0.173 A 
ATOM     68  F   UNL A   1      48.869  31.317  27.161  1.00  0.00    -0.203 F 
ATOM     69  C   UNL A   1      47.682  33.272  26.663  1.00  0.00     0.198 A 
ATOM     70  C   UNL A   1      45.316  33.231  26.388  1.00  0.00     0.198 A 
ATOM     71  F   UNL A   1      44.095  31.324  26.781  1.00  0.00    -0.203 F 
ATOM     72  F   UNL A   1      48.826  33.965  26.750  1.00  0.00    -0.200 F 
ATOM     73  C   UNL A   1      46.496  33.940  26.417  1.00  0.00     0.200 A 
ATOM     74  F   UNL A   1      44.151  33.861  26.174  1.00  0.00    -0.200 F 
ATOM     75  F   UNL A   1      46.480  35.269  26.264  1.00  0.00    -0.200 F 
ENDBRANCH  51  65
BRANCH  52  76
ATOM     76  C   UNL A   1      38.626  28.936  29.648  1.00  0.00     0.064 A 
ATOM     77  C   UNL A   1      37.803  29.261  30.740  1.00  0.00     0.173 A 
ATOM     78  C   UNL A   1      38.145  29.295  28.374  1.00  0.00     0.173 A 
ATOM     79  F   UNL A   1      38.208  28.996  31.991  1.00  0.00    -0.203 F 
ATOM     80  C   UNL A   1      36.589  29.934  30.568  1.00  0.00     0.198 A 
ATOM     81  C   UNL A   1      36.930  29.959  28.203  1.00  0.00     0.198 A 
ATOM     82  F   UNL A   1      38.890  29.101  27.276  1.00  0.00    -0.203 F 
ATOM     83  F   UNL A   1      35.864  30.289  31.638  1.00  0.00    -0.200 F 
ATOM     84  C   UNL A   1      36.158  30.291  29.301  1.00  0.00     0.200 A 
ATOM     85  F   UNL A   1      36.544  30.332  26.975  1.00  0.00    -0.200 F 
ATOM     86  F   UNL A   1      35.028  30.991  29.140  1.00  0.00    -0.200 F 
ENDBRANCH  52  76
BRANCH  64  87
ATOM     87  C   UNL A   1      44.112  28.223  32.649  1.00  0.00     0.064 A 
ATOM     88  C   UNL A   1      43.924  26.836  32.512  1.00  0.00     0.173 A 
ATOM     89  C   UNL A   1      44.315  28.721  33.943  1.00  0.00     0.173 A 
ATOM     90  F   UNL A   1      43.823  26.270  31.303  1.00  0.00    -0.203 F 
ATOM     91  C   UNL A   1      43.894  25.999  33.625  1.00  0.00     0.198 A 
ATOM     92  C   UNL A   1      44.323  27.877  35.050  1.00  0.00     0.198 A 
ATOM     93  F   UNL A   1      44.554  30.029  34.130  1.00  0.00    -0.203 F 
ATOM     94  F   UNL A   1      43.694  24.680  33.470  1.00  0.00    -0.200 F 
ATOM     95  C   UNL A   1      44.100  26.519  34.892  1.00  0.00     0.200 A 
ATOM     96  F   UNL A   1      44.573  28.378  36.267  1.00  0.00    -0.200 F 
ATOM     97  F   UNL A   1      44.109  25.708  35.960  1.00  0.00    -0.200 F 
ENDBRANCH  64  87
ENDBRANCH  38  39
ENDBRANCH  31  33
ENDBRANCH  30  31
ENDBRANCH  29  30
ENDBRANCH  28  29
ENDBRANCH  27  28
ENDBRANCH  26  27
ENDBRANCH  25  26
ENDBRANCH   1  25
TORSDOF 22
ENDMDL
