MODEL 1
REMARK VINA RESULT:     -12.4      0.000      0.000
REMARK SMILES Cc1c(C(=O)OCCOCCOCCOCCOC(=O)c2ccc(-c3c4nc(c(-c5c(F)c(F)c(F)c(F)c5F)c5ccc([nH]5)c(-c5c(F)c(F)c(F)c(F)c5F)c5nc(c(-c6c(F)c(F)c(F)c(F)c6F)c6ccc3[nH]6)C=C5)C=C4)cc2)oc2c1/C(=N/NC(=O)C(c1ccccc1)c1ccccc1)CCC2
REMARK SMILES IDX 11 1 10 2 9 3 8 4 7 5 6 6 4 7 5 8 3 9 1 10 2 11 86 12 84 13
REMARK SMILES IDX 85 14 87 15 107 16 88 17 105 18 106 19 89 20 90 21 91 23
REMARK SMILES IDX 92 24 93 25 94 26 98 27 95 28 97 29 96 30 99 31 100 32
REMARK SMILES IDX 104 33 101 34 103 35 102 36 12 37 13 38 14 39 15 40 16 41
REMARK SMILES IDX 17 42 18 43 19 44 20 45 21 46 22 47 83 48 23 49 82 50 24 51
REMARK SMILES IDX 25 52 26 53 76 54 27 55 81 56 75 57 77 58 28 59 80 60 74 61
REMARK SMILES IDX 73 62 29 64 61 65 41 66 60 67 42 68 45 69 59 70 78 71 43 72
REMARK SMILES IDX 44 73 58 75 79 76 46 77 30 78 31 79 39 80 32 81 33 82 37 83
REMARK SMILES IDX 40 84 34 85 35 86 38 87 36 88 62 89 63 90 71 91 64 92 65 93
REMARK SMILES IDX 69 94 72 95 66 96 67 97 70 98 68 99 47 100 48 101 56 102
REMARK SMILES IDX 49 103 50 104 54 105 57 106 51 107 52 108 55 109 53 110
REMARK H PARENT 89 22 77 63 45 74
REMARK Flexibility Score: inf
ROOT
ATOM      1  C   UNL A   1      43.584  18.402  26.136  1.00  0.00     0.188 C 
ENDROOT
BRANCH   1   2
ATOM      2  C   UNL A   1      42.509  19.430  25.713  1.00  0.00     0.188 C 
BRANCH   2   3
ATOM      3  O   UNL A   1      42.166  20.302  26.785  1.00  0.00    -0.376 OA
BRANCH   3   4
ATOM      4  C   UNL A   1      40.803  20.528  27.084  1.00  0.00     0.202 C 
BRANCH   4   5
ATOM      5  C   UNL A   1      39.881  19.764  26.134  1.00  0.00     0.261 C 
BRANCH   5   6
ATOM      6  O   UNL A   1      39.079  20.602  25.306  1.00  0.00    -0.457 OA
BRANCH   6   7
ATOM      7  C   UNL A   1      38.613  21.776  25.806  1.00  0.00     0.374 C 
ATOM      8  O   UNL A   1      39.305  22.738  26.130  1.00  0.00    -0.242 OA
BRANCH   7   9
ATOM      9  C   UNL A   1      37.180  21.737  25.700  1.00  0.00     0.215 A 
ATOM     10  C   UNL A   1      36.278  24.097  26.295  1.00  0.00     0.049 C 
ATOM     11  C   UNL A   1      36.162  22.670  25.899  1.00  0.00     0.012 A 
ATOM     12  C   UNL A   1      34.956  21.956  25.644  1.00  0.00     0.043 A 
ATOM     13  O   UNL A   1      36.664  20.576  25.195  1.00  0.00    -0.453 OA
ATOM     14  C   UNL A   1      35.343  20.737  25.125  1.00  0.00     0.114 A 
ATOM     15  C   UNL A   1      33.536  22.210  25.878  1.00  0.00     0.072 C 
ATOM     16  C   UNL A   1      34.540  19.597  24.639  1.00  0.00     0.076 C 
ATOM     17  N   UNL A   1      33.221  23.440  26.148  1.00  0.00    -0.177 NA
ATOM     18  C   UNL A   1      32.792  20.893  25.852  1.00  0.00     0.059 C 
ATOM     19  C   UNL A   1      33.081  20.025  24.627  1.00  0.00     0.014 C 
BRANCH  17  20
ATOM     20  N   UNL A   1      32.100  24.124  26.529  1.00  0.00    -0.246 N 
ATOM     21  C   UNL A   1      31.304  25.177  26.125  1.00  0.00     0.252 C 
ATOM     22  H   UNL A   1      31.744  23.741  27.364  1.00  0.00     0.193 HD
ATOM     23  O   UNL A   1      30.290  25.403  26.805  1.00  0.00    -0.272 OA
BRANCH  21  24
ATOM     24  C   UNL A   1      31.610  26.069  24.909  1.00  0.00     0.140 C 
BRANCH  24  25
ATOM     25  C   UNL A   1      32.260  27.396  25.455  1.00  0.00    -0.031 A 
ATOM     26  C   UNL A   1      33.602  27.492  25.858  1.00  0.00     0.005 A 
ATOM     27  C   UNL A   1      31.469  28.561  25.662  1.00  0.00     0.005 A 
ATOM     28  C   UNL A   1      34.061  28.611  26.581  1.00  0.00     0.000 A 
ATOM     29  C   UNL A   1      31.918  29.665  26.390  1.00  0.00     0.000 A 
ATOM     30  C   UNL A   1      33.212  29.678  26.876  1.00  0.00     0.000 A 
ENDBRANCH  24  25
BRANCH  24  31
ATOM     31  C   UNL A   1      32.259  25.157  23.802  1.00  0.00    -0.031 A 
ATOM     32  C   UNL A   1      31.489  24.121  23.205  1.00  0.00     0.005 A 
ATOM     33  C   UNL A   1      33.598  25.232  23.386  1.00  0.00     0.005 A 
ATOM     34  C   UNL A   1      32.065  23.076  22.480  1.00  0.00     0.000 A 
ATOM     35  C   UNL A   1      34.176  24.195  22.624  1.00  0.00     0.000 A 
ATOM     36  C   UNL A   1      33.424  23.092  22.223  1.00  0.00     0.000 A 
ENDBRANCH  24  31
ENDBRANCH  21  24
ENDBRANCH  17  20
ENDBRANCH   7   9
ENDBRANCH   6   7
ENDBRANCH   5   6
ENDBRANCH   4   5
ENDBRANCH   3   4
ENDBRANCH   2   3
ENDBRANCH   1   2
BRANCH   1  37
ATOM     37  O   UNL A   1      44.644  18.079  25.236  1.00  0.00    -0.377 OA
BRANCH  37  38
ATOM     38  C   UNL A   1      45.114  19.139  24.414  1.00  0.00     0.188 C 
BRANCH  38  39
ATOM     39  C   UNL A   1      46.398  19.800  24.966  1.00  0.00     0.188 C 
BRANCH  39  40
ATOM     40  O   UNL A   1      46.330  21.195  25.213  1.00  0.00    -0.376 OA
BRANCH  40  41
ATOM     41  C   UNL A   1      45.163  21.959  25.477  1.00  0.00     0.202 C 
BRANCH  41  42
ATOM     42  C   UNL A   1      44.308  22.721  24.462  1.00  0.00     0.261 C 
BRANCH  42  43
ATOM     43  O   UNL A   1      43.121  23.271  24.960  1.00  0.00    -0.460 OA
BRANCH  43  44
ATOM     44  C   UNL A   1      43.194  24.564  25.298  1.00  0.00     0.338 C 
ATOM     45  O   UNL A   1      44.045  25.372  24.975  1.00  0.00    -0.246 OA
BRANCH  44  46
ATOM     46  C   UNL A   1      42.058  24.833  26.193  1.00  0.00     0.060 A 
ATOM     47  C   UNL A   1      41.131  25.734  25.681  1.00  0.00     0.016 A 
ATOM     48  C   UNL A   1      42.254  24.628  27.569  1.00  0.00     0.016 A 
ATOM     49  C   UNL A   1      40.756  26.748  26.516  1.00  0.00     0.010 A 
ATOM     50  C   UNL A   1      41.910  25.654  28.395  1.00  0.00     0.010 A 
ATOM     51  C   UNL A   1      41.292  26.753  27.807  1.00  0.00    -0.014 A 
BRANCH  51  52
ATOM     52  C   UNL A   1      41.281  28.005  28.511  1.00  0.00     0.031 A 
ATOM     53  C   UNL A   1      42.439  28.854  28.199  1.00  0.00     0.074 A 
ATOM     54  C   UNL A   1      40.248  28.328  29.308  1.00  0.00     0.049 A 
ATOM     55  N   UNL A   1      43.342  29.285  29.010  1.00  0.00    -0.248 NA
ATOM     56  C   UNL A   1      42.709  29.121  26.778  1.00  0.00     0.031 C 
ATOM     57  C   UNL A   1      38.952  27.655  29.453  1.00  0.00     0.029 A 
ATOM     58  N   UNL A   1      40.109  29.428  30.086  1.00  0.00    -0.354 N 
ATOM     59  C   UNL A   1      44.225  30.010  28.222  1.00  0.00     0.074 A 
ATOM     60  C   UNL A   1      43.882  29.741  26.851  1.00  0.00     0.031 C 
ATOM     61  C   UNL A   1      38.091  28.491  30.077  1.00  0.00     0.029 A 
ATOM     62  C   UNL A   1      38.805  29.698  30.459  1.00  0.00     0.049 A 
ATOM     63  H   UNL A   1      40.871  29.986  30.364  1.00  0.00     0.167 HD
ATOM     64  C   UNL A   1      45.044  30.947  28.761  1.00  0.00     0.037 A 
ATOM     65  C   UNL A   1      38.362  30.892  30.920  1.00  0.00     0.037 A 
ATOM     66  C   UNL A   1      45.188  30.769  30.180  1.00  0.00     0.049 A 
ATOM     67  C   UNL A   1      39.555  31.662  31.376  1.00  0.00     0.074 A 
ATOM     68  C   UNL A   1      45.715  29.762  30.966  1.00  0.00     0.029 A 
ATOM     69  N   UNL A   1      44.419  31.542  31.017  1.00  0.00    -0.354 N 
ATOM     70  N   UNL A   1      40.269  31.343  32.424  1.00  0.00    -0.248 NA
ATOM     71  C   UNL A   1      40.239  32.501  30.398  1.00  0.00     0.031 C 
ATOM     72  C   UNL A   1      44.881  29.713  32.119  1.00  0.00     0.029 A 
ATOM     73  C   UNL A   1      43.917  30.715  31.990  1.00  0.00     0.049 A 
ATOM     74  H   UNL A   1      44.258  32.509  30.934  1.00  0.00     0.167 HD
ATOM     75  C   UNL A   1      41.586  31.589  32.053  1.00  0.00     0.074 A 
ATOM     76  C   UNL A   1      41.498  32.380  30.829  1.00  0.00     0.031 C 
ATOM     77  C   UNL A   1      42.618  30.885  32.601  1.00  0.00     0.037 A 
BRANCH  64  78
ATOM     78  C   UNL A   1      45.447  32.201  28.045  1.00  0.00     0.064 A 
ATOM     79  C   UNL A   1      44.465  33.159  27.738  1.00  0.00     0.173 A 
ATOM     80  C   UNL A   1      46.696  32.373  27.408  1.00  0.00     0.173 A 
ATOM     81  F   UNL A   1      43.238  33.076  28.274  1.00  0.00    -0.203 F 
ATOM     82  C   UNL A   1      44.699  34.174  26.809  1.00  0.00     0.198 A 
ATOM     83  C   UNL A   1      46.944  33.423  26.529  1.00  0.00     0.198 A 
ATOM     84  F   UNL A   1      47.686  31.479  27.522  1.00  0.00    -0.203 F 
ATOM     85  F   UNL A   1      43.698  34.990  26.454  1.00  0.00    -0.200 F 
ATOM     86  C   UNL A   1      45.936  34.303  26.204  1.00  0.00     0.200 A 
ATOM     87  F   UNL A   1      48.146  33.519  25.943  1.00  0.00    -0.200 F 
ATOM     88  F   UNL A   1      46.143  35.240  25.270  1.00  0.00    -0.200 F 
ENDBRANCH  64  78
BRANCH  65  89
ATOM     89  C   UNL A   1      37.036  31.507  30.668  1.00  0.00     0.064 A 
ATOM     90  C   UNL A   1      36.159  31.800  31.722  1.00  0.00     0.173 A 
ATOM     91  C   UNL A   1      36.688  32.031  29.404  1.00  0.00     0.173 A 
ATOM     92  F   UNL A   1      36.441  31.392  32.967  1.00  0.00    -0.203 F 
ATOM     93  C   UNL A   1      35.005  32.569  31.524  1.00  0.00     0.198 A 
ATOM     94  C   UNL A   1      35.531  32.782  29.204  1.00  0.00     0.198 A 
ATOM     95  F   UNL A   1      37.507  31.902  28.352  1.00  0.00    -0.203 F 
ATOM     96  F   UNL A   1      34.217  32.873  32.565  1.00  0.00    -0.200 F 
ATOM     97  C   UNL A   1      34.693  33.060  30.266  1.00  0.00     0.200 A 
ATOM     98  F   UNL A   1      35.264  33.279  27.988  1.00  0.00    -0.200 F 
ATOM     99  F   UNL A   1      33.613  33.831  30.085  1.00  0.00    -0.200 F 
ENDBRANCH  65  89
BRANCH  77 100
ATOM    100  C   UNL A   1      42.314  29.996  33.775  1.00  0.00     0.064 A 
ATOM    101  C   UNL A   1      41.789  28.699  33.642  1.00  0.00     0.173 A 
ATOM    102  C   UNL A   1      42.737  30.393  35.050  1.00  0.00     0.173 A 
ATOM    103  F   UNL A   1      41.468  28.208  32.439  1.00  0.00    -0.203 F 
ATOM    104  C   UNL A   1      41.653  27.857  34.743  1.00  0.00     0.198 A 
ATOM    105  C   UNL A   1      42.637  29.536  36.142  1.00  0.00     0.198 A 
ATOM    106  F   UNL A   1      43.309  31.596  35.223  1.00  0.00    -0.203 F 
ATOM    107  F   UNL A   1      41.144  26.626  34.589  1.00  0.00    -0.200 F 
ATOM    108  C   UNL A   1      42.086  28.273  35.990  1.00  0.00     0.200 A 
ATOM    109  F   UNL A   1      43.108  29.920  37.336  1.00  0.00    -0.200 F 
ATOM    110  F   UNL A   1      42.005  27.444  37.041  1.00  0.00    -0.200 F 
ENDBRANCH  77 100
ENDBRANCH  51  52
ENDBRANCH  44  46
ENDBRANCH  43  44
ENDBRANCH  42  43
ENDBRANCH  41  42
ENDBRANCH  40  41
ENDBRANCH  39  40
ENDBRANCH  38  39
ENDBRANCH  37  38
ENDBRANCH   1  37
TORSDOF 24
ENDMDL
MODEL 2
REMARK VINA RESULT:     -11.6      2.133      6.704
REMARK SMILES Cc1c(C(=O)OCCOCCOCCOCCOC(=O)c2ccc(-c3c4nc(c(-c5c(F)c(F)c(F)c(F)c5F)c5ccc([nH]5)c(-c5c(F)c(F)c(F)c(F)c5F)c5nc(c(-c6c(F)c(F)c(F)c(F)c6F)c6ccc3[nH]6)C=C5)C=C4)cc2)oc2c1/C(=N/NC(=O)C(c1ccccc1)c1ccccc1)CCC2
REMARK SMILES IDX 11 1 10 2 9 3 8 4 7 5 6 6 4 7 5 8 3 9 1 10 2 11 86 12 84 13
REMARK SMILES IDX 85 14 87 15 107 16 88 17 105 18 106 19 89 20 90 21 91 23
REMARK SMILES IDX 92 24 93 25 94 26 98 27 95 28 97 29 96 30 99 31 100 32
REMARK SMILES IDX 104 33 101 34 103 35 102 36 12 37 13 38 14 39 15 40 16 41
REMARK SMILES IDX 17 42 18 43 19 44 20 45 21 46 22 47 83 48 23 49 82 50 24 51
REMARK SMILES IDX 25 52 26 53 76 54 27 55 81 56 75 57 77 58 28 59 80 60 74 61
REMARK SMILES IDX 73 62 29 64 61 65 41 66 60 67 42 68 45 69 59 70 78 71 43 72
REMARK SMILES IDX 44 73 58 75 79 76 46 77 30 78 31 79 39 80 32 81 33 82 37 83
REMARK SMILES IDX 40 84 34 85 35 86 38 87 36 88 62 89 63 90 71 91 64 92 65 93
REMARK SMILES IDX 69 94 72 95 66 96 67 97 70 98 68 99 47 100 48 101 56 102
REMARK SMILES IDX 49 103 50 104 54 105 57 106 51 107 52 108 55 109 53 110
REMARK H PARENT 89 22 77 63 45 74
REMARK Flexibility Score: inf
ROOT
ATOM      1  C   UNL A   1      43.445  22.970  27.195  1.00  0.00     0.188 C 
ENDROOT
BRANCH   1   2
ATOM      2  C   UNL A   1      42.467  22.123  28.041  1.00  0.00     0.188 C 
BRANCH   2   3
ATOM      3  O   UNL A   1      42.395  20.779  27.573  1.00  0.00    -0.376 OA
BRANCH   3   4
ATOM      4  C   UNL A   1      41.143  20.126  27.536  1.00  0.00     0.202 C 
BRANCH   4   5
ATOM      5  C   UNL A   1      40.736  19.760  26.109  1.00  0.00     0.261 C 
BRANCH   5   6
ATOM      6  O   UNL A   1      39.430  20.203  25.748  1.00  0.00    -0.457 OA
BRANCH   6   7
ATOM      7  C   UNL A   1      39.125  21.522  25.855  1.00  0.00     0.374 C 
ATOM      8  O   UNL A   1      39.938  22.442  25.884  1.00  0.00    -0.242 OA
BRANCH   7   9
ATOM      9  C   UNL A   1      37.697  21.633  25.736  1.00  0.00     0.215 A 
ATOM     10  C   UNL A   1      37.039  24.070  26.339  1.00  0.00     0.049 C 
ATOM     11  C   UNL A   1      36.779  22.666  25.931  1.00  0.00     0.012 A 
ATOM     12  C   UNL A   1      35.508  22.083  25.660  1.00  0.00     0.043 A 
ATOM     13  O   UNL A   1      37.068  20.535  25.217  1.00  0.00    -0.453 OA
ATOM     14  C   UNL A   1      35.772  20.834  25.136  1.00  0.00     0.114 A 
ATOM     15  C   UNL A   1      34.121  22.482  25.882  1.00  0.00     0.072 C 
ATOM     16  C   UNL A   1      34.860  19.787  24.634  1.00  0.00     0.076 C 
ATOM     17  N   UNL A   1      33.932  23.736  26.158  1.00  0.00    -0.177 NA
ATOM     18  C   UNL A   1      33.244  21.249  25.840  1.00  0.00     0.059 C 
ATOM     19  C   UNL A   1      33.453  20.364  24.612  1.00  0.00     0.014 C 
BRANCH  17  20
ATOM     20  N   UNL A   1      32.884  24.530  26.533  1.00  0.00    -0.246 N 
ATOM     21  C   UNL A   1      32.381  25.799  26.329  1.00  0.00     0.252 C 
ATOM     22  H   UNL A   1      32.298  24.037  27.152  1.00  0.00     0.193 HD
ATOM     23  O   UNL A   1      31.296  26.064  26.871  1.00  0.00    -0.272 OA
BRANCH  21  24
ATOM     24  C   UNL A   1      33.088  26.879  25.491  1.00  0.00     0.140 C 
BRANCH  24  25
ATOM     25  C   UNL A   1      32.744  26.598  23.980  1.00  0.00    -0.031 A 
ATOM     26  C   UNL A   1      31.616  25.870  23.564  1.00  0.00     0.005 A 
ATOM     27  C   UNL A   1      33.636  26.994  22.945  1.00  0.00     0.005 A 
ATOM     28  C   UNL A   1      31.496  25.420  22.235  1.00  0.00     0.000 A 
ATOM     29  C   UNL A   1      33.526  26.539  21.630  1.00  0.00     0.000 A 
ATOM     30  C   UNL A   1      32.465  25.725  21.279  1.00  0.00     0.000 A 
ENDBRANCH  24  25
BRANCH  24  31
ATOM     31  C   UNL A   1      32.858  28.263  26.207  1.00  0.00    -0.031 A 
ATOM     32  C   UNL A   1      31.820  29.124  25.753  1.00  0.00     0.005 A 
ATOM     33  C   UNL A   1      33.658  28.771  27.242  1.00  0.00     0.005 A 
ATOM     34  C   UNL A   1      31.761  30.476  26.095  1.00  0.00     0.000 A 
ATOM     35  C   UNL A   1      33.578  30.129  27.615  1.00  0.00     0.000 A 
ATOM     36  C   UNL A   1      32.671  30.992  27.001  1.00  0.00     0.000 A 
ENDBRANCH  24  31
ENDBRANCH  21  24
ENDBRANCH  17  20
ENDBRANCH   7   9
ENDBRANCH   6   7
ENDBRANCH   5   6
ENDBRANCH   4   5
ENDBRANCH   3   4
ENDBRANCH   2   3
ENDBRANCH   1   2
BRANCH   1  37
ATOM     37  O   UNL A   1      44.275  22.330  26.224  1.00  0.00    -0.377 OA
BRANCH  37  38
ATOM     38  C   UNL A   1      44.306  22.927  24.935  1.00  0.00     0.188 C 
BRANCH  38  39
ATOM     39  C   UNL A   1      45.604  23.726  24.677  1.00  0.00     0.188 C 
BRANCH  39  40
ATOM     40  O   UNL A   1      45.554  25.115  24.958  1.00  0.00    -0.376 OA
BRANCH  40  41
ATOM     41  C   UNL A   1      45.398  25.723  26.232  1.00  0.00     0.202 C 
BRANCH  41  42
ATOM     42  C   UNL A   1      44.447  26.864  26.600  1.00  0.00     0.261 C 
BRANCH  42  43
ATOM     43  O   UNL A   1      43.117  26.493  26.832  1.00  0.00    -0.460 OA
BRANCH  43  44
ATOM     44  C   UNL A   1      42.331  26.498  25.750  1.00  0.00     0.338 C 
ATOM     45  O   UNL A   1      42.606  26.117  24.627  1.00  0.00    -0.246 OA
BRANCH  44  46
ATOM     46  C   UNL A   1      41.054  27.104  26.156  1.00  0.00     0.060 A 
ATOM     47  C   UNL A   1      40.974  28.473  25.921  1.00  0.00     0.016 A 
ATOM     48  C   UNL A   1      40.314  26.450  27.155  1.00  0.00     0.016 A 
ATOM     49  C   UNL A   1      40.537  29.236  26.966  1.00  0.00     0.010 A 
ATOM     50  C   UNL A   1      39.908  27.207  28.211  1.00  0.00     0.010 A 
ATOM     51  C   UNL A   1      40.165  28.573  28.139  1.00  0.00    -0.014 A 
BRANCH  51  52
ATOM     52  C   UNL A   1      40.152  29.348  29.348  1.00  0.00     0.031 A 
ATOM     53  C   UNL A   1      39.009  30.267  29.434  1.00  0.00     0.074 A 
ATOM     54  C   UNL A   1      41.088  29.151  30.293  1.00  0.00     0.049 A 
ATOM     55  N   UNL A   1      39.034  31.552  29.520  1.00  0.00    -0.248 NA
ATOM     56  C   UNL A   1      37.671  29.689  29.235  1.00  0.00     0.031 C 
ATOM     57  C   UNL A   1      42.086  28.080  30.391  1.00  0.00     0.029 A 
ATOM     58  N   UNL A   1      41.258  29.832  31.451  1.00  0.00    -0.354 N 
ATOM     59  C   UNL A   1      37.703  31.943  29.538  1.00  0.00     0.074 A 
ATOM     60  C   UNL A   1      36.920  30.785  29.198  1.00  0.00     0.031 C 
ATOM     61  C   UNL A   1      42.580  28.053  31.649  1.00  0.00     0.029 A 
ATOM     62  C   UNL A   1      42.012  29.162  32.398  1.00  0.00     0.049 A 
ATOM     63  H   UNL A   1      40.878  30.727  31.606  1.00  0.00     0.167 HD
ATOM     64  C   UNL A   1      37.330  33.147  30.039  1.00  0.00     0.037 A 
ATOM     65  C   UNL A   1      42.032  29.452  33.720  1.00  0.00     0.037 A 
ATOM     66  C   UNL A   1      38.439  34.057  30.108  1.00  0.00     0.049 A 
ATOM     67  C   UNL A   1      41.501  30.838  33.878  1.00  0.00     0.074 A 
ATOM     68  C   UNL A   1      39.261  34.634  29.158  1.00  0.00     0.029 A 
ATOM     69  N   UNL A   1      39.086  34.211  31.311  1.00  0.00    -0.354 N 
ATOM     70  N   UNL A   1      42.131  31.908  33.473  1.00  0.00    -0.248 NA
ATOM     71  C   UNL A   1      40.061  30.999  34.052  1.00  0.00     0.031 C 
ATOM     72  C   UNL A   1      40.548  34.693  29.763  1.00  0.00     0.029 A 
ATOM     73  C   UNL A   1      40.433  34.184  31.058  1.00  0.00     0.049 A 
ATOM     74  H   UNL A   1      38.660  34.319  32.192  1.00  0.00     0.167 HD
ATOM     75  C   UNL A   1      41.141  32.737  32.957  1.00  0.00     0.074 A 
ATOM     76  C   UNL A   1      39.881  32.162  33.418  1.00  0.00     0.031 C 
ATOM     77  C   UNL A   1      41.414  33.634  31.965  1.00  0.00     0.037 A 
BRANCH  64  78
ATOM     78  C   UNL A   1      36.033  33.377  30.755  1.00  0.00     0.064 A 
ATOM     79  C   UNL A   1      35.023  34.119  30.119  1.00  0.00     0.173 A 
ATOM     80  C   UNL A   1      35.846  33.137  32.135  1.00  0.00     0.173 A 
ATOM     81  F   UNL A   1      35.112  34.419  28.815  1.00  0.00    -0.203 F 
ATOM     82  C   UNL A   1      33.941  34.641  30.831  1.00  0.00     0.198 A 
ATOM     83  C   UNL A   1      34.735  33.607  32.827  1.00  0.00     0.198 A 
ATOM     84  F   UNL A   1      36.777  32.540  32.889  1.00  0.00    -0.203 F 
ATOM     85  F   UNL A   1      33.067  35.445  30.212  1.00  0.00    -0.200 F 
ATOM     86  C   UNL A   1      33.800  34.387  32.184  1.00  0.00     0.200 A 
ATOM     87  F   UNL A   1      34.626  33.362  34.141  1.00  0.00    -0.200 F 
ATOM     88  F   UNL A   1      32.794  34.934  32.878  1.00  0.00    -0.200 F 
ENDBRANCH  64  78
BRANCH  65  89
ATOM     89  C   UNL A   1      42.159  28.490  34.841  1.00  0.00     0.064 A 
ATOM     90  C   UNL A   1      41.378  27.325  34.891  1.00  0.00     0.173 A 
ATOM     91  C   UNL A   1      43.211  28.574  35.778  1.00  0.00     0.173 A 
ATOM     92  F   UNL A   1      40.395  27.135  34.000  1.00  0.00    -0.203 F 
ATOM     93  C   UNL A   1      41.634  26.310  35.821  1.00  0.00     0.198 A 
ATOM     94  C   UNL A   1      43.455  27.570  36.714  1.00  0.00     0.198 A 
ATOM     95  F   UNL A   1      44.084  29.591  35.751  1.00  0.00    -0.203 F 
ATOM     96  F   UNL A   1      40.900  25.189  35.804  1.00  0.00    -0.200 F 
ATOM     97  C   UNL A   1      42.673  26.433  36.730  1.00  0.00     0.200 A 
ATOM     98  F   UNL A   1      44.487  27.690  37.562  1.00  0.00    -0.200 F 
ATOM     99  F   UNL A   1      42.945  25.442  37.590  1.00  0.00    -0.200 F 
ENDBRANCH  65  89
BRANCH  77 100
ATOM    100  C   UNL A   1      42.856  33.858  31.603  1.00  0.00     0.064 A 
ATOM    101  C   UNL A   1      43.572  33.016  30.735  1.00  0.00     0.173 A 
ATOM    102  C   UNL A   1      43.471  35.055  31.994  1.00  0.00     0.173 A 
ATOM    103  F   UNL A   1      43.007  31.913  30.229  1.00  0.00    -0.203 F 
ATOM    104  C   UNL A   1      44.861  33.336  30.315  1.00  0.00     0.198 A 
ATOM    105  C   UNL A   1      44.744  35.391  31.542  1.00  0.00     0.198 A 
ATOM    106  F   UNL A   1      42.809  35.929  32.768  1.00  0.00    -0.203 F 
ATOM    107  F   UNL A   1      45.523  32.511  29.490  1.00  0.00    -0.200 F 
ATOM    108  C   UNL A   1      45.441  34.528  30.711  1.00  0.00     0.200 A 
ATOM    109  F   UNL A   1      45.282  36.570  31.882  1.00  0.00    -0.200 F 
ATOM    110  F   UNL A   1      46.661  34.862  30.265  1.00  0.00    -0.200 F 
ENDBRANCH  77 100
ENDBRANCH  51  52
ENDBRANCH  44  46
ENDBRANCH  43  44
ENDBRANCH  42  43
ENDBRANCH  41  42
ENDBRANCH  40  41
ENDBRANCH  39  40
ENDBRANCH  38  39
ENDBRANCH  37  38
ENDBRANCH   1  37
TORSDOF 24
ENDMDL
MODEL 3
REMARK VINA RESULT:     -10.8      2.055      3.665
REMARK SMILES Cc1c(C(=O)OCCOCCOCCOCCOC(=O)c2ccc(-c3c4nc(c(-c5c(F)c(F)c(F)c(F)c5F)c5ccc([nH]5)c(-c5c(F)c(F)c(F)c(F)c5F)c5nc(c(-c6c(F)c(F)c(F)c(F)c6F)c6ccc3[nH]6)C=C5)C=C4)cc2)oc2c1/C(=N/NC(=O)C(c1ccccc1)c1ccccc1)CCC2
REMARK SMILES IDX 11 1 10 2 9 3 8 4 7 5 6 6 4 7 5 8 3 9 1 10 2 11 86 12 84 13
REMARK SMILES IDX 85 14 87 15 107 16 88 17 105 18 106 19 89 20 90 21 91 23
REMARK SMILES IDX 92 24 93 25 94 26 98 27 95 28 97 29 96 30 99 31 100 32
REMARK SMILES IDX 104 33 101 34 103 35 102 36 12 37 13 38 14 39 15 40 16 41
REMARK SMILES IDX 17 42 18 43 19 44 20 45 21 46 22 47 83 48 23 49 82 50 24 51
REMARK SMILES IDX 25 52 26 53 76 54 27 55 81 56 75 57 77 58 28 59 80 60 74 61
REMARK SMILES IDX 73 62 29 64 61 65 41 66 60 67 42 68 45 69 59 70 78 71 43 72
REMARK SMILES IDX 44 73 58 75 79 76 46 77 30 78 31 79 39 80 32 81 33 82 37 83
REMARK SMILES IDX 40 84 34 85 35 86 38 87 36 88 62 89 63 90 71 91 64 92 65 93
REMARK SMILES IDX 69 94 72 95 66 96 67 97 70 98 68 99 47 100 48 101 56 102
REMARK SMILES IDX 49 103 50 104 54 105 57 106 51 107 52 108 55 109 53 110
REMARK H PARENT 89 22 77 63 45 74
REMARK Flexibility Score: inf
ROOT
ATOM      1  C   UNL A   1      38.188  22.078  25.767  1.00  0.00     0.188 C 
ENDROOT
BRANCH   1   2
ATOM      2  C   UNL A   1      37.539  21.248  24.635  1.00  0.00     0.188 C 
BRANCH   2   3
ATOM      3  O   UNL A   1      36.255  20.760  25.013  1.00  0.00    -0.376 OA
BRANCH   3   4
ATOM      4  C   UNL A   1      35.542  21.412  26.044  1.00  0.00     0.202 C 
BRANCH   4   5
ATOM      5  C   UNL A   1      34.112  20.888  26.163  1.00  0.00     0.261 C 
BRANCH   5   6
ATOM      6  O   UNL A   1      33.807  19.828  25.258  1.00  0.00    -0.457 OA
BRANCH   6   7
ATOM      7  C   UNL A   1      32.782  19.982  24.380  1.00  0.00     0.374 C 
ATOM      8  O   UNL A   1      32.272  19.084  23.716  1.00  0.00    -0.242 OA
BRANCH   7   9
ATOM      9  C   UNL A   1      32.304  21.329  24.526  1.00  0.00     0.215 A 
ATOM     10  C   UNL A   1      33.165  22.699  22.497  1.00  0.00     0.049 C 
ATOM     11  C   UNL A   1      32.438  22.499  23.777  1.00  0.00     0.012 A 
ATOM     12  C   UNL A   1      31.725  23.489  24.512  1.00  0.00     0.043 A 
ATOM     13  O   UNL A   1      31.432  21.530  25.560  1.00  0.00    -0.453 OA
ATOM     14  C   UNL A   1      31.061  22.808  25.512  1.00  0.00     0.114 A 
ATOM     15  C   UNL A   1      31.635  24.946  24.462  1.00  0.00     0.072 C 
ATOM     16  C   UNL A   1      30.138  23.292  26.558  1.00  0.00     0.076 C 
ATOM     17  N   UNL A   1      32.086  25.502  23.380  1.00  0.00    -0.177 NA
ATOM     18  C   UNL A   1      31.118  25.450  25.792  1.00  0.00     0.059 C 
ATOM     19  C   UNL A   1      29.846  24.759  26.282  1.00  0.00     0.014 C 
BRANCH  17  20
ATOM     20  N   UNL A   1      32.309  26.773  22.927  1.00  0.00    -0.246 N 
ATOM     21  C   UNL A   1      32.001  28.084  23.233  1.00  0.00     0.252 C 
ATOM     22  H   UNL A   1      32.871  26.745  22.119  1.00  0.00     0.193 HD
ATOM     23  O   UNL A   1      32.517  28.959  22.520  1.00  0.00    -0.272 OA
BRANCH  21  24
ATOM     24  C   UNL A   1      31.063  28.501  24.379  1.00  0.00     0.140 C 
BRANCH  24  25
ATOM     25  C   UNL A   1      31.970  29.013  25.562  1.00  0.00    -0.031 A 
ATOM     26  C   UNL A   1      31.856  30.293  26.127  1.00  0.00     0.005 A 
ATOM     27  C   UNL A   1      33.039  28.214  26.056  1.00  0.00     0.005 A 
ATOM     28  C   UNL A   1      32.852  30.795  26.988  1.00  0.00     0.000 A 
ATOM     29  C   UNL A   1      34.034  28.713  26.899  1.00  0.00     0.000 A 
ATOM     30  C   UNL A   1      33.955  30.019  27.345  1.00  0.00     0.000 A 
ENDBRANCH  24  25
BRANCH  24  31
ATOM     31  C   UNL A   1      29.881  29.329  23.750  1.00  0.00    -0.031 A 
ATOM     32  C   UNL A   1      29.831  30.738  23.941  1.00  0.00     0.005 A 
ATOM     33  C   UNL A   1      28.797  28.773  23.053  1.00  0.00     0.005 A 
ATOM     34  C   UNL A   1      28.675  31.487  23.716  1.00  0.00     0.000 A 
ATOM     35  C   UNL A   1      27.640  29.537  22.793  1.00  0.00     0.000 A 
ATOM     36  C   UNL A   1      27.559  30.875  23.176  1.00  0.00     0.000 A 
ENDBRANCH  24  31
ENDBRANCH  21  24
ENDBRANCH  17  20
ENDBRANCH   7   9
ENDBRANCH   6   7
ENDBRANCH   5   6
ENDBRANCH   4   5
ENDBRANCH   3   4
ENDBRANCH   2   3
ENDBRANCH   1   2
BRANCH   1  37
ATOM     37  O   UNL A   1      39.542  21.822  26.141  1.00  0.00    -0.377 OA
BRANCH  37  38
ATOM     38  C   UNL A   1      39.863  20.472  26.449  1.00  0.00     0.188 C 
BRANCH  38  39
ATOM     39  C   UNL A   1      41.313  20.099  26.064  1.00  0.00     0.188 C 
BRANCH  39  40
ATOM     40  O   UNL A   1      42.342  20.695  26.837  1.00  0.00    -0.376 OA
BRANCH  40  41
ATOM     41  C   UNL A   1      42.988  21.935  26.588  1.00  0.00     0.202 C 
BRANCH  41  42
ATOM     42  C   UNL A   1      42.726  22.895  25.425  1.00  0.00     0.261 C 
BRANCH  42  43
ATOM     43  O   UNL A   1      43.242  24.188  25.577  1.00  0.00    -0.460 OA
BRANCH  43  44
ATOM     44  C   UNL A   1      42.377  25.090  26.053  1.00  0.00     0.338 C 
ATOM     45  O   UNL A   1      41.259  24.893  26.491  1.00  0.00    -0.246 OA
BRANCH  44  46
ATOM     46  C   UNL A   1      43.016  26.407  25.906  1.00  0.00     0.060 A 
ATOM     47  C   UNL A   1      44.012  26.665  26.841  1.00  0.00     0.016 A 
ATOM     48  C   UNL A   1      42.276  27.419  25.272  1.00  0.00     0.016 A 
ATOM     49  C   UNL A   1      43.938  27.870  27.481  1.00  0.00     0.010 A 
ATOM     50  C   UNL A   1      42.177  28.608  25.927  1.00  0.00     0.010 A 
ATOM     51  C   UNL A   1      42.913  28.740  27.101  1.00  0.00    -0.014 A 
BRANCH  51  52
ATOM     52  C   UNL A   1      42.548  29.765  28.039  1.00  0.00     0.031 A 
ATOM     53  C   UNL A   1      43.499  30.884  28.072  1.00  0.00     0.074 A 
ATOM     54  C   UNL A   1      41.402  29.673  28.735  1.00  0.00     0.049 A 
ATOM     55  N   UNL A   1      44.202  31.293  29.071  1.00  0.00    -0.248 NA
ATOM     56  C   UNL A   1      43.824  31.522  26.788  1.00  0.00     0.031 C 
ATOM     57  C   UNL A   1      40.291  28.730  28.559  1.00  0.00     0.029 A 
ATOM     58  N   UNL A   1      40.943  30.509  29.697  1.00  0.00    -0.354 N 
ATOM     59  C   UNL A   1      44.958  32.347  28.579  1.00  0.00     0.074 A 
ATOM     60  C   UNL A   1      44.810  32.339  27.148  1.00  0.00     0.031 C 
ATOM     61  C   UNL A   1      39.207  29.201  29.216  1.00  0.00     0.029 A 
ATOM     62  C   UNL A   1      39.583  30.408  29.934  1.00  0.00     0.049 A 
ATOM     63  H   UNL A   1      41.526  31.133  30.186  1.00  0.00     0.167 HD
ATOM     64  C   UNL A   1      45.485  33.283  29.407  1.00  0.00     0.037 A 
ATOM     65  C   UNL A   1      38.835  31.344  30.566  1.00  0.00     0.037 A 
ATOM     66  C   UNL A   1      45.540  32.815  30.765  1.00  0.00     0.049 A 
ATOM     67  C   UNL A   1      39.772  32.218  31.331  1.00  0.00     0.074 A 
ATOM     68  C   UNL A   1      46.216  31.785  31.392  1.00  0.00     0.029 A 
ATOM     69  N   UNL A   1      44.542  33.196  31.629  1.00  0.00    -0.354 N 
ATOM     70  N   UNL A   1      40.444  31.820  32.378  1.00  0.00    -0.248 NA
ATOM     71  C   UNL A   1      40.325  33.384  30.650  1.00  0.00     0.031 C 
ATOM     72  C   UNL A   1      45.318  31.299  32.384  1.00  0.00     0.029 A 
ATOM     73  C   UNL A   1      44.162  32.080  32.331  1.00  0.00     0.049 A 
ATOM     74  H   UNL A   1      44.168  34.101  31.726  1.00  0.00     0.167 HD
ATOM     75  C   UNL A   1      41.695  32.413  32.251  1.00  0.00     0.074 A 
ATOM     76  C   UNL A   1      41.534  33.430  31.217  1.00  0.00     0.031 C 
ATOM     77  C   UNL A   1      42.811  31.831  32.780  1.00  0.00     0.037 A 
BRANCH  64  78
ATOM     78  C   UNL A   1      45.646  34.725  29.028  1.00  0.00     0.064 A 
ATOM     79  C   UNL A   1      44.500  35.497  28.772  1.00  0.00     0.173 A 
ATOM     80  C   UNL A   1      46.877  35.300  28.638  1.00  0.00     0.173 A 
ATOM     81  F   UNL A   1      43.281  35.034  29.085  1.00  0.00    -0.203 F 
ATOM     82  C   UNL A   1      44.578  36.724  28.112  1.00  0.00     0.198 A 
ATOM     83  C   UNL A   1      46.954  36.551  28.036  1.00  0.00     0.198 A 
ATOM     84  F   UNL A   1      48.035  34.634  28.721  1.00  0.00    -0.203 F 
ATOM     85  F   UNL A   1      43.452  37.369  27.778  1.00  0.00    -0.200 F 
ATOM     86  C   UNL A   1      45.804  37.248  27.742  1.00  0.00     0.200 A 
ATOM     87  F   UNL A   1      48.152  37.033  27.672  1.00  0.00    -0.200 F 
ATOM     88  F   UNL A   1      45.875  38.397  27.059  1.00  0.00    -0.200 F 
ENDBRANCH  64  78
BRANCH  65  89
ATOM     89  C   UNL A   1      37.430  31.712  30.265  1.00  0.00     0.064 A 
ATOM     90  C   UNL A   1      36.460  31.760  31.276  1.00  0.00     0.173 A 
ATOM     91  C   UNL A   1      37.053  32.246  29.014  1.00  0.00     0.173 A 
ATOM     92  F   UNL A   1      36.752  31.329  32.511  1.00  0.00    -0.203 F 
ATOM     93  C   UNL A   1      35.191  32.307  31.049  1.00  0.00     0.198 A 
ATOM     94  C   UNL A   1      35.785  32.776  28.784  1.00  0.00     0.198 A 
ATOM     95  F   UNL A   1      37.935  32.348  28.010  1.00  0.00    -0.203 F 
ATOM     96  F   UNL A   1      34.307  32.384  32.054  1.00  0.00    -0.200 F 
ATOM     97  C   UNL A   1      34.855  32.816  29.804  1.00  0.00     0.200 A 
ATOM     98  F   UNL A   1      35.490  33.295  27.584  1.00  0.00    -0.200 F 
ATOM     99  F   UNL A   1      33.657  33.379  29.599  1.00  0.00    -0.200 F 
ENDBRANCH  65  89
BRANCH  77 100
ATOM    100  C   UNL A   1      42.620  30.651  33.692  1.00  0.00     0.064 A 
ATOM    101  C   UNL A   1      42.605  29.321  33.237  1.00  0.00     0.173 A 
ATOM    102  C   UNL A   1      42.639  30.859  35.077  1.00  0.00     0.173 A 
ATOM    103  F   UNL A   1      42.700  29.041  31.932  1.00  0.00    -0.203 F 
ATOM    104  C   UNL A   1      42.566  28.251  34.128  1.00  0.00     0.198 A 
ATOM    105  C   UNL A   1      42.639  29.788  35.966  1.00  0.00     0.198 A 
ATOM    106  F   UNL A   1      42.720  32.105  35.568  1.00  0.00    -0.203 F 
ATOM    107  F   UNL A   1      42.548  26.992  33.666  1.00  0.00    -0.200 F 
ATOM    108  C   UNL A   1      42.593  28.486  35.492  1.00  0.00     0.200 A 
ATOM    109  F   UNL A   1      42.721  30.015  37.284  1.00  0.00    -0.200 F 
ATOM    110  F   UNL A   1      42.609  27.456  36.351  1.00  0.00    -0.200 F 
ENDBRANCH  77 100
ENDBRANCH  51  52
ENDBRANCH  44  46
ENDBRANCH  43  44
ENDBRANCH  42  43
ENDBRANCH  41  42
ENDBRANCH  40  41
ENDBRANCH  39  40
ENDBRANCH  38  39
ENDBRANCH  37  38
ENDBRANCH   1  37
TORSDOF 24
ENDMDL
