MODEL 1
REMARK VINA RESULT:      -9.0      0.000      0.000
REMARK SMILES COc1ccc2[nH]cc([C@H](C(=O)OCCOCCOCCOCCOC(=O)c3ccc(-c4c5nc(c(-c6c(F)c(F)c(F)c(F)c6F)c6ccc([nH]6)c(-c6c(F)c(F)c(F)c(F)c6F)c6nc(c(-c7c(F)c(F)c(F)c(F)c7F)c7ccc4[nH]7)C=C6)C=C5)cc3)[NH+]3CC[NH+](Cc4cccc5ccccc45)CC3)c2c1
REMARK SMILES IDX 18 1 17 2 16 3 15 4 14 5 13 6 11 7 12 8 10 9 9 10 3 11 4 12
REMARK SMILES IDX 109 13 5 14 108 15 6 16 7 17 8 18 2 20 1 21 91 22 92 23
REMARK SMILES IDX 107 24 93 26 106 27 94 28 95 30 96 31 97 32 105 33 98 34
REMARK SMILES IDX 100 35 104 36 99 37 101 38 103 39 102 40 19 41 20 42 21 43
REMARK SMILES IDX 22 44 23 45 24 46 25 47 26 48 27 49 28 50 29 51 90 52 30 53
REMARK SMILES IDX 89 54 31 55 32 56 33 57 83 58 34 59 88 60 82 61 84 62 35 63
REMARK SMILES IDX 87 64 81 65 80 66 36 68 68 69 48 70 67 71 49 72 52 73 66 74
REMARK SMILES IDX 85 75 50 76 51 77 65 79 86 80 53 81 37 82 38 83 46 84 39 85
REMARK SMILES IDX 40 86 44 87 47 88 41 89 42 90 45 91 43 92 69 93 70 94 78 95
REMARK SMILES IDX 71 96 72 97 76 98 79 99 73 100 74 101 77 102 75 103 54 104
REMARK SMILES IDX 55 105 63 106 56 107 57 108 61 109 64 110 58 111 59 112
REMARK SMILES IDX 62 113 60 114
REMARK H PARENT 7 19 91 25 94 29 84 67 52 78
REMARK Flexibility Score: inf
ROOT
ATOM      1  C   UNL A   1      43.393  28.786  26.781  1.00  0.00     0.188 C 
ENDROOT
BRANCH   1   2
ATOM      2  C   UNL A   1      43.864  29.397  28.103  1.00  0.00     0.188 C 
BRANCH   2   3
ATOM      3  O   UNL A   1      44.425  28.521  29.072  1.00  0.00    -0.376 OA
BRANCH   3   4
ATOM      4  C   UNL A   1      44.496  27.135  28.711  1.00  0.00     0.202 C 
BRANCH   4   5
ATOM      5  C   UNL A   1      43.549  26.184  29.456  1.00  0.00     0.261 C 
BRANCH   5   6
ATOM      6  O   UNL A   1      44.120  24.856  29.521  1.00  0.00    -0.459 OA
BRANCH   6   7
ATOM      7  C   UNL A   1      43.261  23.815  29.344  1.00  0.00     0.370 C 
ATOM      8  O   UNL A   1      43.108  22.936  30.192  1.00  0.00    -0.245 OA
BRANCH   7   9
ATOM      9  C   UNL A   1      42.546  23.785  27.972  1.00  0.00     0.328 C 
BRANCH   9  10
ATOM     10  C   UNL A   1      43.178  22.821  26.967  1.00  0.00     0.046 A 
ATOM     11  C   UNL A   1      45.989  24.034  24.620  1.00  0.00     0.119 A 
ATOM     12  C   UNL A   1      46.313  22.786  24.105  1.00  0.00     0.048 A 
ATOM     13  C   UNL A   1      44.944  24.166  25.540  1.00  0.00     0.057 A 
ATOM     14  C   UNL A   1      45.578  21.654  24.478  1.00  0.00     0.030 A 
ATOM     15  C   UNL A   1      44.216  23.045  25.986  1.00  0.00     0.013 A 
ATOM     16  C   UNL A   1      44.544  21.813  25.415  1.00  0.00     0.046 A 
ATOM     17  N   UNL A   1      43.695  20.882  25.958  1.00  0.00    -0.361 N 
ATOM     18  C   UNL A   1      42.864  21.471  26.870  1.00  0.00     0.094 A 
ATOM     19  H   UNL A   1      43.684  19.925  25.725  1.00  0.00     0.166 HD
BRANCH  11  20
ATOM     20  O   UNL A   1      46.720  25.167  24.376  1.00  0.00    -0.497 OA
ATOM     21  C   UNL A   1      46.455  26.228  25.291  1.00  0.00     0.278 C 
ENDBRANCH  11  20
ENDBRANCH   9  10
BRANCH   9  22
ATOM     22  N   UNL A   1      41.071  23.711  27.973  1.00  0.00    -0.310 N 
ATOM     23  C   UNL A   1      40.203  24.873  27.937  1.00  0.00     0.325 C 
ATOM     24  C   UNL A   1      40.376  22.476  27.638  1.00  0.00     0.325 C 
ATOM     25  H   UNL A   1      41.368  23.703  28.949  1.00  0.00     0.349 HD
ATOM     26  C   UNL A   1      39.431  24.984  26.618  1.00  0.00     0.324 C 
ATOM     27  C   UNL A   1      39.469  22.553  26.372  1.00  0.00     0.324 C 
ATOM     28  N   UNL A   1      38.728  23.794  26.138  1.00  0.00    -0.322 N 
ATOM     29  H   UNL A   1      38.736  23.897  25.123  1.00  0.00     0.348 HD
BRANCH  28  30
ATOM     30  C   UNL A   1      37.277  23.753  26.312  1.00  0.00     0.300 C 
BRANCH  30  31
ATOM     31  C   UNL A   1      36.476  23.774  25.028  1.00  0.00     0.014 A 
ATOM     32  C   UNL A   1      36.999  23.078  23.924  1.00  0.00     0.010 A 
ATOM     33  C   UNL A   1      35.163  24.316  24.969  1.00  0.00    -0.010 A 
ATOM     34  C   UNL A   1      36.199  22.791  22.829  1.00  0.00     0.001 A 
ATOM     35  C   UNL A   1      34.326  23.918  23.903  1.00  0.00    -0.018 A 
ATOM     36  C   UNL A   1      34.619  25.197  25.936  1.00  0.00     0.009 A 
ATOM     37  C   UNL A   1      34.857  23.161  22.845  1.00  0.00     0.009 A 
ATOM     38  C   UNL A   1      32.965  24.260  23.927  1.00  0.00     0.009 A 
ATOM     39  C   UNL A   1      33.273  25.558  25.929  1.00  0.00     0.001 A 
ATOM     40  C   UNL A   1      32.437  25.056  24.944  1.00  0.00     0.001 A 
ENDBRANCH  30  31
ENDBRANCH  28  30
ENDBRANCH   9  22
ENDBRANCH   7   9
ENDBRANCH   6   7
ENDBRANCH   5   6
ENDBRANCH   4   5
ENDBRANCH   3   4
ENDBRANCH   2   3
ENDBRANCH   1   2
BRANCH   1  41
ATOM     41  O   UNL A   1      41.994  28.766  26.586  1.00  0.00    -0.377 OA
BRANCH  41  42
ATOM     42  C   UNL A   1      41.187  28.973  27.731  1.00  0.00     0.188 C 
BRANCH  42  43
ATOM     43  C   UNL A   1      39.663  28.888  27.545  1.00  0.00     0.188 C 
BRANCH  43  44
ATOM     44  O   UNL A   1      38.812  29.437  28.543  1.00  0.00    -0.376 OA
BRANCH  44  45
ATOM     45  C   UNL A   1      37.459  28.996  28.593  1.00  0.00     0.202 C 
BRANCH  45  46
ATOM     46  C   UNL A   1      36.599  29.654  29.667  1.00  0.00     0.261 C 
BRANCH  46  47
ATOM     47  O   UNL A   1      36.785  31.080  29.636  1.00  0.00    -0.460 OA
BRANCH  47  48
ATOM     48  C   UNL A   1      36.148  31.781  30.588  1.00  0.00     0.338 C 
ATOM     49  O   UNL A   1      34.984  32.163  30.594  1.00  0.00    -0.246 OA
BRANCH  48  50
ATOM     50  C   UNL A   1      37.040  31.952  31.740  1.00  0.00     0.060 A 
ATOM     51  C   UNL A   1      38.297  32.522  31.516  1.00  0.00     0.016 A 
ATOM     52  C   UNL A   1      36.700  31.428  32.989  1.00  0.00     0.016 A 
ATOM     53  C   UNL A   1      39.254  32.502  32.526  1.00  0.00     0.010 A 
ATOM     54  C   UNL A   1      37.662  31.408  34.003  1.00  0.00     0.010 A 
ATOM     55  C   UNL A   1      38.959  31.892  33.754  1.00  0.00    -0.014 A 
BRANCH  55  56
ATOM     56  C   UNL A   1      40.075  31.553  34.671  1.00  0.00     0.031 A 
ATOM     57  C   UNL A   1      40.406  32.515  35.781  1.00  0.00     0.074 A 
ATOM     58  C   UNL A   1      40.741  30.391  34.561  1.00  0.00     0.049 A 
ATOM     59  N   UNL A   1      41.328  32.435  36.706  1.00  0.00    -0.248 NA
ATOM     60  C   UNL A   1      39.582  33.733  35.860  1.00  0.00     0.031 C 
ATOM     61  C   UNL A   1      40.483  29.361  33.559  1.00  0.00     0.029 A 
ATOM     62  N   UNL A   1      41.774  29.887  35.309  1.00  0.00    -0.354 N 
ATOM     63  C   UNL A   1      41.197  33.588  37.469  1.00  0.00     0.074 A 
ATOM     64  C   UNL A   1      40.134  34.371  36.880  1.00  0.00     0.031 C 
ATOM     65  C   UNL A   1      41.342  28.345  33.751  1.00  0.00     0.029 A 
ATOM     66  C   UNL A   1      42.226  28.668  34.870  1.00  0.00     0.049 A 
ATOM     67  H   UNL A   1      42.157  30.356  36.086  1.00  0.00     0.167 HD
ATOM     68  C   UNL A   1      41.891  33.956  38.573  1.00  0.00     0.037 A 
ATOM     69  C   UNL A   1      43.247  27.910  35.316  1.00  0.00     0.037 A 
ATOM     70  C   UNL A   1      42.946  33.176  39.163  1.00  0.00     0.049 A 
ATOM     71  C   UNL A   1      44.054  28.378  36.501  1.00  0.00     0.074 A 
ATOM     72  C   UNL A   1      43.698  33.454  40.290  1.00  0.00     0.029 A 
ATOM     73  N   UNL A   1      43.401  31.964  38.665  1.00  0.00    -0.354 N 
ATOM     74  N   UNL A   1      43.906  29.454  37.235  1.00  0.00    -0.248 NA
ATOM     75  C   UNL A   1      45.170  27.518  36.923  1.00  0.00     0.031 C 
ATOM     76  C   UNL A   1      44.646  32.437  40.443  1.00  0.00     0.029 A 
ATOM     77  C   UNL A   1      44.444  31.496  39.447  1.00  0.00     0.049 A 
ATOM     78  H   UNL A   1      43.037  31.506  37.874  1.00  0.00     0.167 HD
ATOM     79  C   UNL A   1      44.883  29.386  38.220  1.00  0.00     0.074 A 
ATOM     80  C   UNL A   1      45.611  28.154  37.999  1.00  0.00     0.031 C 
ATOM     81  C   UNL A   1      45.153  30.262  39.219  1.00  0.00     0.037 A 
BRANCH  68  82
ATOM     82  C   UNL A   1      41.546  35.276  39.199  1.00  0.00     0.064 A 
ATOM     83  C   UNL A   1      40.509  35.402  40.135  1.00  0.00     0.173 A 
ATOM     84  C   UNL A   1      42.281  36.426  38.876  1.00  0.00     0.173 A 
ATOM     85  F   UNL A   1      39.766  34.336  40.467  1.00  0.00    -0.203 F 
ATOM     86  C   UNL A   1      40.204  36.635  40.705  1.00  0.00     0.198 A 
ATOM     87  C   UNL A   1      41.994  37.652  39.470  1.00  0.00     0.198 A 
ATOM     88  F   UNL A   1      43.285  36.360  37.988  1.00  0.00    -0.203 F 
ATOM     89  F   UNL A   1      39.179  36.741  41.561  1.00  0.00    -0.200 F 
ATOM     90  C   UNL A   1      40.951  37.757  40.378  1.00  0.00     0.200 A 
ATOM     91  F   UNL A   1      42.725  38.732  39.161  1.00  0.00    -0.200 F 
ATOM     92  F   UNL A   1      40.662  38.942  40.933  1.00  0.00    -0.200 F 
ENDBRANCH  68  82
BRANCH  69  93
ATOM     93  C   UNL A   1      43.576  26.630  34.635  1.00  0.00     0.064 A 
ATOM     94  C   UNL A   1      42.970  25.426  35.020  1.00  0.00     0.173 A 
ATOM     95  C   UNL A   1      44.526  26.581  33.604  1.00  0.00     0.173 A 
ATOM     96  F   UNL A   1      42.075  25.417  36.018  1.00  0.00    -0.203 F 
ATOM     97  C   UNL A   1      43.318  24.220  34.415  1.00  0.00     0.198 A 
ATOM     98  C   UNL A   1      44.851  25.378  32.980  1.00  0.00     0.198 A 
ATOM     99  F   UNL A   1      45.138  27.703  33.199  1.00  0.00    -0.203 F 
ATOM    100  F   UNL A   1      42.761  23.076  34.838  1.00  0.00    -0.200 F 
ATOM    101  C   UNL A   1      44.254  24.198  33.392  1.00  0.00     0.200 A 
ATOM    102  F   UNL A   1      45.748  25.364  31.984  1.00  0.00    -0.200 F 
ATOM    103  F   UNL A   1      44.587  23.038  32.811  1.00  0.00    -0.200 F 
ENDBRANCH  69  93
BRANCH  81 104
ATOM    104  C   UNL A   1      46.256  29.906  40.176  1.00  0.00     0.064 A 
ATOM    105  C   UNL A   1      47.572  30.351  39.983  1.00  0.00     0.173 A 
ATOM    106  C   UNL A   1      45.980  29.149  41.326  1.00  0.00     0.173 A 
ATOM    107  F   UNL A   1      47.891  31.066  38.895  1.00  0.00    -0.203 F 
ATOM    108  C   UNL A   1      48.577  30.028  40.893  1.00  0.00     0.198 A 
ATOM    109  C   UNL A   1      46.980  28.856  42.248  1.00  0.00     0.198 A 
ATOM    110  F   UNL A   1      44.736  28.707  41.563  1.00  0.00    -0.203 F 
ATOM    111  F   UNL A   1      49.836  30.423  40.664  1.00  0.00    -0.200 F 
ATOM    112  C   UNL A   1      48.279  29.289  42.028  1.00  0.00     0.200 A 
ATOM    113  F   UNL A   1      46.686  28.156  43.353  1.00  0.00    -0.200 F 
ATOM    114  F   UNL A   1      49.245  28.987  42.907  1.00  0.00    -0.200 F 
ENDBRANCH  81 104
ENDBRANCH  55  56
ENDBRANCH  48  50
ENDBRANCH  47  48
ENDBRANCH  46  47
ENDBRANCH  45  46
ENDBRANCH  44  45
ENDBRANCH  43  44
ENDBRANCH  42  43
ENDBRANCH  41  42
ENDBRANCH   1  41
TORSDOF 25
ENDMDL
MODEL 2
REMARK VINA RESULT:      -8.8      1.284      2.441
REMARK SMILES COc1ccc2[nH]cc([C@H](C(=O)OCCOCCOCCOCCOC(=O)c3ccc(-c4c5nc(c(-c6c(F)c(F)c(F)c(F)c6F)c6ccc([nH]6)c(-c6c(F)c(F)c(F)c(F)c6F)c6nc(c(-c7c(F)c(F)c(F)c(F)c7F)c7ccc4[nH]7)C=C6)C=C5)cc3)[NH+]3CC[NH+](Cc4cccc5ccccc45)CC3)c2c1
REMARK SMILES IDX 18 1 17 2 16 3 15 4 14 5 13 6 11 7 12 8 10 9 9 10 3 11 4 12
REMARK SMILES IDX 109 13 5 14 108 15 6 16 7 17 8 18 2 20 1 21 91 22 92 23
REMARK SMILES IDX 107 24 93 26 106 27 94 28 95 30 96 31 97 32 105 33 98 34
REMARK SMILES IDX 100 35 104 36 99 37 101 38 103 39 102 40 19 41 20 42 21 43
REMARK SMILES IDX 22 44 23 45 24 46 25 47 26 48 27 49 28 50 29 51 90 52 30 53
REMARK SMILES IDX 89 54 31 55 32 56 33 57 83 58 34 59 88 60 82 61 84 62 35 63
REMARK SMILES IDX 87 64 81 65 80 66 36 68 68 69 48 70 67 71 49 72 52 73 66 74
REMARK SMILES IDX 85 75 50 76 51 77 65 79 86 80 53 81 37 82 38 83 46 84 39 85
REMARK SMILES IDX 40 86 44 87 47 88 41 89 42 90 45 91 43 92 69 93 70 94 78 95
REMARK SMILES IDX 71 96 72 97 76 98 79 99 73 100 74 101 77 102 75 103 54 104
REMARK SMILES IDX 55 105 63 106 56 107 57 108 61 109 64 110 58 111 59 112
REMARK SMILES IDX 62 113 60 114
REMARK H PARENT 7 19 91 25 94 29 84 67 52 78
REMARK Flexibility Score: inf
ROOT
ATOM      1  C   UNL A   1      43.242  27.969  27.229  1.00  0.00     0.188 C 
ENDROOT
BRANCH   1   2
ATOM      2  C   UNL A   1      43.443  28.135  28.737  1.00  0.00     0.188 C 
BRANCH   2   3
ATOM      3  O   UNL A   1      43.036  27.063  29.578  1.00  0.00    -0.376 OA
BRANCH   3   4
ATOM      4  C   UNL A   1      43.088  25.750  29.006  1.00  0.00     0.202 C 
BRANCH   4   5
ATOM      5  C   UNL A   1      41.756  24.996  28.899  1.00  0.00     0.261 C 
BRANCH   5   6
ATOM      6  O   UNL A   1      41.966  23.577  29.090  1.00  0.00    -0.459 OA
BRANCH   6   7
ATOM      7  C   UNL A   1      41.421  22.749  28.156  1.00  0.00     0.370 C 
ATOM      8  O   UNL A   1      41.071  21.599  28.418  1.00  0.00    -0.245 OA
BRANCH   7   9
ATOM      9  C   UNL A   1      41.339  23.342  26.729  1.00  0.00     0.328 C 
BRANCH   9  10
ATOM     10  C   UNL A   1      42.612  23.145  25.904  1.00  0.00     0.046 A 
ATOM     11  C   UNL A   1      43.911  19.589  25.162  1.00  0.00     0.119 A 
ATOM     12  C   UNL A   1      44.902  19.968  24.267  1.00  0.00     0.048 A 
ATOM     13  C   UNL A   1      43.123  20.559  25.791  1.00  0.00     0.057 A 
ATOM     14  C   UNL A   1      45.144  21.323  24.010  1.00  0.00     0.030 A 
ATOM     15  C   UNL A   1      43.294  21.930  25.518  1.00  0.00     0.013 A 
ATOM     16  C   UNL A   1      44.328  22.274  24.644  1.00  0.00     0.046 A 
ATOM     17  N   UNL A   1      44.337  23.644  24.555  1.00  0.00    -0.361 N 
ATOM     18  C   UNL A   1      43.333  24.176  25.315  1.00  0.00     0.094 A 
ATOM     19  H   UNL A   1      44.976  24.169  24.021  1.00  0.00     0.166 HD
BRANCH  11  20
ATOM     20  O   UNL A   1      43.554  18.286  25.391  1.00  0.00    -0.497 OA
ATOM     21  C   UNL A   1      42.890  18.084  26.635  1.00  0.00     0.278 C 
ENDBRANCH  11  20
ENDBRANCH   9  10
BRANCH   9  22
ATOM     22  N   UNL A   1      40.114  23.076  25.948  1.00  0.00    -0.310 N 
ATOM     23  C   UNL A   1      39.738  21.765  25.454  1.00  0.00     0.325 C 
ATOM     24  C   UNL A   1      39.009  24.026  25.927  1.00  0.00     0.325 C 
ATOM     25  H   UNL A   1      40.836  23.350  25.281  1.00  0.00     0.349 HD
ATOM     26  C   UNL A   1      38.490  21.214  26.153  1.00  0.00     0.324 C 
ATOM     27  C   UNL A   1      37.668  23.487  26.511  1.00  0.00     0.324 C 
ATOM     28  N   UNL A   1      37.321  22.089  26.249  1.00  0.00    -0.322 N 
ATOM     29  H   UNL A   1      36.858  21.786  27.105  1.00  0.00     0.348 HD
BRANCH  28  30
ATOM     30  C   UNL A   1      36.212  21.832  25.332  1.00  0.00     0.300 C 
BRANCH  30  31
ATOM     31  C   UNL A   1      34.855  22.290  25.823  1.00  0.00     0.014 A 
ATOM     32  C   UNL A   1      34.314  21.634  26.943  1.00  0.00     0.010 A 
ATOM     33  C   UNL A   1      34.217  23.448  25.300  1.00  0.00    -0.010 A 
ATOM     34  C   UNL A   1      33.244  22.184  27.632  1.00  0.00     0.001 A 
ATOM     35  C   UNL A   1      33.206  24.057  26.076  1.00  0.00    -0.018 A 
ATOM     36  C   UNL A   1      34.560  24.061  24.070  1.00  0.00     0.009 A 
ATOM     37  C   UNL A   1      32.732  23.415  27.233  1.00  0.00     0.009 A 
ATOM     38  C   UNL A   1      32.706  25.313  25.698  1.00  0.00     0.009 A 
ATOM     39  C   UNL A   1      34.029  25.292  23.689  1.00  0.00     0.001 A 
ATOM     40  C   UNL A   1      33.131  25.937  24.524  1.00  0.00     0.001 A 
ENDBRANCH  30  31
ENDBRANCH  28  30
ENDBRANCH   9  22
ENDBRANCH   7   9
ENDBRANCH   6   7
ENDBRANCH   5   6
ENDBRANCH   4   5
ENDBRANCH   3   4
ENDBRANCH   2   3
ENDBRANCH   1   2
BRANCH   1  41
ATOM     41  O   UNL A   1      41.974  28.351  26.739  1.00  0.00    -0.377 OA
BRANCH  41  42
ATOM     42  C   UNL A   1      41.175  29.151  27.593  1.00  0.00     0.188 C 
BRANCH  42  43
ATOM     43  C   UNL A   1      39.674  28.824  27.664  1.00  0.00     0.188 C 
BRANCH  43  44
ATOM     44  O   UNL A   1      38.930  29.234  28.806  1.00  0.00    -0.376 OA
BRANCH  44  45
ATOM     45  C   UNL A   1      37.646  28.658  29.016  1.00  0.00     0.202 C 
BRANCH  45  46
ATOM     46  C   UNL A   1      36.709  29.464  29.910  1.00  0.00     0.261 C 
BRANCH  46  47
ATOM     47  O   UNL A   1      36.767  30.855  29.549  1.00  0.00    -0.460 OA
BRANCH  47  48
ATOM     48  C   UNL A   1      36.217  31.716  30.423  1.00  0.00     0.338 C 
ATOM     49  O   UNL A   1      35.111  32.238  30.373  1.00  0.00    -0.246 OA
BRANCH  48  50
ATOM     50  C   UNL A   1      37.118  31.882  31.569  1.00  0.00     0.060 A 
ATOM     51  C   UNL A   1      38.378  32.439  31.336  1.00  0.00     0.016 A 
ATOM     52  C   UNL A   1      36.780  31.363  32.821  1.00  0.00     0.016 A 
ATOM     53  C   UNL A   1      39.341  32.413  32.341  1.00  0.00     0.010 A 
ATOM     54  C   UNL A   1      37.747  31.336  33.830  1.00  0.00     0.010 A 
ATOM     55  C   UNL A   1      39.048  31.808  33.572  1.00  0.00    -0.014 A 
BRANCH  55  56
ATOM     56  C   UNL A   1      40.166  31.461  34.483  1.00  0.00     0.031 A 
ATOM     57  C   UNL A   1      40.514  32.424  35.587  1.00  0.00     0.074 A 
ATOM     58  C   UNL A   1      40.819  30.292  34.374  1.00  0.00     0.049 A 
ATOM     59  N   UNL A   1      41.441  32.338  36.507  1.00  0.00    -0.248 NA
ATOM     60  C   UNL A   1      39.703  33.651  35.667  1.00  0.00     0.031 C 
ATOM     61  C   UNL A   1      40.543  29.260  33.378  1.00  0.00     0.029 A 
ATOM     62  N   UNL A   1      41.851  29.780  35.117  1.00  0.00    -0.354 N 
ATOM     63  C   UNL A   1      41.328  33.496  37.266  1.00  0.00     0.074 A 
ATOM     64  C   UNL A   1      40.268  34.287  36.680  1.00  0.00     0.031 C 
ATOM     65  C   UNL A   1      41.392  28.236  33.569  1.00  0.00     0.029 A 
ATOM     66  C   UNL A   1      42.287  28.554  34.681  1.00  0.00     0.049 A 
ATOM     67  H   UNL A   1      42.244  30.248  35.890  1.00  0.00     0.167 HD
ATOM     68  C   UNL A   1      42.032  33.861  38.364  1.00  0.00     0.037 A 
ATOM     69  C   UNL A   1      43.303  27.787  35.124  1.00  0.00     0.037 A 
ATOM     70  C   UNL A   1      43.082  33.072  38.950  1.00  0.00     0.049 A 
ATOM     71  C   UNL A   1      44.122  28.251  36.302  1.00  0.00     0.074 A 
ATOM     72  C   UNL A   1      43.844  33.347  40.071  1.00  0.00     0.029 A 
ATOM     73  N   UNL A   1      43.521  31.853  38.454  1.00  0.00    -0.354 N 
ATOM     74  N   UNL A   1      43.990  29.332  37.032  1.00  0.00    -0.248 NA
ATOM     75  C   UNL A   1      45.232  27.381  36.721  1.00  0.00     0.031 C 
ATOM     76  C   UNL A   1      44.783  32.320  40.223  1.00  0.00     0.029 A 
ATOM     77  C   UNL A   1      44.565  31.378  39.232  1.00  0.00     0.049 A 
ATOM     78  H   UNL A   1      43.147  31.396  37.668  1.00  0.00     0.167 HD
ATOM     79  C   UNL A   1      44.973  29.258  38.011  1.00  0.00     0.074 A 
ATOM     80  C   UNL A   1      45.686  28.017  37.791  1.00  0.00     0.031 C 
ATOM     81  C   UNL A   1      45.259  30.135  39.005  1.00  0.00     0.037 A 
BRANCH  68  82
ATOM     82  C   UNL A   1      41.705  35.187  38.986  1.00  0.00     0.064 A 
ATOM     83  C   UNL A   1      42.383  36.360  38.624  1.00  0.00     0.173 A 
ATOM     84  C   UNL A   1      40.680  35.289  39.938  1.00  0.00     0.173 A 
ATOM     85  F   UNL A   1      43.381  36.315  37.730  1.00  0.00    -0.203 F 
ATOM     86  C   UNL A   1      42.065  37.582  39.212  1.00  0.00     0.198 A 
ATOM     87  C   UNL A   1      40.344  36.517  40.502  1.00  0.00     0.198 A 
ATOM     88  F   UNL A   1      39.998  34.197  40.318  1.00  0.00    -0.203 F 
ATOM     89  F   UNL A   1      42.758  38.682  38.887  1.00  0.00    -0.200 F 
ATOM     90  C   UNL A   1      41.041  37.660  40.145  1.00  0.00     0.200 A 
ATOM     91  F   UNL A   1      39.346  36.591  41.394  1.00  0.00    -0.200 F 
ATOM     92  F   UNL A   1      40.731  38.838  40.705  1.00  0.00    -0.200 F 
ENDBRANCH  68  82
BRANCH  69  93
ATOM     93  C   UNL A   1      43.614  26.501  34.446  1.00  0.00     0.064 A 
ATOM     94  C   UNL A   1      44.416  26.461  33.297  1.00  0.00     0.173 A 
ATOM     95  C   UNL A   1      43.090  25.288  34.917  1.00  0.00     0.173 A 
ATOM     96  F   UNL A   1      44.919  27.597  32.793  1.00  0.00    -0.203 F 
ATOM     97  C   UNL A   1      44.664  25.261  32.634  1.00  0.00     0.198 A 
ATOM     98  C   UNL A   1      43.362  24.085  34.270  1.00  0.00     0.198 A 
ATOM     99  F   UNL A   1      42.313  25.271  36.011  1.00  0.00    -0.203 F 
ATOM    100  F   UNL A   1      45.392  25.258  31.509  1.00  0.00    -0.200 F 
ATOM    101  C   UNL A   1      44.141  24.073  33.124  1.00  0.00     0.200 A 
ATOM    102  F   UNL A   1      42.864  22.939  34.754  1.00  0.00    -0.200 F 
ATOM    103  F   UNL A   1      44.380  22.920  32.486  1.00  0.00    -0.200 F 
ENDBRANCH  69  93
BRANCH  81 104
ATOM    104  C   UNL A   1      46.364  29.771  39.956  1.00  0.00     0.064 A 
ATOM    105  C   UNL A   1      47.691  30.166  39.732  1.00  0.00     0.173 A 
ATOM    106  C   UNL A   1      46.081  29.059  41.132  1.00  0.00     0.173 A 
ATOM    107  F   UNL A   1      48.017  30.838  38.617  1.00  0.00    -0.203 F 
ATOM    108  C   UNL A   1      48.698  29.838  40.636  1.00  0.00     0.198 A 
ATOM    109  C   UNL A   1      47.084  28.760  42.049  1.00  0.00     0.198 A 
ATOM    110  F   UNL A   1      44.826  28.665  41.400  1.00  0.00    -0.203 F 
ATOM    111  F   UNL A   1      49.966  30.184  40.378  1.00  0.00    -0.200 F 
ATOM    112  C   UNL A   1      48.393  29.143  41.797  1.00  0.00     0.200 A 
ATOM    113  F   UNL A   1      46.785  28.104  43.178  1.00  0.00    -0.200 F 
ATOM    114  F   UNL A   1      49.362  28.836  42.671  1.00  0.00    -0.200 F 
ENDBRANCH  81 104
ENDBRANCH  55  56
ENDBRANCH  48  50
ENDBRANCH  47  48
ENDBRANCH  46  47
ENDBRANCH  45  46
ENDBRANCH  44  45
ENDBRANCH  43  44
ENDBRANCH  42  43
ENDBRANCH  41  42
ENDBRANCH   1  41
TORSDOF 25
ENDMDL
MODEL 3
REMARK VINA RESULT:      -8.8      5.535     11.814
REMARK SMILES COc1ccc2[nH]cc([C@H](C(=O)OCCOCCOCCOCCOC(=O)c3ccc(-c4c5nc(c(-c6c(F)c(F)c(F)c(F)c6F)c6ccc([nH]6)c(-c6c(F)c(F)c(F)c(F)c6F)c6nc(c(-c7c(F)c(F)c(F)c(F)c7F)c7ccc4[nH]7)C=C6)C=C5)cc3)[NH+]3CC[NH+](Cc4cccc5ccccc45)CC3)c2c1
REMARK SMILES IDX 18 1 17 2 16 3 15 4 14 5 13 6 11 7 12 8 10 9 9 10 3 11 4 12
REMARK SMILES IDX 109 13 5 14 108 15 6 16 7 17 8 18 2 20 1 21 91 22 92 23
REMARK SMILES IDX 107 24 93 26 106 27 94 28 95 30 96 31 97 32 105 33 98 34
REMARK SMILES IDX 100 35 104 36 99 37 101 38 103 39 102 40 19 41 20 42 21 43
REMARK SMILES IDX 22 44 23 45 24 46 25 47 26 48 27 49 28 50 29 51 90 52 30 53
REMARK SMILES IDX 89 54 31 55 32 56 33 57 83 58 34 59 88 60 82 61 84 62 35 63
REMARK SMILES IDX 87 64 81 65 80 66 36 68 68 69 48 70 67 71 49 72 52 73 66 74
REMARK SMILES IDX 85 75 50 76 51 77 65 79 86 80 53 81 37 82 38 83 46 84 39 85
REMARK SMILES IDX 40 86 44 87 47 88 41 89 42 90 45 91 43 92 69 93 70 94 78 95
REMARK SMILES IDX 71 96 72 97 76 98 79 99 73 100 74 101 77 102 75 103 54 104
REMARK SMILES IDX 55 105 63 106 56 107 57 108 61 109 64 110 58 111 59 112
REMARK SMILES IDX 62 113 60 114
REMARK H PARENT 7 19 91 25 94 29 84 67 52 78
REMARK Flexibility Score: inf
ROOT
ATOM      1  C   UNL A   1      46.013  34.547  37.413  1.00  0.00     0.188 C 
ENDROOT
BRANCH   1   2
ATOM      2  C   UNL A   1      46.124  33.665  38.659  1.00  0.00     0.188 C 
BRANCH   2   3
ATOM      3  O   UNL A   1      46.044  32.257  38.479  1.00  0.00    -0.376 OA
BRANCH   3   4
ATOM      4  C   UNL A   1      45.143  31.795  37.463  1.00  0.00     0.202 C 
BRANCH   4   5
ATOM      5  C   UNL A   1      43.729  31.414  37.922  1.00  0.00     0.261 C 
BRANCH   5   6
ATOM      6  O   UNL A   1      43.362  30.119  37.391  1.00  0.00    -0.459 OA
BRANCH   6   7
ATOM      7  C   UNL A   1      42.494  30.116  36.341  1.00  0.00     0.370 C 
ATOM      8  O   UNL A   1      41.302  29.840  36.473  1.00  0.00    -0.245 OA
BRANCH   7   9
ATOM      9  C   UNL A   1      43.134  30.419  34.966  1.00  0.00     0.328 C 
BRANCH   9  10
ATOM     10  C   UNL A   1      43.759  29.196  34.293  1.00  0.00     0.046 A 
ATOM     11  C   UNL A   1      42.803  25.643  35.451  1.00  0.00     0.119 A 
ATOM     12  C   UNL A   1      43.459  24.964  34.433  1.00  0.00     0.048 A 
ATOM     13  C   UNL A   1      42.871  27.039  35.524  1.00  0.00     0.057 A 
ATOM     14  C   UNL A   1      44.219  25.667  33.489  1.00  0.00     0.030 A 
ATOM     15  C   UNL A   1      43.576  27.788  34.562  1.00  0.00     0.013 A 
ATOM     16  C   UNL A   1      44.256  27.068  33.577  1.00  0.00     0.046 A 
ATOM     17  N   UNL A   1      44.897  27.985  32.782  1.00  0.00    -0.361 N 
ATOM     18  C   UNL A   1      44.625  29.255  33.208  1.00  0.00     0.094 A 
ATOM     19  H   UNL A   1      45.472  27.760  32.014  1.00  0.00     0.166 HD
BRANCH  11  20
ATOM     20  O   UNL A   1      41.968  25.035  36.350  1.00  0.00    -0.497 OA
ATOM     21  C   UNL A   1      41.270  25.949  37.193  1.00  0.00     0.278 C 
ENDBRANCH  11  20
ENDBRANCH   9  10
BRANCH   9  22
ATOM     22  N   UNL A   1      42.360  31.249  34.021  1.00  0.00    -0.310 N 
ATOM     23  C   UNL A   1      41.389  30.716  33.084  1.00  0.00     0.325 C 
ATOM     24  C   UNL A   1      42.237  32.689  34.204  1.00  0.00     0.325 C 
ATOM     25  H   UNL A   1      43.241  31.019  33.560  1.00  0.00     0.349 HD
ATOM     26  C   UNL A   1      39.955  31.134  33.429  1.00  0.00     0.324 C 
ATOM     27  C   UNL A   1      40.783  33.201  34.437  1.00  0.00     0.324 C 
ATOM     28  N   UNL A   1      39.703  32.551  33.691  1.00  0.00    -0.322 N 
ATOM     29  H   UNL A   1      38.922  32.544  34.346  1.00  0.00     0.348 HD
BRANCH  28  30
ATOM     30  C   UNL A   1      39.057  33.326  32.633  1.00  0.00     0.300 C 
BRANCH  30  31
ATOM     31  C   UNL A   1      37.637  32.912  32.312  1.00  0.00     0.014 A 
ATOM     32  C   UNL A   1      36.775  32.652  33.391  1.00  0.00     0.010 A 
ATOM     33  C   UNL A   1      37.124  32.949  30.986  1.00  0.00    -0.010 A 
ATOM     34  C   UNL A   1      35.404  32.573  33.196  1.00  0.00     0.001 A 
ATOM     35  C   UNL A   1      35.722  32.982  30.816  1.00  0.00    -0.018 A 
ATOM     36  C   UNL A   1      37.928  33.001  29.821  1.00  0.00     0.009 A 
ATOM     37  C   UNL A   1      34.880  32.792  31.925  1.00  0.00     0.009 A 
ATOM     38  C   UNL A   1      35.185  33.234  29.543  1.00  0.00     0.009 A 
ATOM     39  C   UNL A   1      37.379  33.216  28.557  1.00  0.00     0.001 A 
ATOM     40  C   UNL A   1      36.009  33.372  28.425  1.00  0.00     0.001 A 
ENDBRANCH  30  31
ENDBRANCH  28  30
ENDBRANCH   9  22
ENDBRANCH   7   9
ENDBRANCH   6   7
ENDBRANCH   5   6
ENDBRANCH   4   5
ENDBRANCH   3   4
ENDBRANCH   2   3
ENDBRANCH   1   2
BRANCH   1  41
ATOM     41  O   UNL A   1      44.883  35.393  37.367  1.00  0.00    -0.377 OA
BRANCH  41  42
ATOM     42  C   UNL A   1      45.126  36.786  37.454  1.00  0.00     0.188 C 
BRANCH  42  43
ATOM     43  C   UNL A   1      44.811  37.636  36.212  1.00  0.00     0.188 C 
BRANCH  43  44
ATOM     44  O   UNL A   1      45.817  38.494  35.687  1.00  0.00    -0.376 OA
BRANCH  44  45
ATOM     45  C   UNL A   1      46.630  38.008  34.624  1.00  0.00     0.202 C 
BRANCH  45  46
ATOM     46  C   UNL A   1      45.940  37.045  33.664  1.00  0.00     0.261 C 
BRANCH  46  47
ATOM     47  O   UNL A   1      46.884  36.069  33.188  1.00  0.00    -0.460 OA
BRANCH  47  48
ATOM     48  C   UNL A   1      47.040  35.998  31.855  1.00  0.00     0.338 C 
ATOM     49  O   UNL A   1      47.758  36.686  31.141  1.00  0.00    -0.246 OA
BRANCH  48  50
ATOM     50  C   UNL A   1      46.280  34.854  31.341  1.00  0.00     0.060 A 
ATOM     51  C   UNL A   1      45.873  33.874  32.252  1.00  0.00     0.016 A 
ATOM     52  C   UNL A   1      46.099  34.678  29.967  1.00  0.00     0.016 A 
ATOM     53  C   UNL A   1      45.348  32.673  31.785  1.00  0.00     0.010 A 
ATOM     54  C   UNL A   1      45.571  33.471  29.499  1.00  0.00     0.010 A 
ATOM     55  C   UNL A   1      45.250  32.444  30.405  1.00  0.00    -0.014 A 
BRANCH  55  56
ATOM     56  C   UNL A   1      45.042  31.056  29.923  1.00  0.00     0.031 A 
ATOM     57  C   UNL A   1      43.631  30.580  29.702  1.00  0.00     0.074 A 
ATOM     58  C   UNL A   1      46.081  30.256  29.628  1.00  0.00     0.049 A 
ATOM     59  N   UNL A   1      43.200  29.418  29.281  1.00  0.00    -0.248 NA
ATOM     60  C   UNL A   1      42.559  31.547  29.992  1.00  0.00     0.031 C 
ATOM     61  C   UNL A   1      47.489  30.619  29.756  1.00  0.00     0.029 A 
ATOM     62  N   UNL A   1      46.102  28.968  29.158  1.00  0.00    -0.354 N 
ATOM     63  C   UNL A   1      41.814  29.514  29.262  1.00  0.00     0.074 A 
ATOM     64  C   UNL A   1      41.472  30.833  29.749  1.00  0.00     0.031 C 
ATOM     65  C   UNL A   1      48.242  29.572  29.378  1.00  0.00     0.029 A 
ATOM     66  C   UNL A   1      47.368  28.459  29.008  1.00  0.00     0.049 A 
ATOM     67  H   UNL A   1      45.288  28.456  28.949  1.00  0.00     0.167 HD
ATOM     68  C   UNL A   1      40.907  28.593  28.861  1.00  0.00     0.037 A 
ATOM     69  C   UNL A   1      47.769  27.229  28.631  1.00  0.00     0.037 A 
ATOM     70  C   UNL A   1      41.246  27.283  28.373  1.00  0.00     0.049 A 
ATOM     71  C   UNL A   1      46.736  26.195  28.261  1.00  0.00     0.074 A 
ATOM     72  C   UNL A   1      40.401  26.282  27.927  1.00  0.00     0.029 A 
ATOM     73  N   UNL A   1      42.539  26.790  28.274  1.00  0.00    -0.354 N 
ATOM     74  N   UNL A   1      45.430  26.303  28.217  1.00  0.00    -0.248 NA
ATOM     75  C   UNL A   1      47.237  24.865  27.881  1.00  0.00     0.031 C 
ATOM     76  C   UNL A   1      41.179  25.164  27.610  1.00  0.00     0.029 A 
ATOM     77  C   UNL A   1      42.512  25.489  27.801  1.00  0.00     0.049 A 
ATOM     78  H   UNL A   1      43.353  27.291  28.506  1.00  0.00     0.167 HD
ATOM     79  C   UNL A   1      44.956  25.073  27.777  1.00  0.00     0.074 A 
ATOM     80  C   UNL A   1      46.117  24.237  27.553  1.00  0.00     0.031 C 
ATOM     81  C   UNL A   1      43.677  24.672  27.574  1.00  0.00     0.037 A 
BRANCH  68  82
ATOM     82  C   UNL A   1      39.455  28.963  28.959  1.00  0.00     0.064 A 
ATOM     83  C   UNL A   1      38.764  28.926  30.179  1.00  0.00     0.173 A 
ATOM     84  C   UNL A   1      38.753  29.385  27.820  1.00  0.00     0.173 A 
ATOM     85  F   UNL A   1      39.385  28.515  31.295  1.00  0.00    -0.203 F 
ATOM     86  C   UNL A   1      37.418  29.273  30.251  1.00  0.00     0.198 A 
ATOM     87  C   UNL A   1      37.415  29.761  27.901  1.00  0.00     0.198 A 
ATOM     88  F   UNL A   1      39.368  29.441  26.629  1.00  0.00    -0.203 F 
ATOM     89  F   UNL A   1      36.765  29.185  31.418  1.00  0.00    -0.200 F 
ATOM     90  C   UNL A   1      36.746  29.697  29.113  1.00  0.00     0.200 A 
ATOM     91  F   UNL A   1      36.773  30.181  26.802  1.00  0.00    -0.200 F 
ATOM     92  F   UNL A   1      35.453  30.039  29.184  1.00  0.00    -0.200 F 
ENDBRANCH  68  82
BRANCH  69  93
ATOM     93  C   UNL A   1      49.217  26.899  28.591  1.00  0.00     0.064 A 
ATOM     94  C   UNL A   1      49.865  26.335  29.698  1.00  0.00     0.173 A 
ATOM     95  C   UNL A   1      49.991  27.169  27.452  1.00  0.00     0.173 A 
ATOM     96  F   UNL A   1      49.174  26.082  30.819  1.00  0.00    -0.203 F 
ATOM     97  C   UNL A   1      51.234  26.074  29.677  1.00  0.00     0.198 A 
ATOM     98  C   UNL A   1      51.354  26.881  27.422  1.00  0.00     0.198 A 
ATOM     99  F   UNL A   1      49.423  27.713  26.366  1.00  0.00    -0.203 F 
ATOM    100  F   UNL A   1      51.837  25.582  30.768  1.00  0.00    -0.200 F 
ATOM    101  C   UNL A   1      51.976  26.342  28.536  1.00  0.00     0.200 A 
ATOM    102  F   UNL A   1      52.064  27.131  26.313  1.00  0.00    -0.200 F 
ATOM    103  F   UNL A   1      53.292  26.091  28.516  1.00  0.00    -0.200 F 
ENDBRANCH  69  93
BRANCH  81 104
ATOM    104  C   UNL A   1      43.461  23.281  27.047  1.00  0.00     0.064 A 
ATOM    105  C   UNL A   1      42.840  22.288  27.819  1.00  0.00     0.173 A 
ATOM    106  C   UNL A   1      43.837  22.953  25.735  1.00  0.00     0.173 A 
ATOM    107  F   UNL A   1      42.472  22.546  29.083  1.00  0.00    -0.203 F 
ATOM    108  C   UNL A   1      42.628  21.011  27.306  1.00  0.00     0.198 A 
ATOM    109  C   UNL A   1      43.596  21.685  25.216  1.00  0.00     0.198 A 
ATOM    110  F   UNL A   1      44.427  23.869  24.951  1.00  0.00    -0.203 F 
ATOM    111  F   UNL A   1      42.077  20.064  28.077  1.00  0.00    -0.200 F 
ATOM    112  C   UNL A   1      42.999  20.712  26.003  1.00  0.00     0.200 A 
ATOM    113  F   UNL A   1      43.938  21.404  23.951  1.00  0.00    -0.200 F 
ATOM    114  F   UNL A   1      42.786  19.485  25.508  1.00  0.00    -0.200 F 
ENDBRANCH  81 104
ENDBRANCH  55  56
ENDBRANCH  48  50
ENDBRANCH  47  48
ENDBRANCH  46  47
ENDBRANCH  45  46
ENDBRANCH  44  45
ENDBRANCH  43  44
ENDBRANCH  42  43
ENDBRANCH  41  42
ENDBRANCH   1  41
TORSDOF 25
ENDMDL
