MODEL 1
REMARK VINA RESULT:      -8.6      0.000      0.000
REMARK SMILES COc1cc(C)c(S(=O)(=O)Nc2cc(C(=O)OCCOCCOCCOCCOC(=O)c3ccc(-c4c5nc(c(-c6c(F)c(F)c(F)c(F)c6F)c6ccc([nH]6)c(-c6c(F)c(F)c(F)c(F)c6F)c6nc(c(-c7c(F)c(F)c(F)c(F)c7F)c7ccc4[nH]7)C=C6)C=C5)cc3)ccc2F)cc1OC
REMARK SMILES IDX 22 1 21 2 20 3 19 4 18 5 17 6 15 7 16 8 14 9 12 10 13 11
REMARK SMILES IDX 97 12 96 13 98 14 95 15 11 16 8 18 9 19 10 20 7 21 3 22 4 23
REMARK SMILES IDX 100 24 5 25 99 26 6 27 2 28 1 29 101 30 102 31 23 32 24 33
REMARK SMILES IDX 25 34 26 35 27 36 28 37 29 38 30 39 31 40 32 41 33 42 94 43
REMARK SMILES IDX 34 44 93 45 35 46 36 47 37 48 87 49 38 50 92 51 86 52 88 53
REMARK SMILES IDX 39 54 91 55 85 56 84 57 40 59 72 60 52 61 71 62 53 63 56 64
REMARK SMILES IDX 70 65 89 66 54 67 55 68 69 70 90 71 57 72 41 73 42 74 50 75
REMARK SMILES IDX 43 76 44 77 48 78 51 79 45 80 46 81 49 82 47 83 73 84 74 85
REMARK SMILES IDX 82 86 75 87 76 88 80 89 83 90 77 91 78 92 81 93 79 94 58 95
REMARK SMILES IDX 59 96 67 97 60 98 61 99 65 100 68 101 62 102 63 103 66 104
REMARK SMILES IDX 64 105
REMARK H PARENT 11 17 88 58 56 69
REMARK Flexibility Score: inf
ROOT
ATOM      1  C   UNL A   1      33.325  26.309  25.222  1.00  0.00     0.188 C 
ENDROOT
BRANCH   1   2
ATOM      2  C   UNL A   1      33.782  27.626  24.565  1.00  0.00     0.188 C 
BRANCH   2   3
ATOM      3  O   UNL A   1      33.535  28.866  25.203  1.00  0.00    -0.376 OA
BRANCH   3   4
ATOM      4  C   UNL A   1      33.519  28.925  26.602  1.00  0.00     0.202 C 
BRANCH   4   5
ATOM      5  C   UNL A   1      34.355  30.007  27.266  1.00  0.00     0.261 C 
BRANCH   5   6
ATOM      6  O   UNL A   1      35.308  29.658  28.284  1.00  0.00    -0.460 OA
BRANCH   6   7
ATOM      7  C   UNL A   1      36.536  30.154  28.465  1.00  0.00     0.338 C 
ATOM      8  O   UNL A   1      37.428  30.450  27.675  1.00  0.00    -0.246 OA
BRANCH   7   9
ATOM      9  C   UNL A   1      36.703  30.426  29.879  1.00  0.00     0.062 A 
ATOM     10  C   UNL A   1      36.964  31.984  31.660  1.00  0.00     0.085 A 
ATOM     11  C   UNL A   1      36.863  31.744  30.306  1.00  0.00     0.045 A 
ATOM     12  C   UNL A   1      37.070  30.899  32.548  1.00  0.00     0.147 A 
ATOM     13  C   UNL A   1      36.885  29.588  32.123  1.00  0.00     0.042 A 
ATOM     14  F   UNL A   1      37.222  31.136  33.859  1.00  0.00    -0.205 F 
ATOM     15  C   UNL A   1      36.653  29.351  30.777  1.00  0.00     0.019 A 
BRANCH  10  16
ATOM     16  N   UNL A   1      36.822  33.273  32.222  1.00  0.00    -0.277 N 
ATOM     17  H   UNL A   1      37.588  33.884  32.127  1.00  0.00     0.180 HD
BRANCH  16  18
ATOM     18  S   UNL A   1      35.493  33.864  33.028  1.00  0.00     0.262 S 
ATOM     19  O   UNL A   1      35.968  34.722  34.091  1.00  0.00    -0.201 OA
ATOM     20  O   UNL A   1      34.715  32.682  33.345  1.00  0.00    -0.201 OA
BRANCH  18  21
ATOM     21  C   UNL A   1      34.425  34.861  31.975  1.00  0.00     0.094 A 
ATOM     22  C   UNL A   1      33.233  36.344  29.869  1.00  0.00     0.161 A 
ATOM     23  C   UNL A   1      33.278  36.833  31.183  1.00  0.00     0.055 A 
ATOM     24  C   UNL A   1      33.721  35.065  29.608  1.00  0.00     0.162 A 
ATOM     25  C   UNL A   1      33.863  36.114  32.252  1.00  0.00    -0.027 A 
ATOM     26  C   UNL A   1      34.299  34.341  30.666  1.00  0.00     0.073 A 
ATOM     27  C   UNL A   1      33.816  36.798  33.580  1.00  0.00     0.046 C 
BRANCH  22  28
ATOM     28  O   UNL A   1      32.896  37.193  28.849  1.00  0.00    -0.493 OA
ATOM     29  C   UNL A   1      33.972  37.579  28.001  1.00  0.00     0.278 C 
ENDBRANCH  22  28
BRANCH  24  30
ATOM     30  O   UNL A   1      33.749  34.372  28.431  1.00  0.00    -0.493 OA
ATOM     31  C   UNL A   1      34.906  33.657  28.028  1.00  0.00     0.278 C 
ENDBRANCH  24  30
ENDBRANCH  18  21
ENDBRANCH  16  18
ENDBRANCH  10  16
ENDBRANCH   7   9
ENDBRANCH   6   7
ENDBRANCH   5   6
ENDBRANCH   4   5
ENDBRANCH   3   4
ENDBRANCH   2   3
ENDBRANCH   1   2
BRANCH   1  32
ATOM     32  O   UNL A   1      34.334  25.414  25.673  1.00  0.00    -0.377 OA
BRANCH  32  33
ATOM     33  C   UNL A   1      34.785  24.370  24.814  1.00  0.00     0.188 C 
BRANCH  33  34
ATOM     34  C   UNL A   1      35.206  23.051  25.475  1.00  0.00     0.188 C 
BRANCH  34  35
ATOM     35  O   UNL A   1      36.598  22.838  25.301  1.00  0.00    -0.376 OA
BRANCH  35  36
ATOM     36  C   UNL A   1      37.456  23.891  25.690  1.00  0.00     0.202 C 
BRANCH  36  37
ATOM     37  C   UNL A   1      38.475  23.394  26.716  1.00  0.00     0.261 C 
BRANCH  37  38
ATOM     38  O   UNL A   1      39.434  24.445  26.951  1.00  0.00    -0.460 OA
BRANCH  38  39
ATOM     39  C   UNL A   1      40.735  24.055  27.046  1.00  0.00     0.338 C 
ATOM     40  O   UNL A   1      41.145  22.907  27.001  1.00  0.00    -0.246 OA
BRANCH  39  41
ATOM     41  C   UNL A   1      41.588  25.223  27.409  1.00  0.00     0.060 A 
ATOM     42  C   UNL A   1      42.252  25.270  28.652  1.00  0.00     0.016 A 
ATOM     43  C   UNL A   1      41.536  26.369  26.617  1.00  0.00     0.016 A 
ATOM     44  C   UNL A   1      42.812  26.472  29.124  1.00  0.00     0.010 A 
ATOM     45  C   UNL A   1      42.041  27.560  27.107  1.00  0.00     0.010 A 
ATOM     46  C   UNL A   1      42.676  27.633  28.361  1.00  0.00    -0.014 A 
BRANCH  46  47
ATOM     47  C   UNL A   1      43.050  28.988  28.785  1.00  0.00     0.031 A 
ATOM     48  C   UNL A   1      42.018  29.858  29.386  1.00  0.00     0.074 A 
ATOM     49  C   UNL A   1      44.347  29.346  28.956  1.00  0.00     0.049 A 
ATOM     50  N   UNL A   1      42.188  31.119  29.600  1.00  0.00    -0.248 NA
ATOM     51  C   UNL A   1      40.675  29.411  29.761  1.00  0.00     0.031 C 
ATOM     52  C   UNL A   1      44.881  30.273  29.957  1.00  0.00     0.029 A 
ATOM     53  N   UNL A   1      45.513  28.787  28.419  1.00  0.00    -0.354 N 
ATOM     54  C   UNL A   1      41.253  31.469  30.540  1.00  0.00     0.074 A 
ATOM     55  C   UNL A   1      40.203  30.505  30.366  1.00  0.00     0.031 C 
ATOM     56  C   UNL A   1      46.206  30.421  29.792  1.00  0.00     0.029 A 
ATOM     57  C   UNL A   1      46.592  29.674  28.607  1.00  0.00     0.049 A 
ATOM     58  H   UNL A   1      45.571  27.909  27.978  1.00  0.00     0.167 HD
ATOM     59  C   UNL A   1      41.596  32.376  31.500  1.00  0.00     0.037 A 
ATOM     60  C   UNL A   1      47.360  30.145  27.591  1.00  0.00     0.037 A 
ATOM     61  C   UNL A   1      42.921  32.978  31.226  1.00  0.00     0.049 A 
ATOM     62  C   UNL A   1      46.995  31.577  27.361  1.00  0.00     0.074 A 
ATOM     63  C   UNL A   1      44.105  33.060  31.938  1.00  0.00     0.029 A 
ATOM     64  N   UNL A   1      43.240  33.390  29.921  1.00  0.00    -0.354 N 
ATOM     65  N   UNL A   1      45.989  32.122  27.986  1.00  0.00    -0.248 NA
ATOM     66  C   UNL A   1      47.677  32.524  26.501  1.00  0.00     0.031 C 
ATOM     67  C   UNL A   1      45.139  33.439  31.030  1.00  0.00     0.029 A 
ATOM     68  C   UNL A   1      44.586  33.667  29.776  1.00  0.00     0.049 A 
ATOM     69  H   UNL A   1      42.581  33.472  29.195  1.00  0.00     0.167 HD
ATOM     70  C   UNL A   1      45.952  33.451  27.782  1.00  0.00     0.074 A 
ATOM     71  C   UNL A   1      46.992  33.652  26.781  1.00  0.00     0.031 C 
ATOM     72  C   UNL A   1      45.104  34.234  28.517  1.00  0.00     0.037 A 
BRANCH  59  73
ATOM     73  C   UNL A   1      40.818  32.596  32.797  1.00  0.00     0.064 A 
ATOM     74  C   UNL A   1      40.246  33.854  33.089  1.00  0.00     0.173 A 
ATOM     75  C   UNL A   1      40.619  31.633  33.816  1.00  0.00     0.173 A 
ATOM     76  F   UNL A   1      40.403  34.898  32.264  1.00  0.00    -0.203 F 
ATOM     77  C   UNL A   1      39.494  34.097  34.250  1.00  0.00     0.198 A 
ATOM     78  C   UNL A   1      39.807  31.852  34.934  1.00  0.00     0.198 A 
ATOM     79  F   UNL A   1      41.255  30.460  33.835  1.00  0.00    -0.203 F 
ATOM     80  F   UNL A   1      39.016  35.326  34.487  1.00  0.00    -0.200 F 
ATOM     81  C   UNL A   1      39.243  33.086  35.153  1.00  0.00     0.200 A 
ATOM     82  F   UNL A   1      39.603  30.856  35.809  1.00  0.00    -0.200 F 
ATOM     83  F   UNL A   1      38.489  33.304  36.238  1.00  0.00    -0.200 F 
ENDBRANCH  59  73
BRANCH  60  84
ATOM     84  C   UNL A   1      47.874  29.117  26.655  1.00  0.00     0.064 A 
ATOM     85  C   UNL A   1      48.983  28.351  27.084  1.00  0.00     0.173 A 
ATOM     86  C   UNL A   1      47.101  28.587  25.621  1.00  0.00     0.173 A 
ATOM     87  F   UNL A   1      49.728  28.793  28.104  1.00  0.00    -0.203 F 
ATOM     88  C   UNL A   1      49.218  27.058  26.606  1.00  0.00     0.198 A 
ATOM     89  C   UNL A   1      47.329  27.287  25.151  1.00  0.00     0.198 A 
ATOM     90  F   UNL A   1      46.057  29.276  25.144  1.00  0.00    -0.203 F 
ATOM     91  F   UNL A   1      50.161  26.290  27.171  1.00  0.00    -0.200 F 
ATOM     92  C   UNL A   1      48.358  26.511  25.671  1.00  0.00     0.200 A 
ATOM     93  F   UNL A   1      46.487  26.746  24.259  1.00  0.00    -0.200 F 
ATOM     94  F   UNL A   1      48.464  25.215  25.338  1.00  0.00    -0.200 F 
ENDBRANCH  60  84
BRANCH  72  95
ATOM     95  C   UNL A   1      44.848  35.692  28.253  1.00  0.00     0.064 A 
ATOM     96  C   UNL A   1      45.719  36.721  28.631  1.00  0.00     0.173 A 
ATOM     97  C   UNL A   1      43.689  36.102  27.555  1.00  0.00     0.173 A 
ATOM     98  F   UNL A   1      46.959  36.470  29.070  1.00  0.00    -0.203 F 
ATOM     99  C   UNL A   1      45.358  38.061  28.517  1.00  0.00     0.198 A 
ATOM    100  C   UNL A   1      43.368  37.439  27.369  1.00  0.00     0.198 A 
ATOM    101  F   UNL A   1      42.827  35.231  27.014  1.00  0.00    -0.203 F 
ATOM    102  F   UNL A   1      46.170  39.005  29.010  1.00  0.00    -0.200 F 
ATOM    103  C   UNL A   1      44.176  38.419  27.899  1.00  0.00     0.200 A 
ATOM    104  F   UNL A   1      42.265  37.764  26.681  1.00  0.00    -0.200 F 
ATOM    105  F   UNL A   1      43.831  39.707  27.789  1.00  0.00    -0.200 F 
ENDBRANCH  72  95
ENDBRANCH  46  47
ENDBRANCH  39  41
ENDBRANCH  38  39
ENDBRANCH  37  38
ENDBRANCH  36  37
ENDBRANCH  35  36
ENDBRANCH  34  35
ENDBRANCH  33  34
ENDBRANCH  32  33
ENDBRANCH   1  32
TORSDOF 25
ENDMDL
MODEL 2
REMARK VINA RESULT:      -8.5      4.904      8.021
REMARK SMILES COc1cc(C)c(S(=O)(=O)Nc2cc(C(=O)OCCOCCOCCOCCOC(=O)c3ccc(-c4c5nc(c(-c6c(F)c(F)c(F)c(F)c6F)c6ccc([nH]6)c(-c6c(F)c(F)c(F)c(F)c6F)c6nc(c(-c7c(F)c(F)c(F)c(F)c7F)c7ccc4[nH]7)C=C6)C=C5)cc3)ccc2F)cc1OC
REMARK SMILES IDX 22 1 21 2 20 3 19 4 18 5 17 6 15 7 16 8 14 9 12 10 13 11
REMARK SMILES IDX 97 12 96 13 98 14 95 15 11 16 8 18 9 19 10 20 7 21 3 22 4 23
REMARK SMILES IDX 100 24 5 25 99 26 6 27 2 28 1 29 101 30 102 31 23 32 24 33
REMARK SMILES IDX 25 34 26 35 27 36 28 37 29 38 30 39 31 40 32 41 33 42 94 43
REMARK SMILES IDX 34 44 93 45 35 46 36 47 37 48 87 49 38 50 92 51 86 52 88 53
REMARK SMILES IDX 39 54 91 55 85 56 84 57 40 59 72 60 52 61 71 62 53 63 56 64
REMARK SMILES IDX 70 65 89 66 54 67 55 68 69 70 90 71 57 72 41 73 42 74 50 75
REMARK SMILES IDX 43 76 44 77 48 78 51 79 45 80 46 81 49 82 47 83 73 84 74 85
REMARK SMILES IDX 82 86 75 87 76 88 80 89 83 90 77 91 78 92 81 93 79 94 58 95
REMARK SMILES IDX 59 96 67 97 60 98 61 99 65 100 68 101 62 102 63 103 66 104
REMARK SMILES IDX 64 105
REMARK H PARENT 11 17 88 58 56 69
REMARK Flexibility Score: inf
ROOT
ATOM      1  C   UNL A   1      35.355  17.694  24.699  1.00  0.00     0.188 C 
ENDROOT
BRANCH   1   2
ATOM      2  C   UNL A   1      34.358  17.046  23.718  1.00  0.00     0.188 C 
BRANCH   2   3
ATOM      3  O   UNL A   1      32.975  17.334  23.810  1.00  0.00    -0.376 OA
BRANCH   3   4
ATOM      4  C   UNL A   1      32.450  18.407  23.080  1.00  0.00     0.202 C 
BRANCH   4   5
ATOM      5  C   UNL A   1      32.155  19.692  23.838  1.00  0.00     0.261 C 
BRANCH   5   6
ATOM      6  O   UNL A   1      33.234  20.541  24.262  1.00  0.00    -0.460 OA
BRANCH   6   7
ATOM      7  C   UNL A   1      33.279  21.338  25.335  1.00  0.00     0.338 C 
ATOM      8  O   UNL A   1      33.278  21.098  26.539  1.00  0.00    -0.246 OA
BRANCH   7   9
ATOM      9  C   UNL A   1      33.437  22.703  24.870  1.00  0.00     0.062 A 
ATOM     10  C   UNL A   1      33.215  25.043  25.240  1.00  0.00     0.085 A 
ATOM     11  C   UNL A   1      33.004  23.753  25.678  1.00  0.00     0.045 A 
ATOM     12  C   UNL A   1      33.699  25.261  23.938  1.00  0.00     0.147 A 
ATOM     13  C   UNL A   1      34.153  24.213  23.145  1.00  0.00     0.042 A 
ATOM     14  F   UNL A   1      33.852  26.517  23.496  1.00  0.00    -0.205 F 
ATOM     15  C   UNL A   1      34.062  22.920  23.635  1.00  0.00     0.019 A 
BRANCH  10  16
ATOM     16  N   UNL A   1      33.104  26.168  26.090  1.00  0.00    -0.277 N 
ATOM     17  H   UNL A   1      33.939  26.500  26.494  1.00  0.00     0.180 HD
BRANCH  16  18
ATOM     18  S   UNL A   1      31.710  26.987  26.477  1.00  0.00     0.262 S 
ATOM     19  O   UNL A   1      32.025  27.913  27.543  1.00  0.00    -0.201 OA
ATOM     20  O   UNL A   1      30.731  25.940  26.693  1.00  0.00    -0.201 OA
BRANCH  18  21
ATOM     21  C   UNL A   1      31.065  27.956  25.102  1.00  0.00     0.094 A 
ATOM     22  C   UNL A   1      29.720  29.804  23.421  1.00  0.00     0.161 A 
ATOM     23  C   UNL A   1      29.777  28.436  23.117  1.00  0.00     0.055 A 
ATOM     24  C   UNL A   1      30.405  30.276  24.538  1.00  0.00     0.162 A 
ATOM     25  C   UNL A   1      30.443  27.492  23.935  1.00  0.00    -0.027 A 
ATOM     26  C   UNL A   1      31.075  29.346  25.354  1.00  0.00     0.073 A 
ATOM     27  C   UNL A   1      30.395  26.081  23.448  1.00  0.00     0.046 C 
BRANCH  22  28
ATOM     28  O   UNL A   1      28.846  30.606  22.737  1.00  0.00    -0.493 OA
ATOM     29  C   UNL A   1      29.250  31.964  22.599  1.00  0.00     0.278 C 
ENDBRANCH  22  28
BRANCH  24  30
ATOM     30  O   UNL A   1      30.524  31.554  25.006  1.00  0.00    -0.493 OA
ATOM     31  C   UNL A   1      31.068  31.819  26.289  1.00  0.00     0.278 C 
ENDBRANCH  24  30
ENDBRANCH  18  21
ENDBRANCH  16  18
ENDBRANCH  10  16
ENDBRANCH   7   9
ENDBRANCH   6   7
ENDBRANCH   5   6
ENDBRANCH   4   5
ENDBRANCH   3   4
ENDBRANCH   2   3
ENDBRANCH   1   2
BRANCH   1  32
ATOM     32  O   UNL A   1      35.692  19.060  24.488  1.00  0.00    -0.377 OA
BRANCH  32  33
ATOM     33  C   UNL A   1      36.958  19.548  24.920  1.00  0.00     0.188 C 
BRANCH  33  34
ATOM     34  C   UNL A   1      36.963  20.809  25.793  1.00  0.00     0.188 C 
BRANCH  34  35
ATOM     35  O   UNL A   1      37.611  21.873  25.114  1.00  0.00    -0.376 OA
BRANCH  35  36
ATOM     36  C   UNL A   1      38.819  22.343  25.675  1.00  0.00     0.202 C 
BRANCH  36  37
ATOM     37  C   UNL A   1      38.555  23.557  26.566  1.00  0.00     0.261 C 
BRANCH  37  38
ATOM     38  O   UNL A   1      39.676  24.456  26.455  1.00  0.00    -0.460 OA
BRANCH  38  39
ATOM     39  C   UNL A   1      40.510  24.506  27.531  1.00  0.00     0.338 C 
ATOM     40  O   UNL A   1      41.116  23.563  28.013  1.00  0.00    -0.246 OA
BRANCH  39  41
ATOM     41  C   UNL A   1      40.434  25.852  28.167  1.00  0.00     0.060 A 
ATOM     42  C   UNL A   1      41.592  26.641  28.322  1.00  0.00     0.016 A 
ATOM     43  C   UNL A   1      39.259  26.226  28.817  1.00  0.00     0.016 A 
ATOM     44  C   UNL A   1      41.588  27.766  29.168  1.00  0.00     0.010 A 
ATOM     45  C   UNL A   1      39.274  27.300  29.689  1.00  0.00     0.010 A 
ATOM     46  C   UNL A   1      40.430  28.078  29.882  1.00  0.00    -0.014 A 
BRANCH  46  47
ATOM     47  C   UNL A   1      40.314  29.106  30.924  1.00  0.00     0.031 A 
ATOM     48  C   UNL A   1      39.682  30.398  30.586  1.00  0.00     0.074 A 
ATOM     49  C   UNL A   1      40.451  28.802  32.239  1.00  0.00     0.049 A 
ATOM     50  N   UNL A   1      39.715  31.430  31.360  1.00  0.00    -0.248 NA
ATOM     51  C   UNL A   1      38.993  30.677  29.324  1.00  0.00     0.031 C 
ATOM     52  C   UNL A   1      39.735  29.410  33.363  1.00  0.00     0.029 A 
ATOM     53  N   UNL A   1      41.096  27.721  32.850  1.00  0.00    -0.354 N 
ATOM     54  C   UNL A   1      38.688  32.240  30.949  1.00  0.00     0.074 A 
ATOM     55  C   UNL A   1      38.500  31.895  29.568  1.00  0.00     0.031 C 
ATOM     56  C   UNL A   1      40.167  28.890  34.524  1.00  0.00     0.029 A 
ATOM     57  C   UNL A   1      41.264  27.985  34.225  1.00  0.00     0.049 A 
ATOM     58  H   UNL A   1      41.389  26.900  32.391  1.00  0.00     0.167 HD
ATOM     59  C   UNL A   1      37.973  32.920  31.891  1.00  0.00     0.037 A 
ATOM     60  C   UNL A   1      42.469  27.969  34.849  1.00  0.00     0.037 A 
ATOM     61  C   UNL A   1      38.586  32.791  33.232  1.00  0.00     0.049 A 
ATOM     62  C   UNL A   1      42.861  29.384  35.135  1.00  0.00     0.074 A 
ATOM     63  C   UNL A   1      38.133  32.331  34.456  1.00  0.00     0.029 A 
ATOM     64  N   UNL A   1      39.977  32.925  33.376  1.00  0.00    -0.354 N 
ATOM     65  N   UNL A   1      42.157  30.381  34.676  1.00  0.00    -0.248 NA
ATOM     66  C   UNL A   1      43.978  29.834  35.941  1.00  0.00     0.031 C 
ATOM     67  C   UNL A   1      39.269  32.112  35.293  1.00  0.00     0.029 A 
ATOM     68  C   UNL A   1      40.416  32.508  34.618  1.00  0.00     0.049 A 
ATOM     69  H   UNL A   1      40.570  33.274  32.673  1.00  0.00     0.167 HD
ATOM     70  C   UNL A   1      42.567  31.549  35.202  1.00  0.00     0.074 A 
ATOM     71  C   UNL A   1      43.765  31.166  35.940  1.00  0.00     0.031 C 
ATOM     72  C   UNL A   1      41.826  32.683  35.013  1.00  0.00     0.037 A 
BRANCH  59  73
ATOM     73  C   UNL A   1      36.607  33.560  31.643  1.00  0.00     0.064 A 
ATOM     74  C   UNL A   1      36.173  34.655  32.423  1.00  0.00     0.173 A 
ATOM     75  C   UNL A   1      35.658  33.137  30.682  1.00  0.00     0.173 A 
ATOM     76  F   UNL A   1      36.920  35.134  33.426  1.00  0.00    -0.203 F 
ATOM     77  C   UNL A   1      34.942  35.298  32.212  1.00  0.00     0.198 A 
ATOM     78  C   UNL A   1      34.467  33.825  30.421  1.00  0.00     0.198 A 
ATOM     79  F   UNL A   1      35.782  31.998  29.998  1.00  0.00    -0.203 F 
ATOM     80  F   UNL A   1      34.571  36.303  33.016  1.00  0.00    -0.200 F 
ATOM     81  C   UNL A   1      34.108  34.908  31.187  1.00  0.00     0.200 A 
ATOM     82  F   UNL A   1      33.663  33.404  29.433  1.00  0.00    -0.200 F 
ATOM     83  F   UNL A   1      32.955  35.548  30.955  1.00  0.00    -0.200 F 
ENDBRANCH  59  73
BRANCH  60  84
ATOM     84  C   UNL A   1      43.302  26.770  34.590  1.00  0.00     0.064 A 
ATOM     85  C   UNL A   1      42.880  25.554  35.175  1.00  0.00     0.173 A 
ATOM     86  C   UNL A   1      44.177  26.681  33.507  1.00  0.00     0.173 A 
ATOM     87  F   UNL A   1      42.005  25.584  36.187  1.00  0.00    -0.203 F 
ATOM     88  C   UNL A   1      43.199  24.313  34.614  1.00  0.00     0.198 A 
ATOM     89  C   UNL A   1      44.486  25.439  32.937  1.00  0.00     0.198 A 
ATOM     90  F   UNL A   1      44.641  27.795  32.927  1.00  0.00    -0.203 F 
ATOM     91  F   UNL A   1      42.627  23.193  35.081  1.00  0.00    -0.200 F 
ATOM     92  C   UNL A   1      43.965  24.263  33.464  1.00  0.00     0.200 A 
ATOM     93  F   UNL A   1      45.212  25.387  31.811  1.00  0.00    -0.200 F 
ATOM     94  F   UNL A   1      44.128  23.099  32.815  1.00  0.00    -0.200 F 
ENDBRANCH  60  84
BRANCH  72  95
ATOM     95  C   UNL A   1      42.275  34.066  35.397  1.00  0.00     0.064 A 
ATOM     96  C   UNL A   1      43.441  34.674  34.918  1.00  0.00     0.173 A 
ATOM     97  C   UNL A   1      41.490  34.860  36.266  1.00  0.00     0.173 A 
ATOM     98  F   UNL A   1      44.144  34.149  33.906  1.00  0.00    -0.203 F 
ATOM     99  C   UNL A   1      43.899  35.883  35.434  1.00  0.00     0.198 A 
ATOM    100  C   UNL A   1      41.908  36.103  36.718  1.00  0.00     0.198 A 
ATOM    101  F   UNL A   1      40.284  34.472  36.704  1.00  0.00    -0.203 F 
ATOM    102  F   UNL A   1      45.086  36.360  35.036  1.00  0.00    -0.200 F 
ATOM    103  C   UNL A   1      43.140  36.591  36.344  1.00  0.00     0.200 A 
ATOM    104  F   UNL A   1      41.110  36.815  37.524  1.00  0.00    -0.200 F 
ATOM    105  F   UNL A   1      43.580  37.753  36.838  1.00  0.00    -0.200 F 
ENDBRANCH  72  95
ENDBRANCH  46  47
ENDBRANCH  39  41
ENDBRANCH  38  39
ENDBRANCH  37  38
ENDBRANCH  36  37
ENDBRANCH  35  36
ENDBRANCH  34  35
ENDBRANCH  33  34
ENDBRANCH  32  33
ENDBRANCH   1  32
TORSDOF 25
ENDMDL
MODEL 3
REMARK VINA RESULT:      -8.5      4.143      7.307
REMARK SMILES COc1cc(C)c(S(=O)(=O)Nc2cc(C(=O)OCCOCCOCCOCCOC(=O)c3ccc(-c4c5nc(c(-c6c(F)c(F)c(F)c(F)c6F)c6ccc([nH]6)c(-c6c(F)c(F)c(F)c(F)c6F)c6nc(c(-c7c(F)c(F)c(F)c(F)c7F)c7ccc4[nH]7)C=C6)C=C5)cc3)ccc2F)cc1OC
REMARK SMILES IDX 22 1 21 2 20 3 19 4 18 5 17 6 15 7 16 8 14 9 12 10 13 11
REMARK SMILES IDX 97 12 96 13 98 14 95 15 11 16 8 18 9 19 10 20 7 21 3 22 4 23
REMARK SMILES IDX 100 24 5 25 99 26 6 27 2 28 1 29 101 30 102 31 23 32 24 33
REMARK SMILES IDX 25 34 26 35 27 36 28 37 29 38 30 39 31 40 32 41 33 42 94 43
REMARK SMILES IDX 34 44 93 45 35 46 36 47 37 48 87 49 38 50 92 51 86 52 88 53
REMARK SMILES IDX 39 54 91 55 85 56 84 57 40 59 72 60 52 61 71 62 53 63 56 64
REMARK SMILES IDX 70 65 89 66 54 67 55 68 69 70 90 71 57 72 41 73 42 74 50 75
REMARK SMILES IDX 43 76 44 77 48 78 51 79 45 80 46 81 49 82 47 83 73 84 74 85
REMARK SMILES IDX 82 86 75 87 76 88 80 89 83 90 77 91 78 92 81 93 79 94 58 95
REMARK SMILES IDX 59 96 67 97 60 98 61 99 65 100 68 101 62 102 63 103 66 104
REMARK SMILES IDX 64 105
REMARK H PARENT 11 17 88 58 56 69
REMARK Flexibility Score: inf
ROOT
ATOM      1  C   UNL A   1      34.200  19.057  24.505  1.00  0.00     0.188 C 
ENDROOT
BRANCH   1   2
ATOM      2  C   UNL A   1      32.659  19.009  24.471  1.00  0.00     0.188 C 
BRANCH   2   3
ATOM      3  O   UNL A   1      31.899  19.939  25.221  1.00  0.00    -0.376 OA
BRANCH   3   4
ATOM      4  C   UNL A   1      31.880  21.283  24.830  1.00  0.00     0.202 C 
BRANCH   4   5
ATOM      5  C   UNL A   1      31.368  22.299  25.838  1.00  0.00     0.261 C 
BRANCH   5   6
ATOM      6  O   UNL A   1      32.188  23.420  26.209  1.00  0.00    -0.460 OA
BRANCH   6   7
ATOM      7  C   UNL A   1      31.821  24.700  26.335  1.00  0.00     0.338 C 
ATOM      8  O   UNL A   1      31.715  25.432  27.314  1.00  0.00    -0.246 OA
BRANCH   7   9
ATOM      9  C   UNL A   1      31.613  25.236  25.004  1.00  0.00     0.062 A 
ATOM     10  C   UNL A   1      30.243  26.400  23.444  1.00  0.00     0.085 A 
ATOM     11  C   UNL A   1      30.398  25.848  24.697  1.00  0.00     0.045 A 
ATOM     12  C   UNL A   1      31.233  26.188  22.468  1.00  0.00     0.147 A 
ATOM     13  C   UNL A   1      32.453  25.599  22.784  1.00  0.00     0.042 A 
ATOM     14  F   UNL A   1      31.055  26.681  21.234  1.00  0.00    -0.205 F 
ATOM     15  C   UNL A   1      32.664  25.158  24.080  1.00  0.00     0.019 A 
BRANCH  10  16
ATOM     16  N   UNL A   1      29.199  27.299  23.126  1.00  0.00    -0.277 N 
ATOM     17  H   UNL A   1      28.297  26.913  23.036  1.00  0.00     0.180 HD
BRANCH  16  18
ATOM     18  S   UNL A   1      29.337  28.938  22.888  1.00  0.00     0.262 S 
ATOM     19  O   UNL A   1      28.019  29.517  23.033  1.00  0.00    -0.201 OA
ATOM     20  O   UNL A   1      30.046  29.057  21.629  1.00  0.00    -0.201 OA
BRANCH  18  21
ATOM     21  C   UNL A   1      30.405  29.731  24.104  1.00  0.00     0.094 A 
ATOM     22  C   UNL A   1      31.975  30.419  26.365  1.00  0.00     0.161 A 
ATOM     23  C   UNL A   1      31.071  31.324  25.791  1.00  0.00     0.055 A 
ATOM     24  C   UNL A   1      32.158  29.175  25.763  1.00  0.00     0.162 A 
ATOM     25  C   UNL A   1      30.278  31.010  24.662  1.00  0.00    -0.027 A 
ATOM     26  C   UNL A   1      31.378  28.856  24.638  1.00  0.00     0.073 A 
ATOM     27  C   UNL A   1      29.374  32.103  24.194  1.00  0.00     0.046 C 
BRANCH  22  28
ATOM     28  O   UNL A   1      32.506  30.692  27.598  1.00  0.00    -0.493 OA
ATOM     29  C   UNL A   1      33.741  31.398  27.583  1.00  0.00     0.278 C 
ENDBRANCH  22  28
BRANCH  24  30
ATOM     30  O   UNL A   1      32.999  28.158  26.116  1.00  0.00    -0.493 OA
ATOM     31  C   UNL A   1      34.365  28.169  25.735  1.00  0.00     0.278 C 
ENDBRANCH  24  30
ENDBRANCH  18  21
ENDBRANCH  16  18
ENDBRANCH  10  16
ENDBRANCH   7   9
ENDBRANCH   6   7
ENDBRANCH   5   6
ENDBRANCH   4   5
ENDBRANCH   3   4
ENDBRANCH   2   3
ENDBRANCH   1   2
BRANCH   1  32
ATOM     32  O   UNL A   1      34.818  20.339  24.502  1.00  0.00    -0.377 OA
BRANCH  32  33
ATOM     33  C   UNL A   1      35.642  20.725  25.598  1.00  0.00     0.188 C 
BRANCH  33  34
ATOM     34  C   UNL A   1      35.340  22.075  26.261  1.00  0.00     0.188 C 
BRANCH  34  35
ATOM     35  O   UNL A   1      36.363  23.010  25.958  1.00  0.00    -0.376 OA
BRANCH  35  36
ATOM     36  C   UNL A   1      37.531  22.499  25.348  1.00  0.00     0.202 C 
BRANCH  36  37
ATOM     37  C   UNL A   1      38.746  22.738  26.245  1.00  0.00     0.261 C 
BRANCH  37  38
ATOM     38  O   UNL A   1      39.059  24.146  26.221  1.00  0.00    -0.460 OA
BRANCH  38  39
ATOM     39  C   UNL A   1      40.196  24.516  26.874  1.00  0.00     0.338 C 
ATOM     40  O   UNL A   1      41.175  23.813  27.063  1.00  0.00    -0.246 OA
BRANCH  39  41
ATOM     41  C   UNL A   1      40.004  25.854  27.504  1.00  0.00     0.060 A 
ATOM     42  C   UNL A   1      40.852  26.931  27.176  1.00  0.00     0.016 A 
ATOM     43  C   UNL A   1      39.136  25.971  28.587  1.00  0.00     0.016 A 
ATOM     44  C   UNL A   1      40.871  28.097  27.964  1.00  0.00     0.010 A 
ATOM     45  C   UNL A   1      39.195  27.097  29.390  1.00  0.00     0.010 A 
ATOM     46  C   UNL A   1      40.060  28.167  29.097  1.00  0.00    -0.014 A 
BRANCH  46  47
ATOM     47  C   UNL A   1      40.086  29.232  30.109  1.00  0.00     0.031 A 
ATOM     48  C   UNL A   1      39.288  30.454  29.880  1.00  0.00     0.074 A 
ATOM     49  C   UNL A   1      40.531  29.002  31.370  1.00  0.00     0.049 A 
ATOM     50  N   UNL A   1      39.401  31.521  30.597  1.00  0.00    -0.248 NA
ATOM     51  C   UNL A   1      38.321  30.619  28.793  1.00  0.00     0.031 C 
ATOM     52  C   UNL A   1      40.027  29.606  32.605  1.00  0.00     0.029 A 
ATOM     53  N   UNL A   1      41.383  28.003  31.855  1.00  0.00    -0.354 N 
ATOM     54  C   UNL A   1      38.245  32.230  30.398  1.00  0.00     0.074 A 
ATOM     55  C   UNL A   1      37.790  31.806  29.104  1.00  0.00     0.031 C 
ATOM     56  C   UNL A   1      40.744  29.177  33.657  1.00  0.00     0.029 A 
ATOM     57  C   UNL A   1      41.822  28.345  33.150  1.00  0.00     0.049 A 
ATOM     58  H   UNL A   1      41.638  27.186  31.367  1.00  0.00     0.167 HD
ATOM     59  C   UNL A   1      37.696  32.898  31.455  1.00  0.00     0.037 A 
ATOM     60  C   UNL A   1      43.132  28.451  33.493  1.00  0.00     0.037 A 
ATOM     61  C   UNL A   1      38.595  32.880  32.631  1.00  0.00     0.049 A 
ATOM     62  C   UNL A   1      43.454  29.904  33.644  1.00  0.00     0.074 A 
ATOM     63  C   UNL A   1      38.459  32.445  33.938  1.00  0.00     0.029 A 
ATOM     64  N   UNL A   1      39.968  33.126  32.460  1.00  0.00    -0.354 N 
ATOM     65  N   UNL A   1      42.585  30.821  33.322  1.00  0.00    -0.248 NA
ATOM     66  C   UNL A   1      44.678  30.475  34.170  1.00  0.00     0.031 C 
ATOM     67  C   UNL A   1      39.764  32.354  34.509  1.00  0.00     0.029 A 
ATOM     68  C   UNL A   1      40.700  32.804  33.587  1.00  0.00     0.049 A 
ATOM     69  H   UNL A   1      40.362  33.486  31.633  1.00  0.00     0.167 HD
ATOM     70  C   UNL A   1      43.000  32.040  33.709  1.00  0.00     0.074 A 
ATOM     71  C   UNL A   1      44.357  31.786  34.176  1.00  0.00     0.031 C 
ATOM     72  C   UNL A   1      42.142  33.104  33.655  1.00  0.00     0.037 A 
BRANCH  59  73
ATOM     73  C   UNL A   1      36.260  33.419  31.494  1.00  0.00     0.064 A 
ATOM     74  C   UNL A   1      35.384  33.037  32.535  1.00  0.00     0.173 A 
ATOM     75  C   UNL A   1      35.661  34.268  30.533  1.00  0.00     0.173 A 
ATOM     76  F   UNL A   1      35.770  32.178  33.488  1.00  0.00    -0.203 F 
ATOM     77  C   UNL A   1      34.067  33.514  32.634  1.00  0.00     0.198 A 
ATOM     78  C   UNL A   1      34.376  34.804  30.673  1.00  0.00     0.198 A 
ATOM     79  F   UNL A   1      36.244  34.567  29.370  1.00  0.00    -0.203 F 
ATOM     80  F   UNL A   1      33.275  33.077  33.623  1.00  0.00    -0.200 F 
ATOM     81  C   UNL A   1      33.576  34.427  31.725  1.00  0.00     0.200 A 
ATOM     82  F   UNL A   1      33.916  35.669  29.758  1.00  0.00    -0.200 F 
ATOM     83  F   UNL A   1      32.336  34.918  31.844  1.00  0.00    -0.200 F 
ENDBRANCH  59  73
BRANCH  60  84
ATOM     84  C   UNL A   1      43.987  27.307  33.093  1.00  0.00     0.064 A 
ATOM     85  C   UNL A   1      44.803  27.481  31.951  1.00  0.00     0.173 A 
ATOM     86  C   UNL A   1      44.346  26.291  33.978  1.00  0.00     0.173 A 
ATOM     87  F   UNL A   1      44.528  28.473  31.096  1.00  0.00    -0.203 F 
ATOM     88  C   UNL A   1      45.996  26.773  31.781  1.00  0.00     0.198 A 
ATOM     89  C   UNL A   1      45.547  25.590  33.815  1.00  0.00     0.198 A 
ATOM     90  F   UNL A   1      43.597  26.051  35.063  1.00  0.00    -0.203 F 
ATOM     91  F   UNL A   1      46.839  27.098  30.789  1.00  0.00    -0.200 F 
ATOM     92  C   UNL A   1      46.390  25.860  32.742  1.00  0.00     0.200 A 
ATOM     93  F   UNL A   1      45.942  24.719  34.754  1.00  0.00    -0.200 F 
ATOM     94  F   UNL A   1      47.612  25.308  32.685  1.00  0.00    -0.200 F 
ENDBRANCH  60  84
BRANCH  72  95
ATOM     95  C   UNL A   1      42.544  34.534  33.889  1.00  0.00     0.064 A 
ATOM     96  C   UNL A   1      42.407  35.197  35.115  1.00  0.00     0.173 A 
ATOM     97  C   UNL A   1      43.134  35.293  32.851  1.00  0.00     0.173 A 
ATOM     98  F   UNL A   1      42.102  34.540  36.241  1.00  0.00    -0.203 F 
ATOM     99  C   UNL A   1      42.634  36.565  35.234  1.00  0.00     0.198 A 
ATOM    100  C   UNL A   1      43.437  36.639  32.995  1.00  0.00     0.198 A 
ATOM    101  F   UNL A   1      43.452  34.763  31.663  1.00  0.00    -0.203 F 
ATOM    102  F   UNL A   1      42.365  37.177  36.395  1.00  0.00    -0.200 F 
ATOM    103  C   UNL A   1      43.135  37.289  34.171  1.00  0.00     0.200 A 
ATOM    104  F   UNL A   1      44.013  37.298  31.981  1.00  0.00    -0.200 F 
ATOM    105  F   UNL A   1      43.355  38.603  34.287  1.00  0.00    -0.200 F 
ENDBRANCH  72  95
ENDBRANCH  46  47
ENDBRANCH  39  41
ENDBRANCH  38  39
ENDBRANCH  37  38
ENDBRANCH  36  37
ENDBRANCH  35  36
ENDBRANCH  34  35
ENDBRANCH  33  34
ENDBRANCH  32  33
ENDBRANCH   1  32
TORSDOF 25
ENDMDL
