MODEL 1
REMARK VINA RESULT:     -11.6      0.000      0.000
REMARK SMILES CC1=CC[C@@H]2C(=O)N(c3ccc(Cl)c(C(=O)OCCOCCOCCOCCOC(=O)c4ccc(-c5c6nc(c(-c7c(F)c(F)c(F)c(F)c7F)c7ccc([nH]7)c(-c7c(F)c(F)c(F)c(F)c7F)c7nc(c(-c8c(F)c(F)c(F)c(F)c8F)c8ccc5[nH]8)C=C7)C=C6)cc4)c3)C(=O)[C@H]2C1
REMARK SMILES IDX 24 1 23 2 22 3 21 4 20 5 19 6 18 7 17 8 15 9 16 10 14 11
REMARK SMILES IDX 9 12 10 13 95 14 11 15 12 16 13 17 8 18 1 19 2 20 3 21 99 22
REMARK SMILES IDX 4 23 98 24 5 25 96 26 6 27 97 28 7 29 25 30 26 31 27 32
REMARK SMILES IDX 28 33 29 34 30 35 31 36 32 37 33 38 94 39 34 40 93 41 35 42
REMARK SMILES IDX 36 43 37 44 87 45 38 46 92 47 86 48 88 49 39 50 91 51 85 52
REMARK SMILES IDX 84 53 40 55 72 56 52 57 71 58 53 59 56 60 70 61 89 62 54 63
REMARK SMILES IDX 55 64 69 66 90 67 57 68 41 69 42 70 50 71 43 72 44 73 48 74
REMARK SMILES IDX 51 75 45 76 46 77 49 78 47 79 73 80 74 81 82 82 75 83 76 84
REMARK SMILES IDX 80 85 83 86 77 87 78 88 81 89 79 90 58 91 59 92 67 93 60 94
REMARK SMILES IDX 61 95 65 96 68 97 62 98 63 99 66 100 64 101
REMARK H PARENT 88 54 56 65
REMARK Flexibility Score: inf
ROOT
ATOM      1  C   UNL A   1      32.895  36.143  31.224  1.00  0.00     0.188 C 
ENDROOT
BRANCH   1   2
ATOM      2  O   UNL A   1      32.740  35.000  30.387  1.00  0.00    -0.377 OA
BRANCH   2   3
ATOM      3  C   UNL A   1      33.274  35.004  29.070  1.00  0.00     0.188 C 
BRANCH   3   4
ATOM      4  C   UNL A   1      34.315  33.932  28.676  1.00  0.00     0.188 C 
BRANCH   4   5
ATOM      5  O   UNL A   1      33.862  33.034  27.679  1.00  0.00    -0.376 OA
BRANCH   5   6
ATOM      6  C   UNL A   1      34.385  31.722  27.621  1.00  0.00     0.202 C 
BRANCH   6   7
ATOM      7  C   UNL A   1      33.450  30.514  27.460  1.00  0.00     0.261 C 
BRANCH   7   8
ATOM      8  O   UNL A   1      33.064  30.199  26.120  1.00  0.00    -0.460 OA
BRANCH   8   9
ATOM      9  C   UNL A   1      31.775  30.397  25.778  1.00  0.00     0.339 C 
ATOM     10  O   UNL A   1      31.112  31.398  25.990  1.00  0.00    -0.246 OA
BRANCH   9  11
ATOM     11  C   UNL A   1      31.351  29.302  24.879  1.00  0.00     0.080 A 
ATOM     12  C   UNL A   1      31.690  26.993  24.202  1.00  0.00     0.053 A 
ATOM     13  C   UNL A   1      30.680  27.132  23.246  1.00  0.00     0.028 A 
ATOM     14  C   UNL A   1      32.024  28.074  25.022  1.00  0.00     0.044 A 
ATOM     15  C   UNL A   1      29.985  28.338  23.131  1.00  0.00     0.023 A 
ATOM     16  C   UNL A   1      30.322  29.431  23.939  1.00  0.00     0.055 A 
ATOM     17  Cl  UNL A   1      29.456  30.902  23.676  1.00  0.00    -0.083 Cl
BRANCH  12  18
ATOM     18  N   UNL A   1      32.441  25.811  24.252  1.00  0.00    -0.250 N 
ATOM     19  C   UNL A   1      34.779  20.268  25.187  1.00  0.00     0.039 C 
ATOM     20  C   UNL A   1      34.561  21.677  24.713  1.00  0.00    -0.076 C 
ATOM     21  C   UNL A   1      35.354  22.231  23.767  1.00  0.00    -0.027 C 
ATOM     22  C   UNL A   1      33.399  22.436  25.358  1.00  0.00     0.044 C 
ATOM     23  C   UNL A   1      35.130  23.604  23.177  1.00  0.00     0.041 C 
ATOM     24  C   UNL A   1      33.508  23.916  25.021  1.00  0.00     0.096 C 
ATOM     25  C   UNL A   1      33.727  24.055  23.521  1.00  0.00     0.096 C 
ATOM     26  C   UNL A   1      32.353  24.855  25.250  1.00  0.00     0.238 C 
ATOM     27  C   UNL A   1      33.350  25.479  23.268  1.00  0.00     0.238 C 
ATOM     28  O   UNL A   1      31.564  24.799  26.180  1.00  0.00    -0.274 OA
ATOM     29  O   UNL A   1      33.725  26.150  22.322  1.00  0.00    -0.274 OA
ENDBRANCH  12  18
ENDBRANCH   9  11
ENDBRANCH   8   9
ENDBRANCH   7   8
ENDBRANCH   6   7
ENDBRANCH   5   6
ENDBRANCH   4   5
ENDBRANCH   3   4
ENDBRANCH   2   3
ENDBRANCH   1   2
BRANCH   1  30
ATOM     30  C   UNL A   1      33.370  36.026  32.693  1.00  0.00     0.188 C 
BRANCH  30  31
ATOM     31  O   UNL A   1      34.748  36.278  32.893  1.00  0.00    -0.376 OA
BRANCH  31  32
ATOM     32  C   UNL A   1      35.551  35.225  33.396  1.00  0.00     0.202 C 
BRANCH  32  33
ATOM     33  C   UNL A   1      34.870  33.868  33.624  1.00  0.00     0.261 C 
BRANCH  33  34
ATOM     34  O   UNL A   1      35.645  32.706  33.291  1.00  0.00    -0.460 OA
BRANCH  34  35
ATOM     35  C   UNL A   1      35.435  32.146  32.077  1.00  0.00     0.338 C 
ATOM     36  O   UNL A   1      34.395  32.081  31.462  1.00  0.00    -0.246 OA
BRANCH  35  37
ATOM     37  C   UNL A   1      36.763  31.777  31.535  1.00  0.00     0.060 A 
ATOM     38  C   UNL A   1      37.053  32.038  30.190  1.00  0.00     0.016 A 
ATOM     39  C   UNL A   1      37.722  31.192  32.366  1.00  0.00     0.016 A 
ATOM     40  C   UNL A   1      38.301  31.698  29.665  1.00  0.00     0.010 A 
ATOM     41  C   UNL A   1      38.961  30.831  31.834  1.00  0.00     0.010 A 
ATOM     42  C   UNL A   1      39.248  31.058  30.476  1.00  0.00    -0.014 A 
BRANCH  42  43
ATOM     43  C   UNL A   1      40.471  30.475  29.876  1.00  0.00     0.031 A 
ATOM     44  C   UNL A   1      41.672  31.360  29.690  1.00  0.00     0.074 A 
ATOM     45  C   UNL A   1      40.518  29.184  29.500  1.00  0.00     0.049 A 
ATOM     46  N   UNL A   1      42.817  31.103  29.112  1.00  0.00    -0.248 NA
ATOM     47  C   UNL A   1      41.559  32.725  30.228  1.00  0.00     0.031 C 
ATOM     48  C   UNL A   1      39.439  28.216  29.667  1.00  0.00     0.029 A 
ATOM     49  N   UNL A   1      41.518  28.474  28.881  1.00  0.00    -0.354 N 
ATOM     50  C   UNL A   1      43.555  32.276  29.209  1.00  0.00     0.074 A 
ATOM     51  C   UNL A   1      42.720  33.252  29.872  1.00  0.00     0.031 C 
ATOM     52  C   UNL A   1      39.827  27.038  29.148  1.00  0.00     0.029 A 
ATOM     53  C   UNL A   1      41.165  27.183  28.575  1.00  0.00     0.049 A 
ATOM     54  H   UNL A   1      42.403  28.854  28.677  1.00  0.00     0.167 HD
ATOM     55  C   UNL A   1      44.820  32.512  28.785  1.00  0.00     0.037 A 
ATOM     56  C   UNL A   1      41.834  26.241  27.881  1.00  0.00     0.037 A 
ATOM     57  C   UNL A   1      45.644  31.539  28.117  1.00  0.00     0.049 A 
ATOM     58  C   UNL A   1      43.205  26.558  27.338  1.00  0.00     0.074 A 
ATOM     59  C   UNL A   1      46.946  31.672  27.668  1.00  0.00     0.029 A 
ATOM     60  N   UNL A   1      45.238  30.253  27.790  1.00  0.00    -0.354 N 
ATOM     61  N   UNL A   1      43.912  27.657  27.456  1.00  0.00    -0.248 NA
ATOM     62  C   UNL A   1      43.871  25.503  26.561  1.00  0.00     0.031 C 
ATOM     63  C   UNL A   1      47.304  30.492  27.010  1.00  0.00     0.029 A 
ATOM     64  C   UNL A   1      46.251  29.596  27.109  1.00  0.00     0.049 A 
ATOM     65  H   UNL A   1      44.360  29.864  28.008  1.00  0.00     0.167 HD
ATOM     66  C   UNL A   1      45.111  27.416  26.795  1.00  0.00     0.074 A 
ATOM     67  C   UNL A   1      45.044  26.059  26.295  1.00  0.00     0.031 C 
ATOM     68  C   UNL A   1      46.171  28.243  26.616  1.00  0.00     0.037 A 
BRANCH  55  69
ATOM     69  C   UNL A   1      45.376  33.891  28.997  1.00  0.00     0.064 A 
ATOM     70  C   UNL A   1      45.953  34.279  30.217  1.00  0.00     0.173 A 
ATOM     71  C   UNL A   1      45.357  34.831  27.955  1.00  0.00     0.173 A 
ATOM     72  F   UNL A   1      45.985  33.425  31.251  1.00  0.00    -0.203 F 
ATOM     73  C   UNL A   1      46.462  35.563  30.393  1.00  0.00     0.198 A 
ATOM     74  C   UNL A   1      45.897  36.102  28.124  1.00  0.00     0.198 A 
ATOM     75  F   UNL A   1      44.820  34.512  26.767  1.00  0.00    -0.203 F 
ATOM     76  F   UNL A   1      46.959  35.927  31.583  1.00  0.00    -0.200 F 
ATOM     77  C   UNL A   1      46.440  36.471  29.344  1.00  0.00     0.200 A 
ATOM     78  F   UNL A   1      45.889  36.972  27.104  1.00  0.00    -0.200 F 
ATOM     79  F   UNL A   1      46.938  37.703  29.513  1.00  0.00    -0.200 F 
ENDBRANCH  55  69
BRANCH  56  80
ATOM     80  C   UNL A   1      41.211  24.912  27.635  1.00  0.00     0.064 A 
ATOM     81  C   UNL A   1      41.692  23.758  28.270  1.00  0.00     0.173 A 
ATOM     82  C   UNL A   1      40.141  24.764  26.740  1.00  0.00     0.173 A 
ATOM     83  F   UNL A   1      42.734  23.842  29.111  1.00  0.00    -0.203 F 
ATOM     84  C   UNL A   1      41.140  22.507  28.004  1.00  0.00     0.198 A 
ATOM     85  C   UNL A   1      39.567  23.517  26.502  1.00  0.00     0.198 A 
ATOM     86  F   UNL A   1      39.647  25.834  26.100  1.00  0.00    -0.203 F 
ATOM     87  F   UNL A   1      41.655  21.414  28.584  1.00  0.00    -0.200 F 
ATOM     88  C   UNL A   1      40.073  22.388  27.126  1.00  0.00     0.200 A 
ATOM     89  F   UNL A   1      38.531  23.408  25.659  1.00  0.00    -0.200 F 
ATOM     90  F   UNL A   1      39.541  21.184  26.874  1.00  0.00    -0.200 F 
ENDBRANCH  56  80
BRANCH  68  91
ATOM     91  C   UNL A   1      47.359  27.697  25.875  1.00  0.00     0.064 A 
ATOM     92  C   UNL A   1      47.435  27.728  24.473  1.00  0.00     0.173 A 
ATOM     93  C   UNL A   1      48.458  27.174  26.576  1.00  0.00     0.173 A 
ATOM     94  F   UNL A   1      46.408  28.206  23.753  1.00  0.00    -0.203 F 
ATOM     95  C   UNL A   1      48.549  27.229  23.803  1.00  0.00     0.198 A 
ATOM     96  C   UNL A   1      49.585  26.710  25.905  1.00  0.00     0.198 A 
ATOM     97  F   UNL A   1      48.444  27.129  27.917  1.00  0.00    -0.203 F 
ATOM     98  F   UNL A   1      48.574  27.220  22.464  1.00  0.00    -0.200 F 
ATOM     99  C   UNL A   1      49.627  26.730  24.519  1.00  0.00     0.200 A 
ATOM    100  F   UNL A   1      50.633  26.245  26.599  1.00  0.00    -0.200 F 
ATOM    101  F   UNL A   1      50.702  26.258  23.873  1.00  0.00    -0.200 F 
ENDBRANCH  68  91
ENDBRANCH  42  43
ENDBRANCH  35  37
ENDBRANCH  34  35
ENDBRANCH  33  34
ENDBRANCH  32  33
ENDBRANCH  31  32
ENDBRANCH  30  31
ENDBRANCH   1  30
TORSDOF 21
ENDMDL
MODEL 2
REMARK VINA RESULT:     -10.8      4.410      9.280
REMARK SMILES CC1=CC[C@@H]2C(=O)N(c3ccc(Cl)c(C(=O)OCCOCCOCCOCCOC(=O)c4ccc(-c5c6nc(c(-c7c(F)c(F)c(F)c(F)c7F)c7ccc([nH]7)c(-c7c(F)c(F)c(F)c(F)c7F)c7nc(c(-c8c(F)c(F)c(F)c(F)c8F)c8ccc5[nH]8)C=C7)C=C6)cc4)c3)C(=O)[C@H]2C1
REMARK SMILES IDX 24 1 23 2 22 3 21 4 20 5 19 6 18 7 17 8 15 9 16 10 14 11
REMARK SMILES IDX 9 12 10 13 95 14 11 15 12 16 13 17 8 18 1 19 2 20 3 21 99 22
REMARK SMILES IDX 4 23 98 24 5 25 96 26 6 27 97 28 7 29 25 30 26 31 27 32
REMARK SMILES IDX 28 33 29 34 30 35 31 36 32 37 33 38 94 39 34 40 93 41 35 42
REMARK SMILES IDX 36 43 37 44 87 45 38 46 92 47 86 48 88 49 39 50 91 51 85 52
REMARK SMILES IDX 84 53 40 55 72 56 52 57 71 58 53 59 56 60 70 61 89 62 54 63
REMARK SMILES IDX 55 64 69 66 90 67 57 68 41 69 42 70 50 71 43 72 44 73 48 74
REMARK SMILES IDX 51 75 45 76 46 77 49 78 47 79 73 80 74 81 82 82 75 83 76 84
REMARK SMILES IDX 80 85 83 86 77 87 78 88 81 89 79 90 58 91 59 92 67 93 60 94
REMARK SMILES IDX 61 95 65 96 68 97 62 98 63 99 66 100 64 101
REMARK H PARENT 88 54 56 65
REMARK Flexibility Score: inf
ROOT
ATOM      1  C   UNL A   1      31.056  27.417  27.099  1.00  0.00     0.188 C 
ENDROOT
BRANCH   1   2
ATOM      2  O   UNL A   1      30.644  26.155  26.581  1.00  0.00    -0.377 OA
BRANCH   2   3
ATOM      3  C   UNL A   1      31.496  25.023  26.702  1.00  0.00     0.188 C 
BRANCH   3   4
ATOM      4  C   UNL A   1      30.907  23.611  26.486  1.00  0.00     0.188 C 
BRANCH   4   5
ATOM      5  O   UNL A   1      31.887  22.599  26.340  1.00  0.00    -0.376 OA
BRANCH   5   6
ATOM      6  C   UNL A   1      32.842  22.390  27.362  1.00  0.00     0.202 C 
BRANCH   6   7
ATOM      7  C   UNL A   1      34.329  22.683  27.114  1.00  0.00     0.261 C 
BRANCH   7   8
ATOM      8  O   UNL A   1      34.656  24.045  26.828  1.00  0.00    -0.460 OA
BRANCH   8   9
ATOM      9  C   UNL A   1      35.432  24.288  25.753  1.00  0.00     0.339 C 
ATOM     10  O   UNL A   1      36.650  24.339  25.731  1.00  0.00    -0.246 OA
BRANCH   9  11
ATOM     11  C   UNL A   1      34.586  24.241  24.540  1.00  0.00     0.080 A 
ATOM     12  C   UNL A   1      32.898  25.368  23.204  1.00  0.00     0.053 A 
ATOM     13  C   UNL A   1      32.912  24.303  22.300  1.00  0.00     0.028 A 
ATOM     14  C   UNL A   1      33.737  25.342  24.321  1.00  0.00     0.044 A 
ATOM     15  C   UNL A   1      33.783  23.229  22.496  1.00  0.00     0.023 A 
ATOM     16  C   UNL A   1      34.618  23.187  23.619  1.00  0.00     0.055 A 
ATOM     17  Cl  UNL A   1      35.609  21.787  23.812  1.00  0.00    -0.083 Cl
BRANCH  12  18
ATOM     18  N   UNL A   1      31.960  26.398  23.050  1.00  0.00    -0.250 N 
ATOM     19  C   UNL A   1      28.779  31.414  21.713  1.00  0.00     0.039 C 
ATOM     20  C   UNL A   1      29.192  30.070  22.243  1.00  0.00    -0.076 C 
ATOM     21  C   UNL A   1      28.297  29.239  22.826  1.00  0.00    -0.027 C 
ATOM     22  C   UNL A   1      30.670  29.704  22.084  1.00  0.00     0.044 C 
ATOM     23  C   UNL A   1      28.625  27.838  23.291  1.00  0.00     0.041 C 
ATOM     24  C   UNL A   1      30.988  28.487  22.939  1.00  0.00     0.096 C 
ATOM     25  C   UNL A   1      29.938  27.418  22.669  1.00  0.00     0.096 C 
ATOM     26  C   UNL A   1      32.268  27.714  22.751  1.00  0.00     0.238 C 
ATOM     27  C   UNL A   1      30.603  26.176  23.169  1.00  0.00     0.238 C 
ATOM     28  O   UNL A   1      33.353  28.195  22.465  1.00  0.00    -0.274 OA
ATOM     29  O   UNL A   1      30.027  25.161  23.522  1.00  0.00    -0.274 OA
ENDBRANCH  12  18
ENDBRANCH   9  11
ENDBRANCH   8   9
ENDBRANCH   7   8
ENDBRANCH   6   7
ENDBRANCH   5   6
ENDBRANCH   4   5
ENDBRANCH   3   4
ENDBRANCH   2   3
ENDBRANCH   1   2
BRANCH   1  30
ATOM     30  C   UNL A   1      32.133  28.280  26.398  1.00  0.00     0.188 C 
BRANCH  30  31
ATOM     31  O   UNL A   1      31.782  29.639  26.218  1.00  0.00    -0.376 OA
BRANCH  31  32
ATOM     32  C   UNL A   1      32.718  30.626  26.610  1.00  0.00     0.202 C 
BRANCH  32  33
ATOM     33  C   UNL A   1      32.160  31.969  27.102  1.00  0.00     0.261 C 
BRANCH  33  34
ATOM     34  O   UNL A   1      33.000  33.116  26.904  1.00  0.00    -0.460 OA
BRANCH  34  35
ATOM     35  C   UNL A   1      33.350  33.827  28.001  1.00  0.00     0.338 C 
ATOM     36  O   UNL A   1      32.736  34.729  28.524  1.00  0.00    -0.246 OA
BRANCH  35  37
ATOM     37  C   UNL A   1      34.553  33.179  28.572  1.00  0.00     0.060 A 
ATOM     38  C   UNL A   1      34.404  32.036  29.369  1.00  0.00     0.016 A 
ATOM     39  C   UNL A   1      35.822  33.693  28.299  1.00  0.00     0.016 A 
ATOM     40  C   UNL A   1      35.529  31.413  29.912  1.00  0.00     0.010 A 
ATOM     41  C   UNL A   1      36.944  33.082  28.863  1.00  0.00     0.010 A 
ATOM     42  C   UNL A   1      36.802  31.955  29.692  1.00  0.00    -0.014 A 
BRANCH  42  43
ATOM     43  C   UNL A   1      37.968  31.453  30.457  1.00  0.00     0.031 A 
ATOM     44  C   UNL A   1      38.852  30.417  29.819  1.00  0.00     0.074 A 
ATOM     45  C   UNL A   1      38.239  31.904  31.695  1.00  0.00     0.049 A 
ATOM     46  N   UNL A   1      39.871  29.767  30.320  1.00  0.00    -0.248 NA
ATOM     47  C   UNL A   1      38.536  30.066  28.426  1.00  0.00     0.031 C 
ATOM     48  C   UNL A   1      37.486  32.936  32.401  1.00  0.00     0.029 A 
ATOM     49  N   UNL A   1      39.221  31.533  32.582  1.00  0.00    -0.354 N 
ATOM     50  C   UNL A   1      40.310  28.924  29.307  1.00  0.00     0.074 A 
ATOM     51  C   UNL A   1      39.431  29.123  28.176  1.00  0.00     0.031 C 
ATOM     52  C   UNL A   1      38.022  33.106  33.623  1.00  0.00     0.029 A 
ATOM     53  C   UNL A   1      39.128  32.165  33.796  1.00  0.00     0.049 A 
ATOM     54  H   UNL A   1      39.923  30.877  32.366  1.00  0.00     0.167 HD
ATOM     55  C   UNL A   1      41.359  28.066  29.321  1.00  0.00     0.037 A 
ATOM     56  C   UNL A   1      39.836  31.977  34.928  1.00  0.00     0.037 A 
ATOM     57  C   UNL A   1      42.225  27.867  30.452  1.00  0.00     0.049 A 
ATOM     58  C   UNL A   1      40.940  30.948  34.948  1.00  0.00     0.074 A 
ATOM     59  C   UNL A   1      43.327  27.038  30.560  1.00  0.00     0.029 A 
ATOM     60  N   UNL A   1      42.078  28.497  31.680  1.00  0.00    -0.354 N 
ATOM     61  N   UNL A   1      41.372  30.174  33.981  1.00  0.00    -0.248 NA
ATOM     62  C   UNL A   1      41.654  30.766  36.220  1.00  0.00     0.031 C 
ATOM     63  C   UNL A   1      43.805  27.114  31.871  1.00  0.00     0.029 A 
ATOM     64  C   UNL A   1      43.045  28.044  32.563  1.00  0.00     0.049 A 
ATOM     65  H   UNL A   1      41.388  29.166  31.893  1.00  0.00     0.167 HD
ATOM     66  C   UNL A   1      42.420  29.436  34.518  1.00  0.00     0.074 A 
ATOM     67  C   UNL A   1      42.573  29.870  35.891  1.00  0.00     0.031 C 
ATOM     68  C   UNL A   1      43.186  28.484  33.929  1.00  0.00     0.037 A 
BRANCH  55  69
ATOM     69  C   UNL A   1      41.601  27.249  28.084  1.00  0.00     0.064 A 
ATOM     70  C   UNL A   1      40.921  26.044  27.846  1.00  0.00     0.173 A 
ATOM     71  C   UNL A   1      42.508  27.691  27.109  1.00  0.00     0.173 A 
ATOM     72  F   UNL A   1      40.053  25.568  28.753  1.00  0.00    -0.203 F 
ATOM     73  C   UNL A   1      41.161  25.301  26.694  1.00  0.00     0.198 A 
ATOM     74  C   UNL A   1      42.721  26.963  25.943  1.00  0.00     0.198 A 
ATOM     75  F   UNL A   1      43.184  28.837  27.284  1.00  0.00    -0.203 F 
ATOM     76  F   UNL A   1      40.539  24.128  26.514  1.00  0.00    -0.200 F 
ATOM     77  C   UNL A   1      42.055  25.764  25.739  1.00  0.00     0.200 A 
ATOM     78  F   UNL A   1      43.573  27.420  25.015  1.00  0.00    -0.200 F 
ATOM     79  F   UNL A   1      42.278  25.051  24.627  1.00  0.00    -0.200 F 
ENDBRANCH  55  69
BRANCH  56  80
ATOM     80  C   UNL A   1      39.511  32.762  36.150  1.00  0.00     0.064 A 
ATOM     81  C   UNL A   1      38.589  32.287  37.093  1.00  0.00     0.173 A 
ATOM     82  C   UNL A   1      40.094  34.016  36.386  1.00  0.00     0.173 A 
ATOM     83  F   UNL A   1      37.980  31.108  36.898  1.00  0.00    -0.203 F 
ATOM     84  C   UNL A   1      38.249  33.043  38.213  1.00  0.00     0.198 A 
ATOM     85  C   UNL A   1      39.779  34.756  37.524  1.00  0.00     0.198 A 
ATOM     86  F   UNL A   1      40.977  34.522  35.512  1.00  0.00    -0.203 F 
ATOM     87  F   UNL A   1      37.324  32.588  39.069  1.00  0.00    -0.200 F 
ATOM     88  C   UNL A   1      38.850  34.273  38.431  1.00  0.00     0.200 A 
ATOM     89  F   UNL A   1      40.369  35.940  37.735  1.00  0.00    -0.200 F 
ATOM     90  F   UNL A   1      38.524  34.998  39.510  1.00  0.00    -0.200 F 
ENDBRANCH  56  80
BRANCH  68  91
ATOM     91  C   UNL A   1      44.280  27.866  34.754  1.00  0.00     0.064 A 
ATOM     92  C   UNL A   1      45.551  28.452  34.858  1.00  0.00     0.173 A 
ATOM     93  C   UNL A   1      44.040  26.692  35.487  1.00  0.00     0.173 A 
ATOM     94  F   UNL A   1      45.837  29.568  34.168  1.00  0.00    -0.203 F 
ATOM     95  C   UNL A   1      46.548  27.872  35.638  1.00  0.00     0.198 A 
ATOM     96  C   UNL A   1      45.028  26.135  36.295  1.00  0.00     0.198 A 
ATOM     97  F   UNL A   1      42.841  26.094  35.434  1.00  0.00    -0.203 F 
ATOM     98  F   UNL A   1      47.770  28.421  35.677  1.00  0.00    -0.200 F 
ATOM     99  C   UNL A   1      46.283  26.720  36.363  1.00  0.00     0.200 A 
ATOM    100  F   UNL A   1      44.765  25.032  37.010  1.00  0.00    -0.200 F 
ATOM    101  F   UNL A   1      47.241  26.168  37.120  1.00  0.00    -0.200 F 
ENDBRANCH  68  91
ENDBRANCH  42  43
ENDBRANCH  35  37
ENDBRANCH  34  35
ENDBRANCH  33  34
ENDBRANCH  32  33
ENDBRANCH  31  32
ENDBRANCH  30  31
ENDBRANCH   1  30
TORSDOF 21
ENDMDL
MODEL 3
REMARK VINA RESULT:     -10.6      1.076      6.986
REMARK SMILES CC1=CC[C@@H]2C(=O)N(c3ccc(Cl)c(C(=O)OCCOCCOCCOCCOC(=O)c4ccc(-c5c6nc(c(-c7c(F)c(F)c(F)c(F)c7F)c7ccc([nH]7)c(-c7c(F)c(F)c(F)c(F)c7F)c7nc(c(-c8c(F)c(F)c(F)c(F)c8F)c8ccc5[nH]8)C=C7)C=C6)cc4)c3)C(=O)[C@H]2C1
REMARK SMILES IDX 24 1 23 2 22 3 21 4 20 5 19 6 18 7 17 8 15 9 16 10 14 11
REMARK SMILES IDX 9 12 10 13 95 14 11 15 12 16 13 17 8 18 1 19 2 20 3 21 99 22
REMARK SMILES IDX 4 23 98 24 5 25 96 26 6 27 97 28 7 29 25 30 26 31 27 32
REMARK SMILES IDX 28 33 29 34 30 35 31 36 32 37 33 38 94 39 34 40 93 41 35 42
REMARK SMILES IDX 36 43 37 44 87 45 38 46 92 47 86 48 88 49 39 50 91 51 85 52
REMARK SMILES IDX 84 53 40 55 72 56 52 57 71 58 53 59 56 60 70 61 89 62 54 63
REMARK SMILES IDX 55 64 69 66 90 67 57 68 41 69 42 70 50 71 43 72 44 73 48 74
REMARK SMILES IDX 51 75 45 76 46 77 49 78 47 79 73 80 74 81 82 82 75 83 76 84
REMARK SMILES IDX 80 85 83 86 77 87 78 88 81 89 79 90 58 91 59 92 67 93 60 94
REMARK SMILES IDX 61 95 65 96 68 97 62 98 63 99 66 100 64 101
REMARK H PARENT 88 54 56 65
REMARK Flexibility Score: inf
ROOT
ATOM      1  C   UNL A   1      33.085  36.010  30.371  1.00  0.00     0.188 C 
ENDROOT
BRANCH   1   2
ATOM      2  O   UNL A   1      32.733  34.930  29.512  1.00  0.00    -0.377 OA
BRANCH   2   3
ATOM      3  C   UNL A   1      33.708  34.357  28.651  1.00  0.00     0.188 C 
BRANCH   3   4
ATOM      4  C   UNL A   1      33.994  32.841  28.740  1.00  0.00     0.188 C 
BRANCH   4   5
ATOM      5  O   UNL A   1      34.968  32.388  27.818  1.00  0.00    -0.376 OA
BRANCH   5   6
ATOM      6  C   UNL A   1      35.163  31.001  27.623  1.00  0.00     0.202 C 
BRANCH   6   7
ATOM      7  C   UNL A   1      33.963  30.055  27.472  1.00  0.00     0.261 C 
BRANCH   7   8
ATOM      8  O   UNL A   1      33.366  30.009  26.174  1.00  0.00    -0.460 OA
BRANCH   8   9
ATOM      9  C   UNL A   1      32.052  30.299  26.079  1.00  0.00     0.339 C 
ATOM     10  O   UNL A   1      31.503  31.317  26.464  1.00  0.00    -0.246 OA
BRANCH   9  11
ATOM     11  C   UNL A   1      31.408  29.293  25.207  1.00  0.00     0.080 A 
ATOM     12  C   UNL A   1      31.277  26.951  24.572  1.00  0.00     0.053 A 
ATOM     13  C   UNL A   1      30.300  27.269  23.626  1.00  0.00     0.028 A 
ATOM     14  C   UNL A   1      31.829  27.959  25.367  1.00  0.00     0.044 A 
ATOM     15  C   UNL A   1      29.853  28.586  23.495  1.00  0.00     0.023 A 
ATOM     16  C   UNL A   1      30.410  29.605  24.276  1.00  0.00     0.055 A 
ATOM     17  Cl  UNL A   1      29.845  31.212  23.994  1.00  0.00    -0.083 Cl
BRANCH  12  18
ATOM     18  N   UNL A   1      31.783  25.645  24.637  1.00  0.00    -0.250 N 
ATOM     19  C   UNL A   1      32.876  19.707  25.418  1.00  0.00     0.039 C 
ATOM     20  C   UNL A   1      33.007  21.160  25.055  1.00  0.00    -0.076 C 
ATOM     21  C   UNL A   1      34.052  21.609  24.323  1.00  0.00    -0.027 C 
ATOM     22  C   UNL A   1      31.897  22.086  25.556  1.00  0.00     0.044 C 
ATOM     23  C   UNL A   1      34.193  23.036  23.841  1.00  0.00     0.041 C 
ATOM     24  C   UNL A   1      32.329  23.535  25.392  1.00  0.00     0.096 C 
ATOM     25  C   UNL A   1      32.853  23.725  23.975  1.00  0.00     0.096 C 
ATOM     26  C   UNL A   1      31.337  24.663  25.504  1.00  0.00     0.238 C 
ATOM     27  C   UNL A   1      32.790  25.208  23.801  1.00  0.00     0.238 C 
ATOM     28  O   UNL A   1      30.386  24.700  26.270  1.00  0.00    -0.274 OA
ATOM     29  O   UNL A   1      33.453  25.854  23.007  1.00  0.00    -0.274 OA
ENDBRANCH  12  18
ENDBRANCH   9  11
ENDBRANCH   8   9
ENDBRANCH   7   8
ENDBRANCH   6   7
ENDBRANCH   5   6
ENDBRANCH   4   5
ENDBRANCH   3   4
ENDBRANCH   2   3
ENDBRANCH   1   2
BRANCH   1  30
ATOM     30  C   UNL A   1      33.134  35.851  31.911  1.00  0.00     0.188 C 
BRANCH  30  31
ATOM     31  O   UNL A   1      34.361  36.225  32.508  1.00  0.00    -0.376 OA
BRANCH  31  32
ATOM     32  C   UNL A   1      35.051  35.255  33.274  1.00  0.00     0.202 C 
BRANCH  32  33
ATOM     33  C   UNL A   1      35.005  33.803  32.778  1.00  0.00     0.261 C 
BRANCH  33  34
ATOM     34  O   UNL A   1      36.273  33.156  32.590  1.00  0.00    -0.460 OA
BRANCH  34  35
ATOM     35  C   UNL A   1      36.259  31.858  32.207  1.00  0.00     0.338 C 
ATOM     36  O   UNL A   1      35.317  31.097  32.210  1.00  0.00    -0.246 OA
BRANCH  35  37
ATOM     37  C   UNL A   1      37.578  31.571  31.600  1.00  0.00     0.060 A 
ATOM     38  C   UNL A   1      37.791  31.869  30.248  1.00  0.00     0.016 A 
ATOM     39  C   UNL A   1      38.604  31.027  32.376  1.00  0.00     0.016 A 
ATOM     40  C   UNL A   1      39.031  31.605  29.662  1.00  0.00     0.010 A 
ATOM     41  C   UNL A   1      39.835  30.742  31.783  1.00  0.00     0.010 A 
ATOM     42  C   UNL A   1      40.047  31.006  30.417  1.00  0.00    -0.014 A 
BRANCH  42  43
ATOM     43  C   UNL A   1      41.271  30.500  29.753  1.00  0.00     0.031 A 
ATOM     44  C   UNL A   1      41.254  29.109  29.182  1.00  0.00     0.074 A 
ATOM     45  C   UNL A   1      42.379  31.257  29.658  1.00  0.00     0.049 A 
ATOM     46  N   UNL A   1      42.223  28.419  28.637  1.00  0.00    -0.248 NA
ATOM     47  C   UNL A   1      39.966  28.401  29.241  1.00  0.00     0.031 C 
ATOM     48  C   UNL A   1      42.506  32.632  30.131  1.00  0.00     0.029 A 
ATOM     49  N   UNL A   1      43.618  30.960  29.142  1.00  0.00    -0.354 N 
ATOM     50  C   UNL A   1      41.664  27.194  28.298  1.00  0.00     0.074 A 
ATOM     51  C   UNL A   1      40.282  27.223  28.725  1.00  0.00     0.031 C 
ATOM     52  C   UNL A   1      43.760  33.058  29.899  1.00  0.00     0.029 A 
ATOM     53  C   UNL A   1      44.533  31.970  29.300  1.00  0.00     0.049 A 
ATOM     54  H   UNL A   1      43.827  30.105  28.701  1.00  0.00     0.167 HD
ATOM     55  C   UNL A   1      42.251  26.141  27.680  1.00  0.00     0.037 A 
ATOM     56  C   UNL A   1      45.852  31.997  29.024  1.00  0.00     0.037 A 
ATOM     57  C   UNL A   1      43.630  26.114  27.266  1.00  0.00     0.049 A 
ATOM     58  C   UNL A   1      46.506  30.778  28.420  1.00  0.00     0.074 A 
ATOM     59  C   UNL A   1      44.315  25.105  26.613  1.00  0.00     0.029 A 
ATOM     60  N   UNL A   1      44.537  27.142  27.477  1.00  0.00    -0.354 N 
ATOM     61  N   UNL A   1      45.968  29.632  28.074  1.00  0.00    -0.248 NA
ATOM     62  C   UNL A   1      47.953  30.856  28.172  1.00  0.00     0.031 C 
ATOM     63  C   UNL A   1      45.652  25.494  26.490  1.00  0.00     0.029 A 
ATOM     64  C   UNL A   1      45.787  26.774  27.003  1.00  0.00     0.049 A 
ATOM     65  H   UNL A   1      44.326  28.005  27.901  1.00  0.00     0.167 HD
ATOM     66  C   UNL A   1      47.002  28.868  27.545  1.00  0.00     0.074 A 
ATOM     67  C   UNL A   1      48.194  29.687  27.597  1.00  0.00     0.031 C 
ATOM     68  C   UNL A   1      46.967  27.600  27.061  1.00  0.00     0.037 A 
BRANCH  55  69
ATOM     69  C   UNL A   1      41.414  24.916  27.451  1.00  0.00     0.064 A 
ATOM     70  C   UNL A   1      41.612  23.734  28.182  1.00  0.00     0.173 A 
ATOM     71  C   UNL A   1      40.378  24.932  26.505  1.00  0.00     0.173 A 
ATOM     72  F   UNL A   1      42.598  23.659  29.090  1.00  0.00    -0.203 F 
ATOM     73  C   UNL A   1      40.825  22.609  27.954  1.00  0.00     0.198 A 
ATOM     74  C   UNL A   1      39.572  23.817  26.302  1.00  0.00     0.198 A 
ATOM     75  F   UNL A   1      40.142  26.036  25.779  1.00  0.00    -0.203 F 
ATOM     76  F   UNL A   1      41.068  21.476  28.627  1.00  0.00    -0.200 F 
ATOM     77  C   UNL A   1      39.801  22.653  27.020  1.00  0.00     0.200 A 
ATOM     78  F   UNL A   1      38.572  23.867  25.410  1.00  0.00    -0.200 F 
ATOM     79  F   UNL A   1      39.039  21.571  26.807  1.00  0.00    -0.200 F 
ENDBRANCH  55  69
BRANCH  56  80
ATOM     80  C   UNL A   1      46.655  33.210  29.335  1.00  0.00     0.064 A 
ATOM     81  C   UNL A   1      46.877  34.201  28.367  1.00  0.00     0.173 A 
ATOM     82  C   UNL A   1      47.241  33.392  30.597  1.00  0.00     0.173 A 
ATOM     83  F   UNL A   1      46.365  34.059  27.135  1.00  0.00    -0.203 F 
ATOM     84  C   UNL A   1      47.667  35.314  28.643  1.00  0.00     0.198 A 
ATOM     85  C   UNL A   1      48.003  34.523  30.883  1.00  0.00     0.198 A 
ATOM     86  F   UNL A   1      47.067  32.472  31.557  1.00  0.00    -0.203 F 
ATOM     87  F   UNL A   1      47.907  36.217  27.683  1.00  0.00    -0.200 F 
ATOM     88  C   UNL A   1      48.224  35.478  29.903  1.00  0.00     0.200 A 
ATOM     89  F   UNL A   1      48.531  34.682  32.104  1.00  0.00    -0.200 F 
ATOM     90  F   UNL A   1      48.982  36.551  30.168  1.00  0.00    -0.200 F 
ENDBRANCH  56  80
BRANCH  68  91
ATOM     91  C   UNL A   1      48.248  27.030  26.520  1.00  0.00     0.064 A 
ATOM     92  C   UNL A   1      48.650  27.240  25.192  1.00  0.00     0.173 A 
ATOM     93  C   UNL A   1      49.109  26.298  27.354  1.00  0.00     0.173 A 
ATOM     94  F   UNL A   1      47.859  27.922  24.348  1.00  0.00    -0.203 F 
ATOM     95  C   UNL A   1      49.847  26.714  24.712  1.00  0.00     0.198 A 
ATOM     96  C   UNL A   1      50.322  25.805  26.881  1.00  0.00     0.198 A 
ATOM     97  F   UNL A   1      48.781  26.074  28.636  1.00  0.00    -0.203 F 
ATOM     98  F   UNL A   1      50.182  26.883  23.425  1.00  0.00    -0.200 F 
ATOM     99  C   UNL A   1      50.686  26.006  25.559  1.00  0.00     0.200 A 
ATOM    100  F   UNL A   1      51.140  25.136  27.706  1.00  0.00    -0.200 F 
ATOM    101  F   UNL A   1      51.841  25.509  25.097  1.00  0.00    -0.200 F 
ENDBRANCH  68  91
ENDBRANCH  42  43
ENDBRANCH  35  37
ENDBRANCH  34  35
ENDBRANCH  33  34
ENDBRANCH  32  33
ENDBRANCH  31  32
ENDBRANCH  30  31
ENDBRANCH   1  30
TORSDOF 21
ENDMDL
