MODEL 1
REMARK VINA RESULT:      -7.2      0.000      0.000
REMARK SMILES Cc1cc2c(c(C)c1Cl)C=C(C(=O)OCCOCCOCCOCCOC(=O)c1ccc(-c3c4nc(c(-c5c(F)c(F)c(F)c(F)c5F)c5ccc([nH]5)c(-c5c(F)c(F)c(F)c(F)c5F)c5nc(c(-c6c(F)c(F)c(F)c(F)c6F)c6ccc3[nH]6)C=C5)C=C4)cc1)[C@@H](C(F)(F)F)O2
REMARK SMILES IDX 21 1 20 2 19 3 18 4 17 5 16 6 15 7 14 8 12 9 13 10 11 11
REMARK SMILES IDX 1 12 2 13 3 14 8 15 4 16 6 17 9 18 5 19 97 20 7 21 10 22
REMARK SMILES IDX 92 23 93 24 94 25 95 26 96 27 22 28 23 29 24 30 25 31 26 32
REMARK SMILES IDX 27 33 28 34 29 35 30 36 91 37 31 38 90 39 32 40 33 41 34 42
REMARK SMILES IDX 84 43 35 44 89 45 83 46 85 47 36 48 88 49 82 50 81 51 37 53
REMARK SMILES IDX 69 54 49 55 68 56 50 57 53 58 67 59 86 60 51 61 52 62 66 64
REMARK SMILES IDX 87 65 54 66 38 67 39 68 47 69 40 70 41 71 45 72 48 73 42 74
REMARK SMILES IDX 43 75 46 76 44 77 70 78 71 79 79 80 72 81 73 82 77 83 80 84
REMARK SMILES IDX 74 85 75 86 78 87 76 88 55 89 56 90 64 91 57 92 58 93 62 94
REMARK SMILES IDX 65 95 59 96 60 97 63 98 61 99
REMARK H PARENT 85 52 53 63
REMARK Flexibility Score: inf
ROOT
ATOM      1  C   UNL A   1      46.314  21.550  25.166  1.00  0.00     0.188 C 
ENDROOT
BRANCH   1   2
ATOM      2  O   UNL A   1      46.191  22.913  25.581  1.00  0.00    -0.377 OA
BRANCH   2   3
ATOM      3  C   UNL A   1      46.472  23.932  24.636  1.00  0.00     0.188 C 
BRANCH   3   4
ATOM      4  C   UNL A   1      47.517  24.959  25.112  1.00  0.00     0.188 C 
BRANCH   4   5
ATOM      5  O   UNL A   1      46.929  26.170  25.572  1.00  0.00    -0.376 OA
BRANCH   5   6
ATOM      6  C   UNL A   1      45.530  26.345  25.410  1.00  0.00     0.202 C 
BRANCH   6   7
ATOM      7  C   UNL A   1      45.002  27.729  25.001  1.00  0.00     0.261 C 
BRANCH   7   8
ATOM      8  O   UNL A   1      45.789  28.848  25.428  1.00  0.00    -0.460 OA
BRANCH   8   9
ATOM      9  C   UNL A   1      45.391  29.503  26.536  1.00  0.00     0.338 C 
ATOM     10  O   UNL A   1      44.648  29.083  27.404  1.00  0.00    -0.246 OA
BRANCH   9  11
ATOM     11  C   UNL A   1      46.152  30.771  26.608  1.00  0.00     0.087 C 
ATOM     12  C   UNL A   1      50.030  35.762  28.002  1.00  0.00     0.046 C 
ATOM     13  C   UNL A   1      49.448  34.413  27.675  1.00  0.00    -0.028 A 
ATOM     14  C   UNL A   1      48.211  34.351  27.026  1.00  0.00     0.052 A 
ATOM     15  C   UNL A   1      50.092  33.210  28.028  1.00  0.00     0.047 A 
ATOM     16  C   UNL A   1      47.577  33.129  26.812  1.00  0.00     0.128 A 
ATOM     17  C   UNL A   1      49.477  31.958  27.792  1.00  0.00    -0.021 A 
ATOM     18  Cl  UNL A   1      51.651  33.303  28.791  1.00  0.00    -0.084 Cl
ATOM     19  C   UNL A   1      48.172  31.936  27.237  1.00  0.00     0.022 A 
ATOM     20  O   UNL A   1      46.363  33.215  26.195  1.00  0.00    -0.475 OA
ATOM     21  C   UNL A   1      50.180  30.656  28.101  1.00  0.00     0.047 C 
ATOM     22  C   UNL A   1      47.376  30.712  27.149  1.00  0.00     0.027 C 
ATOM     23  C   UNL A   1      45.568  32.017  26.003  1.00  0.00     0.316 C 
BRANCH  23  24
ATOM     24  C   UNL A   1      44.151  32.312  26.517  1.00  0.00     0.430 C 
ATOM     25  F   UNL A   1      43.241  31.484  25.950  1.00  0.00    -0.167 F 
ATOM     26  F   UNL A   1      44.045  32.141  27.855  1.00  0.00    -0.167 F 
ATOM     27  F   UNL A   1      43.771  33.580  26.242  1.00  0.00    -0.167 F 
ENDBRANCH  23  24
ENDBRANCH   9  11
ENDBRANCH   8   9
ENDBRANCH   7   8
ENDBRANCH   6   7
ENDBRANCH   5   6
ENDBRANCH   4   5
ENDBRANCH   3   4
ENDBRANCH   2   3
ENDBRANCH   1   2
BRANCH   1  28
ATOM     28  C   UNL A   1      45.279  20.855  24.246  1.00  0.00     0.188 C 
BRANCH  28  29
ATOM     29  O   UNL A   1      45.368  19.438  24.221  1.00  0.00    -0.376 OA
BRANCH  29  30
ATOM     30  C   UNL A   1      44.218  18.707  24.617  1.00  0.00     0.202 C 
BRANCH  30  31
ATOM     31  C   UNL A   1      43.416  19.345  25.756  1.00  0.00     0.261 C 
BRANCH  31  32
ATOM     32  O   UNL A   1      42.302  20.154  25.346  1.00  0.00    -0.460 OA
BRANCH  32  33
ATOM     33  C   UNL A   1      41.323  20.371  26.252  1.00  0.00     0.338 C 
ATOM     34  O   UNL A   1      40.483  19.579  26.640  1.00  0.00    -0.246 OA
BRANCH  33  35
ATOM     35  C   UNL A   1      41.568  21.698  26.853  1.00  0.00     0.060 A 
ATOM     36  C   UNL A   1      41.687  22.813  26.014  1.00  0.00     0.016 A 
ATOM     37  C   UNL A   1      41.650  21.839  28.240  1.00  0.00     0.016 A 
ATOM     38  C   UNL A   1      41.915  24.075  26.564  1.00  0.00     0.010 A 
ATOM     39  C   UNL A   1      41.904  23.098  28.788  1.00  0.00     0.010 A 
ATOM     40  C   UNL A   1      42.068  24.214  27.951  1.00  0.00    -0.014 A 
BRANCH  40  41
ATOM     41  C   UNL A   1      42.617  25.477  28.499  1.00  0.00     0.031 A 
ATOM     42  C   UNL A   1      41.653  26.586  28.813  1.00  0.00     0.074 A 
ATOM     43  C   UNL A   1      43.930  25.628  28.748  1.00  0.00     0.049 A 
ATOM     44  N   UNL A   1      41.884  27.780  29.297  1.00  0.00    -0.248 NA
ATOM     45  C   UNL A   1      40.231  26.309  28.550  1.00  0.00     0.031 C 
ATOM     46  C   UNL A   1      44.955  24.612  28.527  1.00  0.00     0.029 A 
ATOM     47  N   UNL A   1      44.622  26.705  29.246  1.00  0.00    -0.354 N 
ATOM     48  C   UNL A   1      40.641  28.386  29.406  1.00  0.00     0.074 A 
ATOM     49  C   UNL A   1      39.661  27.451  28.901  1.00  0.00     0.031 C 
ATOM     50  C   UNL A   1      46.149  25.113  28.892  1.00  0.00     0.029 A 
ATOM     51  C   UNL A   1      45.976  26.494  29.344  1.00  0.00     0.049 A 
ATOM     52  H   UNL A   1      44.188  27.549  29.509  1.00  0.00     0.167 HD
ATOM     53  C   UNL A   1      40.341  29.607  29.904  1.00  0.00     0.037 A 
ATOM     54  C   UNL A   1      46.958  27.327  29.743  1.00  0.00     0.037 A 
ATOM     55  C   UNL A   1      41.316  30.541  30.397  1.00  0.00     0.049 A 
ATOM     56  C   UNL A   1      46.607  28.725  30.193  1.00  0.00     0.074 A 
ATOM     57  C   UNL A   1      41.109  31.804  30.921  1.00  0.00     0.029 A 
ATOM     58  N   UNL A   1      42.684  30.315  30.419  1.00  0.00    -0.354 N 
ATOM     59  N   UNL A   1      45.427  29.284  30.319  1.00  0.00    -0.248 NA
ATOM     60  C   UNL A   1      47.726  29.609  30.555  1.00  0.00     0.031 C 
ATOM     61  C   UNL A   1      42.355  32.364  31.210  1.00  0.00     0.029 A 
ATOM     62  C   UNL A   1      43.335  31.428  30.919  1.00  0.00     0.049 A 
ATOM     63  H   UNL A   1      43.125  29.487  30.122  1.00  0.00     0.167 HD
ATOM     64  C   UNL A   1      45.658  30.569  30.795  1.00  0.00     0.074 A 
ATOM     65  C   UNL A   1      47.090  30.705  30.951  1.00  0.00     0.031 C 
ATOM     66  C   UNL A   1      44.763  31.547  31.077  1.00  0.00     0.037 A 
BRANCH  53  67
ATOM     67  C   UNL A   1      38.897  30.010  29.931  1.00  0.00     0.064 A 
ATOM     68  C   UNL A   1      38.178  30.072  31.134  1.00  0.00     0.173 A 
ATOM     69  C   UNL A   1      38.240  30.390  28.751  1.00  0.00     0.173 A 
ATOM     70  F   UNL A   1      38.757  29.701  32.287  1.00  0.00    -0.203 F 
ATOM     71  C   UNL A   1      36.850  30.488  31.153  1.00  0.00     0.198 A 
ATOM     72  C   UNL A   1      36.921  30.832  28.778  1.00  0.00     0.198 A 
ATOM     73  F   UNL A   1      38.884  30.348  27.575  1.00  0.00    -0.203 F 
ATOM     74  F   UNL A   1      36.171  30.505  32.309  1.00  0.00    -0.200 F 
ATOM     75  C   UNL A   1      36.226  30.877  29.977  1.00  0.00     0.200 A 
ATOM     76  F   UNL A   1      36.323  31.219  27.642  1.00  0.00    -0.200 F 
ATOM     77  F   UNL A   1      34.952  31.293  29.999  1.00  0.00    -0.200 F 
ENDBRANCH  53  67
BRANCH  54  78
ATOM     78  C   UNL A   1      48.371  26.865  29.742  1.00  0.00     0.064 A 
ATOM     79  C   UNL A   1      49.203  27.090  28.636  1.00  0.00     0.173 A 
ATOM     80  C   UNL A   1      48.917  26.183  30.839  1.00  0.00     0.173 A 
ATOM     81  F   UNL A   1      48.718  27.711  27.550  1.00  0.00    -0.203 F 
ATOM     82  C   UNL A   1      50.523  26.645  28.624  1.00  0.00     0.198 A 
ATOM     83  C   UNL A   1      50.246  25.761  30.837  1.00  0.00     0.198 A 
ATOM     84  F   UNL A   1      48.162  25.932  31.919  1.00  0.00    -0.203 F 
ATOM     85  F   UNL A   1      51.283  26.839  27.538  1.00  0.00    -0.200 F 
ATOM     86  C   UNL A   1      51.046  25.987  29.728  1.00  0.00     0.200 A 
ATOM     87  F   UNL A   1      50.749  25.134  31.908  1.00  0.00    -0.200 F 
ATOM     88  F   UNL A   1      52.318  25.565  29.718  1.00  0.00    -0.200 F 
ENDBRANCH  54  78
BRANCH  66  89
ATOM     89  C   UNL A   1      45.287  32.854  31.598  1.00  0.00     0.064 A 
ATOM     90  C   UNL A   1      45.690  33.879  30.730  1.00  0.00     0.173 A 
ATOM     91  C   UNL A   1      45.287  33.122  32.976  1.00  0.00     0.173 A 
ATOM     92  F   UNL A   1      45.717  33.671  29.406  1.00  0.00    -0.203 F 
ATOM     93  C   UNL A   1      46.081  35.122  31.224  1.00  0.00     0.198 A 
ATOM     94  C   UNL A   1      45.650  34.374  33.463  1.00  0.00     0.198 A 
ATOM     95  F   UNL A   1      44.900  32.178  33.848  1.00  0.00    -0.203 F 
ATOM     96  F   UNL A   1      46.485  36.079  30.378  1.00  0.00    -0.200 F 
ATOM     97  C   UNL A   1      46.048  35.373  32.588  1.00  0.00     0.200 A 
ATOM     98  F   UNL A   1      45.597  34.620  34.780  1.00  0.00    -0.200 F 
ATOM     99  F   UNL A   1      46.399  36.577  33.058  1.00  0.00    -0.200 F 
ENDBRANCH  66  89
ENDBRANCH  40  41
ENDBRANCH  33  35
ENDBRANCH  32  33
ENDBRANCH  31  32
ENDBRANCH  30  31
ENDBRANCH  29  30
ENDBRANCH  28  29
ENDBRANCH   1  28
TORSDOF 21
ENDMDL
MODEL 2
REMARK VINA RESULT:      -7.0      9.633     14.216
REMARK SMILES Cc1cc2c(c(C)c1Cl)C=C(C(=O)OCCOCCOCCOCCOC(=O)c1ccc(-c3c4nc(c(-c5c(F)c(F)c(F)c(F)c5F)c5ccc([nH]5)c(-c5c(F)c(F)c(F)c(F)c5F)c5nc(c(-c6c(F)c(F)c(F)c(F)c6F)c6ccc3[nH]6)C=C5)C=C4)cc1)[C@@H](C(F)(F)F)O2
REMARK SMILES IDX 21 1 20 2 19 3 18 4 17 5 16 6 15 7 14 8 12 9 13 10 11 11
REMARK SMILES IDX 1 12 2 13 3 14 8 15 4 16 6 17 9 18 5 19 97 20 7 21 10 22
REMARK SMILES IDX 92 23 93 24 94 25 95 26 96 27 22 28 23 29 24 30 25 31 26 32
REMARK SMILES IDX 27 33 28 34 29 35 30 36 91 37 31 38 90 39 32 40 33 41 34 42
REMARK SMILES IDX 84 43 35 44 89 45 83 46 85 47 36 48 88 49 82 50 81 51 37 53
REMARK SMILES IDX 69 54 49 55 68 56 50 57 53 58 67 59 86 60 51 61 52 62 66 64
REMARK SMILES IDX 87 65 54 66 38 67 39 68 47 69 40 70 41 71 45 72 48 73 42 74
REMARK SMILES IDX 43 75 46 76 44 77 70 78 71 79 79 80 72 81 73 82 77 83 80 84
REMARK SMILES IDX 74 85 75 86 78 87 76 88 55 89 56 90 64 91 57 92 58 93 62 94
REMARK SMILES IDX 65 95 59 96 60 97 63 98 61 99
REMARK H PARENT 85 52 53 63
REMARK Flexibility Score: inf
ROOT
ATOM      1  C   UNL A   1      49.126  22.481  40.112  1.00  0.00     0.188 C 
ENDROOT
BRANCH   1   2
ATOM      2  O   UNL A   1      50.113  21.447  40.088  1.00  0.00    -0.377 OA
BRANCH   2   3
ATOM      3  C   UNL A   1      49.927  20.320  40.929  1.00  0.00     0.188 C 
BRANCH   3   4
ATOM      4  C   UNL A   1      50.393  18.990  40.308  1.00  0.00     0.188 C 
BRANCH   4   5
ATOM      5  O   UNL A   1      49.334  18.051  40.158  1.00  0.00    -0.376 OA
BRANCH   5   6
ATOM      6  C   UNL A   1      48.001  18.537  40.135  1.00  0.00     0.202 C 
BRANCH   6   7
ATOM      7  C   UNL A   1      47.084  18.233  41.331  1.00  0.00     0.261 C 
BRANCH   7   8
ATOM      8  O   UNL A   1      45.976  17.364  41.063  1.00  0.00    -0.460 OA
BRANCH   8   9
ATOM      9  C   UNL A   1      44.816  17.620  41.695  1.00  0.00     0.338 C 
ATOM     10  O   UNL A   1      44.197  18.669  41.688  1.00  0.00    -0.246 OA
BRANCH   9  11
ATOM     11  C   UNL A   1      44.323  16.347  42.268  1.00  0.00     0.087 C 
ATOM     12  C   UNL A   1      43.463  10.489  44.883  1.00  0.00     0.046 C 
ATOM     13  C   UNL A   1      43.863  11.908  44.582  1.00  0.00    -0.028 A 
ATOM     14  C   UNL A   1      43.068  12.665  43.715  1.00  0.00     0.052 A 
ATOM     15  C   UNL A   1      45.028  12.491  45.119  1.00  0.00     0.047 A 
ATOM     16  C   UNL A   1      43.462  13.939  43.313  1.00  0.00     0.128 A 
ATOM     17  C   UNL A   1      45.430  13.795  44.744  1.00  0.00    -0.021 A 
ATOM     18  Cl  UNL A   1      45.981  11.555  46.232  1.00  0.00    -0.084 Cl
ATOM     19  C   UNL A   1      44.662  14.491  43.775  1.00  0.00     0.022 A 
ATOM     20  O   UNL A   1      42.608  14.554  42.443  1.00  0.00    -0.475 OA
ATOM     21  C   UNL A   1      46.638  14.463  45.359  1.00  0.00     0.047 C 
ATOM     22  C   UNL A   1      45.107  15.747  43.175  1.00  0.00     0.027 C 
ATOM     23  C   UNL A   1      42.960  15.844  41.883  1.00  0.00     0.316 C 
BRANCH  23  24
ATOM     24  C   UNL A   1      42.773  15.757  40.361  1.00  0.00     0.430 C 
ATOM     25  F   UNL A   1      43.926  15.404  39.744  1.00  0.00    -0.167 F 
ATOM     26  F   UNL A   1      41.850  14.831  40.010  1.00  0.00    -0.167 F 
ATOM     27  F   UNL A   1      42.377  16.939  39.836  1.00  0.00    -0.167 F 
ENDBRANCH  23  24
ENDBRANCH   9  11
ENDBRANCH   8   9
ENDBRANCH   7   8
ENDBRANCH   6   7
ENDBRANCH   5   6
ENDBRANCH   4   5
ENDBRANCH   3   4
ENDBRANCH   2   3
ENDBRANCH   1   2
BRANCH   1  28
ATOM     28  C   UNL A   1      48.904  23.458  38.930  1.00  0.00     0.188 C 
BRANCH  28  29
ATOM     29  O   UNL A   1      49.962  23.490  37.983  1.00  0.00    -0.376 OA
BRANCH  29  30
ATOM     30  C   UNL A   1      50.097  24.664  37.198  1.00  0.00     0.202 C 
BRANCH  30  31
ATOM     31  C   UNL A   1      49.198  25.828  37.630  1.00  0.00     0.261 C 
BRANCH  31  32
ATOM     32  O   UNL A   1      47.979  25.973  36.883  1.00  0.00    -0.460 OA
BRANCH  32  33
ATOM     33  C   UNL A   1      46.951  26.610  37.485  1.00  0.00     0.338 C 
ATOM     34  O   UNL A   1      46.886  26.982  38.643  1.00  0.00    -0.246 OA
BRANCH  33  35
ATOM     35  C   UNL A   1      45.977  26.964  36.432  1.00  0.00     0.060 A 
ATOM     36  C   UNL A   1      46.232  28.071  35.614  1.00  0.00     0.016 A 
ATOM     37  C   UNL A   1      44.834  26.185  36.240  1.00  0.00     0.016 A 
ATOM     38  C   UNL A   1      45.326  28.418  34.612  1.00  0.00     0.010 A 
ATOM     39  C   UNL A   1      43.915  26.548  35.253  1.00  0.00     0.010 A 
ATOM     40  C   UNL A   1      44.142  27.683  34.457  1.00  0.00    -0.014 A 
BRANCH  40  41
ATOM     41  C   UNL A   1      43.049  28.233  33.620  1.00  0.00     0.031 A 
ATOM     42  C   UNL A   1      42.099  29.210  34.254  1.00  0.00     0.074 A 
ATOM     43  C   UNL A   1      42.919  27.904  32.322  1.00  0.00     0.049 A 
ATOM     44  N   UNL A   1      41.068  29.826  33.737  1.00  0.00    -0.248 NA
ATOM     45  C   UNL A   1      42.351  29.542  35.667  1.00  0.00     0.031 C 
ATOM     46  C   UNL A   1      43.801  27.004  31.585  1.00  0.00     0.029 A 
ATOM     47  N   UNL A   1      41.986  28.301  31.395  1.00  0.00    -0.354 N 
ATOM     48  C   UNL A   1      40.560  30.623  34.752  1.00  0.00     0.074 A 
ATOM     49  C   UNL A   1      41.365  30.385  35.929  1.00  0.00     0.031 C 
ATOM     50  C   UNL A   1      43.368  26.917  30.314  1.00  0.00     0.029 A 
ATOM     51  C   UNL A   1      42.164  27.733  30.157  1.00  0.00     0.049 A 
ATOM     52  H   UNL A   1      41.259  28.932  31.598  1.00  0.00     0.167 HD
ATOM     53  C   UNL A   1      39.526  31.494  34.702  1.00  0.00     0.037 A 
ATOM     54  C   UNL A   1      41.428  27.853  29.033  1.00  0.00     0.037 A 
ATOM     55  C   UNL A   1      38.720  31.724  33.535  1.00  0.00     0.049 A 
ATOM     56  C   UNL A   1      40.214  28.750  29.034  1.00  0.00     0.074 A 
ATOM     57  C   UNL A   1      37.649  32.586  33.387  1.00  0.00     0.029 A 
ATOM     58  N   UNL A   1      38.891  31.081  32.319  1.00  0.00    -0.354 N 
ATOM     59  N   UNL A   1      39.754  29.521  29.990  1.00  0.00    -0.248 NA
ATOM     60  C   UNL A   1      39.415  28.791  27.800  1.00  0.00     0.031 C 
ATOM     61  C   UNL A   1      37.138  32.426  32.096  1.00  0.00     0.029 A 
ATOM     62  C   UNL A   1      37.925  31.505  31.423  1.00  0.00     0.049 A 
ATOM     63  H   UNL A   1      39.594  30.420  32.122  1.00  0.00     0.167 HD
ATOM     64  C   UNL A   1      38.632  30.155  29.467  1.00  0.00     0.074 A 
ATOM     65  C   UNL A   1      38.487  29.690  28.105  1.00  0.00     0.031 C 
ATOM     66  C   UNL A   1      37.798  31.040  30.065  1.00  0.00     0.037 A 
BRANCH  53  67
ATOM     67  C   UNL A   1      39.200  32.257  35.950  1.00  0.00     0.064 A 
ATOM     68  C   UNL A   1      39.738  33.530  36.190  1.00  0.00     0.173 A 
ATOM     69  C   UNL A   1      38.299  31.735  36.891  1.00  0.00     0.173 A 
ATOM     70  F   UNL A   1      40.618  34.065  35.329  1.00  0.00    -0.203 F 
ATOM     71  C   UNL A   1      39.396  34.248  37.332  1.00  0.00     0.198 A 
ATOM     72  C   UNL A   1      37.938  32.468  38.017  1.00  0.00     0.198 A 
ATOM     73  F   UNL A   1      37.758  30.522  36.707  1.00  0.00    -0.203 F 
ATOM     74  F   UNL A   1      39.950  35.448  37.559  1.00  0.00    -0.200 F 
ATOM     75  C   UNL A   1      38.489  33.721  38.239  1.00  0.00     0.200 A 
ATOM     76  F   UNL A   1      37.052  31.962  38.887  1.00  0.00    -0.200 F 
ATOM     77  F   UNL A   1      38.148  34.421  39.331  1.00  0.00    -0.200 F 
ENDBRANCH  53  67
BRANCH  54  78
ATOM     78  C   UNL A   1      41.820  27.111  27.806  1.00  0.00     0.064 A 
ATOM     79  C   UNL A   1      42.621  27.711  26.825  1.00  0.00     0.173 A 
ATOM     80  C   UNL A   1      41.398  25.792  27.584  1.00  0.00     0.173 A 
ATOM     81  F   UNL A   1      43.026  28.981  26.977  1.00  0.00    -0.203 F 
ATOM     82  C   UNL A   1      42.978  27.025  25.666  1.00  0.00     0.198 A 
ATOM     83  C   UNL A   1      41.777  25.097  26.437  1.00  0.00     0.198 A 
ATOM     84  F   UNL A   1      40.622  25.174  28.486  1.00  0.00    -0.203 F 
ATOM     85  F   UNL A   1      43.712  27.637  24.726  1.00  0.00    -0.200 F 
ATOM     86  C   UNL A   1      42.562  25.715  25.476  1.00  0.00     0.200 A 
ATOM     87  F   UNL A   1      41.380  23.830  26.262  1.00  0.00    -0.200 F 
ATOM     88  F   UNL A   1      42.912  25.054  24.364  1.00  0.00    -0.200 F 
ENDBRANCH  54  78
BRANCH  66  89
ATOM     89  C   UNL A   1      36.656  31.588  29.259  1.00  0.00     0.064 A 
ATOM     90  C   UNL A   1      35.551  30.794  28.922  1.00  0.00     0.173 A 
ATOM     91  C   UNL A   1      36.619  32.948  28.911  1.00  0.00     0.173 A 
ATOM     92  F   UNL A   1      35.541  29.487  29.222  1.00  0.00    -0.203 F 
ATOM     93  C   UNL A   1      34.454  31.340  28.259  1.00  0.00     0.198 A 
ATOM     94  C   UNL A   1      35.508  33.496  28.276  1.00  0.00     0.198 A 
ATOM     95  F   UNL A   1      37.646  33.754  29.221  1.00  0.00    -0.203 F 
ATOM     96  F   UNL A   1      33.418  30.557  27.924  1.00  0.00    -0.200 F 
ATOM     97  C   UNL A   1      34.427  32.692  27.948  1.00  0.00     0.200 A 
ATOM     98  F   UNL A   1      35.477  34.806  27.995  1.00  0.00    -0.200 F 
ATOM     99  F   UNL A   1      33.360  33.220  27.335  1.00  0.00    -0.200 F 
ENDBRANCH  66  89
ENDBRANCH  40  41
ENDBRANCH  33  35
ENDBRANCH  32  33
ENDBRANCH  31  32
ENDBRANCH  30  31
ENDBRANCH  29  30
ENDBRANCH  28  29
ENDBRANCH   1  28
TORSDOF 21
ENDMDL
MODEL 3
REMARK VINA RESULT:      -6.9      6.062     12.640
REMARK SMILES Cc1cc2c(c(C)c1Cl)C=C(C(=O)OCCOCCOCCOCCOC(=O)c1ccc(-c3c4nc(c(-c5c(F)c(F)c(F)c(F)c5F)c5ccc([nH]5)c(-c5c(F)c(F)c(F)c(F)c5F)c5nc(c(-c6c(F)c(F)c(F)c(F)c6F)c6ccc3[nH]6)C=C5)C=C4)cc1)[C@@H](C(F)(F)F)O2
REMARK SMILES IDX 21 1 20 2 19 3 18 4 17 5 16 6 15 7 14 8 12 9 13 10 11 11
REMARK SMILES IDX 1 12 2 13 3 14 8 15 4 16 6 17 9 18 5 19 97 20 7 21 10 22
REMARK SMILES IDX 92 23 93 24 94 25 95 26 96 27 22 28 23 29 24 30 25 31 26 32
REMARK SMILES IDX 27 33 28 34 29 35 30 36 91 37 31 38 90 39 32 40 33 41 34 42
REMARK SMILES IDX 84 43 35 44 89 45 83 46 85 47 36 48 88 49 82 50 81 51 37 53
REMARK SMILES IDX 69 54 49 55 68 56 50 57 53 58 67 59 86 60 51 61 52 62 66 64
REMARK SMILES IDX 87 65 54 66 38 67 39 68 47 69 40 70 41 71 45 72 48 73 42 74
REMARK SMILES IDX 43 75 46 76 44 77 70 78 71 79 79 80 72 81 73 82 77 83 80 84
REMARK SMILES IDX 74 85 75 86 78 87 76 88 55 89 56 90 64 91 57 92 58 93 62 94
REMARK SMILES IDX 65 95 59 96 60 97 63 98 61 99
REMARK H PARENT 85 52 53 63
REMARK Flexibility Score: inf
ROOT
ATOM      1  C   UNL A   1      34.689  33.606  29.225  1.00  0.00     0.188 C 
ENDROOT
BRANCH   1   2
ATOM      2  O   UNL A   1      33.700  32.981  28.404  1.00  0.00    -0.377 OA
BRANCH   2   3
ATOM      3  C   UNL A   1      33.975  31.691  27.882  1.00  0.00     0.188 C 
BRANCH   3   4
ATOM      4  C   UNL A   1      32.882  31.150  26.940  1.00  0.00     0.188 C 
BRANCH   4   5
ATOM      5  O   UNL A   1      32.969  29.743  26.747  1.00  0.00    -0.376 OA
BRANCH   5   6
ATOM      6  C   UNL A   1      31.790  29.037  26.392  1.00  0.00     0.202 C 
BRANCH   6   7
ATOM      7  C   UNL A   1      31.303  29.101  24.936  1.00  0.00     0.261 C 
BRANCH   7   8
ATOM      8  O   UNL A   1      30.578  27.955  24.469  1.00  0.00    -0.460 OA
BRANCH   8   9
ATOM      9  C   UNL A   1      30.764  27.579  23.189  1.00  0.00     0.338 C 
ATOM     10  O   UNL A   1      30.259  28.081  22.201  1.00  0.00    -0.246 OA
BRANCH   9  11
ATOM     11  C   UNL A   1      31.830  26.552  23.171  1.00  0.00     0.087 C 
ATOM     12  C   UNL A   1      36.061  21.791  24.319  1.00  0.00     0.046 C 
ATOM     13  C   UNL A   1      34.829  22.634  24.132  1.00  0.00    -0.028 A 
ATOM     14  C   UNL A   1      34.903  23.766  23.313  1.00  0.00     0.052 A 
ATOM     15  C   UNL A   1      33.612  22.341  24.779  1.00  0.00     0.047 A 
ATOM     16  C   UNL A   1      33.825  24.642  23.206  1.00  0.00     0.128 A 
ATOM     17  C   UNL A   1      32.497  23.205  24.659  1.00  0.00    -0.021 A 
ATOM     18  Cl  UNL A   1      33.521  20.906  25.755  1.00  0.00    -0.084 Cl
ATOM     19  C   UNL A   1      32.641  24.402  23.913  1.00  0.00     0.022 A 
ATOM     20  O   UNL A   1      34.042  25.719  22.396  1.00  0.00    -0.475 OA
ATOM     21  C   UNL A   1      31.164  22.873  25.289  1.00  0.00     0.047 C 
ATOM     22  C   UNL A   1      31.621  25.450  23.904  1.00  0.00     0.027 C 
ATOM     23  C   UNL A   1      33.026  26.748  22.282  1.00  0.00     0.316 C 
BRANCH  23  24
ATOM     24  C   UNL A   1      33.710  28.104  22.506  1.00  0.00     0.430 C 
ATOM     25  F   UNL A   1      34.093  28.254  23.796  1.00  0.00    -0.167 F 
ATOM     26  F   UNL A   1      34.827  28.246  21.754  1.00  0.00    -0.167 F 
ATOM     27  F   UNL A   1      32.889  29.136  22.204  1.00  0.00    -0.167 F 
ENDBRANCH  23  24
ENDBRANCH   9  11
ENDBRANCH   8   9
ENDBRANCH   7   8
ENDBRANCH   6   7
ENDBRANCH   5   6
ENDBRANCH   4   5
ENDBRANCH   3   4
ENDBRANCH   2   3
ENDBRANCH   1   2
BRANCH   1  28
ATOM     28  C   UNL A   1      34.501  33.828  30.746  1.00  0.00     0.188 C 
BRANCH  28  29
ATOM     29  O   UNL A   1      35.711  33.920  31.485  1.00  0.00    -0.376 OA
BRANCH  29  30
ATOM     30  C   UNL A   1      36.671  32.894  31.289  1.00  0.00     0.202 C 
BRANCH  30  31
ATOM     31  C   UNL A   1      36.261  31.522  31.835  1.00  0.00     0.261 C 
BRANCH  31  32
ATOM     32  O   UNL A   1      37.154  30.956  32.809  1.00  0.00    -0.460 OA
BRANCH  32  33
ATOM     33  C   UNL A   1      37.822  29.834  32.463  1.00  0.00     0.338 C 
ATOM     34  O   UNL A   1      37.400  28.692  32.456  1.00  0.00    -0.246 OA
BRANCH  33  35
ATOM     35  C   UNL A   1      39.119  30.254  31.894  1.00  0.00     0.060 A 
ATOM     36  C   UNL A   1      40.070  30.849  32.733  1.00  0.00     0.016 A 
ATOM     37  C   UNL A   1      39.400  30.035  30.543  1.00  0.00     0.016 A 
ATOM     38  C   UNL A   1      41.301  31.250  32.213  1.00  0.00     0.010 A 
ATOM     39  C   UNL A   1      40.623  30.459  30.020  1.00  0.00     0.010 A 
ATOM     40  C   UNL A   1      41.565  31.095  30.845  1.00  0.00    -0.014 A 
BRANCH  40  41
ATOM     41  C   UNL A   1      42.723  31.797  30.243  1.00  0.00     0.031 A 
ATOM     42  C   UNL A   1      44.000  31.025  30.067  1.00  0.00     0.074 A 
ATOM     43  C   UNL A   1      42.639  33.074  29.829  1.00  0.00     0.049 A 
ATOM     44  N   UNL A   1      45.147  31.412  29.570  1.00  0.00    -0.248 NA
ATOM     45  C   UNL A   1      43.980  29.620  30.509  1.00  0.00     0.031 C 
ATOM     46  C   UNL A   1      41.445  33.911  29.904  1.00  0.00     0.029 A 
ATOM     47  N   UNL A   1      43.587  33.886  29.256  1.00  0.00    -0.354 N 
ATOM     48  C   UNL A   1      45.974  30.300  29.628  1.00  0.00     0.074 A 
ATOM     49  C   UNL A   1      45.219  29.234  30.246  1.00  0.00     0.031 C 
ATOM     50  C   UNL A   1      41.731  35.122  29.394  1.00  0.00     0.029 A 
ATOM     51  C   UNL A   1      43.134  35.154  28.982  1.00  0.00     0.049 A 
ATOM     52  H   UNL A   1      44.504  33.588  29.060  1.00  0.00     0.167 HD
ATOM     53  C   UNL A   1      47.246  30.173  29.185  1.00  0.00     0.037 A 
ATOM     54  C   UNL A   1      43.786  36.216  28.468  1.00  0.00     0.037 A 
ATOM     55  C   UNL A   1      48.001  31.235  28.580  1.00  0.00     0.049 A 
ATOM     56  C   UNL A   1      45.239  36.079  28.081  1.00  0.00     0.074 A 
ATOM     57  C   UNL A   1      49.297  31.203  28.100  1.00  0.00     0.029 A 
ATOM     58  N   UNL A   1      47.529  32.524  28.380  1.00  0.00    -0.354 N 
ATOM     59  N   UNL A   1      46.009  35.017  28.114  1.00  0.00    -0.248 NA
ATOM     60  C   UNL A   1      45.914  37.289  27.587  1.00  0.00     0.031 C 
ATOM     61  C   UNL A   1      49.629  32.487  27.658  1.00  0.00     0.029 A 
ATOM     62  C   UNL A   1      48.520  33.304  27.811  1.00  0.00     0.049 A 
ATOM     63  H   UNL A   1      46.624  32.837  28.609  1.00  0.00     0.167 HD
ATOM     64  C   UNL A   1      47.245  35.423  27.625  1.00  0.00     0.074 A 
ATOM     65  C   UNL A   1      47.121  36.824  27.287  1.00  0.00     0.031 C 
ATOM     66  C   UNL A   1      48.379  34.698  27.471  1.00  0.00     0.037 A 
BRANCH  53  67
ATOM     67  C   UNL A   1      47.908  28.838  29.349  1.00  0.00     0.064 A 
ATOM     68  C   UNL A   1      48.632  28.518  30.507  1.00  0.00     0.173 A 
ATOM     69  C   UNL A   1      47.773  27.849  28.363  1.00  0.00     0.173 A 
ATOM     70  F   UNL A   1      48.803  29.436  31.471  1.00  0.00    -0.203 F 
ATOM     71  C   UNL A   1      49.207  27.261  30.667  1.00  0.00     0.198 A 
ATOM     72  C   UNL A   1      48.326  26.585  28.539  1.00  0.00     0.198 A 
ATOM     73  F   UNL A   1      47.091  28.106  27.237  1.00  0.00    -0.203 F 
ATOM     74  F   UNL A   1      49.924  26.988  31.766  1.00  0.00    -0.200 F 
ATOM     75  C   UNL A   1      49.045  26.292  29.688  1.00  0.00     0.200 A 
ATOM     76  F   UNL A   1      48.159  25.646  27.597  1.00  0.00    -0.200 F 
ATOM     77  F   UNL A   1      49.586  25.077  29.850  1.00  0.00    -0.200 F 
ENDBRANCH  53  67
BRANCH  54  78
ATOM     78  C   UNL A   1      43.072  37.507  28.282  1.00  0.00     0.064 A 
ATOM     79  C   UNL A   1      42.307  37.749  27.133  1.00  0.00     0.173 A 
ATOM     80  C   UNL A   1      43.144  38.527  29.242  1.00  0.00     0.173 A 
ATOM     81  F   UNL A   1      42.230  36.816  26.172  1.00  0.00    -0.203 F 
ATOM     82  C   UNL A   1      41.648  38.962  26.946  1.00  0.00     0.198 A 
ATOM     83  C   UNL A   1      42.464  39.732  29.067  1.00  0.00     0.198 A 
ATOM     84  F   UNL A   1      43.871  38.352  30.355  1.00  0.00    -0.203 F 
ATOM     85  F   UNL A   1      40.956  39.181  25.820  1.00  0.00    -0.200 F 
ATOM     86  C   UNL A   1      41.721  39.950  27.918  1.00  0.00     0.200 A 
ATOM     87  F   UNL A   1      42.531  40.679  30.012  1.00  0.00    -0.200 F 
ATOM     88  F   UNL A   1      41.082  41.115  27.741  1.00  0.00    -0.200 F 
ENDBRANCH  54  78
BRANCH  66  89
ATOM     89  C   UNL A   1      49.585  35.387  26.900  1.00  0.00     0.064 A 
ATOM     90  C   UNL A   1      49.731  35.580  25.519  1.00  0.00     0.173 A 
ATOM     91  C   UNL A   1      50.552  35.949  27.749  1.00  0.00     0.173 A 
ATOM     92  F   UNL A   1      48.841  35.055  24.665  1.00  0.00    -0.203 F 
ATOM     93  C   UNL A   1      50.805  36.306  25.008  1.00  0.00     0.198 A 
ATOM     94  C   UNL A   1      51.607  36.699  27.236  1.00  0.00     0.198 A 
ATOM     95  F   UNL A   1      50.453  35.802  29.079  1.00  0.00    -0.203 F 
ATOM     96  F   UNL A   1      50.939  36.458  23.684  1.00  0.00    -0.200 F 
ATOM     97  C   UNL A   1      51.734  36.875  25.867  1.00  0.00     0.200 A 
ATOM     98  F   UNL A   1      52.492  37.265  28.069  1.00  0.00    -0.200 F 
ATOM     99  F   UNL A   1      52.751  37.595  25.375  1.00  0.00    -0.200 F 
ENDBRANCH  66  89
ENDBRANCH  40  41
ENDBRANCH  33  35
ENDBRANCH  32  33
ENDBRANCH  31  32
ENDBRANCH  30  31
ENDBRANCH  29  30
ENDBRANCH  28  29
ENDBRANCH   1  28
TORSDOF 21
ENDMDL
