MODEL 1
REMARK VINA RESULT:      -9.6      0.000      0.000
REMARK SMILES COc1ccccc1C(=O)N1[C@@H](C(=O)OCCOCCOCCOCCOC(=O)c2ccc(-c3c4nc(c(-c5c(F)c(F)c(F)c(F)c5F)c5ccc([nH]5)c(-c5c(F)c(F)c(F)c(F)c5F)c5nc(c(-c6c(F)c(F)c(F)c(F)c6F)c6ccc3[nH]6)C=C5)C=C4)cc2)COC12CC[NH+](Cc1ccccc1)CC2
REMARK SMILES IDX 20 1 19 2 18 3 17 4 16 5 15 6 13 7 14 8 12 9 11 10 95 11
REMARK SMILES IDX 93 12 94 13 96 14 107 15 97 16 106 17 98 18 9 20 10 21 8 22
REMARK SMILES IDX 3 23 4 24 5 25 7 26 6 27 2 28 1 29 99 30 100 31 101 32
REMARK SMILES IDX 105 33 102 34 104 35 103 36 21 37 22 38 23 39 24 40 25 41
REMARK SMILES IDX 26 42 27 43 28 44 29 45 30 46 31 47 92 48 32 49 91 50 33 51
REMARK SMILES IDX 34 52 35 53 85 54 36 55 90 56 84 57 86 58 37 59 89 60 83 61
REMARK SMILES IDX 82 62 38 64 70 65 50 66 69 67 51 68 54 69 68 70 87 71 52 72
REMARK SMILES IDX 53 73 67 75 88 76 55 77 39 78 40 79 48 80 41 81 42 82 46 83
REMARK SMILES IDX 49 84 43 85 44 86 47 87 45 88 71 89 72 90 80 91 73 92 74 93
REMARK SMILES IDX 78 94 81 95 75 96 76 97 79 98 77 99 56 100 57 101 65 102
REMARK SMILES IDX 58 103 59 104 63 105 66 106 60 107 61 108 64 109 62 110
REMARK H PARENT 98 19 86 63 54 74
REMARK Flexibility Score: inf
ROOT
ATOM      1  C   UNL A   1      37.736  31.898  29.103  1.00  0.00     0.188 C 
ENDROOT
BRANCH   1   2
ATOM      2  C   UNL A   1      36.522  31.763  30.034  1.00  0.00     0.188 C 
BRANCH   2   3
ATOM      3  O   UNL A   1      35.219  31.981  29.518  1.00  0.00    -0.376 OA
BRANCH   3   4
ATOM      4  C   UNL A   1      34.906  31.656  28.168  1.00  0.00     0.202 C 
BRANCH   4   5
ATOM      5  C   UNL A   1      33.699  30.787  27.804  1.00  0.00     0.261 C 
BRANCH   5   6
ATOM      6  O   UNL A   1      33.274  30.880  26.433  1.00  0.00    -0.462 OA
BRANCH   6   7
ATOM      7  C   UNL A   1      32.328  29.995  26.040  1.00  0.00     0.331 C 
ATOM      8  O   UNL A   1      31.332  30.311  25.393  1.00  0.00    -0.250 OA
BRANCH   7   9
ATOM      9  C   UNL A   1      32.494  28.593  26.617  1.00  0.00     0.224 C 
ATOM     10  N   UNL A   1      32.251  27.647  25.552  1.00  0.00    -0.293 N 
ATOM     11  C   UNL A   1      31.577  26.471  26.112  1.00  0.00     0.155 C 
ATOM     12  C   UNL A   1      31.645  28.100  27.763  1.00  0.00     0.200 C 
ATOM     13  O   UNL A   1      30.861  27.007  27.254  1.00  0.00    -0.352 OA
ATOM     14  C   UNL A   1      30.513  25.936  25.159  1.00  0.00     0.120 C 
ATOM     15  C   UNL A   1      32.534  25.387  26.651  1.00  0.00     0.120 C 
ATOM     16  C   UNL A   1      29.952  24.585  25.537  1.00  0.00     0.267 C 
ATOM     17  C   UNL A   1      31.890  24.003  26.809  1.00  0.00     0.267 C 
ATOM     18  N   UNL A   1      30.999  23.596  25.731  1.00  0.00    -0.331 N 
ATOM     19  H   UNL A   1      30.564  22.737  26.068  1.00  0.00     0.348 HD
BRANCH  10  20
ATOM     20  C   UNL A   1      33.257  27.583  24.599  1.00  0.00     0.260 C 
ATOM     21  O   UNL A   1      34.246  28.312  24.696  1.00  0.00    -0.269 OA
BRANCH  20  22
ATOM     22  C   UNL A   1      32.985  26.870  23.301  1.00  0.00     0.082 A 
ATOM     23  C   UNL A   1      32.101  27.263  22.285  1.00  0.00     0.131 A 
ATOM     24  C   UNL A   1      31.821  26.404  21.210  1.00  0.00     0.047 A 
ATOM     25  C   UNL A   1      32.477  25.184  21.084  1.00  0.00     0.004 A 
ATOM     26  C   UNL A   1      33.668  25.649  23.131  1.00  0.00     0.018 A 
ATOM     27  C   UNL A   1      33.421  24.817  22.034  1.00  0.00     0.001 A 
BRANCH  23  28
ATOM     28  O   UNL A   1      31.352  28.401  22.327  1.00  0.00    -0.496 OA
ATOM     29  C   UNL A   1      29.995  28.146  22.672  1.00  0.00     0.278 C 
ENDBRANCH  23  28
ENDBRANCH  20  22
ENDBRANCH  10  20
BRANCH  18  30
ATOM     30  C   UNL A   1      31.586  23.020  24.508  1.00  0.00     0.299 C 
BRANCH  30  31
ATOM     31  C   UNL A   1      32.653  21.946  24.610  1.00  0.00     0.006 A 
ATOM     32  C   UNL A   1      34.019  22.266  24.619  1.00  0.00     0.009 A 
ATOM     33  C   UNL A   1      32.293  20.591  24.667  1.00  0.00     0.009 A 
ATOM     34  C   UNL A   1      34.988  21.266  24.749  1.00  0.00     0.001 A 
ATOM     35  C   UNL A   1      33.257  19.596  24.848  1.00  0.00     0.001 A 
ATOM     36  C   UNL A   1      34.605  19.934  24.892  1.00  0.00     0.000 A 
ENDBRANCH  30  31
ENDBRANCH  18  30
ENDBRANCH   7   9
ENDBRANCH   6   7
ENDBRANCH   5   6
ENDBRANCH   4   5
ENDBRANCH   3   4
ENDBRANCH   2   3
ENDBRANCH   1   2
BRANCH   1  37
ATOM     37  O   UNL A   1      38.633  30.808  29.159  1.00  0.00    -0.377 OA
BRANCH  37  38
ATOM     38  C   UNL A   1      38.405  29.658  28.357  1.00  0.00     0.188 C 
BRANCH  38  39
ATOM     39  C   UNL A   1      38.765  28.274  28.917  1.00  0.00     0.188 C 
BRANCH  39  40
ATOM     40  O   UNL A   1      39.657  27.538  28.096  1.00  0.00    -0.376 OA
BRANCH  40  41
ATOM     41  C   UNL A   1      39.960  26.199  28.465  1.00  0.00     0.202 C 
BRANCH  41  42
ATOM     42  C   UNL A   1      39.622  25.101  27.444  1.00  0.00     0.261 C 
BRANCH  42  43
ATOM     43  O   UNL A   1      40.534  24.947  26.339  1.00  0.00    -0.460 OA
BRANCH  43  44
ATOM     44  C   UNL A   1      41.609  24.149  26.492  1.00  0.00     0.338 C 
ATOM     45  O   UNL A   1      41.640  22.936  26.517  1.00  0.00    -0.246 OA
BRANCH  44  46
ATOM     46  C   UNL A   1      42.811  25.004  26.446  1.00  0.00     0.060 A 
ATOM     47  C   UNL A   1      43.480  25.296  27.643  1.00  0.00     0.016 A 
ATOM     48  C   UNL A   1      43.239  25.554  25.237  1.00  0.00     0.016 A 
ATOM     49  C   UNL A   1      44.551  26.188  27.639  1.00  0.00     0.010 A 
ATOM     50  C   UNL A   1      44.298  26.463  25.238  1.00  0.00     0.010 A 
ATOM     51  C   UNL A   1      44.926  26.816  26.445  1.00  0.00    -0.014 A 
BRANCH  51  52
ATOM     52  C   UNL A   1      45.805  28.009  26.491  1.00  0.00     0.031 A 
ATOM     53  C   UNL A   1      47.282  27.804  26.293  1.00  0.00     0.074 A 
ATOM     54  C   UNL A   1      45.309  29.241  26.689  1.00  0.00     0.049 A 
ATOM     55  N   UNL A   1      48.261  28.670  26.351  1.00  0.00    -0.248 NA
ATOM     56  C   UNL A   1      47.713  26.429  25.989  1.00  0.00     0.031 C 
ATOM     57  C   UNL A   1      43.895  29.568  26.848  1.00  0.00     0.029 A 
ATOM     58  N   UNL A   1      45.953  30.447  26.801  1.00  0.00    -0.354 N 
ATOM     59  C   UNL A   1      49.418  27.946  26.100  1.00  0.00     0.074 A 
ATOM     60  C   UNL A   1      49.028  26.565  25.916  1.00  0.00     0.031 C 
ATOM     61  C   UNL A   1      43.778  30.892  27.055  1.00  0.00     0.029 A 
ATOM     62  C   UNL A   1      45.110  31.495  27.076  1.00  0.00     0.049 A 
ATOM     63  H   UNL A   1      46.927  30.552  26.694  1.00  0.00     0.167 HD
ATOM     64  C   UNL A   1      50.693  28.394  26.020  1.00  0.00     0.037 A 
ATOM     65  C   UNL A   1      45.392  32.786  27.341  1.00  0.00     0.037 A 
ATOM     66  C   UNL A   1      51.078  29.767  26.209  1.00  0.00     0.049 A 
ATOM     67  C   UNL A   1      46.829  33.247  27.326  1.00  0.00     0.074 A 
ATOM     68  C   UNL A   1      52.340  30.327  26.139  1.00  0.00     0.029 A 
ATOM     69  N   UNL A   1      50.198  30.796  26.515  1.00  0.00    -0.354 N 
ATOM     70  N   UNL A   1      47.917  32.564  27.065  1.00  0.00    -0.248 NA
ATOM     71  C   UNL A   1      47.073  34.662  27.640  1.00  0.00     0.031 C 
ATOM     72  C   UNL A   1      52.233  31.685  26.456  1.00  0.00     0.029 A 
ATOM     73  C   UNL A   1      50.895  31.983  26.663  1.00  0.00     0.049 A 
ATOM     74  H   UNL A   1      49.224  30.696  26.612  1.00  0.00     0.167 HD
ATOM     75  C   UNL A   1      48.969  33.468  27.152  1.00  0.00     0.074 A 
ATOM     76  C   UNL A   1      48.386  34.753  27.478  1.00  0.00     0.031 C 
ATOM     77  C   UNL A   1      50.297  33.256  26.977  1.00  0.00     0.037 A 
BRANCH  64  78
ATOM     78  C   UNL A   1      51.765  27.381  25.748  1.00  0.00     0.064 A 
ATOM     79  C   UNL A   1      52.480  26.765  26.787  1.00  0.00     0.173 A 
ATOM     80  C   UNL A   1      52.069  27.007  24.431  1.00  0.00     0.173 A 
ATOM     81  F   UNL A   1      52.240  27.102  28.063  1.00  0.00    -0.203 F 
ATOM     82  C   UNL A   1      53.476  25.830  26.515  1.00  0.00     0.198 A 
ATOM     83  C   UNL A   1      53.044  26.050  24.165  1.00  0.00     0.198 A 
ATOM     84  F   UNL A   1      51.417  27.566  23.401  1.00  0.00    -0.203 F 
ATOM     85  F   UNL A   1      54.180  25.292  27.520  1.00  0.00    -0.200 F 
ATOM     86  C   UNL A   1      53.753  25.468  25.205  1.00  0.00     0.200 A 
ATOM     87  F   UNL A   1      53.302  25.694  22.898  1.00  0.00    -0.200 F 
ATOM     88  F   UNL A   1      54.706  24.564  24.945  1.00  0.00    -0.200 F 
ENDBRANCH  64  78
BRANCH  65  89
ATOM     89  C   UNL A   1      44.295  33.737  27.660  1.00  0.00     0.064 A 
ATOM     90  C   UNL A   1      43.693  33.752  28.926  1.00  0.00     0.173 A 
ATOM     91  C   UNL A   1      43.807  34.633  26.697  1.00  0.00     0.173 A 
ATOM     92  F   UNL A   1      44.106  32.896  29.873  1.00  0.00    -0.203 F 
ATOM     93  C   UNL A   1      42.635  34.612  29.211  1.00  0.00     0.198 A 
ATOM     94  C   UNL A   1      42.768  35.514  26.992  1.00  0.00     0.198 A 
ATOM     95  F   UNL A   1      44.345  34.657  25.469  1.00  0.00    -0.203 F 
ATOM     96  F   UNL A   1      42.047  34.571  30.414  1.00  0.00    -0.200 F 
ATOM     97  C   UNL A   1      42.178  35.497  28.246  1.00  0.00     0.200 A 
ATOM     98  F   UNL A   1      42.338  36.375  26.060  1.00  0.00    -0.200 F 
ATOM     99  F   UNL A   1      41.162  36.326  28.522  1.00  0.00    -0.200 F 
ENDBRANCH  65  89
BRANCH  77 100
ATOM    100  C   UNL A   1      51.210  34.444  27.090  1.00  0.00     0.064 A 
ATOM    101  C   UNL A   1      51.495  35.264  25.989  1.00  0.00     0.173 A 
ATOM    102  C   UNL A   1      51.768  34.791  28.330  1.00  0.00     0.173 A 
ATOM    103  F   UNL A   1      50.996  34.969  24.779  1.00  0.00    -0.203 F 
ATOM    104  C   UNL A   1      52.325  36.375  26.121  1.00  0.00     0.198 A 
ATOM    105  C   UNL A   1      52.571  35.920  28.464  1.00  0.00     0.198 A 
ATOM    106  F   UNL A   1      51.520  34.045  29.416  1.00  0.00    -0.203 F 
ATOM    107  F   UNL A   1      52.622  37.118  25.045  1.00  0.00    -0.200 F 
ATOM    108  C   UNL A   1      52.856  36.706  27.358  1.00  0.00     0.200 A 
ATOM    109  F   UNL A   1      53.069  36.247  29.664  1.00  0.00    -0.200 F 
ATOM    110  F   UNL A   1      53.647  37.780  27.484  1.00  0.00    -0.200 F 
ENDBRANCH  77 100
ENDBRANCH  51  52
ENDBRANCH  44  46
ENDBRANCH  43  44
ENDBRANCH  42  43
ENDBRANCH  41  42
ENDBRANCH  40  41
ENDBRANCH  39  40
ENDBRANCH  38  39
ENDBRANCH  37  38
ENDBRANCH   1  37
TORSDOF 25
ENDMDL
MODEL 2
REMARK VINA RESULT:      -9.0      1.417      7.116
REMARK SMILES COc1ccccc1C(=O)N1[C@@H](C(=O)OCCOCCOCCOCCOC(=O)c2ccc(-c3c4nc(c(-c5c(F)c(F)c(F)c(F)c5F)c5ccc([nH]5)c(-c5c(F)c(F)c(F)c(F)c5F)c5nc(c(-c6c(F)c(F)c(F)c(F)c6F)c6ccc3[nH]6)C=C5)C=C4)cc2)COC12CC[NH+](Cc1ccccc1)CC2
REMARK SMILES IDX 20 1 19 2 18 3 17 4 16 5 15 6 13 7 14 8 12 9 11 10 95 11
REMARK SMILES IDX 93 12 94 13 96 14 107 15 97 16 106 17 98 18 9 20 10 21 8 22
REMARK SMILES IDX 3 23 4 24 5 25 7 26 6 27 2 28 1 29 99 30 100 31 101 32
REMARK SMILES IDX 105 33 102 34 104 35 103 36 21 37 22 38 23 39 24 40 25 41
REMARK SMILES IDX 26 42 27 43 28 44 29 45 30 46 31 47 92 48 32 49 91 50 33 51
REMARK SMILES IDX 34 52 35 53 85 54 36 55 90 56 84 57 86 58 37 59 89 60 83 61
REMARK SMILES IDX 82 62 38 64 70 65 50 66 69 67 51 68 54 69 68 70 87 71 52 72
REMARK SMILES IDX 53 73 67 75 88 76 55 77 39 78 40 79 48 80 41 81 42 82 46 83
REMARK SMILES IDX 49 84 43 85 44 86 47 87 45 88 71 89 72 90 80 91 73 92 74 93
REMARK SMILES IDX 78 94 81 95 75 96 76 97 79 98 77 99 56 100 57 101 65 102
REMARK SMILES IDX 58 103 59 104 63 105 66 106 60 107 61 108 64 109 62 110
REMARK H PARENT 98 19 86 63 54 74
REMARK Flexibility Score: inf
ROOT
ATOM      1  C   UNL A   1      36.042  31.196  28.748  1.00  0.00     0.188 C 
ENDROOT
BRANCH   1   2
ATOM      2  C   UNL A   1      34.611  31.314  28.203  1.00  0.00     0.188 C 
BRANCH   2   3
ATOM      3  O   UNL A   1      34.304  30.783  26.925  1.00  0.00    -0.376 OA
BRANCH   3   4
ATOM      4  C   UNL A   1      33.771  29.470  26.789  1.00  0.00     0.202 C 
BRANCH   4   5
ATOM      5  C   UNL A   1      34.008  28.625  25.535  1.00  0.00     0.261 C 
BRANCH   5   6
ATOM      6  O   UNL A   1      33.058  28.829  24.475  1.00  0.00    -0.462 OA
BRANCH   6   7
ATOM      7  C   UNL A   1      31.751  28.746  24.821  1.00  0.00     0.331 C 
ATOM      8  O   UNL A   1      31.207  29.520  25.606  1.00  0.00    -0.250 OA
BRANCH   7   9
ATOM      9  C   UNL A   1      31.037  27.503  24.301  1.00  0.00     0.224 C 
ATOM     10  N   UNL A   1      31.851  26.357  24.634  1.00  0.00    -0.293 N 
ATOM     11  C   UNL A   1      31.746  25.374  23.551  1.00  0.00     0.155 C 
ATOM     12  C   UNL A   1      30.713  27.326  22.838  1.00  0.00     0.200 C 
ATOM     13  O   UNL A   1      31.469  26.190  22.384  1.00  0.00    -0.352 OA
ATOM     14  C   UNL A   1      33.086  24.697  23.285  1.00  0.00     0.120 C 
ATOM     15  C   UNL A   1      30.568  24.389  23.698  1.00  0.00     0.120 C 
ATOM     16  C   UNL A   1      33.015  23.498  22.370  1.00  0.00     0.267 C 
ATOM     17  C   UNL A   1      30.707  23.113  22.858  1.00  0.00     0.267 C 
ATOM     18  N   UNL A   1      32.039  22.522  22.825  1.00  0.00    -0.331 N 
ATOM     19  H   UNL A   1      31.976  21.786  22.123  1.00  0.00     0.348 HD
BRANCH  10  20
ATOM     20  C   UNL A   1      31.857  26.027  25.981  1.00  0.00     0.260 C 
ATOM     21  O   UNL A   1      31.653  26.897  26.830  1.00  0.00    -0.269 OA
BRANCH  20  22
ATOM     22  C   UNL A   1      32.425  24.698  26.403  1.00  0.00     0.082 A 
ATOM     23  C   UNL A   1      31.737  23.631  26.999  1.00  0.00     0.131 A 
ATOM     24  C   UNL A   1      32.436  22.520  27.498  1.00  0.00     0.047 A 
ATOM     25  C   UNL A   1      33.813  22.414  27.336  1.00  0.00     0.004 A 
ATOM     26  C   UNL A   1      33.814  24.550  26.213  1.00  0.00     0.018 A 
ATOM     27  C   UNL A   1      34.501  23.421  26.670  1.00  0.00     0.001 A 
BRANCH  23  28
ATOM     28  O   UNL A   1      30.401  23.645  27.271  1.00  0.00    -0.496 OA
ATOM     29  C   UNL A   1      29.760  22.427  26.909  1.00  0.00     0.278 C 
ENDBRANCH  23  28
ENDBRANCH  20  22
ENDBRANCH  10  20
BRANCH  18  30
ATOM     30  C   UNL A   1      32.456  21.656  23.942  1.00  0.00     0.299 C 
BRANCH  30  31
ATOM     31  C   UNL A   1      32.740  20.186  23.698  1.00  0.00     0.006 A 
ATOM     32  C   UNL A   1      32.126  19.482  22.650  1.00  0.00     0.009 A 
ATOM     33  C   UNL A   1      33.609  19.480  24.544  1.00  0.00     0.009 A 
ATOM     34  C   UNL A   1      32.426  18.136  22.420  1.00  0.00     0.001 A 
ATOM     35  C   UNL A   1      33.949  18.150  24.284  1.00  0.00     0.001 A 
ATOM     36  C   UNL A   1      33.359  17.479  23.219  1.00  0.00     0.000 A 
ENDBRANCH  30  31
ENDBRANCH  18  30
ENDBRANCH   7   9
ENDBRANCH   6   7
ENDBRANCH   5   6
ENDBRANCH   4   5
ENDBRANCH   3   4
ENDBRANCH   2   3
ENDBRANCH   1   2
BRANCH   1  37
ATOM     37  O   UNL A   1      36.925  30.486  27.904  1.00  0.00    -0.377 OA
BRANCH  37  38
ATOM     38  C   UNL A   1      38.187  30.059  28.396  1.00  0.00     0.188 C 
BRANCH  38  39
ATOM     39  C   UNL A   1      38.276  28.739  29.176  1.00  0.00     0.188 C 
BRANCH  39  40
ATOM     40  O   UNL A   1      39.456  27.996  28.912  1.00  0.00    -0.376 OA
BRANCH  40  41
ATOM     41  C   UNL A   1      39.395  26.579  29.017  1.00  0.00     0.202 C 
BRANCH  41  42
ATOM     42  C   UNL A   1      39.969  25.769  27.844  1.00  0.00     0.261 C 
BRANCH  42  43
ATOM     43  O   UNL A   1      40.975  24.791  28.168  1.00  0.00    -0.460 OA
BRANCH  43  44
ATOM     44  C   UNL A   1      42.003  24.609  27.315  1.00  0.00     0.338 C 
ATOM     45  O   UNL A   1      42.183  23.685  26.549  1.00  0.00    -0.246 OA
BRANCH  44  46
ATOM     46  C   UNL A   1      42.818  25.840  27.329  1.00  0.00     0.060 A 
ATOM     47  C   UNL A   1      43.032  26.523  26.124  1.00  0.00     0.016 A 
ATOM     48  C   UNL A   1      43.407  26.282  28.514  1.00  0.00     0.016 A 
ATOM     49  C   UNL A   1      43.886  27.624  26.093  1.00  0.00     0.010 A 
ATOM     50  C   UNL A   1      44.278  27.371  28.479  1.00  0.00     0.010 A 
ATOM     51  C   UNL A   1      44.555  28.016  27.260  1.00  0.00    -0.014 A 
BRANCH  51  52
ATOM     52  C   UNL A   1      45.713  28.936  27.166  1.00  0.00     0.031 A 
ATOM     53  C   UNL A   1      45.463  30.407  27.354  1.00  0.00     0.074 A 
ATOM     54  C   UNL A   1      46.956  28.481  26.934  1.00  0.00     0.049 A 
ATOM     55  N   UNL A   1      46.291  31.415  27.256  1.00  0.00    -0.248 NA
ATOM     56  C   UNL A   1      44.084  30.794  27.696  1.00  0.00     0.031 C 
ATOM     57  C   UNL A   1      47.327  27.077  26.781  1.00  0.00     0.029 A 
ATOM     58  N   UNL A   1      48.134  29.165  26.776  1.00  0.00    -0.354 N 
ATOM     59  C   UNL A   1      45.535  32.549  27.517  1.00  0.00     0.074 A 
ATOM     60  C   UNL A   1      44.175  32.113  27.749  1.00  0.00     0.031 C 
ATOM     61  C   UNL A   1      48.648  27.004  26.533  1.00  0.00     0.029 A 
ATOM     62  C   UNL A   1      49.202  28.356  26.476  1.00  0.00     0.049 A 
ATOM     63  H   UNL A   1      48.208  30.143  26.868  1.00  0.00     0.167 HD
ATOM     64  C   UNL A   1      45.940  33.840  27.568  1.00  0.00     0.037 A 
ATOM     65  C   UNL A   1      50.473  28.680  26.167  1.00  0.00     0.037 A 
ATOM     66  C   UNL A   1      47.292  34.270  27.330  1.00  0.00     0.049 A 
ATOM     67  C   UNL A   1      50.882  30.132  26.151  1.00  0.00     0.074 A 
ATOM     68  C   UNL A   1      47.808  35.552  27.367  1.00  0.00     0.029 A 
ATOM     69  N   UNL A   1      48.340  33.424  27.002  1.00  0.00    -0.354 N 
ATOM     70  N   UNL A   1      50.170  31.199  26.421  1.00  0.00    -0.248 NA
ATOM     71  C   UNL A   1      52.278  30.422  25.789  1.00  0.00     0.031 C 
ATOM     72  C   UNL A   1      49.158  35.489  27.008  1.00  0.00     0.029 A 
ATOM     73  C   UNL A   1      49.497  34.160  26.807  1.00  0.00     0.049 A 
ATOM     74  H   UNL A   1      48.272  32.445  26.919  1.00  0.00     0.167 HD
ATOM     75  C   UNL A   1      51.033  32.281  26.293  1.00  0.00     0.074 A 
ATOM     76  C   UNL A   1      52.326  31.740  25.932  1.00  0.00     0.031 C 
ATOM     77  C   UNL A   1      50.779  33.602  26.459  1.00  0.00     0.037 A 
BRANCH  64  78
ATOM     78  C   UNL A   1      44.899  34.879  27.860  1.00  0.00     0.064 A 
ATOM     79  C   UNL A   1      44.685  35.366  29.158  1.00  0.00     0.173 A 
ATOM     80  C   UNL A   1      44.118  35.412  26.822  1.00  0.00     0.173 A 
ATOM     81  F   UNL A   1      45.391  34.877  30.188  1.00  0.00    -0.203 F 
ATOM     82  C   UNL A   1      43.710  36.328  29.411  1.00  0.00     0.198 A 
ATOM     83  C   UNL A   1      43.166  36.395  27.074  1.00  0.00     0.198 A 
ATOM     84  F   UNL A   1      44.282  34.981  25.563  1.00  0.00    -0.203 F 
ATOM     85  F   UNL A   1      43.488  36.742  30.666  1.00  0.00    -0.200 F 
ATOM     86  C   UNL A   1      42.956  36.847  28.368  1.00  0.00     0.200 A 
ATOM     87  F   UNL A   1      42.446  36.902  26.063  1.00  0.00    -0.200 F 
ATOM     88  F   UNL A   1      42.023  37.777  28.612  1.00  0.00    -0.200 F 
ENDBRANCH  64  78
BRANCH  65  89
ATOM     89  C   UNL A   1      51.451  27.613  25.830  1.00  0.00     0.064 A 
ATOM     90  C   UNL A   1      52.171  26.947  26.831  1.00  0.00     0.173 A 
ATOM     91  C   UNL A   1      51.706  27.255  24.497  1.00  0.00     0.173 A 
ATOM     92  F   UNL A   1      51.983  27.272  28.120  1.00  0.00    -0.203 F 
ATOM     93  C   UNL A   1      53.121  25.978  26.513  1.00  0.00     0.198 A 
ATOM     94  C   UNL A   1      52.634  26.264  24.182  1.00  0.00     0.198 A 
ATOM     95  F   UNL A   1      51.047  27.863  23.501  1.00  0.00    -0.203 F 
ATOM     96  F   UNL A   1      53.829  25.393  27.488  1.00  0.00    -0.200 F 
ATOM     97  C   UNL A   1      53.347  25.633  25.189  1.00  0.00     0.200 A 
ATOM     98  F   UNL A   1      52.840  25.926  22.901  1.00  0.00    -0.200 F 
ATOM     99  F   UNL A   1      54.258  24.699  24.884  1.00  0.00    -0.200 F 
ENDBRANCH  65  89
BRANCH  77 100
ATOM    100  C   UNL A   1      51.930  34.555  26.297  1.00  0.00     0.064 A 
ATOM    101  C   UNL A   1      52.835  34.805  27.339  1.00  0.00     0.173 A 
ATOM    102  C   UNL A   1      52.156  35.189  25.066  1.00  0.00     0.173 A 
ATOM    103  F   UNL A   1      52.657  34.234  28.540  1.00  0.00    -0.203 F 
ATOM    104  C   UNL A   1      53.909  35.674  27.161  1.00  0.00     0.198 A 
ATOM    105  C   UNL A   1      53.248  36.031  24.882  1.00  0.00     0.198 A 
ATOM    106  F   UNL A   1      51.326  34.977  24.034  1.00  0.00    -0.203 F 
ATOM    107  F   UNL A   1      54.734  35.935  28.185  1.00  0.00    -0.200 F 
ATOM    108  C   UNL A   1      54.119  36.280  25.932  1.00  0.00     0.200 A 
ATOM    109  F   UNL A   1      53.459  36.602  23.688  1.00  0.00    -0.200 F 
ATOM    110  F   UNL A   1      55.158  37.108  25.760  1.00  0.00    -0.200 F 
ENDBRANCH  77 100
ENDBRANCH  51  52
ENDBRANCH  44  46
ENDBRANCH  43  44
ENDBRANCH  42  43
ENDBRANCH  41  42
ENDBRANCH  40  41
ENDBRANCH  39  40
ENDBRANCH  38  39
ENDBRANCH  37  38
ENDBRANCH   1  37
TORSDOF 25
ENDMDL
MODEL 3
REMARK VINA RESULT:      -8.7      6.217     13.347
REMARK SMILES COc1ccccc1C(=O)N1[C@@H](C(=O)OCCOCCOCCOCCOC(=O)c2ccc(-c3c4nc(c(-c5c(F)c(F)c(F)c(F)c5F)c5ccc([nH]5)c(-c5c(F)c(F)c(F)c(F)c5F)c5nc(c(-c6c(F)c(F)c(F)c(F)c6F)c6ccc3[nH]6)C=C5)C=C4)cc2)COC12CC[NH+](Cc1ccccc1)CC2
REMARK SMILES IDX 20 1 19 2 18 3 17 4 16 5 15 6 13 7 14 8 12 9 11 10 95 11
REMARK SMILES IDX 93 12 94 13 96 14 107 15 97 16 106 17 98 18 9 20 10 21 8 22
REMARK SMILES IDX 3 23 4 24 5 25 7 26 6 27 2 28 1 29 99 30 100 31 101 32
REMARK SMILES IDX 105 33 102 34 104 35 103 36 21 37 22 38 23 39 24 40 25 41
REMARK SMILES IDX 26 42 27 43 28 44 29 45 30 46 31 47 92 48 32 49 91 50 33 51
REMARK SMILES IDX 34 52 35 53 85 54 36 55 90 56 84 57 86 58 37 59 89 60 83 61
REMARK SMILES IDX 82 62 38 64 70 65 50 66 69 67 51 68 54 69 68 70 87 71 52 72
REMARK SMILES IDX 53 73 67 75 88 76 55 77 39 78 40 79 48 80 41 81 42 82 46 83
REMARK SMILES IDX 49 84 43 85 44 86 47 87 45 88 71 89 72 90 80 91 73 92 74 93
REMARK SMILES IDX 78 94 81 95 75 96 76 97 79 98 77 99 56 100 57 101 65 102
REMARK SMILES IDX 58 103 59 104 63 105 66 106 60 107 61 108 64 109 62 110
REMARK H PARENT 98 19 86 63 54 74
REMARK Flexibility Score: inf
ROOT
ATOM      1  C   UNL A   1      51.354  35.129  26.935  1.00  0.00     0.188 C 
ENDROOT
BRANCH   1   2
ATOM      2  C   UNL A   1      50.926  33.670  27.149  1.00  0.00     0.188 C 
BRANCH   2   3
ATOM      3  O   UNL A   1      51.798  32.622  26.757  1.00  0.00    -0.376 OA
BRANCH   3   4
ATOM      4  C   UNL A   1      51.412  31.691  25.752  1.00  0.00     0.202 C 
BRANCH   4   5
ATOM      5  C   UNL A   1      51.129  30.222  26.076  1.00  0.00     0.261 C 
BRANCH   5   6
ATOM      6  O   UNL A   1      49.759  29.923  26.399  1.00  0.00    -0.462 OA
BRANCH   6   7
ATOM      7  C   UNL A   1      49.434  28.610  26.468  1.00  0.00     0.331 C 
ATOM      8  O   UNL A   1      50.227  27.733  26.806  1.00  0.00    -0.250 OA
BRANCH   7   9
ATOM      9  C   UNL A   1      48.055  28.270  25.916  1.00  0.00     0.224 C 
ATOM     10  N   UNL A   1      47.366  27.479  26.910  1.00  0.00    -0.293 N 
ATOM     11  C   UNL A   1      46.538  26.480  26.225  1.00  0.00     0.155 C 
ATOM     12  C   UNL A   1      47.881  27.499  24.630  1.00  0.00     0.200 C 
ATOM     13  O   UNL A   1      47.245  26.257  24.978  1.00  0.00    -0.352 OA
ATOM     14  C   UNL A   1      46.554  25.147  26.965  1.00  0.00     0.120 C 
ATOM     15  C   UNL A   1      45.123  26.972  25.857  1.00  0.00     0.120 C 
ATOM     16  C   UNL A   1      45.533  24.145  26.479  1.00  0.00     0.267 C 
ATOM     17  C   UNL A   1      44.121  25.846  25.571  1.00  0.00     0.267 C 
ATOM     18  N   UNL A   1      44.190  24.699  26.467  1.00  0.00    -0.331 N 
ATOM     19  H   UNL A   1      43.567  24.008  26.049  1.00  0.00     0.348 HD
BRANCH  10  20
ATOM     20  C   UNL A   1      46.956  28.190  28.028  1.00  0.00     0.260 C 
ATOM     21  O   UNL A   1      47.430  27.926  29.135  1.00  0.00    -0.269 OA
BRANCH  20  22
ATOM     22  C   UNL A   1      45.719  29.043  27.935  1.00  0.00     0.082 A 
ATOM     23  C   UNL A   1      45.603  30.310  27.346  1.00  0.00     0.131 A 
ATOM     24  C   UNL A   1      44.425  31.061  27.491  1.00  0.00     0.047 A 
ATOM     25  C   UNL A   1      43.320  30.531  28.149  1.00  0.00     0.004 A 
ATOM     26  C   UNL A   1      44.573  28.510  28.560  1.00  0.00     0.018 A 
ATOM     27  C   UNL A   1      43.386  29.242  28.663  1.00  0.00     0.001 A 
BRANCH  23  28
ATOM     28  O   UNL A   1      46.632  30.961  26.734  1.00  0.00    -0.496 OA
ATOM     29  C   UNL A   1      46.381  32.353  26.581  1.00  0.00     0.278 C 
ENDBRANCH  23  28
ENDBRANCH  20  22
ENDBRANCH  10  20
BRANCH  18  30
ATOM     30  C   UNL A   1      43.505  24.776  27.769  1.00  0.00     0.299 C 
BRANCH  30  31
ATOM     31  C   UNL A   1      42.032  25.134  27.834  1.00  0.00     0.006 A 
ATOM     32  C   UNL A   1      41.547  26.093  28.737  1.00  0.00     0.009 A 
ATOM     33  C   UNL A   1      41.107  24.484  27.003  1.00  0.00     0.009 A 
ATOM     34  C   UNL A   1      40.191  26.434  28.758  1.00  0.00     0.001 A 
ATOM     35  C   UNL A   1      39.762  24.861  26.987  1.00  0.00     0.001 A 
ATOM     36  C   UNL A   1      39.305  25.839  27.863  1.00  0.00     0.000 A 
ENDBRANCH  30  31
ENDBRANCH  18  30
ENDBRANCH   7   9
ENDBRANCH   6   7
ENDBRANCH   5   6
ENDBRANCH   4   5
ENDBRANCH   3   4
ENDBRANCH   2   3
ENDBRANCH   1   2
BRANCH   1  37
ATOM     37  O   UNL A   1      50.432  35.900  26.193  1.00  0.00    -0.377 OA
BRANCH  37  38
ATOM     38  C   UNL A   1      49.754  36.985  26.810  1.00  0.00     0.188 C 
BRANCH  38  39
ATOM     39  C   UNL A   1      48.238  37.125  26.616  1.00  0.00     0.188 C 
BRANCH  39  40
ATOM     40  O   UNL A   1      47.873  38.029  25.584  1.00  0.00    -0.376 OA
BRANCH  40  41
ATOM     41  C   UNL A   1      47.554  39.367  25.946  1.00  0.00     0.202 C 
BRANCH  41  42
ATOM     42  C   UNL A   1      46.082  39.790  25.817  1.00  0.00     0.261 C 
BRANCH  42  43
ATOM     43  O   UNL A   1      45.437  40.251  27.019  1.00  0.00    -0.460 OA
BRANCH  43  44
ATOM     44  C   UNL A   1      44.094  40.181  27.103  1.00  0.00     0.338 C 
ATOM     45  O   UNL A   1      43.276  40.956  26.652  1.00  0.00    -0.246 OA
BRANCH  44  46
ATOM     46  C   UNL A   1      43.751  38.876  27.702  1.00  0.00     0.060 A 
ATOM     47  C   UNL A   1      43.778  38.743  29.096  1.00  0.00     0.016 A 
ATOM     48  C   UNL A   1      43.457  37.782  26.886  1.00  0.00     0.016 A 
ATOM     49  C   UNL A   1      43.566  37.494  29.679  1.00  0.00     0.010 A 
ATOM     50  C   UNL A   1      43.265  36.528  27.468  1.00  0.00     0.010 A 
ATOM     51  C   UNL A   1      43.364  36.374  28.863  1.00  0.00    -0.014 A 
BRANCH  51  52
ATOM     52  C   UNL A   1      43.494  35.015  29.440  1.00  0.00     0.031 A 
ATOM     53  C   UNL A   1      42.232  34.267  29.773  1.00  0.00     0.074 A 
ATOM     54  C   UNL A   1      44.695  34.452  29.652  1.00  0.00     0.049 A 
ATOM     55  N   UNL A   1      42.079  33.099  30.342  1.00  0.00    -0.248 NA
ATOM     56  C   UNL A   1      40.968  34.933  29.416  1.00  0.00     0.031 C 
ATOM     57  C   UNL A   1      45.982  35.060  29.329  1.00  0.00     0.029 A 
ATOM     58  N   UNL A   1      45.019  33.240  30.205  1.00  0.00    -0.354 N 
ATOM     59  C   UNL A   1      40.708  32.895  30.416  1.00  0.00     0.074 A 
ATOM     60  C   UNL A   1      40.069  34.069  29.862  1.00  0.00     0.031 C 
ATOM     61  C   UNL A   1      46.964  34.221  29.706  1.00  0.00     0.029 A 
ATOM     62  C   UNL A   1      46.371  33.037  30.327  1.00  0.00     0.049 A 
ATOM     63  H   UNL A   1      44.347  32.578  30.489  1.00  0.00     0.167 HD
ATOM     64  C   UNL A   1      40.039  31.820  30.897  1.00  0.00     0.037 A 
ATOM     65  C   UNL A   1      47.046  32.020  30.900  1.00  0.00     0.037 A 
ATOM     66  C   UNL A   1      40.678  30.657  31.453  1.00  0.00     0.049 A 
ATOM     67  C   UNL A   1      46.278  30.869  31.500  1.00  0.00     0.074 A 
ATOM     68  C   UNL A   1      40.093  29.510  31.957  1.00  0.00     0.029 A 
ATOM     69  N   UNL A   1      42.050  30.500  31.585  1.00  0.00    -0.354 N 
ATOM     70  N   UNL A   1      44.983  30.670  31.548  1.00  0.00    -0.248 NA
ATOM     71  C   UNL A   1      47.069  29.800  32.126  1.00  0.00     0.031 C 
ATOM     72  C   UNL A   1      41.108  28.681  32.444  1.00  0.00     0.029 A 
ATOM     73  C   UNL A   1      42.329  29.285  32.187  1.00  0.00     0.049 A 
ATOM     74  H   UNL A   1      42.724  31.155  31.293  1.00  0.00     0.167 HD
ATOM     75  C   UNL A   1      44.805  29.443  32.177  1.00  0.00     0.074 A 
ATOM     76  C   UNL A   1      46.127  28.938  32.483  1.00  0.00     0.031 C 
ATOM     77  C   UNL A   1      43.653  28.793  32.474  1.00  0.00     0.037 A 
BRANCH  64  78
ATOM     78  C   UNL A   1      38.540  31.870  30.870  1.00  0.00     0.064 A 
ATOM     79  C   UNL A   1      37.799  32.370  31.952  1.00  0.00     0.173 A 
ATOM     80  C   UNL A   1      37.836  31.431  29.739  1.00  0.00     0.173 A 
ATOM     81  F   UNL A   1      38.423  32.785  33.064  1.00  0.00    -0.203 F 
ATOM     82  C   UNL A   1      36.407  32.404  31.911  1.00  0.00     0.198 A 
ATOM     83  C   UNL A   1      36.447  31.495  29.690  1.00  0.00     0.198 A 
ATOM     84  F   UNL A   1      38.497  30.944  28.678  1.00  0.00    -0.203 F 
ATOM     85  F   UNL A   1      35.717  32.838  32.975  1.00  0.00    -0.200 F 
ATOM     86  C   UNL A   1      35.732  31.973  30.778  1.00  0.00     0.200 A 
ATOM     87  F   UNL A   1      35.798  31.088  28.590  1.00  0.00    -0.200 F 
ATOM     88  F   UNL A   1      34.394  32.012  30.738  1.00  0.00    -0.200 F 
ENDBRANCH  64  78
BRANCH  65  89
ATOM     89  C   UNL A   1      48.532  32.048  30.949  1.00  0.00     0.064 A 
ATOM     90  C   UNL A   1      49.302  31.381  29.986  1.00  0.00     0.173 A 
ATOM     91  C   UNL A   1      49.212  32.721  31.975  1.00  0.00     0.173 A 
ATOM     92  F   UNL A   1      48.697  30.699  29.001  1.00  0.00    -0.203 F 
ATOM     93  C   UNL A   1      50.693  31.369  30.058  1.00  0.00     0.198 A 
ATOM     94  C   UNL A   1      50.605  32.734  32.029  1.00  0.00     0.198 A 
ATOM     95  F   UNL A   1      48.523  33.373  32.922  1.00  0.00    -0.203 F 
ATOM     96  F   UNL A   1      51.402  30.682  29.153  1.00  0.00    -0.200 F 
ATOM     97  C   UNL A   1      51.344  32.051  31.075  1.00  0.00     0.200 A 
ATOM     98  F   UNL A   1      51.229  33.405  33.007  1.00  0.00    -0.200 F 
ATOM     99  F   UNL A   1      52.682  32.042  31.142  1.00  0.00    -0.200 F 
ENDBRANCH  65  89
BRANCH  77 100
ATOM    100  C   UNL A   1      43.766  27.444  33.125  1.00  0.00     0.064 A 
ATOM    101  C   UNL A   1      43.578  27.270  34.504  1.00  0.00     0.173 A 
ATOM    102  C   UNL A   1      44.018  26.302  32.348  1.00  0.00     0.173 A 
ATOM    103  F   UNL A   1      43.347  28.331  35.293  1.00  0.00    -0.203 F 
ATOM    104  C   UNL A   1      43.664  26.007  35.084  1.00  0.00     0.198 A 
ATOM    105  C   UNL A   1      44.071  25.038  32.927  1.00  0.00     0.198 A 
ATOM    106  F   UNL A   1      44.195  26.412  31.024  1.00  0.00    -0.203 F 
ATOM    107  F   UNL A   1      43.529  25.871  36.411  1.00  0.00    -0.200 F 
ATOM    108  C   UNL A   1      43.902  24.892  34.295  1.00  0.00     0.200 A 
ATOM    109  F   UNL A   1      44.284  23.960  32.160  1.00  0.00    -0.200 F 
ATOM    110  F   UNL A   1      43.975  23.676  34.855  1.00  0.00    -0.200 F 
ENDBRANCH  77 100
ENDBRANCH  51  52
ENDBRANCH  44  46
ENDBRANCH  43  44
ENDBRANCH  42  43
ENDBRANCH  41  42
ENDBRANCH  40  41
ENDBRANCH  39  40
ENDBRANCH  38  39
ENDBRANCH  37  38
ENDBRANCH   1  37
TORSDOF 25
ENDMDL
