MODEL 1
REMARK VINA RESULT:      -7.1      0.000      0.000
REMARK SMILES COC(=O)c1c(-c2ccccc2Cl)csc1NC(=O)[C@@H]1[C@@H]2CC[C@@H](C2)[C@@H]1C(=O)OCCOCCOCCOCCOC(=O)c1ccc(-c2c3nc(c(-c4c(F)c(F)c(F)c(F)c4F)c4ccc([nH]4)c(-c4c(F)c(F)c(F)c(F)c4F)c4nc(c(-c5c(F)c(F)c(F)c(F)c5F)c5ccc2[nH]5)C=C4)C=C3)cc1
REMARK SMILES IDX 34 1 33 2 32 3 31 4 30 5 29 6 27 7 28 8 26 9 20 10 21 11
REMARK SMILES IDX 22 12 25 13 24 14 23 15 18 16 17 17 19 19 16 20 5 21 6 22
REMARK SMILES IDX 14 23 15 24 3 25 4 26 2 27 1 28 7 29 8 30 12 31 9 32 11 33
REMARK SMILES IDX 13 34 10 35 35 36 36 37 37 38 38 39 39 40 40 41 41 42 42 43
REMARK SMILES IDX 43 44 44 45 45 46 106 47 46 48 105 49 47 50 48 51 49 52
REMARK SMILES IDX 99 53 50 54 104 55 98 56 100 57 51 58 103 59 97 60 96 61
REMARK SMILES IDX 52 63 84 64 64 65 83 66 65 67 68 68 82 69 101 70 66 71 67 72
REMARK SMILES IDX 81 74 102 75 69 76 53 77 54 78 62 79 55 80 56 81 60 82 63 83
REMARK SMILES IDX 57 84 58 85 61 86 59 87 85 88 86 89 94 90 87 91 88 92 92 93
REMARK SMILES IDX 95 94 89 95 90 96 93 97 91 98 70 99 71 100 79 101 72 102
REMARK SMILES IDX 73 103 77 104 80 105 74 106 75 107 78 108 76 109
REMARK H PARENT 17 18 100 62 68 73
REMARK Flexibility Score: inf
ROOT
ATOM      1  C   UNL A   1      42.295  22.542  28.370  1.00  0.00     0.188 C 
ENDROOT
BRANCH   1   2
ATOM      2  C   UNL A   1      43.007  23.302  29.512  1.00  0.00     0.188 C 
BRANCH   2   3
ATOM      3  O   UNL A   1      44.279  23.808  29.121  1.00  0.00    -0.376 OA
BRANCH   3   4
ATOM      4  C   UNL A   1      44.973  24.624  30.052  1.00  0.00     0.202 C 
BRANCH   4   5
ATOM      5  C   UNL A   1      44.532  24.414  31.505  1.00  0.00     0.261 C 
BRANCH   5   6
ATOM      6  O   UNL A   1      44.160  25.618  32.200  1.00  0.00    -0.463 OA
BRANCH   6   7
ATOM      7  C   UNL A   1      44.197  25.607  33.562  1.00  0.00     0.310 C 
ATOM      8  O   UNL A   1      45.175  25.904  34.223  1.00  0.00    -0.252 OA
BRANCH   7   9
ATOM      9  C   UNL A   1      42.816  25.220  34.081  1.00  0.00     0.115 C 
ATOM     10  C   UNL A   1      41.901  26.247  34.833  1.00  0.00     0.096 C 
ATOM     11  C   UNL A   1      41.788  25.534  36.215  1.00  0.00     0.003 C 
ATOM     12  C   UNL A   1      43.144  25.397  36.951  1.00  0.00     0.005 C 
ATOM     13  C   UNL A   1      41.570  24.079  35.764  1.00  0.00     0.009 C 
ATOM     14  C   UNL A   1      42.911  24.005  35.034  1.00  0.00     0.004 C 
ATOM     15  C   UNL A   1      43.880  24.294  36.181  1.00  0.00     0.005 C 
BRANCH  10  16
ATOM     16  C   UNL A   1      42.264  27.745  34.901  1.00  0.00     0.229 C 
ATOM     17  N   UNL A   1      42.151  28.674  33.895  1.00  0.00    -0.317 N 
ATOM     18  H   UNL A   1      42.629  29.499  34.138  1.00  0.00     0.170 HD
ATOM     19  O   UNL A   1      42.757  28.195  35.943  1.00  0.00    -0.274 OA
BRANCH  17  20
ATOM     20  C   UNL A   1      41.565  28.805  32.633  1.00  0.00     0.110 A 
ATOM     21  C   UNL A   1      40.231  29.185  32.352  1.00  0.00     0.102 A 
ATOM     22  C   UNL A   1      39.969  29.253  30.896  1.00  0.00     0.011 A 
ATOM     23  C   UNL A   1      41.139  28.936  30.221  1.00  0.00     0.076 A 
ATOM     24  S   UNL A   1      42.421  28.447  31.227  1.00  0.00    -0.125 S 
BRANCH  21  25
ATOM     25  C   UNL A   1      39.315  29.555  33.447  1.00  0.00     0.341 C 
ATOM     26  O   UNL A   1      38.165  29.136  33.510  1.00  0.00    -0.246 OA
BRANCH  25  27
ATOM     27  O   UNL A   1      39.877  30.353  34.395  1.00  0.00    -0.465 OA
ATOM     28  C   UNL A   1      38.977  30.838  35.396  1.00  0.00     0.282 C 
ENDBRANCH  25  27
ENDBRANCH  21  25
BRANCH  22  29
ATOM     29  C   UNL A   1      38.819  29.795  30.090  1.00  0.00     0.002 A 
ATOM     30  C   UNL A   1      37.815  28.930  29.619  1.00  0.00     0.010 A 
ATOM     31  C   UNL A   1      38.563  31.172  29.914  1.00  0.00     0.048 A 
ATOM     32  C   UNL A   1      36.568  29.381  29.160  1.00  0.00     0.001 A 
ATOM     33  C   UNL A   1      37.318  31.632  29.435  1.00  0.00     0.021 A 
ATOM     34  Cl  UNL A   1      39.751  32.394  30.223  1.00  0.00    -0.084 Cl
ATOM     35  C   UNL A   1      36.306  30.737  29.096  1.00  0.00     0.002 A 
ENDBRANCH  22  29
ENDBRANCH  17  20
ENDBRANCH  10  16
ENDBRANCH   7   9
ENDBRANCH   6   7
ENDBRANCH   5   6
ENDBRANCH   4   5
ENDBRANCH   3   4
ENDBRANCH   2   3
ENDBRANCH   1   2
BRANCH   1  36
ATOM     36  O   UNL A   1      43.041  22.202  27.207  1.00  0.00    -0.377 OA
BRANCH  36  37
ATOM     37  C   UNL A   1      42.405  22.517  25.978  1.00  0.00     0.188 C 
BRANCH  37  38
ATOM     38  C   UNL A   1      43.366  23.168  24.980  1.00  0.00     0.188 C 
BRANCH  38  39
ATOM     39  O   UNL A   1      43.350  24.573  24.911  1.00  0.00    -0.376 OA
BRANCH  39  40
ATOM     40  C   UNL A   1      43.809  25.407  25.954  1.00  0.00     0.202 C 
BRANCH  40  41
ATOM     41  C   UNL A   1      44.518  26.763  25.877  1.00  0.00     0.261 C 
BRANCH  41  42
ATOM     42  O   UNL A   1      44.443  27.571  27.032  1.00  0.00    -0.460 OA
BRANCH  42  43
ATOM     43  C   UNL A   1      45.558  27.690  27.786  1.00  0.00     0.338 C 
ATOM     44  O   UNL A   1      46.552  27.009  27.789  1.00  0.00    -0.246 OA
BRANCH  43  45
ATOM     45  C   UNL A   1      45.377  29.021  28.391  1.00  0.00     0.060 A 
ATOM     46  C   UNL A   1      44.334  29.829  27.923  1.00  0.00     0.016 A 
ATOM     47  C   UNL A   1      46.090  29.338  29.553  1.00  0.00     0.016 A 
ATOM     48  C   UNL A   1      43.964  30.945  28.654  1.00  0.00     0.010 A 
ATOM     49  C   UNL A   1      45.755  30.480  30.257  1.00  0.00     0.010 A 
ATOM     50  C   UNL A   1      44.709  31.287  29.789  1.00  0.00    -0.014 A 
BRANCH  50  51
ATOM     51  C   UNL A   1      44.611  32.659  30.293  1.00  0.00     0.031 A 
ATOM     52  C   UNL A   1      45.518  33.660  29.649  1.00  0.00     0.074 A 
ATOM     53  C   UNL A   1      43.753  32.973  31.269  1.00  0.00     0.049 A 
ATOM     54  N   UNL A   1      45.680  34.926  29.915  1.00  0.00    -0.248 NA
ATOM     55  C   UNL A   1      46.374  33.155  28.558  1.00  0.00     0.031 C 
ATOM     56  C   UNL A   1      42.818  32.048  31.908  1.00  0.00     0.029 A 
ATOM     57  N   UNL A   1      43.538  34.167  31.897  1.00  0.00    -0.354 N 
ATOM     58  C   UNL A   1      46.656  35.362  29.031  1.00  0.00     0.074 A 
ATOM     59  C   UNL A   1      47.081  34.226  28.250  1.00  0.00     0.031 C 
ATOM     60  C   UNL A   1      42.125  32.715  32.847  1.00  0.00     0.029 A 
ATOM     61  C   UNL A   1      42.598  34.098  32.890  1.00  0.00     0.049 A 
ATOM     62  H   UNL A   1      44.013  34.996  31.658  1.00  0.00     0.167 HD
ATOM     63  C   UNL A   1      47.146  36.613  28.888  1.00  0.00     0.037 A 
ATOM     64  C   UNL A   1      42.193  35.057  33.740  1.00  0.00     0.037 A 
ATOM     65  C   UNL A   1      46.715  37.713  29.702  1.00  0.00     0.049 A 
ATOM     66  C   UNL A   1      42.812  36.426  33.615  1.00  0.00     0.074 A 
ATOM     67  C   UNL A   1      47.119  39.032  29.657  1.00  0.00     0.029 A 
ATOM     68  N   UNL A   1      45.786  37.607  30.730  1.00  0.00    -0.354 N 
ATOM     69  N   UNL A   1      43.709  36.856  32.758  1.00  0.00    -0.248 NA
ATOM     70  C   UNL A   1      42.360  37.442  34.573  1.00  0.00     0.031 C 
ATOM     71  C   UNL A   1      46.484  39.710  30.704  1.00  0.00     0.029 A 
ATOM     72  C   UNL A   1      45.628  38.830  31.354  1.00  0.00     0.049 A 
ATOM     73  H   UNL A   1      45.310  36.781  30.980  1.00  0.00     0.167 HD
ATOM     74  C   UNL A   1      43.908  38.198  33.050  1.00  0.00     0.074 A 
ATOM     75  C   UNL A   1      43.027  38.511  34.159  1.00  0.00     0.031 C 
ATOM     76  C   UNL A   1      44.738  39.096  32.458  1.00  0.00     0.037 A 
BRANCH  63  77
ATOM     77  C   UNL A   1      48.228  36.810  27.867  1.00  0.00     0.064 A 
ATOM     78  C   UNL A   1      47.947  37.193  26.545  1.00  0.00     0.173 A 
ATOM     79  C   UNL A   1      49.566  36.565  28.205  1.00  0.00     0.173 A 
ATOM     80  F   UNL A   1      46.680  37.409  26.159  1.00  0.00    -0.203 F 
ATOM     81  C   UNL A   1      48.959  37.281  25.592  1.00  0.00     0.198 A 
ATOM     82  C   UNL A   1      50.581  36.691  27.260  1.00  0.00     0.198 A 
ATOM     83  F   UNL A   1      49.892  36.184  29.450  1.00  0.00    -0.203 F 
ATOM     84  F   UNL A   1      48.656  37.570  24.319  1.00  0.00    -0.200 F 
ATOM     85  C   UNL A   1      50.275  37.037  25.952  1.00  0.00     0.200 A 
ATOM     86  F   UNL A   1      51.854  36.461  27.611  1.00  0.00    -0.200 F 
ATOM     87  F   UNL A   1      51.248  37.116  25.034  1.00  0.00    -0.200 F 
ENDBRANCH  63  77
BRANCH  64  88
ATOM     88  C   UNL A   1      41.149  34.758  34.752  1.00  0.00     0.064 A 
ATOM     89  C   UNL A   1      41.492  34.521  36.090  1.00  0.00     0.173 A 
ATOM     90  C   UNL A   1      39.787  34.726  34.414  1.00  0.00     0.173 A 
ATOM     91  F   UNL A   1      42.781  34.524  36.460  1.00  0.00    -0.203 F 
ATOM     92  C   UNL A   1      40.516  34.253  37.047  1.00  0.00     0.198 A 
ATOM     93  C   UNL A   1      38.810  34.486  35.377  1.00  0.00     0.198 A 
ATOM     94  F   UNL A   1      39.404  34.952  33.148  1.00  0.00    -0.203 F 
ATOM     95  F   UNL A   1      40.876  33.998  38.313  1.00  0.00    -0.200 F 
ATOM     96  C   UNL A   1      39.176  34.243  36.693  1.00  0.00     0.200 A 
ATOM     97  F   UNL A   1      37.515  34.494  35.032  1.00  0.00    -0.200 F 
ATOM     98  F   UNL A   1      38.238  33.999  37.617  1.00  0.00    -0.200 F 
ENDBRANCH  64  88
BRANCH  76  99
ATOM     99  C   UNL A   1      44.696  40.505  32.975  1.00  0.00     0.064 A 
ATOM    100  C   UNL A   1      45.623  40.975  33.916  1.00  0.00     0.173 A 
ATOM    101  C   UNL A   1      43.744  41.410  32.479  1.00  0.00     0.173 A 
ATOM    102  F   UNL A   1      46.545  40.146  34.428  1.00  0.00    -0.203 F 
ATOM    103  C   UNL A   1      45.578  42.291  34.366  1.00  0.00     0.198 A 
ATOM    104  C   UNL A   1      43.727  42.734  32.901  1.00  0.00     0.198 A 
ATOM    105  F   UNL A   1      42.843  41.011  31.568  1.00  0.00    -0.203 F 
ATOM    106  F   UNL A   1      46.437  42.704  35.308  1.00  0.00    -0.200 F 
ATOM    107  C   UNL A   1      44.638  43.171  33.851  1.00  0.00     0.200 A 
ATOM    108  F   UNL A   1      42.832  43.588  32.387  1.00  0.00    -0.200 F 
ATOM    109  F   UNL A   1      44.603  44.442  34.277  1.00  0.00    -0.200 F 
ENDBRANCH  76  99
ENDBRANCH  50  51
ENDBRANCH  43  45
ENDBRANCH  42  43
ENDBRANCH  41  42
ENDBRANCH  40  41
ENDBRANCH  39  40
ENDBRANCH  38  39
ENDBRANCH  37  38
ENDBRANCH  36  37
ENDBRANCH   1  36
TORSDOF 25
ENDMDL
MODEL 2
REMARK VINA RESULT:      -7.1      6.134     14.022
REMARK SMILES COC(=O)c1c(-c2ccccc2Cl)csc1NC(=O)[C@@H]1[C@@H]2CC[C@@H](C2)[C@@H]1C(=O)OCCOCCOCCOCCOC(=O)c1ccc(-c2c3nc(c(-c4c(F)c(F)c(F)c(F)c4F)c4ccc([nH]4)c(-c4c(F)c(F)c(F)c(F)c4F)c4nc(c(-c5c(F)c(F)c(F)c(F)c5F)c5ccc2[nH]5)C=C4)C=C3)cc1
REMARK SMILES IDX 34 1 33 2 32 3 31 4 30 5 29 6 27 7 28 8 26 9 20 10 21 11
REMARK SMILES IDX 22 12 25 13 24 14 23 15 18 16 17 17 19 19 16 20 5 21 6 22
REMARK SMILES IDX 14 23 15 24 3 25 4 26 2 27 1 28 7 29 8 30 12 31 9 32 11 33
REMARK SMILES IDX 13 34 10 35 35 36 36 37 37 38 38 39 39 40 40 41 41 42 42 43
REMARK SMILES IDX 43 44 44 45 45 46 106 47 46 48 105 49 47 50 48 51 49 52
REMARK SMILES IDX 99 53 50 54 104 55 98 56 100 57 51 58 103 59 97 60 96 61
REMARK SMILES IDX 52 63 84 64 64 65 83 66 65 67 68 68 82 69 101 70 66 71 67 72
REMARK SMILES IDX 81 74 102 75 69 76 53 77 54 78 62 79 55 80 56 81 60 82 63 83
REMARK SMILES IDX 57 84 58 85 61 86 59 87 85 88 86 89 94 90 87 91 88 92 92 93
REMARK SMILES IDX 95 94 89 95 90 96 93 97 91 98 70 99 71 100 79 101 72 102
REMARK SMILES IDX 73 103 77 104 80 105 74 106 75 107 78 108 76 109
REMARK H PARENT 17 18 100 62 68 73
REMARK Flexibility Score: inf
ROOT
ATOM      1  C   UNL A   1      51.263  40.884  31.100  1.00  0.00     0.188 C 
ENDROOT
BRANCH   1   2
ATOM      2  C   UNL A   1      50.662  41.498  29.816  1.00  0.00     0.188 C 
BRANCH   2   3
ATOM      3  O   UNL A   1      49.316  41.092  29.594  1.00  0.00    -0.376 OA
BRANCH   3   4
ATOM      4  C   UNL A   1      49.024  39.707  29.703  1.00  0.00     0.202 C 
BRANCH   4   5
ATOM      5  C   UNL A   1      47.995  39.210  28.682  1.00  0.00     0.261 C 
BRANCH   5   6
ATOM      6  O   UNL A   1      46.873  38.512  29.250  1.00  0.00    -0.463 OA
BRANCH   6   7
ATOM      7  C   UNL A   1      45.754  38.369  28.484  1.00  0.00     0.310 C 
ATOM      8  O   UNL A   1      45.766  38.043  27.311  1.00  0.00    -0.252 OA
BRANCH   7   9
ATOM      9  C   UNL A   1      44.532  38.630  29.357  1.00  0.00     0.115 C 
ATOM     10  C   UNL A   1      43.075  38.487  28.798  1.00  0.00     0.096 C 
ATOM     11  C   UNL A   1      42.579  39.954  28.982  1.00  0.00     0.003 C 
ATOM     12  C   UNL A   1      43.371  40.983  28.137  1.00  0.00     0.005 C 
ATOM     13  C   UNL A   1      43.132  40.264  30.384  1.00  0.00     0.009 C 
ATOM     14  C   UNL A   1      44.585  40.052  29.961  1.00  0.00     0.004 C 
ATOM     15  C   UNL A   1      44.719  41.102  28.857  1.00  0.00     0.005 C 
BRANCH  10  16
ATOM     16  C   UNL A   1      42.806  37.879  27.406  1.00  0.00     0.229 C 
ATOM     17  N   UNL A   1      43.010  36.578  27.013  1.00  0.00    -0.317 N 
ATOM     18  H   UNL A   1      42.944  36.503  26.034  1.00  0.00     0.170 HD
ATOM     19  O   UNL A   1      42.403  38.617  26.498  1.00  0.00    -0.274 OA
BRANCH  17  20
ATOM     20  C   UNL A   1      43.282  35.330  27.580  1.00  0.00     0.110 A 
ATOM     21  C   UNL A   1      43.726  34.169  26.903  1.00  0.00     0.102 A 
ATOM     22  C   UNL A   1      43.945  33.035  27.831  1.00  0.00     0.011 A 
ATOM     23  C   UNL A   1      43.665  33.460  29.122  1.00  0.00     0.076 A 
ATOM     24  S   UNL A   1      43.043  35.041  29.222  1.00  0.00    -0.125 S 
BRANCH  21  25
ATOM     25  C   UNL A   1      44.010  34.212  25.456  1.00  0.00     0.341 C 
ATOM     26  O   UNL A   1      43.163  34.533  24.630  1.00  0.00    -0.246 OA
BRANCH  25  27
ATOM     27  O   UNL A   1      45.298  33.916  25.136  1.00  0.00    -0.465 OA
ATOM     28  C   UNL A   1      46.255  34.931  25.458  1.00  0.00     0.282 C 
ENDBRANCH  25  27
ENDBRANCH  21  25
BRANCH  22  29
ATOM     29  C   UNL A   1      44.596  31.689  27.661  1.00  0.00     0.002 A 
ATOM     30  C   UNL A   1      43.813  30.554  27.386  1.00  0.00     0.010 A 
ATOM     31  C   UNL A   1      45.992  31.496  27.577  1.00  0.00     0.048 A 
ATOM     32  C   UNL A   1      44.350  29.353  26.895  1.00  0.00     0.001 A 
ATOM     33  C   UNL A   1      46.540  30.286  27.102  1.00  0.00     0.021 A 
ATOM     34  Cl  UNL A   1      47.137  32.694  28.083  1.00  0.00    -0.084 Cl
ATOM     35  C   UNL A   1      45.716  29.228  26.723  1.00  0.00     0.002 A 
ENDBRANCH  22  29
ENDBRANCH  17  20
ENDBRANCH  10  16
ENDBRANCH   7   9
ENDBRANCH   6   7
ENDBRANCH   5   6
ENDBRANCH   4   5
ENDBRANCH   3   4
ENDBRANCH   2   3
ENDBRANCH   1   2
BRANCH   1  36
ATOM     36  O   UNL A   1      50.769  41.322  32.361  1.00  0.00    -0.377 OA
BRANCH  36  37
ATOM     37  C   UNL A   1      50.878  40.367  33.407  1.00  0.00     0.188 C 
BRANCH  37  38
ATOM     38  C   UNL A   1      51.486  39.048  32.923  1.00  0.00     0.188 C 
BRANCH  38  39
ATOM     39  O   UNL A   1      50.583  38.044  32.529  1.00  0.00    -0.376 OA
BRANCH  39  40
ATOM     40  C   UNL A   1      50.132  37.022  33.392  1.00  0.00     0.202 C 
BRANCH  40  41
ATOM     41  C   UNL A   1      48.791  36.881  34.119  1.00  0.00     0.261 C 
BRANCH  41  42
ATOM     42  O   UNL A   1      47.873  35.964  33.562  1.00  0.00    -0.460 OA
BRANCH  42  43
ATOM     43  C   UNL A   1      47.048  35.312  34.410  1.00  0.00     0.338 C 
ATOM     44  O   UNL A   1      46.549  35.698  35.437  1.00  0.00    -0.246 OA
BRANCH  43  45
ATOM     45  C   UNL A   1      46.680  34.122  33.623  1.00  0.00     0.060 A 
ATOM     46  C   UNL A   1      46.252  32.977  34.306  1.00  0.00     0.016 A 
ATOM     47  C   UNL A   1      46.548  34.244  32.235  1.00  0.00     0.016 A 
ATOM     48  C   UNL A   1      45.637  31.959  33.599  1.00  0.00     0.010 A 
ATOM     49  C   UNL A   1      45.979  33.206  31.520  1.00  0.00     0.010 A 
ATOM     50  C   UNL A   1      45.548  32.061  32.205  1.00  0.00    -0.014 A 
BRANCH  50  51
ATOM     51  C   UNL A   1      45.314  30.838  31.435  1.00  0.00     0.031 A 
ATOM     52  C   UNL A   1      43.882  30.476  31.198  1.00  0.00     0.074 A 
ATOM     53  C   UNL A   1      46.338  30.106  30.981  1.00  0.00     0.049 A 
ATOM     54  N   UNL A   1      43.377  29.438  30.592  1.00  0.00    -0.248 NA
ATOM     55  C   UNL A   1      42.877  31.414  31.733  1.00  0.00     0.031 C 
ATOM     56  C   UNL A   1      47.754  30.430  31.148  1.00  0.00     0.029 A 
ATOM     57  N   UNL A   1      46.333  28.930  30.286  1.00  0.00    -0.354 N 
ATOM     58  C   UNL A   1      42.002  29.599  30.680  1.00  0.00     0.074 A 
ATOM     59  C   UNL A   1      41.747  30.804  31.430  1.00  0.00     0.031 C 
ATOM     60  C   UNL A   1      48.488  29.465  30.568  1.00  0.00     0.029 A 
ATOM     61  C   UNL A   1      47.589  28.448  30.025  1.00  0.00     0.049 A 
ATOM     62  H   UNL A   1      45.509  28.474  30.000  1.00  0.00     0.167 HD
ATOM     63  C   UNL A   1      41.040  28.800  30.168  1.00  0.00     0.037 A 
ATOM     64  C   UNL A   1      47.946  27.299  29.426  1.00  0.00     0.037 A 
ATOM     65  C   UNL A   1      41.334  27.593  29.449  1.00  0.00     0.049 A 
ATOM     66  C   UNL A   1      46.854  26.384  28.934  1.00  0.00     0.074 A 
ATOM     67  C   UNL A   1      40.459  26.699  28.868  1.00  0.00     0.029 A 
ATOM     68  N   UNL A   1      42.618  27.107  29.232  1.00  0.00    -0.354 N 
ATOM     69  N   UNL A   1      45.552  26.545  28.981  1.00  0.00    -0.248 NA
ATOM     70  C   UNL A   1      47.282  25.130  28.304  1.00  0.00     0.031 C 
ATOM     71  C   UNL A   1      41.211  25.634  28.359  1.00  0.00     0.029 A 
ATOM     72  C   UNL A   1      42.559  25.902  28.556  1.00  0.00     0.049 A 
ATOM     73  H   UNL A   1      43.448  27.553  29.518  1.00  0.00     0.167 HD
ATOM     74  C   UNL A   1      45.003  25.432  28.361  1.00  0.00     0.074 A 
ATOM     75  C   UNL A   1      46.120  24.608  27.937  1.00  0.00     0.031 C 
ATOM     76  C   UNL A   1      43.699  25.114  28.154  1.00  0.00     0.037 A 
BRANCH  63  77
ATOM     77  C   UNL A   1      39.616  29.190  30.435  1.00  0.00     0.064 A 
ATOM     78  C   UNL A   1      38.978  28.901  31.652  1.00  0.00     0.173 A 
ATOM     79  C   UNL A   1      38.861  29.821  29.436  1.00  0.00     0.173 A 
ATOM     80  F   UNL A   1      39.644  28.268  32.631  1.00  0.00    -0.203 F 
ATOM     81  C   UNL A   1      37.629  29.191  31.843  1.00  0.00     0.198 A 
ATOM     82  C   UNL A   1      37.523  30.146  29.643  1.00  0.00     0.198 A 
ATOM     83  F   UNL A   1      39.416  30.110  28.248  1.00  0.00    -0.203 F 
ATOM     84  F   UNL A   1      37.022  28.834  32.984  1.00  0.00    -0.200 F 
ATOM     85  C   UNL A   1      36.905  29.819  30.841  1.00  0.00     0.200 A 
ATOM     86  F   UNL A   1      36.827  30.758  28.676  1.00  0.00    -0.200 F 
ATOM     87  F   UNL A   1      35.606  30.093  31.023  1.00  0.00    -0.200 F 
ENDBRANCH  63  77
BRANCH  64  88
ATOM     88  C   UNL A   1      49.383  26.973  29.248  1.00  0.00     0.064 A 
ATOM     89  C   UNL A   1      50.096  26.298  30.248  1.00  0.00     0.173 A 
ATOM     90  C   UNL A   1      50.070  27.304  28.069  1.00  0.00     0.173 A 
ATOM     91  F   UNL A   1      49.488  25.974  31.398  1.00  0.00    -0.203 F 
ATOM     92  C   UNL A   1      51.441  25.976  30.081  1.00  0.00     0.198 A 
ATOM     93  C   UNL A   1      51.407  26.957  27.892  1.00  0.00     0.198 A 
ATOM     94  F   UNL A   1      49.433  27.945  27.078  1.00  0.00    -0.203 F 
ATOM     95  F   UNL A   1      52.106  25.359  31.067  1.00  0.00    -0.200 F 
ATOM     96  C   UNL A   1      52.094  26.298  28.901  1.00  0.00     0.200 A 
ATOM     97  F   UNL A   1      52.029  27.256  26.743  1.00  0.00    -0.200 F 
ATOM     98  F   UNL A   1      53.384  25.977  28.737  1.00  0.00    -0.200 F 
ENDBRANCH  64  88
BRANCH  76  99
ATOM     99  C   UNL A   1      43.419  23.845  27.403  1.00  0.00     0.064 A 
ATOM    100  C   UNL A   1      42.920  22.702  28.043  1.00  0.00     0.173 A 
ATOM    101  C   UNL A   1      43.604  23.793  26.012  1.00  0.00     0.173 A 
ATOM    102  F   UNL A   1      42.736  22.698  29.372  1.00  0.00    -0.203 F 
ATOM    103  C   UNL A   1      42.647  21.543  27.323  1.00  0.00     0.198 A 
ATOM    104  C   UNL A   1      43.293  22.646  25.290  1.00  0.00     0.198 A 
ATOM    105  F   UNL A   1      44.067  24.865  25.351  1.00  0.00    -0.203 F 
ATOM    106  F   UNL A   1      42.225  20.443  27.963  1.00  0.00    -0.200 F 
ATOM    107  C   UNL A   1      42.824  21.519  25.948  1.00  0.00     0.200 A 
ATOM    108  F   UNL A   1      43.444  22.633  23.959  1.00  0.00    -0.200 F 
ATOM    109  F   UNL A   1      42.550  20.405  25.254  1.00  0.00    -0.200 F 
ENDBRANCH  76  99
ENDBRANCH  50  51
ENDBRANCH  43  45
ENDBRANCH  42  43
ENDBRANCH  41  42
ENDBRANCH  40  41
ENDBRANCH  39  40
ENDBRANCH  38  39
ENDBRANCH  37  38
ENDBRANCH  36  37
ENDBRANCH   1  36
TORSDOF 25
ENDMDL
MODEL 3
REMARK VINA RESULT:      -6.9      4.969     11.155
REMARK SMILES COC(=O)c1c(-c2ccccc2Cl)csc1NC(=O)[C@@H]1[C@@H]2CC[C@@H](C2)[C@@H]1C(=O)OCCOCCOCCOCCOC(=O)c1ccc(-c2c3nc(c(-c4c(F)c(F)c(F)c(F)c4F)c4ccc([nH]4)c(-c4c(F)c(F)c(F)c(F)c4F)c4nc(c(-c5c(F)c(F)c(F)c(F)c5F)c5ccc2[nH]5)C=C4)C=C3)cc1
REMARK SMILES IDX 34 1 33 2 32 3 31 4 30 5 29 6 27 7 28 8 26 9 20 10 21 11
REMARK SMILES IDX 22 12 25 13 24 14 23 15 18 16 17 17 19 19 16 20 5 21 6 22
REMARK SMILES IDX 14 23 15 24 3 25 4 26 2 27 1 28 7 29 8 30 12 31 9 32 11 33
REMARK SMILES IDX 13 34 10 35 35 36 36 37 37 38 38 39 39 40 40 41 41 42 42 43
REMARK SMILES IDX 43 44 44 45 45 46 106 47 46 48 105 49 47 50 48 51 49 52
REMARK SMILES IDX 99 53 50 54 104 55 98 56 100 57 51 58 103 59 97 60 96 61
REMARK SMILES IDX 52 63 84 64 64 65 83 66 65 67 68 68 82 69 101 70 66 71 67 72
REMARK SMILES IDX 81 74 102 75 69 76 53 77 54 78 62 79 55 80 56 81 60 82 63 83
REMARK SMILES IDX 57 84 58 85 61 86 59 87 85 88 86 89 94 90 87 91 88 92 92 93
REMARK SMILES IDX 95 94 89 95 90 96 93 97 91 98 70 99 71 100 79 101 72 102
REMARK SMILES IDX 73 103 77 104 80 105 74 106 75 107 78 108 76 109
REMARK H PARENT 17 18 100 62 68 73
REMARK Flexibility Score: inf
ROOT
ATOM      1  C   UNL A   1      45.711  40.425  33.497  1.00  0.00     0.188 C 
ENDROOT
BRANCH   1   2
ATOM      2  C   UNL A   1      44.279  40.011  33.901  1.00  0.00     0.188 C 
BRANCH   2   3
ATOM      3  O   UNL A   1      44.073  38.604  33.816  1.00  0.00    -0.376 OA
BRANCH   3   4
ATOM      4  C   UNL A   1      42.805  38.104  34.214  1.00  0.00     0.202 C 
BRANCH   4   5
ATOM      5  C   UNL A   1      42.837  36.645  34.683  1.00  0.00     0.261 C 
BRANCH   5   6
ATOM      6  O   UNL A   1      42.167  36.402  35.932  1.00  0.00    -0.463 OA
BRANCH   6   7
ATOM      7  C   UNL A   1      40.869  35.988  35.892  1.00  0.00     0.310 C 
ATOM      8  O   UNL A   1      39.929  36.709  35.612  1.00  0.00    -0.252 OA
BRANCH   7   9
ATOM      9  C   UNL A   1      40.826  34.495  36.198  1.00  0.00     0.115 C 
ATOM     10  C   UNL A   1      39.760  33.550  35.544  1.00  0.00     0.096 C 
ATOM     11  C   UNL A   1      39.017  33.064  36.827  1.00  0.00     0.003 C 
ATOM     12  C   UNL A   1      38.309  34.206  37.598  1.00  0.00     0.005 C 
ATOM     13  C   UNL A   1      40.212  32.800  37.760  1.00  0.00     0.009 C 
ATOM     14  C   UNL A   1      40.687  34.253  37.719  1.00  0.00     0.004 C 
ATOM     15  C   UNL A   1      39.455  34.973  38.269  1.00  0.00     0.005 C 
BRANCH  10  16
ATOM     16  C   UNL A   1      38.841  34.043  34.408  1.00  0.00     0.229 C 
ATOM     17  N   UNL A   1      38.829  33.614  33.102  1.00  0.00    -0.317 N 
ATOM     18  H   UNL A   1      38.289  34.222  32.548  1.00  0.00     0.170 HD
ATOM     19  O   UNL A   1      38.039  34.957  34.639  1.00  0.00    -0.274 OA
BRANCH  17  20
ATOM     20  C   UNL A   1      39.350  32.578  32.322  1.00  0.00     0.110 A 
ATOM     21  C   UNL A   1      38.631  31.502  31.749  1.00  0.00     0.102 A 
ATOM     22  C   UNL A   1      39.507  30.611  30.954  1.00  0.00     0.011 A 
ATOM     23  C   UNL A   1      40.799  31.115  30.987  1.00  0.00     0.076 A 
ATOM     24  S   UNL A   1      41.001  32.462  32.007  1.00  0.00    -0.125 S 
BRANCH  21  25
ATOM     25  C   UNL A   1      37.166  31.423  31.896  1.00  0.00     0.341 C 
ATOM     26  O   UNL A   1      36.630  31.004  32.915  1.00  0.00    -0.246 OA
BRANCH  25  27
ATOM     27  O   UNL A   1      36.476  31.903  30.826  1.00  0.00    -0.465 OA
ATOM     28  C   UNL A   1      35.390  32.780  31.144  1.00  0.00     0.282 C 
ENDBRANCH  25  27
ENDBRANCH  21  25
BRANCH  22  29
ATOM     29  C   UNL A   1      39.218  29.485  29.998  1.00  0.00     0.002 A 
ATOM     30  C   UNL A   1      39.431  29.656  28.618  1.00  0.00     0.010 A 
ATOM     31  C   UNL A   1      38.909  28.169  30.403  1.00  0.00     0.048 A 
ATOM     32  C   UNL A   1      39.506  28.584  27.715  1.00  0.00     0.001 A 
ATOM     33  C   UNL A   1      38.963  27.088  29.496  1.00  0.00     0.021 A 
ATOM     34  Cl  UNL A   1      38.400  27.778  32.012  1.00  0.00    -0.084 Cl
ATOM     35  C   UNL A   1      39.301  27.292  28.161  1.00  0.00     0.002 A 
ENDBRANCH  22  29
ENDBRANCH  17  20
ENDBRANCH  10  16
ENDBRANCH   7   9
ENDBRANCH   6   7
ENDBRANCH   5   6
ENDBRANCH   4   5
ENDBRANCH   3   4
ENDBRANCH   2   3
ENDBRANCH   1   2
BRANCH   1  36
ATOM     36  O   UNL A   1      46.587  40.922  34.504  1.00  0.00    -0.377 OA
BRANCH  36  37
ATOM     37  C   UNL A   1      45.950  41.295  35.716  1.00  0.00     0.188 C 
BRANCH  37  38
ATOM     38  C   UNL A   1      46.362  40.397  36.886  1.00  0.00     0.188 C 
BRANCH  38  39
ATOM     39  O   UNL A   1      45.345  39.630  37.482  1.00  0.00    -0.376 OA
BRANCH  39  40
ATOM     40  C   UNL A   1      45.357  38.219  37.518  1.00  0.00     0.202 C 
BRANCH  40  41
ATOM     41  C   UNL A   1      44.963  37.270  38.656  1.00  0.00     0.261 C 
BRANCH  41  42
ATOM     42  O   UNL A   1      44.668  35.941  38.284  1.00  0.00    -0.460 OA
BRANCH  42  43
ATOM     43  C   UNL A   1      45.590  34.993  38.562  1.00  0.00     0.338 C 
ATOM     44  O   UNL A   1      46.172  34.776  39.594  1.00  0.00    -0.246 OA
BRANCH  43  45
ATOM     45  C   UNL A   1      45.493  34.118  37.381  1.00  0.00     0.060 A 
ATOM     46  C   UNL A   1      44.230  33.653  36.998  1.00  0.00     0.016 A 
ATOM     47  C   UNL A   1      46.614  33.969  36.556  1.00  0.00     0.016 A 
ATOM     48  C   UNL A   1      44.072  33.076  35.750  1.00  0.00     0.010 A 
ATOM     49  C   UNL A   1      46.469  33.346  35.330  1.00  0.00     0.010 A 
ATOM     50  C   UNL A   1      45.202  32.884  34.946  1.00  0.00    -0.014 A 
BRANCH  50  51
ATOM     51  C   UNL A   1      45.120  31.907  33.859  1.00  0.00     0.031 A 
ATOM     52  C   UNL A   1      44.828  32.460  32.499  1.00  0.00     0.074 A 
ATOM     53  C   UNL A   1      45.300  30.602  34.093  1.00  0.00     0.049 A 
ATOM     54  N   UNL A   1      44.659  31.836  31.368  1.00  0.00    -0.248 NA
ATOM     55  C   UNL A   1      44.698  33.927  32.409  1.00  0.00     0.031 C 
ATOM     56  C   UNL A   1      45.625  30.009  35.389  1.00  0.00     0.029 A 
ATOM     57  N   UNL A   1      45.229  29.540  33.236  1.00  0.00    -0.354 N 
ATOM     58  C   UNL A   1      44.396  32.833  30.438  1.00  0.00     0.074 A 
ATOM     59  C   UNL A   1      44.387  34.094  31.137  1.00  0.00     0.031 C 
ATOM     60  C   UNL A   1      45.723  28.676  35.241  1.00  0.00     0.029 A 
ATOM     61  C   UNL A   1      45.433  28.333  33.850  1.00  0.00     0.049 A 
ATOM     62  H   UNL A   1      45.049  29.634  32.273  1.00  0.00     0.167 HD
ATOM     63  C   UNL A   1      44.187  32.694  29.111  1.00  0.00     0.037 A 
ATOM     64  C   UNL A   1      45.371  27.096  33.326  1.00  0.00     0.037 A 
ATOM     65  C   UNL A   1      44.179  31.417  28.455  1.00  0.00     0.049 A 
ATOM     66  C   UNL A   1      45.057  26.961  31.858  1.00  0.00     0.074 A 
ATOM     67  C   UNL A   1      43.991  31.133  27.119  1.00  0.00     0.029 A 
ATOM     68  N   UNL A   1      44.351  30.202  29.109  1.00  0.00    -0.354 N 
ATOM     69  N   UNL A   1      44.843  27.899  30.965  1.00  0.00    -0.248 NA
ATOM     70  C   UNL A   1      44.977  25.596  31.326  1.00  0.00     0.031 C 
ATOM     71  C   UNL A   1      43.981  29.741  26.974  1.00  0.00     0.029 A 
ATOM     72  C   UNL A   1      44.237  29.160  28.208  1.00  0.00     0.049 A 
ATOM     73  H   UNL A   1      44.527  30.099  30.073  1.00  0.00     0.167 HD
ATOM     74  C   UNL A   1      44.634  27.244  29.760  1.00  0.00     0.074 A 
ATOM     75  C   UNL A   1      44.759  25.825  30.039  1.00  0.00     0.031 C 
ATOM     76  C   UNL A   1      44.368  27.759  28.531  1.00  0.00     0.037 A 
BRANCH  63  77
ATOM     77  C   UNL A   1      43.894  33.942  28.332  1.00  0.00     0.064 A 
ATOM     78  C   UNL A   1      44.855  34.554  27.511  1.00  0.00     0.173 A 
ATOM     79  C   UNL A   1      42.642  34.564  28.446  1.00  0.00     0.173 A 
ATOM     80  F   UNL A   1      46.081  34.019  27.391  1.00  0.00    -0.203 F 
ATOM     81  C   UNL A   1      44.589  35.760  26.869  1.00  0.00     0.198 A 
ATOM     82  C   UNL A   1      42.365  35.751  27.772  1.00  0.00     0.198 A 
ATOM     83  F   UNL A   1      41.689  34.030  29.226  1.00  0.00    -0.203 F 
ATOM     84  F   UNL A   1      45.550  36.365  26.156  1.00  0.00    -0.200 F 
ATOM     85  C   UNL A   1      43.343  36.354  26.996  1.00  0.00     0.200 A 
ATOM     86  F   UNL A   1      41.158  36.319  27.890  1.00  0.00    -0.200 F 
ATOM     87  F   UNL A   1      43.089  37.519  26.383  1.00  0.00    -0.200 F 
ENDBRANCH  63  77
BRANCH  64  88
ATOM     88  C   UNL A   1      45.629  25.914  34.185  1.00  0.00     0.064 A 
ATOM     89  C   UNL A   1      46.927  25.407  34.338  1.00  0.00     0.173 A 
ATOM     90  C   UNL A   1      44.595  25.280  34.892  1.00  0.00     0.173 A 
ATOM     91  F   UNL A   1      47.946  25.967  33.672  1.00  0.00    -0.203 F 
ATOM     92  C   UNL A   1      47.178  24.306  35.154  1.00  0.00     0.198 A 
ATOM     93  C   UNL A   1      44.852  24.198  35.729  1.00  0.00     0.198 A 
ATOM     94  F   UNL A   1      43.335  25.729  34.785  1.00  0.00    -0.203 F 
ATOM     95  F   UNL A   1      48.424  23.822  35.256  1.00  0.00    -0.200 F 
ATOM     96  C   UNL A   1      46.143  23.707  35.855  1.00  0.00     0.200 A 
ATOM     97  F   UNL A   1      43.850  23.632  36.417  1.00  0.00    -0.200 F 
ATOM     98  F   UNL A   1      46.388  22.657  36.650  1.00  0.00    -0.200 F 
ENDBRANCH  64  88
BRANCH  76  99
ATOM     99  C   UNL A   1      44.236  26.784  27.398  1.00  0.00     0.064 A 
ATOM    100  C   UNL A   1      45.299  26.518  26.524  1.00  0.00     0.173 A 
ATOM    101  C   UNL A   1      43.042  26.068  27.220  1.00  0.00     0.173 A 
ATOM    102  F   UNL A   1      46.458  27.184  26.646  1.00  0.00    -0.203 F 
ATOM    103  C   UNL A   1      45.161  25.594  25.493  1.00  0.00     0.198 A 
ATOM    104  C   UNL A   1      42.920  25.117  26.213  1.00  0.00     0.198 A 
ATOM    105  F   UNL A   1      41.999  26.278  28.038  1.00  0.00    -0.203 F 
ATOM    106  F   UNL A   1      46.170  25.397  24.633  1.00  0.00    -0.200 F 
ATOM    107  C   UNL A   1      43.976  24.888  25.345  1.00  0.00     0.200 A 
ATOM    108  F   UNL A   1      41.783  24.421  26.085  1.00  0.00    -0.200 F 
ATOM    109  F   UNL A   1      43.848  23.990  24.357  1.00  0.00    -0.200 F 
ENDBRANCH  76  99
ENDBRANCH  50  51
ENDBRANCH  43  45
ENDBRANCH  42  43
ENDBRANCH  41  42
ENDBRANCH  40  41
ENDBRANCH  39  40
ENDBRANCH  38  39
ENDBRANCH  37  38
ENDBRANCH  36  37
ENDBRANCH   1  36
TORSDOF 25
ENDMDL
