MODEL 1
REMARK VINA RESULT:      -8.8      0.000      0.000
REMARK SMILES O=C(C[NH+]1CCOCC1)Nc1nnc(SCC(=O)OCCOCCOCCOCCOC(=O)c2ccc(-c3c4nc(c(-c5c(F)c(F)c(F)c(F)c5F)c5ccc([nH]5)c(-c5c(F)c(F)c(F)c(F)c5F)c5nc(c(-c6c(F)c(F)c(F)c(F)c6F)c6ccc3[nH]6)C=C5)C=C4)cc2)s1
REMARK SMILES IDX 23 1 22 2 21 3 20 4 19 5 17 6 18 7 16 8 15 9 14 10 11 11
REMARK SMILES IDX 12 12 97 13 13 14 10 15 1 16 2 17 3 19 4 20 5 21 9 22 6 24
REMARK SMILES IDX 8 25 7 26 24 27 25 28 26 29 27 30 28 31 29 32 30 33 31 34
REMARK SMILES IDX 32 35 33 36 34 37 35 38 96 39 36 40 95 41 37 42 38 43 39 44
REMARK SMILES IDX 89 45 40 46 94 47 88 48 90 49 41 50 93 51 87 52 86 53 42 55
REMARK SMILES IDX 74 56 54 57 73 58 55 59 58 60 72 61 91 62 56 63 57 64 71 66
REMARK SMILES IDX 92 67 59 68 43 69 44 70 52 71 45 72 46 73 50 74 53 75 47 76
REMARK SMILES IDX 48 77 51 78 49 79 75 80 76 81 84 82 77 83 78 84 82 85 85 86
REMARK SMILES IDX 79 87 80 88 83 89 81 90 60 91 61 92 69 93 62 94 63 95 67 96
REMARK SMILES IDX 70 97 64 98 65 99 68 100 66 101
REMARK H PARENT 10 18 4 23 90 54 58 65
REMARK Flexibility Score: inf
ROOT
ATOM      1  C   UNL A   1      44.093  19.363  25.048  1.00  0.00     0.188 C 
ENDROOT
BRANCH   1   2
ATOM      2  O   UNL A   1      43.329  19.685  26.187  1.00  0.00    -0.376 OA
BRANCH   2   3
ATOM      3  C   UNL A   1      42.194  20.516  26.002  1.00  0.00     0.202 C 
BRANCH   3   4
ATOM      4  C   UNL A   1      42.380  22.006  25.619  1.00  0.00     0.261 C 
BRANCH   4   5
ATOM      5  O   UNL A   1      41.740  23.016  26.458  1.00  0.00    -0.463 OA
BRANCH   5   6
ATOM      6  C   UNL A   1      40.644  22.638  27.166  1.00  0.00     0.316 C 
ATOM      7  O   UNL A   1      40.711  22.277  28.341  1.00  0.00    -0.251 OA
BRANCH   6   8
ATOM      8  C   UNL A   1      39.291  22.628  26.457  1.00  0.00     0.200 C 
BRANCH   8   9
ATOM      9  S   UNL A   1      38.222  24.078  26.430  1.00  0.00    -0.082 SA
BRANCH   9  10
ATOM     10  C   UNL A   1      36.639  23.634  25.750  1.00  0.00     0.176 A 
ATOM     11  C   UNL A   1      34.873  22.406  24.698  1.00  0.00     0.213 A 
ATOM     12  N   UNL A   1      34.587  22.699  25.949  1.00  0.00    -0.119 NA
ATOM     13  S   UNL A   1      36.219  23.296  24.105  1.00  0.00    -0.068 S 
ATOM     14  N   UNL A   1      35.646  23.349  26.575  1.00  0.00    -0.130 NA
BRANCH  11  15
ATOM     15  N   UNL A   1      34.175  21.449  23.970  1.00  0.00    -0.296 N 
ATOM     16  O   UNL A   1      32.151  21.631  25.060  1.00  0.00    -0.268 OA
ATOM     17  C   UNL A   1      32.839  21.135  24.164  1.00  0.00     0.281 C 
ATOM     18  H   UNL A   1      34.664  20.959  23.270  1.00  0.00     0.172 HD
BRANCH  17  19
ATOM     19  C   UNL A   1      32.236  20.026  23.263  1.00  0.00     0.364 C 
BRANCH  19  20
ATOM     20  N   UNL A   1      32.326  18.623  23.660  1.00  0.00    -0.323 N 
ATOM     21  C   UNL A   1      32.530  18.140  25.013  1.00  0.00     0.291 C 
ATOM     22  C   UNL A   1      32.610  17.594  22.647  1.00  0.00     0.291 C 
ATOM     23  H   UNL A   1      31.344  18.881  23.757  1.00  0.00     0.348 HD
ATOM     24  C   UNL A   1      33.902  17.475  25.122  1.00  0.00     0.221 C 
ATOM     25  C   UNL A   1      33.970  16.912  22.863  1.00  0.00     0.221 C 
ATOM     26  O   UNL A   1      34.029  16.391  24.198  1.00  0.00    -0.370 OA
ENDBRANCH  19  20
ENDBRANCH  17  19
ENDBRANCH  11  15
ENDBRANCH   9  10
ENDBRANCH   8   9
ENDBRANCH   6   8
ENDBRANCH   5   6
ENDBRANCH   4   5
ENDBRANCH   3   4
ENDBRANCH   2   3
ENDBRANCH   1   2
BRANCH   1  27
ATOM     27  C   UNL A   1      45.384  20.132  24.781  1.00  0.00     0.188 C 
BRANCH  27  28
ATOM     28  O   UNL A   1      45.399  21.254  23.914  1.00  0.00    -0.377 OA
BRANCH  28  29
ATOM     29  C   UNL A   1      45.770  22.523  24.441  1.00  0.00     0.188 C 
BRANCH  29  30
ATOM     30  C   UNL A   1      45.772  22.623  25.958  1.00  0.00     0.188 C 
BRANCH  30  31
ATOM     31  O   UNL A   1      46.821  23.389  26.556  1.00  0.00    -0.376 OA
BRANCH  31  32
ATOM     32  C   UNL A   1      47.279  24.597  25.953  1.00  0.00     0.202 C 
BRANCH  32  33
ATOM     33  C   UNL A   1      47.372  25.771  26.918  1.00  0.00     0.261 C 
BRANCH  33  34
ATOM     34  O   UNL A   1      47.280  26.988  26.202  1.00  0.00    -0.460 OA
BRANCH  34  35
ATOM     35  C   UNL A   1      46.083  27.275  25.640  1.00  0.00     0.338 C 
ATOM     36  O   UNL A   1      45.661  27.054  24.521  1.00  0.00    -0.246 OA
BRANCH  35  37
ATOM     37  C   UNL A   1      45.278  27.752  26.754  1.00  0.00     0.060 A 
ATOM     38  C   UNL A   1      45.295  29.109  27.095  1.00  0.00     0.016 A 
ATOM     39  C   UNL A   1      44.427  26.834  27.374  1.00  0.00     0.016 A 
ATOM     40  C   UNL A   1      44.426  29.560  28.069  1.00  0.00     0.010 A 
ATOM     41  C   UNL A   1      43.564  27.278  28.344  1.00  0.00     0.010 A 
ATOM     42  C   UNL A   1      43.591  28.631  28.702  1.00  0.00    -0.014 A 
BRANCH  42  43
ATOM     43  C   UNL A   1      42.878  29.004  29.917  1.00  0.00     0.031 A 
ATOM     44  C   UNL A   1      41.468  29.465  29.751  1.00  0.00     0.074 A 
ATOM     45  C   UNL A   1      43.533  28.990  31.084  1.00  0.00     0.049 A 
ATOM     46  N   UNL A   1      40.665  29.990  30.631  1.00  0.00    -0.248 NA
ATOM     47  C   UNL A   1      40.892  29.336  28.399  1.00  0.00     0.031 C 
ATOM     48  C   UNL A   1      44.911  28.535  31.272  1.00  0.00     0.029 A 
ATOM     49  N   UNL A   1      43.132  29.398  32.320  1.00  0.00    -0.354 N 
ATOM     50  C   UNL A   1      39.493  30.256  29.940  1.00  0.00     0.074 A 
ATOM     51  C   UNL A   1      39.696  29.877  28.562  1.00  0.00     0.031 C 
ATOM     52  C   UNL A   1      45.248  28.704  32.562  1.00  0.00     0.029 A 
ATOM     53  C   UNL A   1      44.124  29.320  33.261  1.00  0.00     0.049 A 
ATOM     54  H   UNL A   1      42.221  29.715  32.517  1.00  0.00     0.167 HD
ATOM     55  C   UNL A   1      38.349  30.771  30.438  1.00  0.00     0.037 A 
ATOM     56  C   UNL A   1      44.109  29.743  34.536  1.00  0.00     0.037 A 
ATOM     57  C   UNL A   1      38.210  31.153  31.816  1.00  0.00     0.049 A 
ATOM     58  C   UNL A   1      42.842  30.376  35.045  1.00  0.00     0.074 A 
ATOM     59  C   UNL A   1      37.108  31.673  32.462  1.00  0.00     0.029 A 
ATOM     60  N   UNL A   1      39.232  31.067  32.756  1.00  0.00    -0.354 N 
ATOM     61  N   UNL A   1      41.711  30.593  34.412  1.00  0.00    -0.248 NA
ATOM     62  C   UNL A   1      42.845  30.824  36.441  1.00  0.00     0.031 C 
ATOM     63  C   UNL A   1      37.482  31.959  33.779  1.00  0.00     0.029 A 
ATOM     64  C   UNL A   1      38.795  31.554  33.973  1.00  0.00     0.049 A 
ATOM     65  H   UNL A   1      40.133  30.709  32.580  1.00  0.00     0.167 HD
ATOM     66  C   UNL A   1      40.860  31.181  35.334  1.00  0.00     0.074 A 
ATOM     67  C   UNL A   1      41.603  31.265  36.579  1.00  0.00     0.031 C 
ATOM     68  C   UNL A   1      39.583  31.617  35.180  1.00  0.00     0.037 A 
BRANCH  55  69
ATOM     69  C   UNL A   1      37.209  30.975  29.486  1.00  0.00     0.064 A 
ATOM     70  C   UNL A   1      36.933  32.226  28.915  1.00  0.00     0.173 A 
ATOM     71  C   UNL A   1      36.373  29.901  29.143  1.00  0.00     0.173 A 
ATOM     72  F   UNL A   1      37.682  33.294  29.231  1.00  0.00    -0.203 F 
ATOM     73  C   UNL A   1      35.851  32.401  28.055  1.00  0.00     0.198 A 
ATOM     74  C   UNL A   1      35.312  30.072  28.258  1.00  0.00     0.198 A 
ATOM     75  F   UNL A   1      36.582  28.686  29.672  1.00  0.00    -0.203 F 
ATOM     76  F   UNL A   1      35.576  33.618  27.566  1.00  0.00    -0.200 F 
ATOM     77  C   UNL A   1      35.048  31.322  27.720  1.00  0.00     0.200 A 
ATOM     78  F   UNL A   1      34.541  29.025  27.931  1.00  0.00    -0.200 F 
ATOM     79  F   UNL A   1      34.013  31.489  26.886  1.00  0.00    -0.200 F 
ENDBRANCH  55  69
BRANCH  56  80
ATOM     80  C   UNL A   1      45.315  29.586  35.386  1.00  0.00     0.064 A 
ATOM     81  C   UNL A   1      45.505  28.434  36.159  1.00  0.00     0.173 A 
ATOM     82  C   UNL A   1      46.311  30.574  35.434  1.00  0.00     0.173 A 
ATOM     83  F   UNL A   1      44.579  27.464  36.154  1.00  0.00    -0.203 F 
ATOM     84  C   UNL A   1      46.632  28.285  36.966  1.00  0.00     0.198 A 
ATOM     85  C   UNL A   1      47.452  30.412  36.216  1.00  0.00     0.198 A 
ATOM     86  F   UNL A   1      46.184  31.693  34.704  1.00  0.00    -0.203 F 
ATOM     87  F   UNL A   1      46.766  27.192  37.729  1.00  0.00    -0.200 F 
ATOM     88  C   UNL A   1      47.606  29.271  36.989  1.00  0.00     0.200 A 
ATOM     89  F   UNL A   1      48.400  31.357  36.219  1.00  0.00    -0.200 F 
ATOM     90  F   UNL A   1      48.692  29.125  37.761  1.00  0.00    -0.200 F 
ENDBRANCH  56  80
BRANCH  68  91
ATOM     91  C   UNL A   1      38.919  32.198  36.393  1.00  0.00     0.064 A 
ATOM     92  C   UNL A   1      38.104  31.419  37.225  1.00  0.00     0.173 A 
ATOM     93  C   UNL A   1      39.148  33.535  36.751  1.00  0.00     0.173 A 
ATOM     94  F   UNL A   1      37.845  30.139  36.915  1.00  0.00    -0.203 F 
ATOM     95  C   UNL A   1      37.514  31.969  38.359  1.00  0.00     0.198 A 
ATOM     96  C   UNL A   1      38.590  34.069  37.907  1.00  0.00     0.198 A 
ATOM     97  F   UNL A   1      39.932  34.315  35.992  1.00  0.00    -0.203 F 
ATOM     98  F   UNL A   1      36.692  31.224  39.110  1.00  0.00    -0.200 F 
ATOM     99  C   UNL A   1      37.766  33.289  38.704  1.00  0.00     0.200 A 
ATOM    100  F   UNL A   1      38.850  35.338  38.249  1.00  0.00    -0.200 F 
ATOM    101  F   UNL A   1      37.207  33.813  39.804  1.00  0.00    -0.200 F 
ENDBRANCH  68  91
ENDBRANCH  42  43
ENDBRANCH  35  37
ENDBRANCH  34  35
ENDBRANCH  33  34
ENDBRANCH  32  33
ENDBRANCH  31  32
ENDBRANCH  30  31
ENDBRANCH  29  30
ENDBRANCH  28  29
ENDBRANCH  27  28
ENDBRANCH   1  27
TORSDOF 25
ENDMDL
MODEL 2
REMARK VINA RESULT:      -8.5      1.782      2.968
REMARK SMILES O=C(C[NH+]1CCOCC1)Nc1nnc(SCC(=O)OCCOCCOCCOCCOC(=O)c2ccc(-c3c4nc(c(-c5c(F)c(F)c(F)c(F)c5F)c5ccc([nH]5)c(-c5c(F)c(F)c(F)c(F)c5F)c5nc(c(-c6c(F)c(F)c(F)c(F)c6F)c6ccc3[nH]6)C=C5)C=C4)cc2)s1
REMARK SMILES IDX 23 1 22 2 21 3 20 4 19 5 17 6 18 7 16 8 15 9 14 10 11 11
REMARK SMILES IDX 12 12 97 13 13 14 10 15 1 16 2 17 3 19 4 20 5 21 9 22 6 24
REMARK SMILES IDX 8 25 7 26 24 27 25 28 26 29 27 30 28 31 29 32 30 33 31 34
REMARK SMILES IDX 32 35 33 36 34 37 35 38 96 39 36 40 95 41 37 42 38 43 39 44
REMARK SMILES IDX 89 45 40 46 94 47 88 48 90 49 41 50 93 51 87 52 86 53 42 55
REMARK SMILES IDX 74 56 54 57 73 58 55 59 58 60 72 61 91 62 56 63 57 64 71 66
REMARK SMILES IDX 92 67 59 68 43 69 44 70 52 71 45 72 46 73 50 74 53 75 47 76
REMARK SMILES IDX 48 77 51 78 49 79 75 80 76 81 84 82 77 83 78 84 82 85 85 86
REMARK SMILES IDX 79 87 80 88 83 89 81 90 60 91 61 92 69 93 62 94 63 95 67 96
REMARK SMILES IDX 70 97 64 98 65 99 68 100 66 101
REMARK H PARENT 10 18 4 23 90 54 58 65
REMARK Flexibility Score: inf
ROOT
ATOM      1  C   UNL A   1      43.996  19.715  25.291  1.00  0.00     0.188 C 
ENDROOT
BRANCH   1   2
ATOM      2  O   UNL A   1      43.281  20.390  26.300  1.00  0.00    -0.376 OA
BRANCH   2   3
ATOM      3  C   UNL A   1      42.140  21.136  25.909  1.00  0.00     0.202 C 
BRANCH   3   4
ATOM      4  C   UNL A   1      42.275  22.647  25.593  1.00  0.00     0.261 C 
BRANCH   4   5
ATOM      5  O   UNL A   1      41.439  23.582  26.340  1.00  0.00    -0.463 OA
BRANCH   5   6
ATOM      6  C   UNL A   1      40.471  23.059  27.137  1.00  0.00     0.316 C 
ATOM      7  O   UNL A   1      40.709  22.619  28.262  1.00  0.00    -0.251 OA
BRANCH   6   8
ATOM      8  C   UNL A   1      39.047  22.980  26.590  1.00  0.00     0.200 C 
BRANCH   8   9
ATOM      9  S   UNL A   1      38.475  21.569  25.627  1.00  0.00    -0.082 SA
BRANCH   9  10
ATOM     10  C   UNL A   1      36.937  21.977  24.832  1.00  0.00     0.176 A 
ATOM     11  C   UNL A   1      34.914  23.104  24.226  1.00  0.00     0.213 A 
ATOM     12  N   UNL A   1      35.760  23.045  23.220  1.00  0.00    -0.119 NA
ATOM     13  S   UNL A   1      35.348  22.054  25.515  1.00  0.00    -0.068 S 
ATOM     14  N   UNL A   1      36.962  22.453  23.599  1.00  0.00    -0.130 NA
BRANCH  11  15
ATOM     15  N   UNL A   1      33.818  23.961  24.238  1.00  0.00    -0.296 N 
ATOM     16  O   UNL A   1      32.731  23.118  22.388  1.00  0.00    -0.268 OA
ATOM     17  C   UNL A   1      32.764  23.901  23.340  1.00  0.00     0.281 C 
ATOM     18  H   UNL A   1      33.790  24.659  24.931  1.00  0.00     0.172 HD
BRANCH  17  19
ATOM     19  C   UNL A   1      31.637  24.954  23.503  1.00  0.00     0.364 C 
BRANCH  19  20
ATOM     20  N   UNL A   1      31.685  26.208  22.756  1.00  0.00    -0.323 N 
ATOM     21  C   UNL A   1      32.620  26.521  21.691  1.00  0.00     0.291 C 
ATOM     22  C   UNL A   1      31.032  27.409  23.302  1.00  0.00     0.291 C 
ATOM     23  H   UNL A   1      31.079  25.586  22.222  1.00  0.00     0.348 HD
ATOM     24  C   UNL A   1      33.566  27.632  22.146  1.00  0.00     0.221 C 
ATOM     25  C   UNL A   1      32.035  28.514  23.664  1.00  0.00     0.221 C 
ATOM     26  O   UNL A   1      32.845  28.810  22.517  1.00  0.00    -0.370 OA
ENDBRANCH  19  20
ENDBRANCH  17  19
ENDBRANCH  11  15
ENDBRANCH   9  10
ENDBRANCH   8   9
ENDBRANCH   6   8
ENDBRANCH   5   6
ENDBRANCH   4   5
ENDBRANCH   3   4
ENDBRANCH   2   3
ENDBRANCH   1   2
BRANCH   1  27
ATOM     27  C   UNL A   1      45.287  20.332  24.761  1.00  0.00     0.188 C 
BRANCH  27  28
ATOM     28  O   UNL A   1      45.257  21.432  23.868  1.00  0.00    -0.377 OA
BRANCH  28  29
ATOM     29  C   UNL A   1      45.671  22.710  24.338  1.00  0.00     0.188 C 
BRANCH  29  30
ATOM     30  C   UNL A   1      46.101  22.759  25.796  1.00  0.00     0.188 C 
BRANCH  30  31
ATOM     31  O   UNL A   1      47.175  23.644  26.126  1.00  0.00    -0.376 OA
BRANCH  31  32
ATOM     32  C   UNL A   1      47.217  24.970  25.602  1.00  0.00     0.202 C 
BRANCH  32  33
ATOM     33  C   UNL A   1      47.398  26.046  26.662  1.00  0.00     0.261 C 
BRANCH  33  34
ATOM     34  O   UNL A   1      47.290  27.326  26.067  1.00  0.00    -0.460 OA
BRANCH  34  35
ATOM     35  C   UNL A   1      46.096  27.644  25.517  1.00  0.00     0.338 C 
ATOM     36  O   UNL A   1      45.670  27.466  24.392  1.00  0.00    -0.246 OA
BRANCH  35  37
ATOM     37  C   UNL A   1      45.296  28.091  26.648  1.00  0.00     0.060 A 
ATOM     38  C   UNL A   1      45.274  29.446  26.994  1.00  0.00     0.016 A 
ATOM     39  C   UNL A   1      44.489  27.142  27.280  1.00  0.00     0.016 A 
ATOM     40  C   UNL A   1      44.409  29.865  27.986  1.00  0.00     0.010 A 
ATOM     41  C   UNL A   1      43.630  27.554  28.269  1.00  0.00     0.010 A 
ATOM     42  C   UNL A   1      43.618  28.906  28.631  1.00  0.00    -0.014 A 
BRANCH  42  43
ATOM     43  C   UNL A   1      42.917  29.252  29.861  1.00  0.00     0.031 A 
ATOM     44  C   UNL A   1      41.493  29.677  29.722  1.00  0.00     0.074 A 
ATOM     45  C   UNL A   1      43.592  29.245  31.016  1.00  0.00     0.049 A 
ATOM     46  N   UNL A   1      40.692  30.174  30.620  1.00  0.00    -0.248 NA
ATOM     47  C   UNL A   1      40.898  29.544  28.379  1.00  0.00     0.031 C 
ATOM     48  C   UNL A   1      44.984  28.824  31.178  1.00  0.00     0.029 A 
ATOM     49  N   UNL A   1      43.201  29.633  32.262  1.00  0.00    -0.354 N 
ATOM     50  C   UNL A   1      39.502  30.416  29.950  1.00  0.00     0.074 A 
ATOM     51  C   UNL A   1      39.692  30.053  28.566  1.00  0.00     0.031 C 
ATOM     52  C   UNL A   1      45.337  28.991  32.463  1.00  0.00     0.029 A 
ATOM     53  C   UNL A   1      44.210  29.572  33.186  1.00  0.00     0.049 A 
ATOM     54  H   UNL A   1      42.286  29.925  32.477  1.00  0.00     0.167 HD
ATOM     55  C   UNL A   1      38.354  30.898  30.471  1.00  0.00     0.037 A 
ATOM     56  C   UNL A   1      44.206  29.985  34.464  1.00  0.00     0.037 A 
ATOM     57  C   UNL A   1      38.228  31.266  31.854  1.00  0.00     0.049 A 
ATOM     58  C   UNL A   1      42.931  30.582  34.999  1.00  0.00     0.074 A 
ATOM     59  C   UNL A   1      37.125  31.751  32.523  1.00  0.00     0.029 A 
ATOM     60  N   UNL A   1      39.267  31.198  32.777  1.00  0.00    -0.354 N 
ATOM     61  N   UNL A   1      41.785  30.775  34.387  1.00  0.00    -0.248 NA
ATOM     62  C   UNL A   1      42.947  31.019  36.399  1.00  0.00     0.031 C 
ATOM     63  C   UNL A   1      37.512  32.036  33.836  1.00  0.00     0.029 A 
ATOM     64  C   UNL A   1      38.839  31.664  34.005  1.00  0.00     0.049 A 
ATOM     65  H   UNL A   1      40.174  30.865  32.583  1.00  0.00     0.167 HD
ATOM     66  C   UNL A   1      40.935  31.333  35.329  1.00  0.00     0.074 A 
ATOM     67  C   UNL A   1      41.696  31.426  36.562  1.00  0.00     0.031 C 
ATOM     68  C   UNL A   1      39.645  31.738  35.199  1.00  0.00     0.037 A 
BRANCH  55  69
ATOM     69  C   UNL A   1      37.193  31.079  29.540  1.00  0.00     0.064 A 
ATOM     70  C   UNL A   1      36.879  32.327  28.979  1.00  0.00     0.173 A 
ATOM     71  C   UNL A   1      36.375  29.989  29.207  1.00  0.00     0.173 A 
ATOM     72  F   UNL A   1      37.610  33.410  29.287  1.00  0.00    -0.203 F 
ATOM     73  C   UNL A   1      35.779  32.481  28.139  1.00  0.00     0.198 A 
ATOM     74  C   UNL A   1      35.296  30.139  28.341  1.00  0.00     0.198 A 
ATOM     75  F   UNL A   1      36.621  28.776  29.726  1.00  0.00    -0.203 F 
ATOM     76  F   UNL A   1      35.468  33.693  27.660  1.00  0.00    -0.200 F 
ATOM     77  C   UNL A   1      34.995  31.385  27.813  1.00  0.00     0.200 A 
ATOM     78  F   UNL A   1      34.543  29.077  28.023  1.00  0.00    -0.200 F 
ATOM     79  F   UNL A   1      33.942  31.532  26.998  1.00  0.00    -0.200 F 
ENDBRANCH  55  69
BRANCH  56  80
ATOM     80  C   UNL A   1      45.429  29.853  35.293  1.00  0.00     0.064 A 
ATOM     81  C   UNL A   1      46.393  30.869  35.320  1.00  0.00     0.173 A 
ATOM     82  C   UNL A   1      45.657  28.719  36.088  1.00  0.00     0.173 A 
ATOM     83  F   UNL A   1      46.227  31.970  34.572  1.00  0.00    -0.203 F 
ATOM     84  C   UNL A   1      47.548  30.746  36.091  1.00  0.00     0.198 A 
ATOM     85  C   UNL A   1      46.796  28.610  36.882  1.00  0.00     0.198 A 
ATOM     86  F   UNL A   1      44.759  27.721  36.108  1.00  0.00    -0.203 F 
ATOM     87  F   UNL A   1      48.475  31.714  36.062  1.00  0.00    -0.200 F 
ATOM     88  C   UNL A   1      47.746  29.619  36.875  1.00  0.00     0.200 A 
ATOM     89  F   UNL A   1      46.971  27.530  37.654  1.00  0.00    -0.200 F 
ATOM     90  F   UNL A   1      48.853  29.505  37.620  1.00  0.00    -0.200 F 
ENDBRANCH  56  80
BRANCH  68  91
ATOM     91  C   UNL A   1      38.987  32.292  36.428  1.00  0.00     0.064 A 
ATOM     92  C   UNL A   1      38.089  31.528  37.185  1.00  0.00     0.173 A 
ATOM     93  C   UNL A   1      39.303  33.583  36.876  1.00  0.00     0.173 A 
ATOM     94  F   UNL A   1      37.746  30.293  36.787  1.00  0.00    -0.203 F 
ATOM     95  C   UNL A   1      37.505  32.051  38.335  1.00  0.00     0.198 A 
ATOM     96  C   UNL A   1      38.749  34.086  38.048  1.00  0.00     0.198 A 
ATOM     97  F   UNL A   1      40.168  34.346  36.191  1.00  0.00    -0.203 F 
ATOM     98  F   UNL A   1      36.606  31.326  39.014  1.00  0.00    -0.200 F 
ATOM     99  C   UNL A   1      37.843  33.323  38.770  1.00  0.00     0.200 A 
ATOM    100  F   UNL A   1      39.092  35.308  38.478  1.00  0.00    -0.200 F 
ATOM    101  F   UNL A   1      37.289  33.820  39.885  1.00  0.00    -0.200 F 
ENDBRANCH  68  91
ENDBRANCH  42  43
ENDBRANCH  35  37
ENDBRANCH  34  35
ENDBRANCH  33  34
ENDBRANCH  32  33
ENDBRANCH  31  32
ENDBRANCH  30  31
ENDBRANCH  29  30
ENDBRANCH  28  29
ENDBRANCH  27  28
ENDBRANCH   1  27
TORSDOF 25
ENDMDL
MODEL 3
REMARK VINA RESULT:      -8.5      8.279     12.992
REMARK SMILES O=C(C[NH+]1CCOCC1)Nc1nnc(SCC(=O)OCCOCCOCCOCCOC(=O)c2ccc(-c3c4nc(c(-c5c(F)c(F)c(F)c(F)c5F)c5ccc([nH]5)c(-c5c(F)c(F)c(F)c(F)c5F)c5nc(c(-c6c(F)c(F)c(F)c(F)c6F)c6ccc3[nH]6)C=C5)C=C4)cc2)s1
REMARK SMILES IDX 23 1 22 2 21 3 20 4 19 5 17 6 18 7 16 8 15 9 14 10 11 11
REMARK SMILES IDX 12 12 97 13 13 14 10 15 1 16 2 17 3 19 4 20 5 21 9 22 6 24
REMARK SMILES IDX 8 25 7 26 24 27 25 28 26 29 27 30 28 31 29 32 30 33 31 34
REMARK SMILES IDX 32 35 33 36 34 37 35 38 96 39 36 40 95 41 37 42 38 43 39 44
REMARK SMILES IDX 89 45 40 46 94 47 88 48 90 49 41 50 93 51 87 52 86 53 42 55
REMARK SMILES IDX 74 56 54 57 73 58 55 59 58 60 72 61 91 62 56 63 57 64 71 66
REMARK SMILES IDX 92 67 59 68 43 69 44 70 52 71 45 72 46 73 50 74 53 75 47 76
REMARK SMILES IDX 48 77 51 78 49 79 75 80 76 81 84 82 77 83 78 84 82 85 85 86
REMARK SMILES IDX 79 87 80 88 83 89 81 90 60 91 61 92 69 93 62 94 63 95 67 96
REMARK SMILES IDX 70 97 64 98 65 99 68 100 66 101
REMARK H PARENT 10 18 4 23 90 54 58 65
REMARK Flexibility Score: inf
ROOT
ATOM      1  C   UNL A   1      33.368  36.410  32.792  1.00  0.00     0.188 C 
ENDROOT
BRANCH   1   2
ATOM      2  O   UNL A   1      33.452  36.774  31.434  1.00  0.00    -0.376 OA
BRANCH   2   3
ATOM      3  C   UNL A   1      32.976  35.843  30.475  1.00  0.00     0.202 C 
BRANCH   3   4
ATOM      4  C   UNL A   1      33.981  35.054  29.598  1.00  0.00     0.261 C 
BRANCH   4   5
ATOM      5  O   UNL A   1      33.755  33.623  29.413  1.00  0.00    -0.463 OA
BRANCH   5   6
ATOM      6  C   UNL A   1      34.233  33.056  28.275  1.00  0.00     0.316 C 
ATOM      7  O   UNL A   1      35.233  33.480  27.695  1.00  0.00    -0.251 OA
BRANCH   6   8
ATOM      8  C   UNL A   1      33.471  31.873  27.680  1.00  0.00     0.200 C 
BRANCH   8   9
ATOM      9  S   UNL A   1      34.249  30.267  27.436  1.00  0.00    -0.082 SA
BRANCH   9  10
ATOM     10  C   UNL A   1      33.287  29.310  26.285  1.00  0.00     0.176 A 
ATOM     11  C   UNL A   1      32.225  27.474  25.176  1.00  0.00     0.213 A 
ATOM     12  N   UNL A   1      31.348  28.327  25.658  1.00  0.00    -0.119 NA
ATOM     13  S   UNL A   1      33.821  28.111  25.157  1.00  0.00    -0.068 S 
ATOM     14  N   UNL A   1      31.968  29.354  26.363  1.00  0.00    -0.130 NA
BRANCH  11  15
ATOM     15  N   UNL A   1      31.882  26.188  24.772  1.00  0.00    -0.296 N 
ATOM     16  O   UNL A   1      31.574  25.266  26.862  1.00  0.00    -0.268 OA
ATOM     17  C   UNL A   1      31.538  25.159  25.634  1.00  0.00     0.281 C 
ATOM     18  H   UNL A   1      31.885  25.995  23.806  1.00  0.00     0.172 HD
BRANCH  17  19
ATOM     19  C   UNL A   1      31.200  23.786  24.996  1.00  0.00     0.364 C 
BRANCH  19  20
ATOM     20  N   UNL A   1      32.269  22.870  24.606  1.00  0.00    -0.323 N 
ATOM     21  C   UNL A   1      32.082  21.556  24.019  1.00  0.00     0.291 C 
ATOM     22  C   UNL A   1      33.624  23.056  25.148  1.00  0.00     0.291 C 
ATOM     23  H   UNL A   1      32.051  23.419  23.774  1.00  0.00     0.348 HD
ATOM     24  C   UNL A   1      32.548  20.482  25.001  1.00  0.00     0.221 C 
ATOM     25  C   UNL A   1      34.058  21.902  26.064  1.00  0.00     0.221 C 
ATOM     26  O   UNL A   1      33.922  20.661  25.356  1.00  0.00    -0.370 OA
ENDBRANCH  19  20
ENDBRANCH  17  19
ENDBRANCH  11  15
ENDBRANCH   9  10
ENDBRANCH   8   9
ENDBRANCH   6   8
ENDBRANCH   5   6
ENDBRANCH   4   5
ENDBRANCH   3   4
ENDBRANCH   2   3
ENDBRANCH   1   2
BRANCH   1  27
ATOM     27  C   UNL A   1      34.570  35.744  33.455  1.00  0.00     0.188 C 
BRANCH  27  28
ATOM     28  O   UNL A   1      34.873  34.380  33.216  1.00  0.00    -0.377 OA
BRANCH  28  29
ATOM     29  C   UNL A   1      35.303  33.570  34.304  1.00  0.00     0.188 C 
BRANCH  29  30
ATOM     30  C   UNL A   1      36.550  32.740  34.044  1.00  0.00     0.188 C 
BRANCH  30  31
ATOM     31  O   UNL A   1      36.406  31.606  33.184  1.00  0.00    -0.376 OA
BRANCH  31  32
ATOM     32  C   UNL A   1      37.541  30.840  32.789  1.00  0.00     0.202 C 
BRANCH  32  33
ATOM     33  C   UNL A   1      38.384  31.499  31.706  1.00  0.00     0.261 C 
BRANCH  33  34
ATOM     34  O   UNL A   1      38.607  32.857  32.034  1.00  0.00    -0.460 OA
BRANCH  34  35
ATOM     35  C   UNL A   1      38.214  33.777  31.122  1.00  0.00     0.338 C 
ATOM     36  O   UNL A   1      37.132  34.299  30.941  1.00  0.00    -0.246 OA
BRANCH  35  37
ATOM     37  C   UNL A   1      39.456  34.192  30.487  1.00  0.00     0.060 A 
ATOM     38  C   UNL A   1      39.452  34.595  29.147  1.00  0.00     0.016 A 
ATOM     39  C   UNL A   1      40.595  34.273  31.291  1.00  0.00     0.016 A 
ATOM     40  C   UNL A   1      40.614  35.108  28.604  1.00  0.00     0.010 A 
ATOM     41  C   UNL A   1      41.753  34.780  30.754  1.00  0.00     0.010 A 
ATOM     42  C   UNL A   1      41.759  35.167  29.408  1.00  0.00    -0.014 A 
BRANCH  42  43
ATOM     43  C   UNL A   1      43.059  35.424  28.804  1.00  0.00     0.031 A 
ATOM     44  C   UNL A   1      43.939  34.240  28.582  1.00  0.00     0.074 A 
ATOM     45  C   UNL A   1      43.421  36.688  28.557  1.00  0.00     0.049 A 
ATOM     46  N   UNL A   1      45.185  34.199  28.205  1.00  0.00    -0.248 NA
ATOM     47  C   UNL A   1      43.337  32.918  28.842  1.00  0.00     0.031 C 
ATOM     48  C   UNL A   1      42.574  37.864  28.758  1.00  0.00     0.029 A 
ATOM     49  N   UNL A   1      44.607  37.190  28.112  1.00  0.00    -0.354 N 
ATOM     50  C   UNL A   1      45.516  32.852  28.187  1.00  0.00     0.074 A 
ATOM     51  C   UNL A   1      44.360  32.108  28.627  1.00  0.00     0.031 C 
ATOM     52  C   UNL A   1      43.280  38.962  28.447  1.00  0.00     0.029 A 
ATOM     53  C   UNL A   1      44.632  38.559  28.074  1.00  0.00     0.049 A 
ATOM     54  H   UNL A   1      45.368  36.626  27.843  1.00  0.00     0.167 HD
ATOM     55  C   UNL A   1      46.694  32.305  27.822  1.00  0.00     0.037 A 
ATOM     56  C   UNL A   1      45.665  39.374  27.801  1.00  0.00     0.037 A 
ATOM     57  C   UNL A   1      47.820  33.097  27.413  1.00  0.00     0.049 A 
ATOM     58  C   UNL A   1      46.986  38.735  27.464  1.00  0.00     0.074 A 
ATOM     59  C   UNL A   1      49.068  32.679  27.002  1.00  0.00     0.029 A 
ATOM     60  N   UNL A   1      47.825  34.488  27.383  1.00  0.00    -0.354 N 
ATOM     61  N   UNL A   1      47.299  37.460  27.401  1.00  0.00    -0.248 NA
ATOM     62  C   UNL A   1      48.097  39.643  27.162  1.00  0.00     0.031 C 
ATOM     63  C   UNL A   1      49.849  33.818  26.784  1.00  0.00     0.029 A 
ATOM     64  C   UNL A   1      49.068  34.947  26.991  1.00  0.00     0.049 A 
ATOM     65  H   UNL A   1      47.056  35.061  27.608  1.00  0.00     0.167 HD
ATOM     66  C   UNL A   1      48.633  37.410  27.030  1.00  0.00     0.074 A 
ATOM     67  C   UNL A   1      49.063  38.786  26.862  1.00  0.00     0.031 C 
ATOM     68  C   UNL A   1      49.440  36.334  26.845  1.00  0.00     0.037 A 
BRANCH  55  69
ATOM     69  C   UNL A   1      46.815  30.812  27.890  1.00  0.00     0.064 A 
ATOM     70  C   UNL A   1      47.199  30.152  29.068  1.00  0.00     0.173 A 
ATOM     71  C   UNL A   1      46.548  30.028  26.758  1.00  0.00     0.173 A 
ATOM     72  F   UNL A   1      47.495  30.855  30.172  1.00  0.00    -0.203 F 
ATOM     73  C   UNL A   1      47.334  28.766  29.103  1.00  0.00     0.198 A 
ATOM     74  C   UNL A   1      46.652  28.640  26.806  1.00  0.00     0.198 A 
ATOM     75  F   UNL A   1      46.191  30.608  25.602  1.00  0.00    -0.203 F 
ATOM     76  F   UNL A   1      47.755  28.163  30.224  1.00  0.00    -0.200 F 
ATOM     77  C   UNL A   1      47.051  28.011  27.975  1.00  0.00     0.200 A 
ATOM     78  F   UNL A   1      46.371  27.912  25.716  1.00  0.00    -0.200 F 
ATOM     79  F   UNL A   1      47.171  26.678  28.013  1.00  0.00    -0.200 F 
ENDBRANCH  55  69
BRANCH  56  80
ATOM     80  C   UNL A   1      45.483  40.845  27.845  1.00  0.00     0.064 A 
ATOM     81  C   UNL A   1      45.763  41.570  29.010  1.00  0.00     0.173 A 
ATOM     82  C   UNL A   1      45.041  41.562  26.722  1.00  0.00     0.173 A 
ATOM     83  F   UNL A   1      46.181  40.931  30.113  1.00  0.00    -0.203 F 
ATOM     84  C   UNL A   1      45.586  42.952  29.059  1.00  0.00     0.198 A 
ATOM     85  C   UNL A   1      44.895  42.947  26.762  1.00  0.00     0.198 A 
ATOM     86  F   UNL A   1      44.770  40.918  25.577  1.00  0.00    -0.203 F 
ATOM     87  F   UNL A   1      45.819  43.614  30.200  1.00  0.00    -0.200 F 
ATOM     88  C   UNL A   1      45.158  43.640  27.933  1.00  0.00     0.200 A 
ATOM     89  F   UNL A   1      44.501  43.609  25.666  1.00  0.00    -0.200 F 
ATOM     90  F   UNL A   1      44.994  44.969  27.979  1.00  0.00    -0.200 F 
ENDBRANCH  56  80
BRANCH  68  91
ATOM     91  C   UNL A   1      50.851  36.616  26.421  1.00  0.00     0.064 A 
ATOM     92  C   UNL A   1      51.201  36.728  25.069  1.00  0.00     0.173 A 
ATOM     93  C   UNL A   1      51.849  36.827  27.385  1.00  0.00     0.173 A 
ATOM     94  F   UNL A   1      50.283  36.520  24.112  1.00  0.00    -0.203 F 
ATOM     95  C   UNL A   1      52.511  37.012  24.695  1.00  0.00     0.198 A 
ATOM     96  C   UNL A   1      53.147  37.151  27.007  1.00  0.00     0.198 A 
ATOM     97  F   UNL A   1      51.558  36.742  28.691  1.00  0.00    -0.203 F 
ATOM     98  F   UNL A   1      52.838  37.059  23.396  1.00  0.00    -0.200 F 
ATOM     99  C   UNL A   1      53.479  37.233  25.663  1.00  0.00     0.200 A 
ATOM    100  F   UNL A   1      54.076  37.384  27.944  1.00  0.00    -0.200 F 
ATOM    101  F   UNL A   1      54.737  37.520  25.301  1.00  0.00    -0.200 F 
ENDBRANCH  68  91
ENDBRANCH  42  43
ENDBRANCH  35  37
ENDBRANCH  34  35
ENDBRANCH  33  34
ENDBRANCH  32  33
ENDBRANCH  31  32
ENDBRANCH  30  31
ENDBRANCH  29  30
ENDBRANCH  28  29
ENDBRANCH  27  28
ENDBRANCH   1  27
TORSDOF 25
ENDMDL
