MODEL 1
REMARK VINA RESULT:     -10.2      0.000      0.000
REMARK SMILES CC(C)(C)n1ccnc(N(CC(=O)OCCOCCOCCOCCOC(=O)c2ccc(-c3c4nc(c(-c5c(F)c(F)c(F)c(F)c5F)c5ccc([nH]5)c(-c5c(F)c(F)c(F)c(F)c5F)c5nc(c(-c6c(F)c(F)c(F)c(F)c6F)c6ccc3[nH]6)C=C5)C=C4)cc2)CC(F)(F)F)c1=O
REMARK SMILES IDX 19 1 18 2 17 3 16 4 15 5 14 6 12 7 13 8 11 9 10 10 9 11 5 12
REMARK SMILES IDX 6 13 97 14 7 15 98 16 8 17 2 18 1 19 3 20 4 21 92 22 93 23
REMARK SMILES IDX 94 24 95 25 96 26 20 27 21 28 22 29 23 30 24 31 25 32 26 33
REMARK SMILES IDX 27 34 28 35 29 36 30 37 91 38 31 39 90 40 32 41 33 42 34 43
REMARK SMILES IDX 84 44 35 45 89 46 83 47 85 48 36 49 88 50 82 51 81 52 37 54
REMARK SMILES IDX 69 55 49 56 68 57 50 58 53 59 67 60 86 61 51 62 52 63 66 65
REMARK SMILES IDX 87 66 54 67 38 68 39 69 47 70 40 71 41 72 45 73 48 74 42 75
REMARK SMILES IDX 43 76 46 77 44 78 70 79 71 80 79 81 72 82 73 83 77 84 80 85
REMARK SMILES IDX 74 86 75 87 78 88 76 89 55 90 56 91 64 92 57 93 58 94 62 95
REMARK SMILES IDX 65 96 59 97 60 98 63 99 61 100
REMARK H PARENT 85 53 53 64
REMARK Flexibility Score: inf
ROOT
ATOM      1  C   UNL A   1      31.435  27.500  26.057  1.00  0.00     0.188 C 
ENDROOT
BRANCH   1   2
ATOM      2  C   UNL A   1      31.029  27.639  24.600  1.00  0.00     0.188 C 
BRANCH   2   3
ATOM      3  O   UNL A   1      32.127  27.904  23.750  1.00  0.00    -0.376 OA
BRANCH   3   4
ATOM      4  C   UNL A   1      31.926  27.815  22.356  1.00  0.00     0.202 C 
BRANCH   4   5
ATOM      5  C   UNL A   1      31.703  26.444  21.675  1.00  0.00     0.261 C 
BRANCH   5   6
ATOM      6  O   UNL A   1      31.765  25.255  22.493  1.00  0.00    -0.462 OA
BRANCH   6   7
ATOM      7  C   UNL A   1      32.905  24.508  22.398  1.00  0.00     0.325 C 
ATOM      8  O   UNL A   1      34.028  25.010  22.360  1.00  0.00    -0.250 OA
BRANCH   7   9
ATOM      9  C   UNL A   1      32.714  22.994  22.575  1.00  0.00     0.241 C 
BRANCH   9  10
ATOM     10  N   UNL A   1      32.517  22.444  23.931  1.00  0.00    -0.332 N 
BRANCH  10  11
ATOM     11  C   UNL A   1      33.441  21.541  24.471  1.00  0.00     0.196 A 
ATOM     12  N   UNL A   1      33.974  19.122  24.730  1.00  0.00    -0.306 N 
ATOM     13  C   UNL A   1      35.275  19.569  24.911  1.00  0.00     0.110 A 
ATOM     14  C   UNL A   1      32.977  20.082  24.839  1.00  0.00     0.294 A 
ATOM     15  C   UNL A   1      35.563  20.877  24.963  1.00  0.00     0.131 A 
ATOM     16  O   UNL A   1      31.811  19.891  25.158  1.00  0.00    -0.265 OA
ATOM     17  N   UNL A   1      34.687  21.888  24.658  1.00  0.00    -0.233 NA
BRANCH  12  18
ATOM     18  C   UNL A   1      33.683  17.668  24.501  1.00  0.00     0.039 C 
ATOM     19  C   UNL A   1      32.793  17.000  25.582  1.00  0.00     0.034 C 
ATOM     20  C   UNL A   1      34.982  16.846  24.439  1.00  0.00     0.034 C 
ATOM     21  C   UNL A   1      32.900  17.529  23.173  1.00  0.00     0.034 C 
ENDBRANCH  12  18
ENDBRANCH  10  11
BRANCH  10  22
ATOM     22  C   UNL A   1      31.487  23.069  24.800  1.00  0.00     0.234 C 
BRANCH  22  23
ATOM     23  C   UNL A   1      32.013  23.631  26.135  1.00  0.00     0.405 C 
ATOM     24  F   UNL A   1      33.053  24.478  25.971  1.00  0.00    -0.169 F 
ATOM     25  F   UNL A   1      31.046  24.330  26.776  1.00  0.00    -0.169 F 
ATOM     26  F   UNL A   1      32.455  22.658  26.962  1.00  0.00    -0.169 F 
ENDBRANCH  22  23
ENDBRANCH  10  22
ENDBRANCH   9  10
ENDBRANCH   7   9
ENDBRANCH   6   7
ENDBRANCH   5   6
ENDBRANCH   4   5
ENDBRANCH   3   4
ENDBRANCH   2   3
ENDBRANCH   1   2
BRANCH   1  27
ATOM     27  O   UNL A   1      32.765  27.696  26.504  1.00  0.00    -0.377 OA
BRANCH  27  28
ATOM     28  C   UNL A   1      33.246  28.970  26.897  1.00  0.00     0.188 C 
BRANCH  28  29
ATOM     29  C   UNL A   1      32.181  30.020  27.250  1.00  0.00     0.188 C 
BRANCH  29  30
ATOM     30  O   UNL A   1      31.670  30.918  26.267  1.00  0.00    -0.376 OA
BRANCH  30  31
ATOM     31  C   UNL A   1      31.482  32.288  26.569  1.00  0.00     0.202 C 
BRANCH  31  32
ATOM     32  C   UNL A   1      32.308  32.904  27.705  1.00  0.00     0.261 C 
BRANCH  32  33
ATOM     33  O   UNL A   1      32.854  34.204  27.445  1.00  0.00    -0.460 OA
BRANCH  33  34
ATOM     34  C   UNL A   1      32.993  35.009  28.522  1.00  0.00     0.338 C 
ATOM     35  O   UNL A   1      32.251  35.912  28.876  1.00  0.00    -0.246 OA
BRANCH  34  36
ATOM     36  C   UNL A   1      34.156  34.565  29.316  1.00  0.00     0.060 A 
ATOM     37  C   UNL A   1      34.023  34.209  30.661  1.00  0.00     0.016 A 
ATOM     38  C   UNL A   1      35.393  34.438  28.672  1.00  0.00     0.016 A 
ATOM     39  C   UNL A   1      35.124  33.680  31.346  1.00  0.00     0.010 A 
ATOM     40  C   UNL A   1      36.494  33.928  29.361  1.00  0.00     0.010 A 
ATOM     41  C   UNL A   1      36.359  33.513  30.694  1.00  0.00    -0.014 A 
BRANCH  41  42
ATOM     42  C   UNL A   1      37.454  32.740  31.333  1.00  0.00     0.031 A 
ATOM     43  C   UNL A   1      38.093  31.564  30.661  1.00  0.00     0.074 A 
ATOM     44  C   UNL A   1      37.840  33.100  32.573  1.00  0.00     0.049 A 
ATOM     45  N   UNL A   1      39.076  30.808  31.088  1.00  0.00    -0.248 NA
ATOM     46  C   UNL A   1      37.564  31.178  29.345  1.00  0.00     0.031 C 
ATOM     47  C   UNL A   1      37.266  34.207  33.339  1.00  0.00     0.029 A 
ATOM     48  N   UNL A   1      38.798  32.578  33.406  1.00  0.00    -0.354 N 
ATOM     49  C   UNL A   1      39.305  29.878  30.084  1.00  0.00     0.074 A 
ATOM     50  C   UNL A   1      38.323  30.129  29.048  1.00  0.00     0.031 C 
ATOM     51  C   UNL A   1      37.901  34.299  34.518  1.00  0.00     0.029 A 
ATOM     52  C   UNL A   1      38.905  33.243  34.603  1.00  0.00     0.049 A 
ATOM     53  H   UNL A   1      39.355  31.802  33.167  1.00  0.00     0.167 HD
ATOM     54  C   UNL A   1      40.264  28.922  30.028  1.00  0.00     0.037 A 
ATOM     55  C   UNL A   1      39.723  33.030  35.650  1.00  0.00     0.037 A 
ATOM     56  C   UNL A   1      41.224  28.661  31.073  1.00  0.00     0.049 A 
ATOM     57  C   UNL A   1      40.730  31.914  35.584  1.00  0.00     0.074 A 
ATOM     58  C   UNL A   1      42.242  27.721  31.093  1.00  0.00     0.029 A 
ATOM     59  N   UNL A   1      41.280  29.330  32.287  1.00  0.00    -0.354 N 
ATOM     60  N   UNL A   1      40.984  31.088  34.600  1.00  0.00    -0.248 NA
ATOM     61  C   UNL A   1      41.567  31.707  36.773  1.00  0.00     0.031 C 
ATOM     62  C   UNL A   1      42.884  27.791  32.332  1.00  0.00     0.029 A 
ATOM     63  C   UNL A   1      42.301  28.809  33.068  1.00  0.00     0.049 A 
ATOM     64  H   UNL A   1      40.684  30.066  32.554  1.00  0.00     0.167 HD
ATOM     65  C   UNL A   1      42.029  30.286  35.038  1.00  0.00     0.074 A 
ATOM     66  C   UNL A   1      42.372  30.734  36.371  1.00  0.00     0.031 C 
ATOM     67  C   UNL A   1      42.645  29.268  34.390  1.00  0.00     0.037 A 
BRANCH  54  68
ATOM     68  C   UNL A   1      40.360  28.092  28.781  1.00  0.00     0.064 A 
ATOM     69  C   UNL A   1      41.183  28.485  27.715  1.00  0.00     0.173 A 
ATOM     70  C   UNL A   1      39.731  26.839  28.697  1.00  0.00     0.173 A 
ATOM     71  F   UNL A   1      41.806  29.673  27.747  1.00  0.00    -0.203 F 
ATOM     72  C   UNL A   1      41.369  27.660  26.609  1.00  0.00     0.198 A 
ATOM     73  C   UNL A   1      39.940  26.007  27.601  1.00  0.00     0.198 A 
ATOM     74  F   UNL A   1      38.947  26.408  29.695  1.00  0.00    -0.203 F 
ATOM     75  F   UNL A   1      42.149  28.064  25.597  1.00  0.00    -0.200 F 
ATOM     76  C   UNL A   1      40.758  26.416  26.559  1.00  0.00     0.200 A 
ATOM     77  F   UNL A   1      39.365  24.796  27.562  1.00  0.00    -0.200 F 
ATOM     78  F   UNL A   1      40.960  25.611  25.506  1.00  0.00    -0.200 F 
ENDBRANCH  54  68
BRANCH  55  79
ATOM     79  C   UNL A   1      39.657  33.924  36.834  1.00  0.00     0.064 A 
ATOM     80  C   UNL A   1      38.918  33.553  37.965  1.00  0.00     0.173 A 
ATOM     81  C   UNL A   1      40.324  35.157  36.863  1.00  0.00     0.173 A 
ATOM     82  F   UNL A   1      38.247  32.392  37.976  1.00  0.00    -0.203 F 
ATOM     83  C   UNL A   1      38.833  34.391  39.075  1.00  0.00     0.198 A 
ATOM     84  C   UNL A   1      40.262  35.981  37.985  1.00  0.00     0.198 A 
ATOM     85  F   UNL A   1      41.046  35.555  35.806  1.00  0.00    -0.203 F 
ATOM     86  F   UNL A   1      38.082  34.033  40.126  1.00  0.00    -0.200 F 
ATOM     87  C   UNL A   1      39.510  35.601  39.087  1.00  0.00     0.200 A 
ATOM     88  F   UNL A   1      40.929  37.143  37.998  1.00  0.00    -0.200 F 
ATOM     89  F   UNL A   1      39.431  36.404  40.156  1.00  0.00    -0.200 F 
ENDBRANCH  55  79
BRANCH  67  90
ATOM     90  C   UNL A   1      43.778  28.579  35.097  1.00  0.00     0.064 A 
ATOM     91  C   UNL A   1      43.568  27.435  35.879  1.00  0.00     0.173 A 
ATOM     92  C   UNL A   1      45.096  29.035  34.941  1.00  0.00     0.173 A 
ATOM     93  F   UNL A   1      42.325  26.967  36.072  1.00  0.00    -0.203 F 
ATOM     94  C   UNL A   1      44.634  26.782  36.494  1.00  0.00     0.198 A 
ATOM     95  C   UNL A   1      46.162  28.363  35.532  1.00  0.00     0.198 A 
ATOM     96  F   UNL A   1      45.353  30.122  34.198  1.00  0.00    -0.203 F 
ATOM     97  F   UNL A   1      44.405  25.714  37.270  1.00  0.00    -0.200 F 
ATOM     98  C   UNL A   1      45.930  27.240  36.313  1.00  0.00     0.200 A 
ATOM     99  F   UNL A   1      47.416  28.799  35.342  1.00  0.00    -0.200 F 
ATOM    100  F   UNL A   1      46.955  26.602  36.892  1.00  0.00    -0.200 F 
ENDBRANCH  67  90
ENDBRANCH  41  42
ENDBRANCH  34  36
ENDBRANCH  33  34
ENDBRANCH  32  33
ENDBRANCH  31  32
ENDBRANCH  30  31
ENDBRANCH  29  30
ENDBRANCH  28  29
ENDBRANCH  27  28
ENDBRANCH   1  27
TORSDOF 25
ENDMDL
MODEL 2
REMARK VINA RESULT:     -10.1      0.372      7.069
REMARK SMILES CC(C)(C)n1ccnc(N(CC(=O)OCCOCCOCCOCCOC(=O)c2ccc(-c3c4nc(c(-c5c(F)c(F)c(F)c(F)c5F)c5ccc([nH]5)c(-c5c(F)c(F)c(F)c(F)c5F)c5nc(c(-c6c(F)c(F)c(F)c(F)c6F)c6ccc3[nH]6)C=C5)C=C4)cc2)CC(F)(F)F)c1=O
REMARK SMILES IDX 19 1 18 2 17 3 16 4 15 5 14 6 12 7 13 8 11 9 10 10 9 11 5 12
REMARK SMILES IDX 6 13 97 14 7 15 98 16 8 17 2 18 1 19 3 20 4 21 92 22 93 23
REMARK SMILES IDX 94 24 95 25 96 26 20 27 21 28 22 29 23 30 24 31 25 32 26 33
REMARK SMILES IDX 27 34 28 35 29 36 30 37 91 38 31 39 90 40 32 41 33 42 34 43
REMARK SMILES IDX 84 44 35 45 89 46 83 47 85 48 36 49 88 50 82 51 81 52 37 54
REMARK SMILES IDX 69 55 49 56 68 57 50 58 53 59 67 60 86 61 51 62 52 63 66 65
REMARK SMILES IDX 87 66 54 67 38 68 39 69 47 70 40 71 41 72 45 73 48 74 42 75
REMARK SMILES IDX 43 76 46 77 44 78 70 79 71 80 79 81 72 82 73 83 77 84 80 85
REMARK SMILES IDX 74 86 75 87 78 88 76 89 55 90 56 91 64 92 57 93 58 94 62 95
REMARK SMILES IDX 65 96 59 97 60 98 63 99 61 100
REMARK H PARENT 85 53 53 64
REMARK Flexibility Score: inf
ROOT
ATOM      1  C   UNL A   1      31.753  27.456  26.033  1.00  0.00     0.188 C 
ENDROOT
BRANCH   1   2
ATOM      2  C   UNL A   1      30.970  27.638  24.745  1.00  0.00     0.188 C 
BRANCH   2   3
ATOM      3  O   UNL A   1      31.765  28.135  23.687  1.00  0.00    -0.376 OA
BRANCH   3   4
ATOM      4  C   UNL A   1      31.295  27.968  22.367  1.00  0.00     0.202 C 
BRANCH   4   5
ATOM      5  C   UNL A   1      31.423  26.604  21.648  1.00  0.00     0.261 C 
BRANCH   5   6
ATOM      6  O   UNL A   1      31.655  25.426  22.450  1.00  0.00    -0.462 OA
BRANCH   6   7
ATOM      7  C   UNL A   1      32.935  24.947  22.476  1.00  0.00     0.325 C 
ATOM      8  O   UNL A   1      33.921  25.684  22.472  1.00  0.00    -0.250 OA
BRANCH   7   9
ATOM      9  C   UNL A   1      33.066  23.440  22.741  1.00  0.00     0.241 C 
BRANCH   9  10
ATOM     10  N   UNL A   1      32.881  22.929  24.113  1.00  0.00    -0.332 N 
BRANCH  10  11
ATOM     11  C   UNL A   1      33.665  21.870  24.587  1.00  0.00     0.196 A 
ATOM     12  N   UNL A   1      33.871  19.388  24.648  1.00  0.00    -0.306 N 
ATOM     13  C   UNL A   1      35.214  19.644  24.883  1.00  0.00     0.110 A 
ATOM     14  C   UNL A   1      33.006  20.460  24.823  1.00  0.00     0.294 A 
ATOM     15  C   UNL A   1      35.669  20.893  25.050  1.00  0.00     0.131 A 
ATOM     16  O   UNL A   1      31.817  20.399  25.109  1.00  0.00    -0.265 OA
ATOM     17  N   UNL A   1      34.941  22.033  24.820  1.00  0.00    -0.233 NA
BRANCH  12  18
ATOM     18  C   UNL A   1      33.398  18.010  24.292  1.00  0.00     0.039 C 
ATOM     19  C   UNL A   1      32.381  17.947  23.122  1.00  0.00     0.034 C 
ATOM     20  C   UNL A   1      32.720  17.329  25.494  1.00  0.00     0.034 C 
ATOM     21  C   UNL A   1      34.618  17.178  23.828  1.00  0.00     0.034 C 
ENDBRANCH  12  18
ENDBRANCH  10  11
BRANCH  10  22
ATOM     22  C   UNL A   1      32.054  23.727  25.054  1.00  0.00     0.234 C 
BRANCH  22  23
ATOM     23  C   UNL A   1      32.615  23.835  26.486  1.00  0.00     0.405 C 
ATOM     24  F   UNL A   1      32.721  22.634  27.096  1.00  0.00    -0.169 F 
ATOM     25  F   UNL A   1      33.858  24.371  26.475  1.00  0.00    -0.169 F 
ATOM     26  F   UNL A   1      31.831  24.589  27.288  1.00  0.00    -0.169 F 
ENDBRANCH  22  23
ENDBRANCH  10  22
ENDBRANCH   9  10
ENDBRANCH   7   9
ENDBRANCH   6   7
ENDBRANCH   5   6
ENDBRANCH   4   5
ENDBRANCH   3   4
ENDBRANCH   2   3
ENDBRANCH   1   2
BRANCH   1  27
ATOM     27  O   UNL A   1      33.121  27.806  26.153  1.00  0.00    -0.377 OA
BRANCH  27  28
ATOM     28  C   UNL A   1      33.534  29.106  26.537  1.00  0.00     0.188 C 
BRANCH  28  29
ATOM     29  C   UNL A   1      32.441  30.027  27.102  1.00  0.00     0.188 C 
BRANCH  29  30
ATOM     30  O   UNL A   1      31.695  30.900  26.258  1.00  0.00    -0.376 OA
BRANCH  30  31
ATOM     31  C   UNL A   1      31.499  32.256  26.613  1.00  0.00     0.202 C 
BRANCH  31  32
ATOM     32  C   UNL A   1      32.369  32.851  27.729  1.00  0.00     0.261 C 
BRANCH  32  33
ATOM     33  O   UNL A   1      32.938  34.137  27.456  1.00  0.00    -0.460 OA
BRANCH  33  34
ATOM     34  C   UNL A   1      33.065  34.960  28.521  1.00  0.00     0.338 C 
ATOM     35  O   UNL A   1      32.302  35.846  28.872  1.00  0.00    -0.246 OA
BRANCH  34  36
ATOM     36  C   UNL A   1      34.250  34.561  29.307  1.00  0.00     0.060 A 
ATOM     37  C   UNL A   1      34.162  34.323  30.682  1.00  0.00     0.016 A 
ATOM     38  C   UNL A   1      35.459  34.354  28.632  1.00  0.00     0.016 A 
ATOM     39  C   UNL A   1      35.278  33.831  31.369  1.00  0.00     0.010 A 
ATOM     40  C   UNL A   1      36.577  33.881  29.322  1.00  0.00     0.010 A 
ATOM     41  C   UNL A   1      36.485  33.584  30.689  1.00  0.00    -0.014 A 
BRANCH  41  42
ATOM     42  C   UNL A   1      37.589  32.845  31.351  1.00  0.00     0.031 A 
ATOM     43  C   UNL A   1      38.117  33.241  32.696  1.00  0.00     0.074 A 
ATOM     44  C   UNL A   1      38.147  31.814  30.686  1.00  0.00     0.049 A 
ATOM     45  N   UNL A   1      39.061  32.675  33.408  1.00  0.00    -0.248 NA
ATOM     46  C   UNL A   1      37.516  34.426  33.325  1.00  0.00     0.031 C 
ATOM     47  C   UNL A   1      37.739  31.358  29.357  1.00  0.00     0.029 A 
ATOM     48  N   UNL A   1      39.171  30.967  31.031  1.00  0.00    -0.354 N 
ATOM     49  C   UNL A   1      39.148  33.412  34.580  1.00  0.00     0.074 A 
ATOM     50  C   UNL A   1      38.198  34.501  34.463  1.00  0.00     0.031 C 
ATOM     51  C   UNL A   1      38.486  30.299  29.009  1.00  0.00     0.029 A 
ATOM     52  C   UNL A   1      39.442  30.018  30.076  1.00  0.00     0.049 A 
ATOM     53  H   UNL A   1      39.663  31.034  31.881  1.00  0.00     0.167 HD
ATOM     54  C   UNL A   1      39.933  33.182  35.661  1.00  0.00     0.037 A 
ATOM     55  C   UNL A   1      40.354  29.028  30.063  1.00  0.00     0.037 A 
ATOM     56  C   UNL A   1      40.894  32.111  35.763  1.00  0.00     0.049 A 
ATOM     57  C   UNL A   1      41.259  28.843  31.250  1.00  0.00     0.074 A 
ATOM     58  C   UNL A   1      41.721  31.793  36.828  1.00  0.00     0.029 A 
ATOM     59  N   UNL A   1      41.168  31.190  34.763  1.00  0.00    -0.354 N 
ATOM     60  N   UNL A   1      41.282  29.503  32.381  1.00  0.00    -0.248 NA
ATOM     61  C   UNL A   1      42.260  27.772  31.159  1.00  0.00     0.031 C 
ATOM     62  C   UNL A   1      42.524  30.711  36.458  1.00  0.00     0.029 A 
ATOM     63  C   UNL A   1      42.164  30.319  35.180  1.00  0.00     0.049 A 
ATOM     64  H   UNL A   1      40.721  31.158  33.886  1.00  0.00     0.167 HD
ATOM     65  C   UNL A   1      42.275  28.907  33.147  1.00  0.00     0.074 A 
ATOM     66  C   UNL A   1      42.821  27.823  32.358  1.00  0.00     0.031 C 
ATOM     67  C   UNL A   1      42.695  29.234  34.394  1.00  0.00     0.037 A 
BRANCH  54  68
ATOM     68  C   UNL A   1      39.776  34.083  36.852  1.00  0.00     0.064 A 
ATOM     69  C   UNL A   1      38.958  33.714  37.930  1.00  0.00     0.173 A 
ATOM     70  C   UNL A   1      40.538  35.254  36.977  1.00  0.00     0.173 A 
ATOM     71  F   UNL A   1      38.209  32.602  37.861  1.00  0.00    -0.203 F 
ATOM     72  C   UNL A   1      38.904  34.487  39.087  1.00  0.00     0.198 A 
ATOM     73  C   UNL A   1      40.500  36.011  38.145  1.00  0.00     0.198 A 
ATOM     74  F   UNL A   1      41.348  35.644  35.981  1.00  0.00    -0.203 F 
ATOM     75  F   UNL A   1      38.104  34.122  40.099  1.00  0.00    -0.200 F 
ATOM     76  C   UNL A   1      39.685  35.628  39.199  1.00  0.00     0.200 A 
ATOM     77  F   UNL A   1      41.270  37.103  38.260  1.00  0.00    -0.200 F 
ATOM     78  F   UNL A   1      39.653  36.355  40.324  1.00  0.00    -0.200 F 
ENDBRANCH  54  68
BRANCH  55  79
ATOM     79  C   UNL A   1      40.425  28.103  28.902  1.00  0.00     0.064 A 
ATOM     80  C   UNL A   1      41.174  28.443  27.767  1.00  0.00     0.173 A 
ATOM     81  C   UNL A   1      39.755  26.872  28.900  1.00  0.00     0.173 A 
ATOM     82  F   UNL A   1      41.816  29.619  27.715  1.00  0.00    -0.203 F 
ATOM     83  C   UNL A   1      41.234  27.593  26.665  1.00  0.00     0.198 A 
ATOM     84  C   UNL A   1      39.840  26.010  27.809  1.00  0.00     0.198 A 
ATOM     85  F   UNL A   1      39.028  26.502  29.964  1.00  0.00    -0.203 F 
ATOM     86  F   UNL A   1      41.919  27.962  25.574  1.00  0.00    -0.200 F 
ATOM     87  C   UNL A   1      40.572  26.375  26.689  1.00  0.00     0.200 A 
ATOM     88  F   UNL A   1      39.210  24.828  27.842  1.00  0.00    -0.200 F 
ATOM     89  F   UNL A   1      40.633  25.556  25.631  1.00  0.00    -0.200 F 
ENDBRANCH  55  79
BRANCH  67  90
ATOM     90  C   UNL A   1      43.782  28.395  35.003  1.00  0.00     0.064 A 
ATOM     91  C   UNL A   1      43.490  27.251  35.760  1.00  0.00     0.173 A 
ATOM     92  C   UNL A   1      45.132  28.708  34.779  1.00  0.00     0.173 A 
ATOM     93  F   UNL A   1      42.216  26.918  36.016  1.00  0.00    -0.203 F 
ATOM     94  C   UNL A   1      44.510  26.460  36.283  1.00  0.00     0.198 A 
ATOM     95  C   UNL A   1      46.148  27.898  35.278  1.00  0.00     0.198 A 
ATOM     96  F   UNL A   1      45.465  29.788  34.058  1.00  0.00    -0.203 F 
ATOM     97  F   UNL A   1      44.207  25.393  37.036  1.00  0.00    -0.200 F 
ATOM     98  C   UNL A   1      45.836  26.778  36.034  1.00  0.00     0.200 A 
ATOM     99  F   UNL A   1      47.429  28.198  35.023  1.00  0.00    -0.200 F 
ATOM    100  F   UNL A   1      46.815  26.006  36.526  1.00  0.00    -0.200 F 
ENDBRANCH  67  90
ENDBRANCH  41  42
ENDBRANCH  34  36
ENDBRANCH  33  34
ENDBRANCH  32  33
ENDBRANCH  31  32
ENDBRANCH  30  31
ENDBRANCH  29  30
ENDBRANCH  28  29
ENDBRANCH  27  28
ENDBRANCH   1  27
TORSDOF 25
ENDMDL
MODEL 3
REMARK VINA RESULT:      -9.6      1.389      2.711
REMARK SMILES CC(C)(C)n1ccnc(N(CC(=O)OCCOCCOCCOCCOC(=O)c2ccc(-c3c4nc(c(-c5c(F)c(F)c(F)c(F)c5F)c5ccc([nH]5)c(-c5c(F)c(F)c(F)c(F)c5F)c5nc(c(-c6c(F)c(F)c(F)c(F)c6F)c6ccc3[nH]6)C=C5)C=C4)cc2)CC(F)(F)F)c1=O
REMARK SMILES IDX 19 1 18 2 17 3 16 4 15 5 14 6 12 7 13 8 11 9 10 10 9 11 5 12
REMARK SMILES IDX 6 13 97 14 7 15 98 16 8 17 2 18 1 19 3 20 4 21 92 22 93 23
REMARK SMILES IDX 94 24 95 25 96 26 20 27 21 28 22 29 23 30 24 31 25 32 26 33
REMARK SMILES IDX 27 34 28 35 29 36 30 37 91 38 31 39 90 40 32 41 33 42 34 43
REMARK SMILES IDX 84 44 35 45 89 46 83 47 85 48 36 49 88 50 82 51 81 52 37 54
REMARK SMILES IDX 69 55 49 56 68 57 50 58 53 59 67 60 86 61 51 62 52 63 66 65
REMARK SMILES IDX 87 66 54 67 38 68 39 69 47 70 40 71 41 72 45 73 48 74 42 75
REMARK SMILES IDX 43 76 46 77 44 78 70 79 71 80 79 81 72 82 73 83 77 84 80 85
REMARK SMILES IDX 74 86 75 87 78 88 76 89 55 90 56 91 64 92 57 93 58 94 62 95
REMARK SMILES IDX 65 96 59 97 60 98 63 99 61 100
REMARK H PARENT 85 53 53 64
REMARK Flexibility Score: inf
ROOT
ATOM      1  C   UNL A   1      32.399  27.684  26.722  1.00  0.00     0.188 C 
ENDROOT
BRANCH   1   2
ATOM      2  C   UNL A   1      31.087  26.981  27.025  1.00  0.00     0.188 C 
BRANCH   2   3
ATOM      3  O   UNL A   1      30.424  26.534  25.859  1.00  0.00    -0.376 OA
BRANCH   3   4
ATOM      4  C   UNL A   1      30.021  25.184  25.799  1.00  0.00     0.202 C 
BRANCH   4   5
ATOM      5  C   UNL A   1      30.675  24.122  26.714  1.00  0.00     0.261 C 
BRANCH   5   6
ATOM      6  O   UNL A   1      31.825  23.404  26.216  1.00  0.00    -0.462 OA
BRANCH   6   7
ATOM      7  C   UNL A   1      31.649  22.074  25.956  1.00  0.00     0.325 C 
ATOM      8  O   UNL A   1      30.614  21.622  25.468  1.00  0.00    -0.250 OA
BRANCH   7   9
ATOM      9  C   UNL A   1      32.909  21.206  26.099  1.00  0.00     0.241 C 
BRANCH   9  10
ATOM     10  N   UNL A   1      33.676  20.843  24.891  1.00  0.00    -0.332 N 
BRANCH  10  11
ATOM     11  C   UNL A   1      34.311  21.832  24.129  1.00  0.00     0.196 A 
ATOM     12  N   UNL A   1      33.928  23.908  22.808  1.00  0.00    -0.306 N 
ATOM     13  C   UNL A   1      35.266  24.158  23.073  1.00  0.00     0.110 A 
ATOM     14  C   UNL A   1      33.494  22.608  23.030  1.00  0.00     0.294 A 
ATOM     15  C   UNL A   1      36.032  23.263  23.711  1.00  0.00     0.131 A 
ATOM     16  O   UNL A   1      32.553  22.049  22.482  1.00  0.00    -0.265 OA
ATOM     17  N   UNL A   1      35.567  22.131  24.331  1.00  0.00    -0.233 NA
BRANCH  12  18
ATOM     18  C   UNL A   1      33.038  24.980  22.250  1.00  0.00     0.039 C 
ATOM     19  C   UNL A   1      31.604  25.013  22.841  1.00  0.00     0.034 C 
ATOM     20  C   UNL A   1      32.878  24.829  20.727  1.00  0.00     0.034 C 
ATOM     21  C   UNL A   1      33.659  26.357  22.587  1.00  0.00     0.034 C 
ENDBRANCH  12  18
ENDBRANCH  10  11
BRANCH  10  22
ATOM     22  C   UNL A   1      33.987  19.408  24.662  1.00  0.00     0.234 C 
BRANCH  22  23
ATOM     23  C   UNL A   1      32.875  18.604  23.960  1.00  0.00     0.405 C 
ATOM     24  F   UNL A   1      33.362  17.647  23.141  1.00  0.00    -0.169 F 
ATOM     25  F   UNL A   1      32.094  17.972  24.867  1.00  0.00    -0.169 F 
ATOM     26  F   UNL A   1      32.087  19.385  23.189  1.00  0.00    -0.169 F 
ENDBRANCH  22  23
ENDBRANCH  10  22
ENDBRANCH   9  10
ENDBRANCH   7   9
ENDBRANCH   6   7
ENDBRANCH   5   6
ENDBRANCH   4   5
ENDBRANCH   3   4
ENDBRANCH   2   3
ENDBRANCH   1   2
BRANCH   1  27
ATOM     27  O   UNL A   1      32.788  28.046  25.408  1.00  0.00    -0.377 OA
BRANCH  27  28
ATOM     28  C   UNL A   1      33.156  29.372  25.071  1.00  0.00     0.188 C 
BRANCH  28  29
ATOM     29  C   UNL A   1      32.821  30.455  26.109  1.00  0.00     0.188 C 
BRANCH  29  30
ATOM     30  O   UNL A   1      31.546  31.092  26.133  1.00  0.00    -0.376 OA
BRANCH  30  31
ATOM     31  C   UNL A   1      31.408  32.413  26.620  1.00  0.00     0.202 C 
BRANCH  31  32
ATOM     32  C   UNL A   1      32.421  32.918  27.656  1.00  0.00     0.261 C 
BRANCH  32  33
ATOM     33  O   UNL A   1      32.938  34.236  27.432  1.00  0.00    -0.460 OA
BRANCH  33  34
ATOM     34  C   UNL A   1      33.057  35.015  28.531  1.00  0.00     0.338 C 
ATOM     35  O   UNL A   1      32.299  35.898  28.902  1.00  0.00    -0.246 OA
BRANCH  34  36
ATOM     36  C   UNL A   1      34.221  34.568  29.322  1.00  0.00     0.060 A 
ATOM     37  C   UNL A   1      34.089  34.209  30.666  1.00  0.00     0.016 A 
ATOM     38  C   UNL A   1      35.456  34.441  28.675  1.00  0.00     0.016 A 
ATOM     39  C   UNL A   1      35.190  33.678  31.348  1.00  0.00     0.010 A 
ATOM     40  C   UNL A   1      36.558  33.928  29.362  1.00  0.00     0.010 A 
ATOM     41  C   UNL A   1      36.425  33.511  30.694  1.00  0.00    -0.014 A 
BRANCH  41  42
ATOM     42  C   UNL A   1      37.519  32.735  31.329  1.00  0.00     0.031 A 
ATOM     43  C   UNL A   1      38.157  31.560  30.654  1.00  0.00     0.074 A 
ATOM     44  C   UNL A   1      37.907  33.091  32.570  1.00  0.00     0.049 A 
ATOM     45  N   UNL A   1      39.140  30.802  31.078  1.00  0.00    -0.248 NA
ATOM     46  C   UNL A   1      37.626  31.178  29.338  1.00  0.00     0.031 C 
ATOM     47  C   UNL A   1      37.335  34.197  33.339  1.00  0.00     0.029 A 
ATOM     48  N   UNL A   1      38.866  32.566  33.400  1.00  0.00    -0.354 N 
ATOM     49  C   UNL A   1      39.367  29.874  30.071  1.00  0.00     0.074 A 
ATOM     50  C   UNL A   1      38.384  30.130  29.036  1.00  0.00     0.031 C 
ATOM     51  C   UNL A   1      37.971  34.284  34.518  1.00  0.00     0.029 A 
ATOM     52  C   UNL A   1      38.974  33.227  34.599  1.00  0.00     0.049 A 
ATOM     53  H   UNL A   1      39.422  31.790  33.159  1.00  0.00     0.167 HD
ATOM     54  C   UNL A   1      40.325  28.918  30.011  1.00  0.00     0.037 A 
ATOM     55  C   UNL A   1      39.794  33.010  35.644  1.00  0.00     0.037 A 
ATOM     56  C   UNL A   1      41.286  28.653  31.054  1.00  0.00     0.049 A 
ATOM     57  C   UNL A   1      40.800  31.894  35.575  1.00  0.00     0.074 A 
ATOM     58  C   UNL A   1      42.303  27.713  31.070  1.00  0.00     0.029 A 
ATOM     59  N   UNL A   1      41.344  29.318  32.269  1.00  0.00    -0.354 N 
ATOM     60  N   UNL A   1      41.052  31.070  34.588  1.00  0.00    -0.248 NA
ATOM     61  C   UNL A   1      41.638  31.683  36.762  1.00  0.00     0.031 C 
ATOM     62  C   UNL A   1      42.946  27.778  32.309  1.00  0.00     0.029 A 
ATOM     63  C   UNL A   1      42.366  28.795  33.048  1.00  0.00     0.049 A 
ATOM     64  H   UNL A   1      40.748  30.055  32.539  1.00  0.00     0.167 HD
ATOM     65  C   UNL A   1      42.097  30.266  35.023  1.00  0.00     0.074 A 
ATOM     66  C   UNL A   1      42.442  30.711  36.356  1.00  0.00     0.031 C 
ATOM     67  C   UNL A   1      42.712  29.249  34.371  1.00  0.00     0.037 A 
BRANCH  54  68
ATOM     68  C   UNL A   1      40.419  28.091  28.761  1.00  0.00     0.064 A 
ATOM     69  C   UNL A   1      41.227  28.496  27.688  1.00  0.00     0.173 A 
ATOM     70  C   UNL A   1      39.804  26.832  28.681  1.00  0.00     0.173 A 
ATOM     71  F   UNL A   1      41.837  29.691  27.716  1.00  0.00    -0.203 F 
ATOM     72  C   UNL A   1      41.412  27.675  26.579  1.00  0.00     0.198 A 
ATOM     73  C   UNL A   1      40.012  26.003  27.581  1.00  0.00     0.198 A 
ATOM     74  F   UNL A   1      39.033  26.390  29.685  1.00  0.00    -0.203 F 
ATOM     75  F   UNL A   1      42.177  28.090  25.561  1.00  0.00    -0.200 F 
ATOM     76  C   UNL A   1      40.815  26.424  26.532  1.00  0.00     0.200 A 
ATOM     77  F   UNL A   1      39.450  24.786  27.545  1.00  0.00    -0.200 F 
ATOM     78  F   UNL A   1      41.017  25.623  25.476  1.00  0.00    -0.200 F 
ENDBRANCH  54  68
BRANCH  55  79
ATOM     79  C   UNL A   1      39.730  33.902  36.831  1.00  0.00     0.064 A 
ATOM     80  C   UNL A   1      38.970  33.540  37.952  1.00  0.00     0.173 A 
ATOM     81  C   UNL A   1      40.419  35.122  36.873  1.00  0.00     0.173 A 
ATOM     82  F   UNL A   1      38.278  32.392  37.951  1.00  0.00    -0.203 F 
ATOM     83  C   UNL A   1      38.887  34.375  39.064  1.00  0.00     0.198 A 
ATOM     84  C   UNL A   1      40.359  35.942  37.998  1.00  0.00     0.198 A 
ATOM     85  F   UNL A   1      41.161  35.510  35.826  1.00  0.00    -0.203 F 
ATOM     86  F   UNL A   1      38.117  34.027  40.105  1.00  0.00    -0.200 F 
ATOM     87  C   UNL A   1      39.586  35.572  39.089  1.00  0.00     0.200 A 
ATOM     88  F   UNL A   1      41.047  37.092  38.023  1.00  0.00    -0.200 F 
ATOM     89  F   UNL A   1      39.510  36.373  40.160  1.00  0.00    -0.200 F 
ENDBRANCH  55  79
BRANCH  67  90
ATOM     90  C   UNL A   1      43.844  28.557  35.074  1.00  0.00     0.064 A 
ATOM     91  C   UNL A   1      43.627  27.443  35.897  1.00  0.00     0.173 A 
ATOM     92  C   UNL A   1      45.168  28.980  34.876  1.00  0.00     0.173 A 
ATOM     93  F   UNL A   1      42.379  27.009  36.130  1.00  0.00    -0.203 F 
ATOM     94  C   UNL A   1      44.692  26.786  36.508  1.00  0.00     0.198 A 
ATOM     95  C   UNL A   1      46.233  28.302  35.465  1.00  0.00     0.198 A 
ATOM     96  F   UNL A   1      45.432  30.037  34.095  1.00  0.00    -0.203 F 
ATOM     97  F   UNL A   1      44.457  25.747  37.321  1.00  0.00    -0.200 F 
ATOM     98  C   UNL A   1      45.994  27.210  36.285  1.00  0.00     0.200 A 
ATOM     99  F   UNL A   1      47.490  28.704  35.235  1.00  0.00    -0.200 F 
ATOM    100  F   UNL A   1      47.017  26.567  36.862  1.00  0.00    -0.200 F 
ENDBRANCH  67  90
ENDBRANCH  41  42
ENDBRANCH  34  36
ENDBRANCH  33  34
ENDBRANCH  32  33
ENDBRANCH  31  32
ENDBRANCH  30  31
ENDBRANCH  29  30
ENDBRANCH  28  29
ENDBRANCH  27  28
ENDBRANCH   1  27
TORSDOF 25
ENDMDL
