MODEL 1
REMARK VINA RESULT:      -9.2      0.000      0.000
REMARK SMILES CSCC[C@H](C(=O)OCCOCCOCCOCCOC(=O)c1ccc(-c2c3nc(c(-c4c(F)c(F)c(F)c(F)c4F)c4ccc([nH]4)c(-c4c(F)c(F)c(F)c(F)c4F)c4nc(c(-c5c(F)c(F)c(F)c(F)c5F)c5ccc2[nH]5)C=C4)C=C3)cc1)N1C(=O)/C(=C/c2ccc3c(c2)OCO3)SC1=S
REMARK SMILES IDX 13 1 12 2 11 3 10 4 9 5 8 6 6 7 7 8 5 9 4 10 3 11 2 12 1 13
REMARK SMILES IDX 86 14 87 15 101 16 88 17 89 18 100 19 102 20 90 21 91 22
REMARK SMILES IDX 92 23 96 24 93 25 95 26 94 27 97 28 99 29 98 30 14 31 15 32
REMARK SMILES IDX 16 33 17 34 18 35 19 36 20 37 21 38 22 39 23 40 24 41 85 42
REMARK SMILES IDX 25 43 84 44 26 45 27 46 28 47 78 48 29 49 83 50 77 51 79 52
REMARK SMILES IDX 30 53 82 54 76 55 75 56 31 58 63 59 43 60 62 61 44 62 47 63
REMARK SMILES IDX 61 64 80 65 45 66 46 67 60 69 81 70 48 71 32 72 33 73 41 74
REMARK SMILES IDX 34 75 35 76 39 77 42 78 36 79 37 80 40 81 38 82 64 83 65 84
REMARK SMILES IDX 73 85 66 86 67 87 71 88 74 89 68 90 69 91 72 92 70 93 49 94
REMARK SMILES IDX 50 95 58 96 51 97 52 98 56 99 59 100 53 101 54 102 57 103
REMARK SMILES IDX 55 104
REMARK H PARENT 79 57 47 68
REMARK Flexibility Score: inf
ROOT
ATOM      1  C   UNL A   1      36.451  31.033  29.150  1.00  0.00     0.188 C 
ENDROOT
BRANCH   1   2
ATOM      2  C   UNL A   1      36.195  29.839  28.225  1.00  0.00     0.188 C 
BRANCH   2   3
ATOM      3  O   UNL A   1      35.366  29.928  27.074  1.00  0.00    -0.376 OA
BRANCH   3   4
ATOM      4  C   UNL A   1      33.982  29.640  26.984  1.00  0.00     0.202 C 
BRANCH   4   5
ATOM      5  C   UNL A   1      33.241  29.656  25.652  1.00  0.00     0.261 C 
BRANCH   5   6
ATOM      6  O   UNL A   1      33.689  28.607  24.784  1.00  0.00    -0.462 OA
BRANCH   6   7
ATOM      7  C   UNL A   1      32.992  28.537  23.634  1.00  0.00     0.329 C 
ATOM      8  O   UNL A   1      33.449  28.889  22.546  1.00  0.00    -0.250 OA
BRANCH   7   9
ATOM      9  C   UNL A   1      31.596  27.889  23.766  1.00  0.00     0.202 C 
BRANCH   9  10
ATOM     10  C   UNL A   1      30.664  27.816  22.551  1.00  0.00     0.048 C 
BRANCH  10  11
ATOM     11  C   UNL A   1      29.315  28.533  22.743  1.00  0.00     0.072 C 
BRANCH  11  12
ATOM     12  S   UNL A   1      29.425  30.333  22.459  1.00  0.00    -0.165 SA
ATOM     13  C   UNL A   1      28.071  30.558  21.294  1.00  0.00     0.085 C 
ENDBRANCH  11  12
ENDBRANCH  10  11
ENDBRANCH   9  10
BRANCH   9  14
ATOM     14  N   UNL A   1      31.982  26.555  24.239  1.00  0.00    -0.278 N 
ATOM     15  C   UNL A   1      32.615  25.746  23.311  1.00  0.00     0.266 C 
ATOM     16  C   UNL A   1      31.982  26.117  25.542  1.00  0.00     0.149 C 
ATOM     17  O   UNL A   1      32.583  25.884  22.095  1.00  0.00    -0.268 OA
ATOM     18  C   UNL A   1      33.380  24.711  24.009  1.00  0.00     0.081 C 
ATOM     19  S   UNL A   1      32.840  24.582  25.636  1.00  0.00    -0.054 SA
ATOM     20  S   UNL A   1      31.297  26.863  26.867  1.00  0.00    -0.052 S 
ATOM     21  C   UNL A   1      34.248  23.970  23.309  1.00  0.00     0.029 C 
BRANCH  21  22
ATOM     22  C   UNL A   1      34.427  22.585  23.700  1.00  0.00    -0.020 A 
ATOM     23  C   UNL A   1      35.510  22.099  24.448  1.00  0.00     0.012 A 
ATOM     24  C   UNL A   1      33.311  21.785  23.417  1.00  0.00     0.058 A 
ATOM     25  C   UNL A   1      35.441  20.810  24.988  1.00  0.00     0.051 A 
ATOM     26  C   UNL A   1      33.245  20.567  24.022  1.00  0.00     0.166 A 
ATOM     27  C   UNL A   1      34.274  20.093  24.798  1.00  0.00     0.165 A 
ATOM     28  O   UNL A   1      32.155  19.759  24.020  1.00  0.00    -0.454 OA
ATOM     29  O   UNL A   1      33.945  18.907  25.380  1.00  0.00    -0.454 OA
ATOM     30  C   UNL A   1      32.530  18.864  25.080  1.00  0.00     0.468 C 
ENDBRANCH  21  22
ENDBRANCH   9  14
ENDBRANCH   7   9
ENDBRANCH   6   7
ENDBRANCH   5   6
ENDBRANCH   4   5
ENDBRANCH   3   4
ENDBRANCH   2   3
ENDBRANCH   1   2
BRANCH   1  31
ATOM     31  O   UNL A   1      36.398  32.340  28.624  1.00  0.00    -0.377 OA
BRANCH  31  32
ATOM     32  C   UNL A   1      35.123  32.896  28.387  1.00  0.00     0.188 C 
BRANCH  32  33
ATOM     33  C   UNL A   1      34.765  34.107  29.263  1.00  0.00     0.188 C 
BRANCH  33  34
ATOM     34  O   UNL A   1      33.936  33.974  30.415  1.00  0.00    -0.376 OA
BRANCH  34  35
ATOM     35  C   UNL A   1      34.474  34.217  31.703  1.00  0.00     0.202 C 
BRANCH  35  36
ATOM     36  C   UNL A   1      35.890  33.650  31.901  1.00  0.00     0.261 C 
BRANCH  36  37
ATOM     37  O   UNL A   1      35.960  32.347  32.509  1.00  0.00    -0.460 OA
BRANCH  37  38
ATOM     38  C   UNL A   1      36.649  32.279  33.673  1.00  0.00     0.338 C 
ATOM     39  O   UNL A   1      36.327  32.745  34.758  1.00  0.00    -0.246 OA
BRANCH  38  40
ATOM     40  C   UNL A   1      37.853  31.433  33.504  1.00  0.00     0.060 A 
ATOM     41  C   UNL A   1      39.027  31.803  34.174  1.00  0.00     0.016 A 
ATOM     42  C   UNL A   1      37.852  30.324  32.654  1.00  0.00     0.016 A 
ATOM     43  C   UNL A   1      40.215  31.106  33.952  1.00  0.00     0.010 A 
ATOM     44  C   UNL A   1      39.051  29.640  32.412  1.00  0.00     0.010 A 
ATOM     45  C   UNL A   1      40.247  30.059  33.023  1.00  0.00    -0.014 A 
BRANCH  45  46
ATOM     46  C   UNL A   1      41.563  29.584  32.519  1.00  0.00     0.031 A 
ATOM     47  C   UNL A   1      42.205  30.345  31.387  1.00  0.00     0.074 A 
ATOM     48  C   UNL A   1      42.210  28.550  33.084  1.00  0.00     0.049 A 
ATOM     49  N   UNL A   1      43.339  30.127  30.768  1.00  0.00    -0.248 NA
ATOM     50  C   UNL A   1      41.465  31.515  30.887  1.00  0.00     0.031 C 
ATOM     51  C   UNL A   1      41.727  27.769  34.219  1.00  0.00     0.029 A 
ATOM     52  N   UNL A   1      43.422  27.981  32.774  1.00  0.00    -0.354 N 
ATOM     53  C   UNL A   1      43.441  31.124  29.807  1.00  0.00     0.074 A 
ATOM     54  C   UNL A   1      42.243  31.927  29.898  1.00  0.00     0.031 C 
ATOM     55  C   UNL A   1      42.630  26.815  34.507  1.00  0.00     0.029 A 
ATOM     56  C   UNL A   1      43.738  26.897  33.556  1.00  0.00     0.049 A 
ATOM     57  H   UNL A   1      44.008  28.319  32.059  1.00  0.00     0.167 HD
ATOM     58  C   UNL A   1      44.448  31.358  28.932  1.00  0.00     0.037 A 
ATOM     59  C   UNL A   1      44.791  26.058  33.492  1.00  0.00     0.037 A 
ATOM     60  C   UNL A   1      45.641  30.558  28.840  1.00  0.00     0.049 A 
ATOM     61  C   UNL A   1      45.860  26.287  32.450  1.00  0.00     0.074 A 
ATOM     62  C   UNL A   1      46.723  30.716  27.992  1.00  0.00     0.029 A 
ATOM     63  N   UNL A   1      45.902  29.439  29.618  1.00  0.00    -0.354 N 
ATOM     64  N   UNL A   1      45.959  27.242  31.556  1.00  0.00    -0.248 NA
ATOM     65  C   UNL A   1      46.967  25.319  32.412  1.00  0.00     0.031 C 
ATOM     66  C   UNL A   1      47.609  29.656  28.213  1.00  0.00     0.029 A 
ATOM     67  C   UNL A   1      47.115  28.880  29.248  1.00  0.00     0.049 A 
ATOM     68  H   UNL A   1      45.314  29.094  30.327  1.00  0.00     0.167 HD
ATOM     69  C   UNL A   1      47.152  27.012  30.879  1.00  0.00     0.074 A 
ATOM     70  C   UNL A   1      47.748  25.835  31.474  1.00  0.00     0.031 C 
ATOM     71  C   UNL A   1      47.704  27.713  29.858  1.00  0.00     0.037 A 
BRANCH  58  72
ATOM     72  C   UNL A   1      44.285  32.507  27.977  1.00  0.00     0.064 A 
ATOM     73  C   UNL A   1      43.922  32.313  26.635  1.00  0.00     0.173 A 
ATOM     74  C   UNL A   1      44.474  33.827  28.419  1.00  0.00     0.173 A 
ATOM     75  F   UNL A   1      43.744  31.073  26.157  1.00  0.00    -0.203 F 
ATOM     76  C   UNL A   1      43.787  33.393  25.765  1.00  0.00     0.198 A 
ATOM     77  C   UNL A   1      44.304  34.905  27.556  1.00  0.00     0.198 A 
ATOM     78  F   UNL A   1      44.818  34.071  29.692  1.00  0.00    -0.203 F 
ATOM     79  F   UNL A   1      43.495  33.179  24.475  1.00  0.00    -0.200 F 
ATOM     80  C   UNL A   1      43.970  34.688  26.228  1.00  0.00     0.200 A 
ATOM     81  F   UNL A   1      44.465  36.156  28.009  1.00  0.00    -0.200 F 
ATOM     82  F   UNL A   1      43.832  35.726  25.392  1.00  0.00    -0.200 F 
ENDBRANCH  58  72
BRANCH  59  83
ATOM     83  C   UNL A   1      44.889  24.907  34.432  1.00  0.00     0.064 A 
ATOM     84  C   UNL A   1      45.417  25.064  35.722  1.00  0.00     0.173 A 
ATOM     85  C   UNL A   1      44.490  23.618  34.047  1.00  0.00     0.173 A 
ATOM     86  F   UNL A   1      45.841  26.270  36.130  1.00  0.00    -0.203 F 
ATOM     87  C   UNL A   1      45.564  23.974  36.580  1.00  0.00     0.198 A 
ATOM     88  C   UNL A   1      44.606  22.536  34.917  1.00  0.00     0.198 A 
ATOM     89  F   UNL A   1      43.985  23.410  32.822  1.00  0.00    -0.203 F 
ATOM     90  F   UNL A   1      46.126  24.144  37.784  1.00  0.00    -0.200 F 
ATOM     91  C   UNL A   1      45.152  22.713  36.178  1.00  0.00     0.200 A 
ATOM     92  F   UNL A   1      44.197  21.321  34.529  1.00  0.00    -0.200 F 
ATOM     93  F   UNL A   1      45.292  21.666  37.003  1.00  0.00    -0.200 F 
ENDBRANCH  59  83
BRANCH  71  94
ATOM     94  C   UNL A   1      49.046  27.261  29.349  1.00  0.00     0.064 A 
ATOM     95  C   UNL A   1      49.171  26.340  28.298  1.00  0.00     0.173 A 
ATOM     96  C   UNL A   1      50.224  27.791  29.898  1.00  0.00     0.173 A 
ATOM     97  F   UNL A   1      48.077  25.794  27.744  1.00  0.00    -0.203 F 
ATOM     98  C   UNL A   1      50.425  25.938  27.842  1.00  0.00     0.198 A 
ATOM     99  C   UNL A   1      51.475  27.416  29.414  1.00  0.00     0.198 A 
ATOM    100  F   UNL A   1      50.165  28.684  30.897  1.00  0.00    -0.203 F 
ATOM    101  F   UNL A   1      50.519  25.013  26.878  1.00  0.00    -0.200 F 
ATOM    102  C   UNL A   1      51.575  26.484  28.394  1.00  0.00     0.200 A 
ATOM    103  F   UNL A   1      52.584  27.959  29.935  1.00  0.00    -0.200 F 
ATOM    104  F   UNL A   1      52.780  26.101  27.948  1.00  0.00    -0.200 F 
ENDBRANCH  71  94
ENDBRANCH  45  46
ENDBRANCH  38  40
ENDBRANCH  37  38
ENDBRANCH  36  37
ENDBRANCH  35  36
ENDBRANCH  34  35
ENDBRANCH  33  34
ENDBRANCH  32  33
ENDBRANCH  31  32
ENDBRANCH   1  31
TORSDOF 25
ENDMDL
MODEL 2
REMARK VINA RESULT:      -8.9      1.271      2.247
REMARK SMILES CSCC[C@H](C(=O)OCCOCCOCCOCCOC(=O)c1ccc(-c2c3nc(c(-c4c(F)c(F)c(F)c(F)c4F)c4ccc([nH]4)c(-c4c(F)c(F)c(F)c(F)c4F)c4nc(c(-c5c(F)c(F)c(F)c(F)c5F)c5ccc2[nH]5)C=C4)C=C3)cc1)N1C(=O)/C(=C/c2ccc3c(c2)OCO3)SC1=S
REMARK SMILES IDX 13 1 12 2 11 3 10 4 9 5 8 6 6 7 7 8 5 9 4 10 3 11 2 12 1 13
REMARK SMILES IDX 86 14 87 15 101 16 88 17 89 18 100 19 102 20 90 21 91 22
REMARK SMILES IDX 92 23 96 24 93 25 95 26 94 27 97 28 99 29 98 30 14 31 15 32
REMARK SMILES IDX 16 33 17 34 18 35 19 36 20 37 21 38 22 39 23 40 24 41 85 42
REMARK SMILES IDX 25 43 84 44 26 45 27 46 28 47 78 48 29 49 83 50 77 51 79 52
REMARK SMILES IDX 30 53 82 54 76 55 75 56 31 58 63 59 43 60 62 61 44 62 47 63
REMARK SMILES IDX 61 64 80 65 45 66 46 67 60 69 81 70 48 71 32 72 33 73 41 74
REMARK SMILES IDX 34 75 35 76 39 77 42 78 36 79 37 80 40 81 38 82 64 83 65 84
REMARK SMILES IDX 73 85 66 86 67 87 71 88 74 89 68 90 69 91 72 92 70 93 49 94
REMARK SMILES IDX 50 95 58 96 51 97 52 98 56 99 59 100 53 101 54 102 57 103
REMARK SMILES IDX 55 104
REMARK H PARENT 79 57 47 68
REMARK Flexibility Score: inf
ROOT
ATOM      1  C   UNL A   1      33.854  31.297  27.278  1.00  0.00     0.188 C 
ENDROOT
BRANCH   1   2
ATOM      2  C   UNL A   1      32.345  31.056  27.177  1.00  0.00     0.188 C 
BRANCH   2   3
ATOM      3  O   UNL A   1      31.779  29.752  27.149  1.00  0.00    -0.376 OA
BRANCH   3   4
ATOM      4  C   UNL A   1      32.462  28.513  27.232  1.00  0.00     0.202 C 
BRANCH   4   5
ATOM      5  C   UNL A   1      33.582  28.145  26.266  1.00  0.00     0.261 C 
BRANCH   5   6
ATOM      6  O   UNL A   1      33.154  27.172  25.305  1.00  0.00    -0.462 OA
BRANCH   6   7
ATOM      7  C   UNL A   1      32.288  27.666  24.400  1.00  0.00     0.329 C 
ATOM      8  O   UNL A   1      32.444  28.754  23.843  1.00  0.00    -0.250 OA
BRANCH   7   9
ATOM      9  C   UNL A   1      31.122  26.720  24.040  1.00  0.00     0.202 C 
BRANCH   9  10
ATOM     10  C   UNL A   1      30.243  27.013  22.818  1.00  0.00     0.048 C 
BRANCH  10  11
ATOM     11  C   UNL A   1      29.089  27.995  23.089  1.00  0.00     0.072 C 
BRANCH  11  12
ATOM     12  S   UNL A   1      29.276  29.571  22.187  1.00  0.00    -0.165 SA
ATOM     13  C   UNL A   1      29.346  30.724  23.568  1.00  0.00     0.085 C 
ENDBRANCH  11  12
ENDBRANCH  10  11
ENDBRANCH   9  10
BRANCH   9  14
ATOM     14  N   UNL A   1      31.859  25.459  23.893  1.00  0.00    -0.278 N 
ATOM     15  C   UNL A   1      31.650  24.518  24.887  1.00  0.00     0.266 C 
ATOM     16  C   UNL A   1      32.545  25.038  22.778  1.00  0.00     0.149 C 
ATOM     17  O   UNL A   1      31.206  24.740  26.006  1.00  0.00    -0.268 OA
ATOM     18  C   UNL A   1      31.998  23.189  24.380  1.00  0.00     0.081 C 
ATOM     19  S   UNL A   1      32.962  23.338  22.966  1.00  0.00    -0.054 SA
ATOM     20  S   UNL A   1      32.953  25.937  21.435  1.00  0.00    -0.052 S 
ATOM     21  C   UNL A   1      31.651  22.115  25.100  1.00  0.00     0.029 C 
BRANCH  21  22
ATOM     22  C   UNL A   1      32.541  20.969  25.079  1.00  0.00    -0.020 A 
ATOM     23  C   UNL A   1      32.239  19.735  24.483  1.00  0.00     0.012 A 
ATOM     24  C   UNL A   1      33.826  21.261  25.556  1.00  0.00     0.058 A 
ATOM     25  C   UNL A   1      33.264  18.802  24.293  1.00  0.00     0.051 A 
ATOM     26  C   UNL A   1      34.812  20.363  25.284  1.00  0.00     0.166 A 
ATOM     27  C   UNL A   1      34.546  19.170  24.658  1.00  0.00     0.165 A 
ATOM     28  O   UNL A   1      36.136  20.580  25.491  1.00  0.00    -0.454 OA
ATOM     29  O   UNL A   1      35.694  18.484  24.400  1.00  0.00    -0.454 OA
ATOM     30  C   UNL A   1      36.671  19.508  24.697  1.00  0.00     0.468 C 
ENDBRANCH  21  22
ENDBRANCH   9  14
ENDBRANCH   7   9
ENDBRANCH   6   7
ENDBRANCH   5   6
ENDBRANCH   4   5
ENDBRANCH   3   4
ENDBRANCH   2   3
ENDBRANCH   1   2
BRANCH   1  31
ATOM     31  O   UNL A   1      34.422  31.616  28.529  1.00  0.00    -0.377 OA
BRANCH  31  32
ATOM     32  C   UNL A   1      35.626  30.970  28.882  1.00  0.00     0.188 C 
BRANCH  32  33
ATOM     33  C   UNL A   1      36.895  31.823  28.728  1.00  0.00     0.188 C 
BRANCH  33  34
ATOM     34  O   UNL A   1      37.401  32.607  29.806  1.00  0.00    -0.376 OA
BRANCH  34  35
ATOM     35  C   UNL A   1      36.577  33.585  30.417  1.00  0.00     0.202 C 
BRANCH  35  36
ATOM     36  C   UNL A   1      36.716  33.644  31.948  1.00  0.00     0.261 C 
BRANCH  36  37
ATOM     37  O   UNL A   1      36.382  32.433  32.650  1.00  0.00    -0.460 OA
BRANCH  37  38
ATOM     38  C   UNL A   1      37.016  32.247  33.833  1.00  0.00     0.338 C 
ATOM     39  O   UNL A   1      36.653  32.624  34.940  1.00  0.00    -0.246 OA
BRANCH  38  40
ATOM     40  C   UNL A   1      38.208  31.390  33.644  1.00  0.00     0.060 A 
ATOM     41  C   UNL A   1      39.390  31.733  34.315  1.00  0.00     0.016 A 
ATOM     42  C   UNL A   1      38.191  30.297  32.774  1.00  0.00     0.016 A 
ATOM     43  C   UNL A   1      40.568  31.026  34.076  1.00  0.00     0.010 A 
ATOM     44  C   UNL A   1      39.381  29.602  32.514  1.00  0.00     0.010 A 
ATOM     45  C   UNL A   1      40.584  29.996  33.128  1.00  0.00    -0.014 A 
BRANCH  45  46
ATOM     46  C   UNL A   1      41.892  29.514  32.610  1.00  0.00     0.031 A 
ATOM     47  C   UNL A   1      42.540  30.288  31.491  1.00  0.00     0.074 A 
ATOM     48  C   UNL A   1      42.528  28.462  33.154  1.00  0.00     0.049 A 
ATOM     49  N   UNL A   1      43.668  30.069  30.864  1.00  0.00    -0.248 NA
ATOM     50  C   UNL A   1      41.812  31.477  31.015  1.00  0.00     0.031 C 
ATOM     51  C   UNL A   1      42.040  27.666  34.275  1.00  0.00     0.029 A 
ATOM     52  N   UNL A   1      43.732  27.884  32.828  1.00  0.00    -0.354 N 
ATOM     53  C   UNL A   1      43.779  31.082  29.921  1.00  0.00     0.074 A 
ATOM     54  C   UNL A   1      42.591  31.898  30.031  1.00  0.00     0.031 C 
ATOM     55  C   UNL A   1      42.931  26.695  34.541  1.00  0.00     0.029 A 
ATOM     56  C   UNL A   1      44.038  26.782  33.588  1.00  0.00     0.049 A 
ATOM     57  H   UNL A   1      44.320  28.228  32.117  1.00  0.00     0.167 HD
ATOM     58  C   UNL A   1      44.786  31.320  29.047  1.00  0.00     0.037 A 
ATOM     59  C   UNL A   1      45.080  25.931  33.505  1.00  0.00     0.037 A 
ATOM     60  C   UNL A   1      45.969  30.508  28.935  1.00  0.00     0.049 A 
ATOM     61  C   UNL A   1      46.147  26.166  32.463  1.00  0.00     0.074 A 
ATOM     62  C   UNL A   1      47.050  30.668  28.086  1.00  0.00     0.029 A 
ATOM     63  N   UNL A   1      46.219  29.371  29.690  1.00  0.00    -0.354 N 
ATOM     64  N   UNL A   1      46.255  27.137  31.587  1.00  0.00    -0.248 NA
ATOM     65  C   UNL A   1      47.242  25.186  32.403  1.00  0.00     0.031 C 
ATOM     66  C   UNL A   1      47.923  29.594  28.284  1.00  0.00     0.029 A 
ATOM     67  C   UNL A   1      47.424  28.804  29.306  1.00  0.00     0.049 A 
ATOM     68  H   UNL A   1      45.629  29.020  30.395  1.00  0.00     0.167 HD
ATOM     69  C   UNL A   1      47.442  26.905  30.901  1.00  0.00     0.074 A 
ATOM     70  C   UNL A   1      48.026  25.710  31.471  1.00  0.00     0.031 C 
ATOM     71  C   UNL A   1      47.999  27.619  29.891  1.00  0.00     0.037 A 
BRANCH  58  72
ATOM     72  C   UNL A   1      44.634  32.489  28.114  1.00  0.00     0.064 A 
ATOM     73  C   UNL A   1      44.994  33.793  28.490  1.00  0.00     0.173 A 
ATOM     74  C   UNL A   1      44.137  32.297  26.815  1.00  0.00     0.173 A 
ATOM     75  F   UNL A   1      45.459  34.035  29.725  1.00  0.00    -0.203 F 
ATOM     76  C   UNL A   1      44.834  34.863  27.613  1.00  0.00     0.198 A 
ATOM     77  C   UNL A   1      44.011  33.364  25.929  1.00  0.00     0.198 A 
ATOM     78  F   UNL A   1      43.780  31.072  26.401  1.00  0.00    -0.203 F 
ATOM     79  F   UNL A   1      45.132  36.107  28.014  1.00  0.00    -0.200 F 
ATOM     80  C   UNL A   1      44.350  34.646  26.331  1.00  0.00     0.200 A 
ATOM     81  F   UNL A   1      43.559  33.149  24.686  1.00  0.00    -0.200 F 
ATOM     82  F   UNL A   1      44.203  35.676  25.486  1.00  0.00    -0.200 F 
ENDBRANCH  58  72
BRANCH  59  83
ATOM     83  C   UNL A   1      45.167  24.761  34.422  1.00  0.00     0.064 A 
ATOM     84  C   UNL A   1      44.677  23.503  34.045  1.00  0.00     0.173 A 
ATOM     85  C   UNL A   1      45.708  24.887  35.711  1.00  0.00     0.173 A 
ATOM     86  F   UNL A   1      44.122  23.335  32.835  1.00  0.00    -0.203 F 
ATOM     87  C   UNL A   1      44.704  22.423  34.927  1.00  0.00     0.198 A 
ATOM     88  C   UNL A   1      45.766  23.799  36.579  1.00  0.00     0.198 A 
ATOM     89  F   UNL A   1      46.184  26.070  36.126  1.00  0.00    -0.203 F 
ATOM     90  F   UNL A   1      44.177  21.247  34.560  1.00  0.00    -0.200 F 
ATOM     91  C   UNL A   1      45.255  22.571  36.190  1.00  0.00     0.200 A 
ATOM     92  F   UNL A   1      46.308  23.944  37.796  1.00  0.00    -0.200 F 
ATOM     93  F   UNL A   1      45.282  21.533  37.038  1.00  0.00    -0.200 F 
ENDBRANCH  59  83
BRANCH  71  94
ATOM     94  C   UNL A   1      49.334  27.160  29.368  1.00  0.00     0.064 A 
ATOM     95  C   UNL A   1      49.444  26.242  28.313  1.00  0.00     0.173 A 
ATOM     96  C   UNL A   1      50.521  27.679  29.910  1.00  0.00     0.173 A 
ATOM     97  F   UNL A   1      48.342  25.707  27.766  1.00  0.00    -0.203 F 
ATOM     98  C   UNL A   1      50.691  25.835  27.844  1.00  0.00     0.198 A 
ATOM     99  C   UNL A   1      51.765  27.298  29.414  1.00  0.00     0.198 A 
ATOM    100  F   UNL A   1      50.476  28.568  30.913  1.00  0.00    -0.203 F 
ATOM    101  F   UNL A   1      50.771  24.913  26.875  1.00  0.00    -0.200 F 
ATOM    102  C   UNL A   1      51.849  26.370  28.388  1.00  0.00     0.200 A 
ATOM    103  F   UNL A   1      52.882  27.832  29.928  1.00  0.00    -0.200 F 
ATOM    104  F   UNL A   1      53.048  25.981  27.931  1.00  0.00    -0.200 F 
ENDBRANCH  71  94
ENDBRANCH  45  46
ENDBRANCH  38  40
ENDBRANCH  37  38
ENDBRANCH  36  37
ENDBRANCH  35  36
ENDBRANCH  34  35
ENDBRANCH  33  34
ENDBRANCH  32  33
ENDBRANCH  31  32
ENDBRANCH   1  31
TORSDOF 25
ENDMDL
MODEL 3
REMARK VINA RESULT:      -8.9      3.591      6.084
REMARK SMILES CSCC[C@H](C(=O)OCCOCCOCCOCCOC(=O)c1ccc(-c2c3nc(c(-c4c(F)c(F)c(F)c(F)c4F)c4ccc([nH]4)c(-c4c(F)c(F)c(F)c(F)c4F)c4nc(c(-c5c(F)c(F)c(F)c(F)c5F)c5ccc2[nH]5)C=C4)C=C3)cc1)N1C(=O)/C(=C/c2ccc3c(c2)OCO3)SC1=S
REMARK SMILES IDX 13 1 12 2 11 3 10 4 9 5 8 6 6 7 7 8 5 9 4 10 3 11 2 12 1 13
REMARK SMILES IDX 86 14 87 15 101 16 88 17 89 18 100 19 102 20 90 21 91 22
REMARK SMILES IDX 92 23 96 24 93 25 95 26 94 27 97 28 99 29 98 30 14 31 15 32
REMARK SMILES IDX 16 33 17 34 18 35 19 36 20 37 21 38 22 39 23 40 24 41 85 42
REMARK SMILES IDX 25 43 84 44 26 45 27 46 28 47 78 48 29 49 83 50 77 51 79 52
REMARK SMILES IDX 30 53 82 54 76 55 75 56 31 58 63 59 43 60 62 61 44 62 47 63
REMARK SMILES IDX 61 64 80 65 45 66 46 67 60 69 81 70 48 71 32 72 33 73 41 74
REMARK SMILES IDX 34 75 35 76 39 77 42 78 36 79 37 80 40 81 38 82 64 83 65 84
REMARK SMILES IDX 73 85 66 86 67 87 71 88 74 89 68 90 69 91 72 92 70 93 49 94
REMARK SMILES IDX 50 95 58 96 51 97 52 98 56 99 59 100 53 101 54 102 57 103
REMARK SMILES IDX 55 104
REMARK H PARENT 79 57 47 68
REMARK Flexibility Score: inf
ROOT
ATOM      1  C   UNL A   1      36.473  30.911  28.973  1.00  0.00     0.188 C 
ENDROOT
BRANCH   1   2
ATOM      2  C   UNL A   1      36.214  30.012  27.760  1.00  0.00     0.188 C 
BRANCH   2   3
ATOM      3  O   UNL A   1      35.197  30.290  26.806  1.00  0.00    -0.376 OA
BRANCH   3   4
ATOM      4  C   UNL A   1      33.839  29.888  26.851  1.00  0.00     0.202 C 
BRANCH   4   5
ATOM      5  C   UNL A   1      32.966  29.858  25.602  1.00  0.00     0.261 C 
BRANCH   5   6
ATOM      6  O   UNL A   1      33.346  28.797  24.715  1.00  0.00    -0.462 OA
BRANCH   6   7
ATOM      7  C   UNL A   1      32.590  28.740  23.603  1.00  0.00     0.329 C 
ATOM      8  O   UNL A   1      32.976  29.142  22.504  1.00  0.00    -0.250 OA
BRANCH   7   9
ATOM      9  C   UNL A   1      31.224  28.042  23.787  1.00  0.00     0.202 C 
BRANCH   9  10
ATOM     10  C   UNL A   1      30.248  27.941  22.610  1.00  0.00     0.048 C 
BRANCH  10  11
ATOM     11  C   UNL A   1      28.942  28.734  22.800  1.00  0.00     0.072 C 
BRANCH  11  12
ATOM     12  S   UNL A   1      29.230  30.437  23.392  1.00  0.00    -0.165 SA
ATOM     13  C   UNL A   1      27.775  31.260  22.724  1.00  0.00     0.085 C 
ENDBRANCH  11  12
ENDBRANCH  10  11
ENDBRANCH   9  10
BRANCH   9  14
ATOM     14  N   UNL A   1      31.677  26.720  24.236  1.00  0.00    -0.278 N 
ATOM     15  C   UNL A   1      32.324  25.949  23.285  1.00  0.00     0.266 C 
ATOM     16  C   UNL A   1      31.724  26.269  25.534  1.00  0.00     0.149 C 
ATOM     17  O   UNL A   1      32.260  26.099  22.072  1.00  0.00    -0.268 OA
ATOM     18  C   UNL A   1      33.148  24.940  23.954  1.00  0.00     0.081 C 
ATOM     19  S   UNL A   1      32.649  24.771  25.590  1.00  0.00    -0.054 SA
ATOM     20  S   UNL A   1      31.037  26.970  26.881  1.00  0.00    -0.052 S 
ATOM     21  C   UNL A   1      34.031  24.245  23.227  1.00  0.00     0.029 C 
BRANCH  21  22
ATOM     22  C   UNL A   1      34.277  22.864  23.598  1.00  0.00    -0.020 A 
ATOM     23  C   UNL A   1      35.412  22.412  24.287  1.00  0.00     0.012 A 
ATOM     24  C   UNL A   1      33.176  22.028  23.365  1.00  0.00     0.058 A 
ATOM     25  C   UNL A   1      35.416  21.118  24.819  1.00  0.00     0.051 A 
ATOM     26  C   UNL A   1      33.184  20.805  23.963  1.00  0.00     0.166 A 
ATOM     27  C   UNL A   1      34.266  20.363  24.682  1.00  0.00     0.165 A 
ATOM     28  O   UNL A   1      32.123  19.959  24.009  1.00  0.00    -0.454 OA
ATOM     29  O   UNL A   1      34.008  19.162  25.271  1.00  0.00    -0.454 OA
ATOM     30  C   UNL A   1      32.582  19.072  25.042  1.00  0.00     0.468 C 
ENDBRANCH  21  22
ENDBRANCH   9  14
ENDBRANCH   7   9
ENDBRANCH   6   7
ENDBRANCH   5   6
ENDBRANCH   4   5
ENDBRANCH   3   4
ENDBRANCH   2   3
ENDBRANCH   1   2
BRANCH   1  31
ATOM     31  O   UNL A   1      36.234  32.298  28.871  1.00  0.00    -0.377 OA
BRANCH  31  32
ATOM     32  C   UNL A   1      34.934  32.759  29.169  1.00  0.00     0.188 C 
BRANCH  32  33
ATOM     33  C   UNL A   1      34.760  33.362  30.571  1.00  0.00     0.188 C 
BRANCH  33  34
ATOM     34  O   UNL A   1      34.418  32.551  31.693  1.00  0.00    -0.376 OA
BRANCH  34  35
ATOM     35  C   UNL A   1      35.303  32.461  32.796  1.00  0.00     0.202 C 
BRANCH  35  36
ATOM     36  C   UNL A   1      36.774  32.727  32.434  1.00  0.00     0.261 C 
BRANCH  36  37
ATOM     37  O   UNL A   1      37.550  31.562  32.096  1.00  0.00    -0.460 OA
BRANCH  37  38
ATOM     38  C   UNL A   1      38.526  31.232  32.975  1.00  0.00     0.338 C 
ATOM     39  O   UNL A   1      38.388  30.813  34.118  1.00  0.00    -0.246 OA
BRANCH  38  40
ATOM     40  C   UNL A   1      39.853  31.332  32.327  1.00  0.00     0.060 A 
ATOM     41  C   UNL A   1      40.941  31.764  33.098  1.00  0.00     0.016 A 
ATOM     42  C   UNL A   1      40.023  31.063  30.966  1.00  0.00     0.016 A 
ATOM     43  C   UNL A   1      42.183  31.987  32.503  1.00  0.00     0.010 A 
ATOM     44  C   UNL A   1      41.264  31.311  30.363  1.00  0.00     0.010 A 
ATOM     45  C   UNL A   1      42.335  31.820  31.121  1.00  0.00    -0.014 A 
BRANCH  45  46
ATOM     46  C   UNL A   1      43.523  32.413  30.451  1.00  0.00     0.031 A 
ATOM     47  C   UNL A   1      43.404  33.812  29.905  1.00  0.00     0.074 A 
ATOM     48  C   UNL A   1      44.698  31.764  30.382  1.00  0.00     0.049 A 
ATOM     49  N   UNL A   1      44.289  34.544  29.274  1.00  0.00    -0.248 NA
ATOM     50  C   UNL A   1      42.107  34.480  30.100  1.00  0.00     0.031 C 
ATOM     51  C   UNL A   1      44.962  30.433  30.921  1.00  0.00     0.029 A 
ATOM     52  N   UNL A   1      45.895  32.146  29.825  1.00  0.00    -0.354 N 
ATOM     53  C   UNL A   1      43.653  35.746  28.994  1.00  0.00     0.074 A 
ATOM     54  C   UNL A   1      42.300  35.638  29.490  1.00  0.00     0.031 C 
ATOM     55  C   UNL A   1      46.239  30.103  30.662  1.00  0.00     0.029 A 
ATOM     56  C   UNL A   1      46.874  31.186  29.910  1.00  0.00     0.049 A 
ATOM     57  H   UNL A   1      46.037  33.025  29.405  1.00  0.00     0.167 HD
ATOM     58  C   UNL A   1      44.155  36.848  28.386  1.00  0.00     0.037 A 
ATOM     59  C   UNL A   1      48.128  31.178  29.416  1.00  0.00     0.037 A 
ATOM     60  C   UNL A   1      45.501  36.956  27.890  1.00  0.00     0.049 A 
ATOM     61  C   UNL A   1      48.637  32.385  28.665  1.00  0.00     0.074 A 
ATOM     62  C   UNL A   1      46.108  38.032  27.266  1.00  0.00     0.029 A 
ATOM     63  N   UNL A   1      46.448  35.944  27.953  1.00  0.00    -0.354 N 
ATOM     64  N   UNL A   1      48.037  33.525  28.420  1.00  0.00    -0.248 NA
ATOM     65  C   UNL A   1      50.002  32.303  28.125  1.00  0.00     0.031 C 
ATOM     66  C   UNL A   1      47.401  37.648  26.894  1.00  0.00     0.029 A 
ATOM     67  C   UNL A   1      47.625  36.360  27.351  1.00  0.00     0.049 A 
ATOM     68  H   UNL A   1      46.305  35.062  28.364  1.00  0.00     0.167 HD
ATOM     69  C   UNL A   1      48.960  34.306  27.733  1.00  0.00     0.074 A 
ATOM     70  C   UNL A   1      50.166  33.514  27.612  1.00  0.00     0.031 C 
ATOM     71  C   UNL A   1      48.823  35.565  27.248  1.00  0.00     0.037 A 
BRANCH  58  72
ATOM     72  C   UNL A   1      43.227  38.015  28.191  1.00  0.00     0.064 A 
ATOM     73  C   UNL A   1      43.137  39.058  29.126  1.00  0.00     0.173 A 
ATOM     74  C   UNL A   1      42.431  38.100  27.038  1.00  0.00     0.173 A 
ATOM     75  F   UNL A   1      43.864  39.020  30.252  1.00  0.00    -0.203 F 
ATOM     76  C   UNL A   1      42.262  40.124  28.929  1.00  0.00     0.198 A 
ATOM     77  C   UNL A   1      41.584  39.184  26.828  1.00  0.00     0.198 A 
ATOM     78  F   UNL A   1      42.479  37.133  26.109  1.00  0.00    -0.203 F 
ATOM     79  F   UNL A   1      42.152  41.080  29.862  1.00  0.00    -0.200 F 
ATOM     80  C   UNL A   1      41.492  40.190  27.777  1.00  0.00     0.200 A 
ATOM     81  F   UNL A   1      40.853  39.254  25.706  1.00  0.00    -0.200 F 
ATOM     82  F   UNL A   1      40.656  41.220  27.585  1.00  0.00    -0.200 F 
ENDBRANCH  58  72
BRANCH  59  83
ATOM     83  C   UNL A   1      48.996  29.982  29.597  1.00  0.00     0.064 A 
ATOM     84  C   UNL A   1      49.868  29.874  30.691  1.00  0.00     0.173 A 
ATOM     85  C   UNL A   1      49.000  28.937  28.660  1.00  0.00     0.173 A 
ATOM     86  F   UNL A   1      49.926  30.859  31.600  1.00  0.00    -0.203 F 
ATOM     87  C   UNL A   1      50.724  28.782  30.828  1.00  0.00     0.198 A 
ATOM     88  C   UNL A   1      49.832  27.830  28.816  1.00  0.00     0.198 A 
ATOM     89  F   UNL A   1      48.192  28.992  27.592  1.00  0.00    -0.203 F 
ATOM     90  F   UNL A   1      51.587  28.735  31.852  1.00  0.00    -0.200 F 
ATOM     91  C   UNL A   1      50.699  27.758  29.894  1.00  0.00     0.200 A 
ATOM     92  F   UNL A   1      49.797  26.838  27.917  1.00  0.00    -0.200 F 
ATOM     93  F   UNL A   1      51.522  26.708  30.026  1.00  0.00    -0.200 F 
ENDBRANCH  59  83
BRANCH  71  94
ATOM     94  C   UNL A   1      50.022  36.190  26.586  1.00  0.00     0.064 A 
ATOM     95  C   UNL A   1      50.265  36.059  25.211  1.00  0.00     0.173 A 
ATOM     96  C   UNL A   1      50.919  36.965  27.338  1.00  0.00     0.173 A 
ATOM     97  F   UNL A   1      49.444  35.320  24.447  1.00  0.00    -0.203 F 
ATOM     98  C   UNL A   1      51.380  36.649  24.620  1.00  0.00     0.198 A 
ATOM     99  C   UNL A   1      52.011  37.586  26.737  1.00  0.00     0.198 A 
ATOM    100  F   UNL A   1      50.730  37.134  28.655  1.00  0.00    -0.203 F 
ATOM    101  F   UNL A   1      51.622  36.461  23.316  1.00  0.00    -0.200 F 
ATOM    102  C   UNL A   1      52.246  37.419  25.381  1.00  0.00     0.200 A 
ATOM    103  F   UNL A   1      52.836  38.345  27.471  1.00  0.00    -0.200 F 
ATOM    104  F   UNL A   1      53.314  37.992  24.810  1.00  0.00    -0.200 F 
ENDBRANCH  71  94
ENDBRANCH  45  46
ENDBRANCH  38  40
ENDBRANCH  37  38
ENDBRANCH  36  37
ENDBRANCH  35  36
ENDBRANCH  34  35
ENDBRANCH  33  34
ENDBRANCH  32  33
ENDBRANCH  31  32
ENDBRANCH   1  31
TORSDOF 25
ENDMDL
