MODEL 1
REMARK VINA RESULT:     -11.2      0.000      0.000
REMARK SMILES O=C(OCCOCCOCCOCCOC(=O)[C@@H]1[C@H](C(=O)Nc2ccc(Cn3cncn3)cc2)[C@@H]2C=C[C@H]1CC2)c1ccc(-c2c3nc(c(-c4c(F)c(F)c(F)c(F)c4F)c4ccc([nH]4)c(-c4c(F)c(F)c(F)c(F)c4F)c4nc(c(-c5c(F)c(F)c(F)c(F)c5F)c5ccc2[nH]5)C=C4)C=C3)cc1
REMARK SMILES IDX 10 1 9 2 8 3 7 4 6 5 5 6 4 7 3 8 2 9 1 10 41 11 42 12 103 13
REMARK SMILES IDX 43 14 102 15 44 16 45 17 46 18 96 19 47 20 101 21 95 22
REMARK SMILES IDX 97 23 48 24 100 25 94 26 93 27 49 29 81 30 61 31 80 32 62 33
REMARK SMILES IDX 65 34 79 35 98 36 63 37 64 38 78 40 99 41 66 42 50 43 51 44
REMARK SMILES IDX 59 45 52 46 53 47 57 48 60 49 54 50 55 51 58 52 56 53 82 54
REMARK SMILES IDX 83 55 91 56 84 57 85 58 89 59 92 60 86 61 87 62 90 63 88 64
REMARK SMILES IDX 67 65 68 66 76 67 69 68 70 69 74 70 77 71 71 72 72 73 75 74
REMARK SMILES IDX 73 75 11 76 12 77 13 78 14 79 15 80 16 81 17 82 18 83 19 84
REMARK SMILES IDX 38 85 35 86 37 87 39 88 36 89 40 90 20 91 21 92 22 93 23 95
REMARK SMILES IDX 24 96 34 97 25 98 33 99 26 100 27 101 28 102 29 103 32 104
REMARK SMILES IDX 30 105 31 106
REMARK H PARENT 97 28 65 39 22 94
REMARK Flexibility Score: inf
ROOT
ATOM      1  C   UNL A   1      28.972  31.043  22.490  1.00  0.00     0.188 C 
ENDROOT
BRANCH   1   2
ATOM      2  O   UNL A   1      28.656  31.611  23.732  1.00  0.00    -0.377 OA
BRANCH   2   3
ATOM      3  C   UNL A   1      29.780  31.770  24.580  1.00  0.00     0.188 C 
BRANCH   3   4
ATOM      4  C   UNL A   1      30.792  30.613  24.822  1.00  0.00     0.188 C 
BRANCH   4   5
ATOM      5  O   UNL A   1      31.786  30.461  25.840  1.00  0.00    -0.376 OA
BRANCH   5   6
ATOM      6  C   UNL A   1      32.322  31.344  26.808  1.00  0.00     0.202 C 
BRANCH   6   7
ATOM      7  C   UNL A   1      33.437  30.822  27.725  1.00  0.00     0.261 C 
BRANCH   7   8
ATOM      8  O   UNL A   1      34.753  31.051  27.233  1.00  0.00    -0.460 OA
BRANCH   8   9
ATOM      9  C   UNL A   1      35.687  31.820  27.817  1.00  0.00     0.338 C 
ATOM     10  O   UNL A   1      35.718  33.031  27.554  1.00  0.00    -0.246 OA
BRANCH   9  11
ATOM     11  C   UNL A   1      36.765  31.285  28.686  1.00  0.00     0.060 A 
ATOM     12  C   UNL A   1      37.794  32.034  29.279  1.00  0.00     0.016 A 
ATOM     13  C   UNL A   1      36.715  29.894  28.902  1.00  0.00     0.016 A 
ATOM     14  C   UNL A   1      38.811  31.423  29.957  1.00  0.00     0.010 A 
ATOM     15  C   UNL A   1      37.737  29.261  29.569  1.00  0.00     0.010 A 
ATOM     16  C   UNL A   1      38.818  30.042  29.961  1.00  0.00    -0.014 A 
BRANCH  16  17
ATOM     17  C   UNL A   1      40.128  29.461  30.096  1.00  0.00     0.031 A 
ATOM     18  C   UNL A   1      40.679  29.503  31.468  1.00  0.00     0.074 A 
ATOM     19  C   UNL A   1      40.677  29.016  28.948  1.00  0.00     0.049 A 
ATOM     20  N   UNL A   1      41.810  29.992  31.862  1.00  0.00    -0.248 NA
ATOM     21  C   UNL A   1      39.780  29.108  32.566  1.00  0.00     0.031 C 
ATOM     22  C   UNL A   1      40.050  28.929  27.616  1.00  0.00     0.029 A 
ATOM     23  N   UNL A   1      41.873  28.412  28.756  1.00  0.00    -0.354 N 
ATOM     24  C   UNL A   1      41.853  29.754  33.232  1.00  0.00     0.074 A 
ATOM     25  C   UNL A   1      40.525  29.378  33.636  1.00  0.00     0.031 C 
ATOM     26  C   UNL A   1      40.736  28.059  26.851  1.00  0.00     0.029 A 
ATOM     27  C   UNL A   1      41.910  27.652  27.587  1.00  0.00     0.049 A 
ATOM     28  H   UNL A   1      42.635  28.498  29.373  1.00  0.00     0.167 HD
ATOM     29  C   UNL A   1      43.041  29.577  33.868  1.00  0.00     0.037 A 
ATOM     30  C   UNL A   1      42.767  26.623  27.398  1.00  0.00     0.037 A 
ATOM     31  C   UNL A   1      44.115  30.240  33.181  1.00  0.00     0.049 A 
ATOM     32  C   UNL A   1      43.898  26.854  28.346  1.00  0.00     0.074 A 
ATOM     33  C   UNL A   1      44.392  31.563  32.894  1.00  0.00     0.029 A 
ATOM     34  N   UNL A   1      44.907  29.502  32.335  1.00  0.00    -0.354 N 
ATOM     35  N   UNL A   1      44.697  27.888  28.259  1.00  0.00    -0.248 NA
ATOM     36  C   UNL A   1      43.794  26.258  29.673  1.00  0.00     0.031 C 
ATOM     37  C   UNL A   1      44.952  31.550  31.584  1.00  0.00     0.029 A 
ATOM     38  C   UNL A   1      45.048  30.220  31.172  1.00  0.00     0.049 A 
ATOM     39  H   UNL A   1      45.300  28.620  32.527  1.00  0.00     0.167 HD
ATOM     40  C   UNL A   1      44.881  28.313  29.572  1.00  0.00     0.074 A 
ATOM     41  C   UNL A   1      44.334  27.240  30.401  1.00  0.00     0.031 C 
ATOM     42  C   UNL A   1      45.184  29.612  29.868  1.00  0.00     0.037 A 
BRANCH  29  43
ATOM     43  C   UNL A   1      43.250  28.466  34.861  1.00  0.00     0.064 A 
ATOM     44  C   UNL A   1      43.724  28.763  36.149  1.00  0.00     0.173 A 
ATOM     45  C   UNL A   1      43.283  27.099  34.496  1.00  0.00     0.173 A 
ATOM     46  F   UNL A   1      43.763  30.032  36.583  1.00  0.00    -0.203 F 
ATOM     47  C   UNL A   1      44.248  27.772  36.984  1.00  0.00     0.198 A 
ATOM     48  C   UNL A   1      43.754  26.107  35.349  1.00  0.00     0.198 A 
ATOM     49  F   UNL A   1      42.974  26.680  33.262  1.00  0.00    -0.203 F 
ATOM     50  F   UNL A   1      44.797  28.113  38.157  1.00  0.00    -0.200 F 
ATOM     51  C   UNL A   1      44.265  26.447  36.582  1.00  0.00     0.200 A 
ATOM     52  F   UNL A   1      43.781  24.835  34.928  1.00  0.00    -0.200 F 
ATOM     53  F   UNL A   1      44.822  25.506  37.355  1.00  0.00    -0.200 F 
ENDBRANCH  29  43
BRANCH  30  54
ATOM     54  C   UNL A   1      42.384  25.306  26.837  1.00  0.00     0.064 A 
ATOM     55  C   UNL A   1      43.034  24.782  25.713  1.00  0.00     0.173 A 
ATOM     56  C   UNL A   1      41.505  24.433  27.516  1.00  0.00     0.173 A 
ATOM     57  F   UNL A   1      43.924  25.528  25.045  1.00  0.00    -0.203 F 
ATOM     58  C   UNL A   1      42.813  23.466  25.290  1.00  0.00     0.198 A 
ATOM     59  C   UNL A   1      41.274  23.127  27.086  1.00  0.00     0.198 A 
ATOM     60  F   UNL A   1      40.911  24.798  28.661  1.00  0.00    -0.203 F 
ATOM     61  F   UNL A   1      43.484  22.983  24.236  1.00  0.00    -0.200 F 
ATOM     62  C   UNL A   1      41.936  22.640  25.977  1.00  0.00     0.200 A 
ATOM     63  F   UNL A   1      40.450  22.332  27.783  1.00  0.00    -0.200 F 
ATOM     64  F   UNL A   1      41.756  21.368  25.595  1.00  0.00    -0.200 F 
ENDBRANCH  30  54
BRANCH  42  65
ATOM     65  C   UNL A   1      45.454  30.546  28.717  1.00  0.00     0.064 A 
ATOM     66  C   UNL A   1      44.454  31.328  28.109  1.00  0.00     0.173 A 
ATOM     67  C   UNL A   1      46.777  30.793  28.338  1.00  0.00     0.173 A 
ATOM     68  F   UNL A   1      43.180  31.237  28.505  1.00  0.00    -0.203 F 
ATOM     69  C   UNL A   1      44.761  32.277  27.135  1.00  0.00     0.198 A 
ATOM     70  C   UNL A   1      47.085  31.767  27.388  1.00  0.00     0.198 A 
ATOM     71  F   UNL A   1      47.779  30.135  28.937  1.00  0.00    -0.203 F 
ATOM     72  F   UNL A   1      43.784  33.007  26.575  1.00  0.00    -0.200 F 
ATOM     73  C   UNL A   1      46.078  32.500  26.780  1.00  0.00     0.200 A 
ATOM     74  F   UNL A   1      48.367  32.022  27.090  1.00  0.00    -0.200 F 
ATOM     75  F   UNL A   1      46.382  33.444  25.879  1.00  0.00    -0.200 F 
ENDBRANCH  42  65
ENDBRANCH  16  17
ENDBRANCH   9  11
ENDBRANCH   8   9
ENDBRANCH   7   8
ENDBRANCH   6   7
ENDBRANCH   5   6
ENDBRANCH   4   5
ENDBRANCH   3   4
ENDBRANCH   2   3
ENDBRANCH   1   2
BRANCH   1  76
ATOM     76  C   UNL A   1      28.209  29.723  22.285  1.00  0.00     0.188 C 
BRANCH  76  77
ATOM     77  O   UNL A   1      29.003  28.585  22.054  1.00  0.00    -0.376 OA
BRANCH  77  78
ATOM     78  C   UNL A   1      29.505  27.871  23.161  1.00  0.00     0.202 C 
BRANCH  78  79
ATOM     79  C   UNL A   1      28.942  26.520  23.670  1.00  0.00     0.261 C 
BRANCH  79  80
ATOM     80  O   UNL A   1      29.703  25.303  23.475  1.00  0.00    -0.463 OA
BRANCH  80  81
ATOM     81  C   UNL A   1      30.561  24.893  24.437  1.00  0.00     0.310 C 
ATOM     82  O   UNL A   1      30.418  23.838  25.052  1.00  0.00    -0.252 OA
BRANCH  81  83
ATOM     83  C   UNL A   1      31.678  25.918  24.733  1.00  0.00     0.119 C 
ATOM     84  C   UNL A   1      32.869  26.362  23.800  1.00  0.00     0.100 C 
ATOM     85  C   UNL A   1      32.257  25.703  26.179  1.00  0.00     0.026 C 
ATOM     86  C   UNL A   1      34.110  26.741  24.688  1.00  0.00     0.025 C 
ATOM     87  C   UNL A   1      33.562  24.926  26.140  1.00  0.00    -0.027 C 
ATOM     88  C   UNL A   1      32.649  27.096  26.724  1.00  0.00     0.009 C 
ATOM     89  C   UNL A   1      34.534  25.484  25.403  1.00  0.00    -0.027 C 
ATOM     90  C   UNL A   1      33.685  27.748  25.779  1.00  0.00     0.009 C 
BRANCH  84  91
ATOM     91  C   UNL A   1      33.487  25.769  22.517  1.00  0.00     0.228 C 
ATOM     92  O   UNL A   1      33.712  26.573  21.595  1.00  0.00    -0.274 OA
ATOM     93  N   UNL A   1      34.053  24.548  22.313  1.00  0.00    -0.326 N 
ATOM     94  H   UNL A   1      34.678  24.543  21.553  1.00  0.00     0.169 HD
BRANCH  93  95
ATOM     95  C   UNL A   1      33.953  23.300  22.932  1.00  0.00     0.041 A 
ATOM     96  C   UNL A   1      35.062  22.742  23.561  1.00  0.00     0.026 A 
ATOM     97  C   UNL A   1      32.789  22.567  22.921  1.00  0.00     0.026 A 
ATOM     98  C   UNL A   1      34.905  21.587  24.342  1.00  0.00     0.008 A 
ATOM     99  C   UNL A   1      32.618  21.406  23.646  1.00  0.00     0.008 A 
ATOM    100  C   UNL A   1      33.652  20.965  24.452  1.00  0.00    -0.026 A 
BRANCH 100 101
ATOM    101  C   UNL A   1      33.347  19.895  25.459  1.00  0.00     0.181 C 
BRANCH 101 102
ATOM    102  N   UNL A   1      33.469  18.565  24.914  1.00  0.00    -0.249 N 
ATOM    103  C   UNL A   1      32.466  17.685  24.653  1.00  0.00     0.220 A 
ATOM    104  N   UNL A   1      34.649  18.107  24.455  1.00  0.00    -0.160 NA
ATOM    105  N   UNL A   1      32.956  16.637  24.032  1.00  0.00    -0.224 NA
ATOM    106  C   UNL A   1      34.286  16.932  23.936  1.00  0.00     0.246 A 
ENDBRANCH 101 102
ENDBRANCH 100 101
ENDBRANCH  93  95
ENDBRANCH  84  91
ENDBRANCH  81  83
ENDBRANCH  80  81
ENDBRANCH  79  80
ENDBRANCH  78  79
ENDBRANCH  77  78
ENDBRANCH  76  77
ENDBRANCH   1  76
TORSDOF 24
ENDMDL
MODEL 2
REMARK VINA RESULT:     -11.0      1.396      3.382
REMARK SMILES O=C(OCCOCCOCCOCCOC(=O)[C@@H]1[C@H](C(=O)Nc2ccc(Cn3cncn3)cc2)[C@@H]2C=C[C@H]1CC2)c1ccc(-c2c3nc(c(-c4c(F)c(F)c(F)c(F)c4F)c4ccc([nH]4)c(-c4c(F)c(F)c(F)c(F)c4F)c4nc(c(-c5c(F)c(F)c(F)c(F)c5F)c5ccc2[nH]5)C=C4)C=C3)cc1
REMARK SMILES IDX 10 1 9 2 8 3 7 4 6 5 5 6 4 7 3 8 2 9 1 10 41 11 42 12 103 13
REMARK SMILES IDX 43 14 102 15 44 16 45 17 46 18 96 19 47 20 101 21 95 22
REMARK SMILES IDX 97 23 48 24 100 25 94 26 93 27 49 29 81 30 61 31 80 32 62 33
REMARK SMILES IDX 65 34 79 35 98 36 63 37 64 38 78 40 99 41 66 42 50 43 51 44
REMARK SMILES IDX 59 45 52 46 53 47 57 48 60 49 54 50 55 51 58 52 56 53 82 54
REMARK SMILES IDX 83 55 91 56 84 57 85 58 89 59 92 60 86 61 87 62 90 63 88 64
REMARK SMILES IDX 67 65 68 66 76 67 69 68 70 69 74 70 77 71 71 72 72 73 75 74
REMARK SMILES IDX 73 75 11 76 12 77 13 78 14 79 15 80 16 81 17 82 18 83 19 84
REMARK SMILES IDX 38 85 35 86 37 87 39 88 36 89 40 90 20 91 21 92 22 93 23 95
REMARK SMILES IDX 24 96 34 97 25 98 33 99 26 100 27 101 28 102 29 103 32 104
REMARK SMILES IDX 30 105 31 106
REMARK H PARENT 97 28 65 39 22 94
REMARK Flexibility Score: inf
ROOT
ATOM      1  C   UNL A   1      30.252  29.086  22.242  1.00  0.00     0.188 C 
ENDROOT
BRANCH   1   2
ATOM      2  O   UNL A   1      29.219  29.483  23.102  1.00  0.00    -0.377 OA
BRANCH   2   3
ATOM      3  C   UNL A   1      29.582  30.549  23.962  1.00  0.00     0.188 C 
BRANCH   3   4
ATOM      4  C   UNL A   1      30.918  30.538  24.759  1.00  0.00     0.188 C 
BRANCH   4   5
ATOM      5  O   UNL A   1      31.206  31.021  26.075  1.00  0.00    -0.376 OA
BRANCH   5   6
ATOM      6  C   UNL A   1      32.266  31.790  26.612  1.00  0.00     0.202 C 
BRANCH   6   7
ATOM      7  C   UNL A   1      33.197  31.122  27.634  1.00  0.00     0.261 C 
BRANCH   7   8
ATOM      8  O   UNL A   1      34.577  31.171  27.285  1.00  0.00    -0.460 OA
BRANCH   8   9
ATOM      9  C   UNL A   1      35.510  31.936  27.876  1.00  0.00     0.338 C 
ATOM     10  O   UNL A   1      35.534  33.150  27.630  1.00  0.00    -0.246 OA
BRANCH   9  11
ATOM     11  C   UNL A   1      36.594  31.393  28.733  1.00  0.00     0.060 A 
ATOM     12  C   UNL A   1      37.660  32.128  29.278  1.00  0.00     0.016 A 
ATOM     13  C   UNL A   1      36.510  30.011  28.989  1.00  0.00     0.016 A 
ATOM     14  C   UNL A   1      38.675  31.506  29.948  1.00  0.00     0.010 A 
ATOM     15  C   UNL A   1      37.530  29.367  29.648  1.00  0.00     0.010 A 
ATOM     16  C   UNL A   1      38.643  30.126  29.990  1.00  0.00    -0.014 A 
BRANCH  16  17
ATOM     17  C   UNL A   1      39.939  29.510  30.109  1.00  0.00     0.031 A 
ATOM     18  C   UNL A   1      40.514  29.550  31.471  1.00  0.00     0.074 A 
ATOM     19  C   UNL A   1      40.457  29.041  28.956  1.00  0.00     0.049 A 
ATOM     20  N   UNL A   1      41.664  30.011  31.842  1.00  0.00    -0.248 NA
ATOM     21  C   UNL A   1      39.623  29.188  32.588  1.00  0.00     0.031 C 
ATOM     22  C   UNL A   1      39.805  28.960  27.636  1.00  0.00     0.029 A 
ATOM     23  N   UNL A   1      41.632  28.402  28.750  1.00  0.00    -0.354 N 
ATOM     24  C   UNL A   1      41.724  29.783  33.213  1.00  0.00     0.074 A 
ATOM     25  C   UNL A   1      40.393  29.448  33.642  1.00  0.00     0.031 C 
ATOM     26  C   UNL A   1      40.454  28.065  26.868  1.00  0.00     0.029 A 
ATOM     27  C   UNL A   1      41.628  27.632  27.587  1.00  0.00     0.049 A 
ATOM     28  H   UNL A   1      42.406  28.473  29.354  1.00  0.00     0.167 HD
ATOM     29  C   UNL A   1      42.916  29.580  33.831  1.00  0.00     0.037 A 
ATOM     30  C   UNL A   1      42.454  26.578  27.394  1.00  0.00     0.037 A 
ATOM     31  C   UNL A   1      43.997  30.207  33.120  1.00  0.00     0.049 A 
ATOM     32  C   UNL A   1      43.607  26.786  28.320  1.00  0.00     0.074 A 
ATOM     33  C   UNL A   1      44.305  31.519  32.817  1.00  0.00     0.029 A 
ATOM     34  N   UNL A   1      44.754  29.441  32.268  1.00  0.00    -0.354 N 
ATOM     35  N   UNL A   1      44.432  27.798  28.211  1.00  0.00    -0.248 NA
ATOM     36  C   UNL A   1      43.508  26.205  29.655  1.00  0.00     0.031 C 
ATOM     37  C   UNL A   1      44.843  31.479  31.498  1.00  0.00     0.029 A 
ATOM     38  C   UNL A   1      44.895  30.144  31.097  1.00  0.00     0.049 A 
ATOM     39  H   UNL A   1      45.126  28.549  32.462  1.00  0.00     0.167 HD
ATOM     40  C   UNL A   1      44.649  28.228  29.517  1.00  0.00     0.074 A 
ATOM     41  C   UNL A   1      44.088  27.178  30.364  1.00  0.00     0.031 C 
ATOM     42  C   UNL A   1      44.993  29.521  29.796  1.00  0.00     0.037 A 
BRANCH  29  43
ATOM     43  C   UNL A   1      43.112  28.472  34.830  1.00  0.00     0.064 A 
ATOM     44  C   UNL A   1      43.688  28.755  36.080  1.00  0.00     0.173 A 
ATOM     45  C   UNL A   1      43.027  27.101  34.491  1.00  0.00     0.173 A 
ATOM     46  F   UNL A   1      43.843  30.024  36.485  1.00  0.00    -0.203 F 
ATOM     47  C   UNL A   1      44.195  27.742  36.899  1.00  0.00     0.198 A 
ATOM     48  C   UNL A   1      43.482  26.092  35.332  1.00  0.00     0.198 A 
ATOM     49  F   UNL A   1      42.611  26.686  33.288  1.00  0.00    -0.203 F 
ATOM     50  F   UNL A   1      44.841  28.062  38.029  1.00  0.00    -0.200 F 
ATOM     51  C   UNL A   1      44.094  26.413  36.523  1.00  0.00     0.200 A 
ATOM     52  F   UNL A   1      43.394  24.814  34.936  1.00  0.00    -0.200 F 
ATOM     53  F   UNL A   1      44.634  25.447  37.278  1.00  0.00    -0.200 F 
ENDBRANCH  29  43
BRANCH  30  54
ATOM     54  C   UNL A   1      42.026  25.267  26.851  1.00  0.00     0.064 A 
ATOM     55  C   UNL A   1      42.786  24.603  25.881  1.00  0.00     0.173 A 
ATOM     56  C   UNL A   1      40.962  24.535  27.423  1.00  0.00     0.173 A 
ATOM     57  F   UNL A   1      43.845  25.210  25.329  1.00  0.00    -0.203 F 
ATOM     58  C   UNL A   1      42.495  23.287  25.501  1.00  0.00     0.198 A 
ATOM     59  C   UNL A   1      40.664  23.230  27.034  1.00  0.00     0.198 A 
ATOM     60  F   UNL A   1      40.236  25.037  28.433  1.00  0.00    -0.203 F 
ATOM     61  F   UNL A   1      43.269  22.667  24.600  1.00  0.00    -0.200 F 
ATOM     62  C   UNL A   1      41.437  22.602  26.079  1.00  0.00     0.200 A 
ATOM     63  F   UNL A   1      39.659  22.570  27.628  1.00  0.00    -0.200 F 
ATOM     64  F   UNL A   1      41.185  21.329  25.743  1.00  0.00    -0.200 F 
ENDBRANCH  30  54
BRANCH  42  65
ATOM     65  C   UNL A   1      45.268  30.438  28.632  1.00  0.00     0.064 A 
ATOM     66  C   UNL A   1      44.290  31.270  28.059  1.00  0.00     0.173 A 
ATOM     67  C   UNL A   1      46.587  30.613  28.203  1.00  0.00     0.173 A 
ATOM     68  F   UNL A   1      43.028  31.248  28.503  1.00  0.00    -0.203 F 
ATOM     69  C   UNL A   1      44.609  32.200  27.070  1.00  0.00     0.198 A 
ATOM     70  C   UNL A   1      46.912  31.567  27.239  1.00  0.00     0.198 A 
ATOM     71  F   UNL A   1      47.575  29.903  28.767  1.00  0.00    -0.203 F 
ATOM     72  F   UNL A   1      43.653  32.980  26.544  1.00  0.00    -0.200 F 
ATOM     73  C   UNL A   1      45.923  32.352  26.665  1.00  0.00     0.200 A 
ATOM     74  F   UNL A   1      48.193  31.753  26.893  1.00  0.00    -0.200 F 
ATOM     75  F   UNL A   1      46.243  33.277  25.750  1.00  0.00    -0.200 F 
ENDBRANCH  42  65
ENDBRANCH  16  17
ENDBRANCH   9  11
ENDBRANCH   8   9
ENDBRANCH   7   8
ENDBRANCH   6   7
ENDBRANCH   5   6
ENDBRANCH   4   5
ENDBRANCH   3   4
ENDBRANCH   2   3
ENDBRANCH   1   2
BRANCH   1  76
ATOM     76  C   UNL A   1      30.545  27.584  22.400  1.00  0.00     0.188 C 
BRANCH  76  77
ATOM     77  O   UNL A   1      31.600  27.079  21.618  1.00  0.00    -0.376 OA
BRANCH  77  78
ATOM     78  C   UNL A   1      31.706  25.685  21.439  1.00  0.00     0.202 C 
BRANCH  78  79
ATOM     79  C   UNL A   1      33.039  24.918  21.247  1.00  0.00     0.261 C 
BRANCH  79  80
ATOM     80  O   UNL A   1      33.409  23.873  22.179  1.00  0.00    -0.463 OA
BRANCH  80  81
ATOM     81  C   UNL A   1      34.170  24.180  23.254  1.00  0.00     0.310 C 
ATOM     82  O   UNL A   1      34.199  25.304  23.751  1.00  0.00    -0.252 OA
BRANCH  81  83
ATOM     83  C   UNL A   1      35.047  23.003  23.734  1.00  0.00     0.119 C 
ATOM     84  C   UNL A   1      34.600  21.533  24.092  1.00  0.00     0.100 C 
ATOM     85  C   UNL A   1      36.054  23.479  24.844  1.00  0.00     0.026 C 
ATOM     86  C   UNL A   1      35.543  20.962  25.212  1.00  0.00     0.025 C 
ATOM     87  C   UNL A   1      35.554  23.121  26.233  1.00  0.00    -0.027 C 
ATOM     88  C   UNL A   1      37.348  22.651  24.669  1.00  0.00     0.009 C 
ATOM     89  C   UNL A   1      35.330  21.814  26.437  1.00  0.00    -0.027 C 
ATOM     90  C   UNL A   1      37.019  21.145  24.798  1.00  0.00     0.009 C 
BRANCH  84  91
ATOM     91  C   UNL A   1      33.231  20.883  24.380  1.00  0.00     0.228 C 
ATOM     92  O   UNL A   1      33.150  19.659  24.167  1.00  0.00    -0.274 OA
ATOM     93  N   UNL A   1      32.162  21.380  25.060  1.00  0.00    -0.326 N 
ATOM     94  H   UNL A   1      31.575  20.673  25.412  1.00  0.00     0.169 HD
BRANCH  93  95
ATOM     95  C   UNL A   1      31.704  22.662  25.374  1.00  0.00     0.041 A 
ATOM     96  C   UNL A   1      31.943  23.198  26.635  1.00  0.00     0.026 A 
ATOM     97  C   UNL A   1      30.984  23.423  24.482  1.00  0.00     0.026 A 
ATOM     98  C   UNL A   1      31.653  24.549  26.878  1.00  0.00     0.008 A 
ATOM     99  C   UNL A   1      30.649  24.741  24.709  1.00  0.00     0.008 A 
ATOM    100  C   UNL A   1      31.080  25.347  25.876  1.00  0.00    -0.026 A 
BRANCH 100 101
ATOM    101  C   UNL A   1      30.981  26.842  25.967  1.00  0.00     0.181 C 
BRANCH 101 102
ATOM    102  N   UNL A   1      32.267  27.492  25.895  1.00  0.00    -0.249 N 
ATOM    103  C   UNL A   1      33.196  27.594  26.881  1.00  0.00     0.220 A 
ATOM    104  N   UNL A   1      32.745  27.959  24.726  1.00  0.00    -0.160 NA
ATOM    105  N   UNL A   1      34.291  28.130  26.396  1.00  0.00    -0.224 NA
ATOM    106  C   UNL A   1      33.973  28.341  25.084  1.00  0.00     0.246 A 
ENDBRANCH 101 102
ENDBRANCH 100 101
ENDBRANCH  93  95
ENDBRANCH  84  91
ENDBRANCH  81  83
ENDBRANCH  80  81
ENDBRANCH  79  80
ENDBRANCH  78  79
ENDBRANCH  77  78
ENDBRANCH  76  77
ENDBRANCH   1  76
TORSDOF 24
ENDMDL
MODEL 3
REMARK VINA RESULT:     -10.9      3.098      4.911
REMARK SMILES O=C(OCCOCCOCCOCCOC(=O)[C@@H]1[C@H](C(=O)Nc2ccc(Cn3cncn3)cc2)[C@@H]2C=C[C@H]1CC2)c1ccc(-c2c3nc(c(-c4c(F)c(F)c(F)c(F)c4F)c4ccc([nH]4)c(-c4c(F)c(F)c(F)c(F)c4F)c4nc(c(-c5c(F)c(F)c(F)c(F)c5F)c5ccc2[nH]5)C=C4)C=C3)cc1
REMARK SMILES IDX 10 1 9 2 8 3 7 4 6 5 5 6 4 7 3 8 2 9 1 10 41 11 42 12 103 13
REMARK SMILES IDX 43 14 102 15 44 16 45 17 46 18 96 19 47 20 101 21 95 22
REMARK SMILES IDX 97 23 48 24 100 25 94 26 93 27 49 29 81 30 61 31 80 32 62 33
REMARK SMILES IDX 65 34 79 35 98 36 63 37 64 38 78 40 99 41 66 42 50 43 51 44
REMARK SMILES IDX 59 45 52 46 53 47 57 48 60 49 54 50 55 51 58 52 56 53 82 54
REMARK SMILES IDX 83 55 91 56 84 57 85 58 89 59 92 60 86 61 87 62 90 63 88 64
REMARK SMILES IDX 67 65 68 66 76 67 69 68 70 69 74 70 77 71 71 72 72 73 75 74
REMARK SMILES IDX 73 75 11 76 12 77 13 78 14 79 15 80 16 81 17 82 18 83 19 84
REMARK SMILES IDX 38 85 35 86 37 87 39 88 36 89 40 90 20 91 21 92 22 93 23 95
REMARK SMILES IDX 24 96 34 97 25 98 33 99 26 100 27 101 28 102 29 103 32 104
REMARK SMILES IDX 30 105 31 106
REMARK H PARENT 97 28 65 39 22 94
REMARK Flexibility Score: inf
ROOT
ATOM      1  C   UNL A   1      34.079  32.272  29.019  1.00  0.00     0.188 C 
ENDROOT
BRANCH   1   2
ATOM      2  O   UNL A   1      34.355  33.642  29.127  1.00  0.00    -0.377 OA
BRANCH   2   3
ATOM      3  C   UNL A   1      33.406  34.460  28.466  1.00  0.00     0.188 C 
BRANCH   3   4
ATOM      4  C   UNL A   1      33.235  35.965  28.821  1.00  0.00     0.188 C 
BRANCH   4   5
ATOM      5  O   UNL A   1      32.629  36.575  29.965  1.00  0.00    -0.376 OA
BRANCH   5   6
ATOM      6  C   UNL A   1      32.527  36.193  31.324  1.00  0.00     0.202 C 
BRANCH   6   7
ATOM      7  C   UNL A   1      33.770  36.340  32.212  1.00  0.00     0.261 C 
BRANCH   7   8
ATOM      8  O   UNL A   1      33.869  35.365  33.245  1.00  0.00    -0.460 OA
BRANCH   8   9
ATOM      9  C   UNL A   1      34.319  34.108  33.098  1.00  0.00     0.338 C 
ATOM     10  O   UNL A   1      33.510  33.207  32.837  1.00  0.00    -0.246 OA
BRANCH   9  11
ATOM     11  C   UNL A   1      35.729  33.708  33.337  1.00  0.00     0.060 A 
ATOM     12  C   UNL A   1      36.837  34.570  33.366  1.00  0.00     0.016 A 
ATOM     13  C   UNL A   1      35.926  32.328  33.539  1.00  0.00     0.016 A 
ATOM     14  C   UNL A   1      38.109  34.081  33.466  1.00  0.00     0.010 A 
ATOM     15  C   UNL A   1      37.199  31.818  33.628  1.00  0.00     0.010 A 
ATOM     16  C   UNL A   1      38.253  32.709  33.456  1.00  0.00    -0.014 A 
BRANCH  16  17
ATOM     17  C   UNL A   1      39.517  32.253  32.939  1.00  0.00     0.031 A 
ATOM     18  C   UNL A   1      40.617  32.247  33.927  1.00  0.00     0.074 A 
ATOM     19  C   UNL A   1      39.523  31.954  31.625  1.00  0.00     0.049 A 
ATOM     20  N   UNL A   1      41.776  32.816  33.841  1.00  0.00    -0.248 NA
ATOM     21  C   UNL A   1      40.324  31.681  35.256  1.00  0.00     0.031 C 
ATOM     22  C   UNL A   1      38.375  31.906  30.700  1.00  0.00     0.029 A 
ATOM     23  N   UNL A   1      40.541  31.489  30.863  1.00  0.00    -0.354 N 
ATOM     24  C   UNL A   1      42.437  32.480  35.018  1.00  0.00     0.074 A 
ATOM     25  C   UNL A   1      41.450  31.944  35.916  1.00  0.00     0.031 C 
ATOM     26  C   UNL A   1      38.698  31.169  29.620  1.00  0.00     0.029 A 
ATOM     27  C   UNL A   1      40.097  30.827  29.718  1.00  0.00     0.049 A 
ATOM     28  H   UNL A   1      41.492  31.605  31.091  1.00  0.00     0.167 HD
ATOM     29  C   UNL A   1      43.791  32.377  35.047  1.00  0.00     0.037 A 
ATOM     30  C   UNL A   1      40.838  29.907  29.060  1.00  0.00     0.037 A 
ATOM     31  C   UNL A   1      44.409  33.194  34.039  1.00  0.00     0.049 A 
ATOM     32  C   UNL A   1      42.258  30.178  29.437  1.00  0.00     0.074 A 
ATOM     33  C   UNL A   1      44.454  34.556  33.811  1.00  0.00     0.029 A 
ATOM     34  N   UNL A   1      44.782  32.606  32.855  1.00  0.00    -0.354 N 
ATOM     35  N   UNL A   1      42.874  31.291  29.128  1.00  0.00    -0.248 NA
ATOM     36  C   UNL A   1      42.788  29.476  30.602  1.00  0.00     0.031 C 
ATOM     37  C   UNL A   1      44.373  34.698  32.395  1.00  0.00     0.029 A 
ATOM     38  C   UNL A   1      44.351  33.419  31.836  1.00  0.00     0.049 A 
ATOM     39  H   UNL A   1      45.269  31.755  32.756  1.00  0.00     0.167 HD
ATOM     40  C   UNL A   1      43.598  31.632  30.267  1.00  0.00     0.074 A 
ATOM     41  C   UNL A   1      43.539  30.450  31.125  1.00  0.00     0.031 C 
ATOM     42  C   UNL A   1      43.928  32.929  30.544  1.00  0.00     0.037 A 
BRANCH  29  43
ATOM     43  C   UNL A   1      44.483  31.220  35.717  1.00  0.00     0.064 A 
ATOM     44  C   UNL A   1      44.148  29.905  35.355  1.00  0.00     0.173 A 
ATOM     45  C   UNL A   1      45.243  31.355  36.903  1.00  0.00     0.173 A 
ATOM     46  F   UNL A   1      43.404  29.668  34.264  1.00  0.00    -0.203 F 
ATOM     47  C   UNL A   1      44.498  28.813  36.156  1.00  0.00     0.198 A 
ATOM     48  C   UNL A   1      45.637  30.263  37.668  1.00  0.00     0.198 A 
ATOM     49  F   UNL A   1      45.536  32.550  37.433  1.00  0.00    -0.203 F 
ATOM     50  F   UNL A   1      44.059  27.588  35.838  1.00  0.00    -0.200 F 
ATOM     51  C   UNL A   1      45.238  28.994  37.312  1.00  0.00     0.200 A 
ATOM     52  F   UNL A   1      46.335  30.466  38.794  1.00  0.00    -0.200 F 
ATOM     53  F   UNL A   1      45.522  27.957  38.111  1.00  0.00    -0.200 F 
ENDBRANCH  29  43
BRANCH  30  54
ATOM     54  C   UNL A   1      40.321  28.604  28.578  1.00  0.00     0.064 A 
ATOM     55  C   UNL A   1      40.689  28.098  27.326  1.00  0.00     0.173 A 
ATOM     56  C   UNL A   1      39.611  27.725  29.426  1.00  0.00     0.173 A 
ATOM     57  F   UNL A   1      41.412  28.851  26.485  1.00  0.00    -0.203 F 
ATOM     58  C   UNL A   1      40.361  26.792  26.942  1.00  0.00     0.198 A 
ATOM     59  C   UNL A   1      39.272  26.429  29.037  1.00  0.00     0.198 A 
ATOM     60  F   UNL A   1      39.299  28.071  30.683  1.00  0.00    -0.203 F 
ATOM     61  F   UNL A   1      40.768  26.325  25.753  1.00  0.00    -0.200 F 
ATOM     62  C   UNL A   1      39.656  25.960  27.798  1.00  0.00     0.200 A 
ATOM     63  F   UNL A   1      38.620  25.627  29.890  1.00  0.00    -0.200 F 
ATOM     64  F   UNL A   1      39.379  24.697  27.444  1.00  0.00    -0.200 F 
ENDBRANCH  30  54
BRANCH  42  65
ATOM     65  C   UNL A   1      43.603  33.969  29.504  1.00  0.00     0.064 A 
ATOM     66  C   UNL A   1      44.433  34.241  28.401  1.00  0.00     0.173 A 
ATOM     67  C   UNL A   1      42.344  34.577  29.521  1.00  0.00     0.173 A 
ATOM     68  F   UNL A   1      45.600  33.604  28.251  1.00  0.00    -0.203 F 
ATOM     69  C   UNL A   1      44.040  35.116  27.389  1.00  0.00     0.198 A 
ATOM     70  C   UNL A   1      41.938  35.425  28.491  1.00  0.00     0.198 A 
ATOM     71  F   UNL A   1      41.479  34.298  30.506  1.00  0.00    -0.203 F 
ATOM     72  F   UNL A   1      44.855  35.353  26.350  1.00  0.00    -0.200 F 
ATOM     73  C   UNL A   1      42.789  35.703  27.432  1.00  0.00     0.200 A 
ATOM     74  F   UNL A   1      40.703  35.945  28.506  1.00  0.00    -0.200 F 
ATOM     75  F   UNL A   1      42.388  36.507  26.438  1.00  0.00    -0.200 F 
ENDBRANCH  42  65
ENDBRANCH  16  17
ENDBRANCH   9  11
ENDBRANCH   8   9
ENDBRANCH   7   8
ENDBRANCH   6   7
ENDBRANCH   5   6
ENDBRANCH   4   5
ENDBRANCH   3   4
ENDBRANCH   2   3
ENDBRANCH   1   2
BRANCH   1  76
ATOM     76  C   UNL A   1      34.640  31.706  27.702  1.00  0.00     0.188 C 
BRANCH  76  77
ATOM     77  O   UNL A   1      35.584  30.671  27.833  1.00  0.00    -0.376 OA
BRANCH  77  78
ATOM     78  C   UNL A   1      35.178  29.346  27.572  1.00  0.00     0.202 C 
BRANCH  78  79
ATOM     79  C   UNL A   1      33.961  28.951  26.698  1.00  0.00     0.261 C 
BRANCH  79  80
ATOM     80  O   UNL A   1      33.535  27.568  26.640  1.00  0.00    -0.463 OA
BRANCH  80  81
ATOM     81  C   UNL A   1      33.357  26.976  25.436  1.00  0.00     0.310 C 
ATOM     82  O   UNL A   1      34.281  26.468  24.801  1.00  0.00    -0.252 OA
BRANCH  81  83
ATOM     83  C   UNL A   1      31.907  27.076  24.916  1.00  0.00     0.119 C 
ATOM     84  C   UNL A   1      30.636  26.280  25.405  1.00  0.00     0.100 C 
ATOM     85  C   UNL A   1      31.882  27.097  23.344  1.00  0.00     0.026 C 
ATOM     86  C   UNL A   1      29.651  26.081  24.196  1.00  0.00     0.025 C 
ATOM     87  C   UNL A   1      31.542  25.728  22.780  1.00  0.00    -0.027 C 
ATOM     88  C   UNL A   1      30.700  27.999  22.920  1.00  0.00     0.009 C 
ATOM     89  C   UNL A   1      30.369  25.221  23.188  1.00  0.00    -0.027 C 
ATOM     90  C   UNL A   1      29.385  27.438  23.509  1.00  0.00     0.009 C 
BRANCH  84  91
ATOM     91  C   UNL A   1      30.446  25.012  26.262  1.00  0.00     0.228 C 
ATOM     92  O   UNL A   1      29.366  24.921  26.874  1.00  0.00    -0.274 OA
ATOM     93  N   UNL A   1      31.166  23.857  26.272  1.00  0.00    -0.326 N 
ATOM     94  H   UNL A   1      30.652  23.093  26.620  1.00  0.00     0.169 HD
BRANCH  93  95
ATOM     95  C   UNL A   1      32.466  23.503  25.902  1.00  0.00     0.041 A 
ATOM     96  C   UNL A   1      32.721  23.029  24.620  1.00  0.00     0.026 A 
ATOM     97  C   UNL A   1      33.523  23.576  26.779  1.00  0.00     0.026 A 
ATOM     98  C   UNL A   1      34.048  22.861  24.196  1.00  0.00     0.008 A 
ATOM     99  C   UNL A   1      34.834  23.377  26.402  1.00  0.00     0.008 A 
ATOM    100  C   UNL A   1      35.115  23.121  25.071  1.00  0.00    -0.026 A 
BRANCH 100 101
ATOM    101  C   UNL A   1      36.545  23.216  24.625  1.00  0.00     0.181 C 
BRANCH 101 102
ATOM    102  N   UNL A   1      37.327  22.068  25.014  1.00  0.00    -0.249 N 
ATOM    103  C   UNL A   1      37.164  20.782  24.606  1.00  0.00     0.220 A 
ATOM    104  N   UNL A   1      38.445  22.206  25.751  1.00  0.00    -0.160 NA
ATOM    105  N   UNL A   1      38.152  20.049  25.064  1.00  0.00    -0.224 NA
ATOM    106  C   UNL A   1      38.906  20.953  25.759  1.00  0.00     0.246 A 
ENDBRANCH 101 102
ENDBRANCH 100 101
ENDBRANCH  93  95
ENDBRANCH  84  91
ENDBRANCH  81  83
ENDBRANCH  80  81
ENDBRANCH  79  80
ENDBRANCH  78  79
ENDBRANCH  77  78
ENDBRANCH  76  77
ENDBRANCH   1  76
TORSDOF 24
ENDMDL
