MODEL 1
REMARK VINA RESULT:      -8.8      0.000      0.000
REMARK SMILES Cc1c(CC(=O)OCCOCCOCCOCCOC(=O)c2ccc(-c3c4nc(c(-c5c(F)c(F)c(F)c(F)c5F)c5ccc([nH]5)c(-c5c(F)c(F)c(F)c(F)c5F)c5nc(c(-c6c(F)c(F)c(F)c(F)c6F)c6ccc3[nH]6)C=C5)C=C4)cc2)cc(-c2ccc(S(C)(=O)=O)cc2)n1-c1cccc(F)c1
REMARK SMILES IDX 12 1 11 2 10 3 9 4 8 5 7 6 5 7 6 8 4 9 3 10 1 11 2 12 97 13
REMARK SMILES IDX 85 14 86 15 98 16 99 17 104 18 100 19 102 20 101 21 103 22
REMARK SMILES IDX 87 23 88 24 96 25 89 26 95 27 90 28 91 29 92 30 93 31 94 32
REMARK SMILES IDX 13 33 14 34 15 35 16 36 17 37 18 38 19 39 20 40 21 41 22 42
REMARK SMILES IDX 23 43 84 44 24 45 83 46 25 47 26 48 27 49 77 50 28 51 82 52
REMARK SMILES IDX 76 53 78 54 29 55 81 56 75 57 74 58 30 60 62 61 42 62 61 63
REMARK SMILES IDX 43 64 46 65 60 66 79 67 44 68 45 69 59 71 80 72 47 73 31 74
REMARK SMILES IDX 32 75 40 76 33 77 34 78 38 79 41 80 35 81 36 82 39 83 37 84
REMARK SMILES IDX 63 85 64 86 72 87 65 88 66 89 70 90 73 91 67 92 68 93 71 94
REMARK SMILES IDX 69 95 48 96 49 97 57 98 50 99 51 100 55 101 58 102 52 103
REMARK SMILES IDX 53 104 56 105 54 106
REMARK H PARENT 78 59 46 70
REMARK Flexibility Score: inf
ROOT
ATOM      1  C   UNL A   1      40.186  27.830  27.854  1.00  0.00     0.188 C 
ENDROOT
BRANCH   1   2
ATOM      2  C   UNL A   1      40.145  29.137  28.667  1.00  0.00     0.188 C 
BRANCH   2   3
ATOM      3  O   UNL A   1      39.134  30.124  28.525  1.00  0.00    -0.376 OA
BRANCH   3   4
ATOM      4  C   UNL A   1      38.661  30.870  29.623  1.00  0.00     0.202 C 
BRANCH   4   5
ATOM      5  C   UNL A   1      37.484  31.847  29.447  1.00  0.00     0.261 C 
BRANCH   5   6
ATOM      6  O   UNL A   1      36.600  31.593  28.335  1.00  0.00    -0.463 OA
BRANCH   6   7
ATOM      7  C   UNL A   1      35.595  30.707  28.547  1.00  0.00     0.310 C 
ATOM      8  O   UNL A   1      35.717  29.723  29.274  1.00  0.00    -0.252 OA
BRANCH   7   9
ATOM      9  C   UNL A   1      34.319  30.931  27.746  1.00  0.00     0.160 C 
BRANCH   9  10
ATOM     10  C   UNL A   1      33.793  29.920  26.740  1.00  0.00    -0.015 A 
ATOM     11  C   UNL A   1      31.458  30.926  26.104  1.00  0.00     0.065 C 
ATOM     12  C   UNL A   1      32.562  29.918  26.067  1.00  0.00     0.024 A 
ATOM     13  N   UNL A   1      32.479  28.757  25.302  1.00  0.00    -0.313 N 
ATOM     14  C   UNL A   1      34.366  28.633  26.485  1.00  0.00     0.033 A 
ATOM     15  C   UNL A   1      33.500  27.902  25.687  1.00  0.00     0.053 A 
BRANCH  13  16
ATOM     16  C   UNL A   1      31.493  28.422  24.332  1.00  0.00     0.049 A 
ATOM     17  C   UNL A   1      31.469  29.080  23.097  1.00  0.00     0.027 A 
ATOM     18  C   UNL A   1      30.413  27.625  24.722  1.00  0.00     0.065 A 
ATOM     19  C   UNL A   1      30.373  28.918  22.240  1.00  0.00     0.005 A 
ATOM     20  C   UNL A   1      29.337  27.472  23.847  1.00  0.00     0.125 A 
ATOM     21  C   UNL A   1      29.306  28.109  22.617  1.00  0.00     0.039 A 
ATOM     22  F   UNL A   1      28.275  26.737  24.183  1.00  0.00    -0.207 F 
ENDBRANCH  13  16
BRANCH  15  23
ATOM     23  C   UNL A   1      33.501  26.474  25.357  1.00  0.00    -0.001 A 
ATOM     24  C   UNL A   1      34.004  26.003  24.137  1.00  0.00     0.011 A 
ATOM     25  C   UNL A   1      32.870  25.579  26.233  1.00  0.00     0.011 A 
ATOM     26  C   UNL A   1      33.863  24.656  23.787  1.00  0.00     0.021 A 
ATOM     27  C   UNL A   1      32.724  24.234  25.890  1.00  0.00     0.021 A 
ATOM     28  C   UNL A   1      33.212  23.781  24.664  1.00  0.00     0.067 A 
BRANCH  28  29
ATOM     29  S   UNL A   1      33.068  22.064  24.226  1.00  0.00     0.175 S 
ATOM     30  C   UNL A   1      34.604  21.341  24.739  1.00  0.00     0.163 C 
ATOM     31  O   UNL A   1      32.007  21.508  25.016  1.00  0.00    -0.224 OA
ATOM     32  O   UNL A   1      33.033  21.992  22.761  1.00  0.00    -0.224 OA
ENDBRANCH  28  29
ENDBRANCH  15  23
ENDBRANCH   9  10
ENDBRANCH   7   9
ENDBRANCH   6   7
ENDBRANCH   5   6
ENDBRANCH   4   5
ENDBRANCH   3   4
ENDBRANCH   2   3
ENDBRANCH   1   2
BRANCH   1  33
ATOM     33  O   UNL A   1      39.299  26.742  27.958  1.00  0.00    -0.377 OA
BRANCH  33  34
ATOM     34  C   UNL A   1      39.748  25.491  28.389  1.00  0.00     0.188 C 
BRANCH  34  35
ATOM     35  C   UNL A   1      41.011  25.051  27.660  1.00  0.00     0.188 C 
BRANCH  35  36
ATOM     36  O   UNL A   1      42.131  24.705  28.464  1.00  0.00    -0.376 OA
BRANCH  36  37
ATOM     37  C   UNL A   1      42.623  23.355  28.434  1.00  0.00     0.202 C 
BRANCH  37  38
ATOM     38  C   UNL A   1      44.055  23.096  27.876  1.00  0.00     0.261 C 
BRANCH  38  39
ATOM     39  O   UNL A   1      44.622  24.014  26.850  1.00  0.00    -0.460 OA
BRANCH  39  40
ATOM     40  C   UNL A   1      45.429  25.026  27.346  1.00  0.00     0.338 C 
ATOM     41  O   UNL A   1      46.314  24.802  28.167  1.00  0.00    -0.246 OA
BRANCH  40  42
ATOM     42  C   UNL A   1      45.253  26.487  26.850  1.00  0.00     0.060 A 
ATOM     43  C   UNL A   1      46.348  27.341  26.850  1.00  0.00     0.016 A 
ATOM     44  C   UNL A   1      44.015  27.176  26.774  1.00  0.00     0.016 A 
ATOM     45  C   UNL A   1      46.201  28.784  26.753  1.00  0.00     0.010 A 
ATOM     46  C   UNL A   1      43.868  28.666  26.747  1.00  0.00     0.010 A 
ATOM     47  C   UNL A   1      44.965  29.550  26.768  1.00  0.00    -0.014 A 
BRANCH  47  48
ATOM     48  C   UNL A   1      45.060  31.168  27.235  1.00  0.00     0.031 A 
ATOM     49  C   UNL A   1      45.795  31.050  28.526  1.00  0.00     0.074 A 
ATOM     50  C   UNL A   1      44.651  32.508  27.014  1.00  0.00     0.049 A 
ATOM     51  N   UNL A   1      45.311  30.281  29.463  1.00  0.00    -0.248 NA
ATOM     52  C   UNL A   1      47.202  31.413  28.695  1.00  0.00     0.031 C 
ATOM     53  C   UNL A   1      43.726  33.038  25.990  1.00  0.00     0.029 A 
ATOM     54  N   UNL A   1      44.965  33.769  27.682  1.00  0.00    -0.354 N 
ATOM     55  C   UNL A   1      46.227  30.299  30.479  1.00  0.00     0.074 A 
ATOM     56  C   UNL A   1      47.444  30.815  29.868  1.00  0.00     0.031 C 
ATOM     57  C   UNL A   1      43.649  34.407  26.003  1.00  0.00     0.029 A 
ATOM     58  C   UNL A   1      44.458  34.996  27.076  1.00  0.00     0.049 A 
ATOM     59  H   UNL A   1      45.498  33.790  28.510  1.00  0.00     0.167 HD
ATOM     60  C   UNL A   1      45.706  30.539  31.716  1.00  0.00     0.037 A 
ATOM     61  C   UNL A   1      44.575  36.355  27.426  1.00  0.00     0.037 A 
ATOM     62  C   UNL A   1      45.957  31.883  32.148  1.00  0.00     0.049 A 
ATOM     63  C   UNL A   1      44.825  36.406  28.870  1.00  0.00     0.074 A 
ATOM     64  C   UNL A   1      47.063  32.704  32.064  1.00  0.00     0.029 A 
ATOM     65  N   UNL A   1      44.864  32.708  32.304  1.00  0.00    -0.354 N 
ATOM     66  N   UNL A   1      43.843  36.281  29.708  1.00  0.00    -0.248 NA
ATOM     67  C   UNL A   1      46.102  36.787  29.465  1.00  0.00     0.031 C 
ATOM     68  C   UNL A   1      46.546  33.933  31.604  1.00  0.00     0.029 A 
ATOM     69  C   UNL A   1      45.170  33.947  31.800  1.00  0.00     0.049 A 
ATOM     70  H   UNL A   1      44.005  32.450  32.711  1.00  0.00     0.167 HD
ATOM     71  C   UNL A   1      44.467  36.014  30.875  1.00  0.00     0.074 A 
ATOM     72  C   UNL A   1      45.779  36.619  30.752  1.00  0.00     0.031 C 
ATOM     73  C   UNL A   1      44.102  34.836  31.435  1.00  0.00     0.037 A 
BRANCH  60  74
ATOM     74  C   UNL A   1      44.428  29.790  31.978  1.00  0.00     0.064 A 
ATOM     75  C   UNL A   1      43.213  30.374  31.616  1.00  0.00     0.173 A 
ATOM     76  C   UNL A   1      44.378  28.587  32.717  1.00  0.00     0.173 A 
ATOM     77  F   UNL A   1      43.198  31.478  30.855  1.00  0.00    -0.203 F 
ATOM     78  C   UNL A   1      42.002  29.821  32.035  1.00  0.00     0.198 A 
ATOM     79  C   UNL A   1      43.176  28.082  33.196  1.00  0.00     0.198 A 
ATOM     80  F   UNL A   1      45.500  27.895  32.977  1.00  0.00    -0.203 F 
ATOM     81  F   UNL A   1      40.847  30.377  31.647  1.00  0.00    -0.200 F 
ATOM     82  C   UNL A   1      41.988  28.703  32.858  1.00  0.00     0.200 A 
ATOM     83  F   UNL A   1      43.174  26.993  33.979  1.00  0.00    -0.200 F 
ATOM     84  F   UNL A   1      40.825  28.206  33.302  1.00  0.00    -0.200 F 
ENDBRANCH  60  74
BRANCH  61  85
ATOM     85  C   UNL A   1      44.322  37.857  26.986  1.00  0.00     0.064 A 
ATOM     86  C   UNL A   1      43.067  38.527  27.257  1.00  0.00     0.173 A 
ATOM     87  C   UNL A   1      45.374  38.760  26.767  1.00  0.00     0.173 A 
ATOM     88  F   UNL A   1      41.928  37.843  27.426  1.00  0.00    -0.203 F 
ATOM     89  C   UNL A   1      42.924  39.918  27.432  1.00  0.00     0.198 A 
ATOM     90  C   UNL A   1      45.214  40.172  26.891  1.00  0.00     0.198 A 
ATOM     91  F   UNL A   1      46.605  38.298  26.520  1.00  0.00    -0.203 F 
ATOM     92  F   UNL A   1      41.748  40.436  27.829  1.00  0.00    -0.200 F 
ATOM     93  C   UNL A   1      44.006  40.743  27.264  1.00  0.00     0.200 A 
ATOM     94  F   UNL A   1      46.268  40.982  26.716  1.00  0.00    -0.200 F 
ATOM     95  F   UNL A   1      43.895  42.065  27.483  1.00  0.00    -0.200 F 
ENDBRANCH  61  85
BRANCH  73  96
ATOM     96  C   UNL A   1      42.608  34.529  31.425  1.00  0.00     0.064 A 
ATOM     97  C   UNL A   1      41.795  34.267  30.291  1.00  0.00     0.173 A 
ATOM     98  C   UNL A   1      41.927  34.656  32.641  1.00  0.00     0.173 A 
ATOM     99  F   UNL A   1      42.312  33.972  29.090  1.00  0.00    -0.203 F 
ATOM    100  C   UNL A   1      40.398  34.281  30.362  1.00  0.00     0.198 A 
ATOM    101  C   UNL A   1      40.535  34.606  32.720  1.00  0.00     0.198 A 
ATOM    102  F   UNL A   1      42.620  34.829  33.777  1.00  0.00    -0.203 F 
ATOM    103  F   UNL A   1      39.664  34.129  29.248  1.00  0.00    -0.200 F 
ATOM    104  C   UNL A   1      39.769  34.458  31.577  1.00  0.00     0.200 A 
ATOM    105  F   UNL A   1      39.937  34.716  33.914  1.00  0.00    -0.200 F 
ATOM    106  F   UNL A   1      38.431  34.468  31.653  1.00  0.00    -0.200 F 
ENDBRANCH  73  96
ENDBRANCH  47  48
ENDBRANCH  40  42
ENDBRANCH  39  40
ENDBRANCH  38  39
ENDBRANCH  37  38
ENDBRANCH  36  37
ENDBRANCH  35  36
ENDBRANCH  34  35
ENDBRANCH  33  34
ENDBRANCH   1  33
TORSDOF 24
ENDMDL
MODEL 2
REMARK VINA RESULT:      -8.5      1.132      2.031
REMARK SMILES Cc1c(CC(=O)OCCOCCOCCOCCOC(=O)c2ccc(-c3c4nc(c(-c5c(F)c(F)c(F)c(F)c5F)c5ccc([nH]5)c(-c5c(F)c(F)c(F)c(F)c5F)c5nc(c(-c6c(F)c(F)c(F)c(F)c6F)c6ccc3[nH]6)C=C5)C=C4)cc2)cc(-c2ccc(S(C)(=O)=O)cc2)n1-c1cccc(F)c1
REMARK SMILES IDX 12 1 11 2 10 3 9 4 8 5 7 6 5 7 6 8 4 9 3 10 1 11 2 12 97 13
REMARK SMILES IDX 85 14 86 15 98 16 99 17 104 18 100 19 102 20 101 21 103 22
REMARK SMILES IDX 87 23 88 24 96 25 89 26 95 27 90 28 91 29 92 30 93 31 94 32
REMARK SMILES IDX 13 33 14 34 15 35 16 36 17 37 18 38 19 39 20 40 21 41 22 42
REMARK SMILES IDX 23 43 84 44 24 45 83 46 25 47 26 48 27 49 77 50 28 51 82 52
REMARK SMILES IDX 76 53 78 54 29 55 81 56 75 57 74 58 30 60 62 61 42 62 61 63
REMARK SMILES IDX 43 64 46 65 60 66 79 67 44 68 45 69 59 71 80 72 47 73 31 74
REMARK SMILES IDX 32 75 40 76 33 77 34 78 38 79 41 80 35 81 36 82 39 83 37 84
REMARK SMILES IDX 63 85 64 86 72 87 65 88 66 89 70 90 73 91 67 92 68 93 71 94
REMARK SMILES IDX 69 95 48 96 49 97 57 98 50 99 51 100 55 101 58 102 52 103
REMARK SMILES IDX 53 104 56 105 54 106
REMARK H PARENT 78 59 46 70
REMARK Flexibility Score: inf
ROOT
ATOM      1  C   UNL A   1      40.305  27.862  28.070  1.00  0.00     0.188 C 
ENDROOT
BRANCH   1   2
ATOM      2  C   UNL A   1      39.947  29.014  29.026  1.00  0.00     0.188 C 
BRANCH   2   3
ATOM      3  O   UNL A   1      39.097  30.096  28.675  1.00  0.00    -0.376 OA
BRANCH   3   4
ATOM      4  C   UNL A   1      38.732  31.089  29.606  1.00  0.00     0.202 C 
BRANCH   4   5
ATOM      5  C   UNL A   1      37.521  32.001  29.334  1.00  0.00     0.261 C 
BRANCH   5   6
ATOM      6  O   UNL A   1      36.642  31.596  28.263  1.00  0.00    -0.463 OA
BRANCH   6   7
ATOM      7  C   UNL A   1      35.638  30.746  28.590  1.00  0.00     0.310 C 
ATOM      8  O   UNL A   1      35.778  29.826  29.394  1.00  0.00    -0.252 OA
BRANCH   7   9
ATOM      9  C   UNL A   1      34.333  30.917  27.823  1.00  0.00     0.160 C 
BRANCH   9  10
ATOM     10  C   UNL A   1      33.814  29.878  26.842  1.00  0.00    -0.015 A 
ATOM     11  C   UNL A   1      31.526  30.911  26.089  1.00  0.00     0.065 C 
ATOM     12  C   UNL A   1      32.606  29.877  26.129  1.00  0.00     0.024 A 
ATOM     13  N   UNL A   1      32.518  28.687  25.410  1.00  0.00    -0.313 N 
ATOM     14  C   UNL A   1      34.362  28.569  26.659  1.00  0.00     0.033 A 
ATOM     15  C   UNL A   1      33.505  27.826  25.863  1.00  0.00     0.053 A 
BRANCH  13  16
ATOM     16  C   UNL A   1      31.555  28.336  24.422  1.00  0.00     0.049 A 
ATOM     17  C   UNL A   1      31.428  29.104  23.259  1.00  0.00     0.027 A 
ATOM     18  C   UNL A   1      30.582  27.385  24.743  1.00  0.00     0.065 A 
ATOM     19  C   UNL A   1      30.339  28.900  22.403  1.00  0.00     0.005 A 
ATOM     20  C   UNL A   1      29.512  27.194  23.869  1.00  0.00     0.125 A 
ATOM     21  C   UNL A   1      29.381  27.939  22.708  1.00  0.00     0.039 A 
ATOM     22  F   UNL A   1      28.549  26.310  24.142  1.00  0.00    -0.207 F 
ENDBRANCH  13  16
BRANCH  15  23
ATOM     23  C   UNL A   1      33.480  26.386  25.591  1.00  0.00    -0.001 A 
ATOM     24  C   UNL A   1      32.881  25.481  26.477  1.00  0.00     0.011 A 
ATOM     25  C   UNL A   1      34.183  25.898  24.479  1.00  0.00     0.011 A 
ATOM     26  C   UNL A   1      32.997  24.102  26.265  1.00  0.00     0.021 A 
ATOM     27  C   UNL A   1      34.304  24.524  24.263  1.00  0.00     0.021 A 
ATOM     28  C   UNL A   1      33.719  23.633  25.163  1.00  0.00     0.067 A 
BRANCH  28  29
ATOM     29  S   UNL A   1      33.831  21.881  24.884  1.00  0.00     0.175 S 
ATOM     30  C   UNL A   1      32.573  21.537  23.682  1.00  0.00     0.163 C 
ATOM     31  O   UNL A   1      35.115  21.622  24.297  1.00  0.00    -0.224 OA
ATOM     32  O   UNL A   1      33.424  21.217  26.127  1.00  0.00    -0.224 OA
ENDBRANCH  28  29
ENDBRANCH  15  23
ENDBRANCH   9  10
ENDBRANCH   7   9
ENDBRANCH   6   7
ENDBRANCH   5   6
ENDBRANCH   4   5
ENDBRANCH   3   4
ENDBRANCH   2   3
ENDBRANCH   1   2
BRANCH   1  33
ATOM     33  O   UNL A   1      39.662  26.614  27.971  1.00  0.00    -0.377 OA
BRANCH  33  34
ATOM     34  C   UNL A   1      40.353  25.429  28.237  1.00  0.00     0.188 C 
BRANCH  34  35
ATOM     35  C   UNL A   1      41.567  25.257  27.332  1.00  0.00     0.188 C 
BRANCH  35  36
ATOM     36  O   UNL A   1      42.839  25.215  27.964  1.00  0.00    -0.376 OA
BRANCH  36  37
ATOM     37  C   UNL A   1      43.639  24.027  27.847  1.00  0.00     0.202 C 
BRANCH  37  38
ATOM     38  C   UNL A   1      45.021  24.126  27.132  1.00  0.00     0.261 C 
BRANCH  38  39
ATOM     39  O   UNL A   1      45.294  25.267  26.214  1.00  0.00    -0.460 OA
BRANCH  39  40
ATOM     40  C   UNL A   1      45.933  26.350  26.795  1.00  0.00     0.338 C 
ATOM     41  O   UNL A   1      46.864  26.205  27.583  1.00  0.00    -0.246 OA
BRANCH  40  42
ATOM     42  C   UNL A   1      45.504  27.800  26.440  1.00  0.00     0.060 A 
ATOM     43  C   UNL A   1      46.479  28.750  26.166  1.00  0.00     0.016 A 
ATOM     44  C   UNL A   1      44.246  28.375  26.756  1.00  0.00     0.016 A 
ATOM     45  C   UNL A   1      46.195  30.176  26.184  1.00  0.00     0.010 A 
ATOM     46  C   UNL A   1      43.979  29.846  26.844  1.00  0.00     0.010 A 
ATOM     47  C   UNL A   1      44.959  30.825  26.590  1.00  0.00    -0.014 A 
BRANCH  47  48
ATOM     48  C   UNL A   1      45.055  32.434  27.086  1.00  0.00     0.031 A 
ATOM     49  C   UNL A   1      46.044  32.333  28.197  1.00  0.00     0.074 A 
ATOM     50  C   UNL A   1      44.534  33.751  27.001  1.00  0.00     0.049 A 
ATOM     51  N   UNL A   1      45.806  31.513  29.184  1.00  0.00    -0.248 NA
ATOM     52  C   UNL A   1      47.433  32.780  28.091  1.00  0.00     0.031 C 
ATOM     53  C   UNL A   1      43.391  34.246  26.205  1.00  0.00     0.029 A 
ATOM     54  N   UNL A   1      44.906  35.013  27.637  1.00  0.00    -0.354 N 
ATOM     55  C   UNL A   1      46.907  31.564  29.994  1.00  0.00     0.074 A 
ATOM     56  C   UNL A   1      47.942  32.170  29.169  1.00  0.00     0.031 C 
ATOM     57  C   UNL A   1      43.240  35.607  26.283  1.00  0.00     0.029 A 
ATOM     58  C   UNL A   1      44.216  36.220  27.190  1.00  0.00     0.049 A 
ATOM     59  H   UNL A   1      45.594  35.048  28.340  1.00  0.00     0.167 HD
ATOM     60  C   UNL A   1      46.636  31.741  31.318  1.00  0.00     0.037 A 
ATOM     61  C   UNL A   1      44.325  37.575  27.559  1.00  0.00     0.037 A 
ATOM     62  C   UNL A   1      46.894  33.088  31.739  1.00  0.00     0.049 A 
ATOM     63  C   UNL A   1      44.861  37.607  28.923  1.00  0.00     0.074 A 
ATOM     64  C   UNL A   1      47.910  33.979  31.462  1.00  0.00     0.029 A 
ATOM     65  N   UNL A   1      45.810  33.838  32.143  1.00  0.00    -0.354 N 
ATOM     66  N   UNL A   1      44.079  37.401  29.937  1.00  0.00    -0.248 NA
ATOM     67  C   UNL A   1      46.208  38.054  29.261  1.00  0.00     0.031 C 
ATOM     68  C   UNL A   1      47.241  35.184  31.161  1.00  0.00     0.029 A 
ATOM     69  C   UNL A   1      45.936  35.106  31.632  1.00  0.00     0.049 A 
ATOM     70  H   UNL A   1      45.069  33.517  32.706  1.00  0.00     0.167 HD
ATOM     71  C   UNL A   1      44.943  37.145  30.944  1.00  0.00     0.074 A 
ATOM     72  C   UNL A   1      46.166  37.835  30.580  1.00  0.00     0.031 C 
ATOM     73  C   UNL A   1      44.767  35.934  31.523  1.00  0.00     0.037 A 
BRANCH  60  74
ATOM     74  C   UNL A   1      45.484  30.907  31.807  1.00  0.00     0.064 A 
ATOM     75  C   UNL A   1      44.188  31.242  31.410  1.00  0.00     0.173 A 
ATOM     76  C   UNL A   1      45.625  29.890  32.776  1.00  0.00     0.173 A 
ATOM     77  F   UNL A   1      43.995  32.150  30.442  1.00  0.00    -0.203 F 
ATOM     78  C   UNL A   1      43.080  30.640  32.007  1.00  0.00     0.198 A 
ATOM     79  C   UNL A   1      44.522  29.347  33.422  1.00  0.00     0.198 A 
ATOM     80  F   UNL A   1      46.840  29.417  33.102  1.00  0.00    -0.203 F 
ATOM     81  F   UNL A   1      41.846  30.949  31.586  1.00  0.00    -0.200 F 
ATOM     82  C   UNL A   1      43.248  29.726  33.039  1.00  0.00     0.200 A 
ATOM     83  F   UNL A   1      44.696  28.456  34.408  1.00  0.00    -0.200 F 
ATOM     84  F   UNL A   1      42.181  29.189  33.646  1.00  0.00    -0.200 F 
ENDBRANCH  60  74
BRANCH  61  85
ATOM     85  C   UNL A   1      43.903  39.067  27.233  1.00  0.00     0.064 A 
ATOM     86  C   UNL A   1      44.752  39.943  26.451  1.00  0.00     0.173 A 
ATOM     87  C   UNL A   1      42.563  39.485  27.235  1.00  0.00     0.173 A 
ATOM     88  F   UNL A   1      46.076  39.756  26.379  1.00  0.00    -0.203 F 
ATOM     89  C   UNL A   1      44.286  41.010  25.657  1.00  0.00     0.198 A 
ATOM     90  C   UNL A   1      42.102  40.599  26.473  1.00  0.00     0.198 A 
ATOM     91  F   UNL A   1      41.646  38.771  27.900  1.00  0.00    -0.203 F 
ATOM     92  F   UNL A   1      45.129  41.674  24.847  1.00  0.00    -0.200 F 
ATOM     93  C   UNL A   1      42.952  41.330  25.655  1.00  0.00     0.200 A 
ATOM     94  F   UNL A   1      40.800  40.921  26.478  1.00  0.00    -0.200 F 
ATOM     95  F   UNL A   1      42.488  42.308  24.859  1.00  0.00    -0.200 F 
ENDBRANCH  61  85
BRANCH  73  96
ATOM     96  C   UNL A   1      43.322  35.534  31.804  1.00  0.00     0.064 A 
ATOM     97  C   UNL A   1      42.585  35.765  32.995  1.00  0.00     0.173 A 
ATOM     98  C   UNL A   1      42.692  34.729  30.849  1.00  0.00     0.173 A 
ATOM     99  F   UNL A   1      42.991  36.633  33.933  1.00  0.00    -0.203 F 
ATOM    100  C   UNL A   1      41.376  35.113  33.256  1.00  0.00     0.198 A 
ATOM    101  C   UNL A   1      41.454  34.130  31.086  1.00  0.00     0.198 A 
ATOM    102  F   UNL A   1      43.280  34.518  29.661  1.00  0.00    -0.203 F 
ATOM    103  F   UNL A   1      40.760  35.280  34.437  1.00  0.00    -0.200 F 
ATOM    104  C   UNL A   1      40.814  34.289  32.302  1.00  0.00     0.200 A 
ATOM    105  F   UNL A   1      40.888  33.382  30.128  1.00  0.00    -0.200 F 
ATOM    106  F   UNL A   1      39.654  33.664  32.544  1.00  0.00    -0.200 F 
ENDBRANCH  73  96
ENDBRANCH  47  48
ENDBRANCH  40  42
ENDBRANCH  39  40
ENDBRANCH  38  39
ENDBRANCH  37  38
ENDBRANCH  36  37
ENDBRANCH  35  36
ENDBRANCH  34  35
ENDBRANCH  33  34
ENDBRANCH   1  33
TORSDOF 24
ENDMDL
MODEL 3
REMARK VINA RESULT:      -8.3      8.493     16.175
REMARK SMILES Cc1c(CC(=O)OCCOCCOCCOCCOC(=O)c2ccc(-c3c4nc(c(-c5c(F)c(F)c(F)c(F)c5F)c5ccc([nH]5)c(-c5c(F)c(F)c(F)c(F)c5F)c5nc(c(-c6c(F)c(F)c(F)c(F)c6F)c6ccc3[nH]6)C=C5)C=C4)cc2)cc(-c2ccc(S(C)(=O)=O)cc2)n1-c1cccc(F)c1
REMARK SMILES IDX 12 1 11 2 10 3 9 4 8 5 7 6 5 7 6 8 4 9 3 10 1 11 2 12 97 13
REMARK SMILES IDX 85 14 86 15 98 16 99 17 104 18 100 19 102 20 101 21 103 22
REMARK SMILES IDX 87 23 88 24 96 25 89 26 95 27 90 28 91 29 92 30 93 31 94 32
REMARK SMILES IDX 13 33 14 34 15 35 16 36 17 37 18 38 19 39 20 40 21 41 22 42
REMARK SMILES IDX 23 43 84 44 24 45 83 46 25 47 26 48 27 49 77 50 28 51 82 52
REMARK SMILES IDX 76 53 78 54 29 55 81 56 75 57 74 58 30 60 62 61 42 62 61 63
REMARK SMILES IDX 43 64 46 65 60 66 79 67 44 68 45 69 59 71 80 72 47 73 31 74
REMARK SMILES IDX 32 75 40 76 33 77 34 78 38 79 41 80 35 81 36 82 39 83 37 84
REMARK SMILES IDX 63 85 64 86 72 87 65 88 66 89 70 90 73 91 67 92 68 93 71 94
REMARK SMILES IDX 69 95 48 96 49 97 57 98 50 99 51 100 55 101 58 102 52 103
REMARK SMILES IDX 53 104 56 105 54 106
REMARK H PARENT 78 59 46 70
REMARK Flexibility Score: inf
ROOT
ATOM      1  C   UNL A   1      45.896  44.509  26.943  1.00  0.00     0.188 C 
ENDROOT
BRANCH   1   2
ATOM      2  C   UNL A   1      45.706  43.204  26.149  1.00  0.00     0.188 C 
BRANCH   2   3
ATOM      3  O   UNL A   1      44.457  42.770  25.631  1.00  0.00    -0.376 OA
BRANCH   3   4
ATOM      4  C   UNL A   1      43.785  43.479  24.615  1.00  0.00     0.202 C 
BRANCH   4   5
ATOM      5  C   UNL A   1      42.615  42.827  23.856  1.00  0.00     0.261 C 
BRANCH   5   6
ATOM      6  O   UNL A   1      42.927  42.255  22.567  1.00  0.00    -0.463 OA
BRANCH   6   7
ATOM      7  C   UNL A   1      42.151  42.646  21.526  1.00  0.00     0.310 C 
ATOM      8  O   UNL A   1      40.925  42.707  21.594  1.00  0.00    -0.252 OA
BRANCH   7   9
ATOM      9  C   UNL A   1      42.871  42.907  20.210  1.00  0.00     0.160 C 
BRANCH   9  10
ATOM     10  C   UNL A   1      43.605  44.205  19.917  1.00  0.00    -0.015 A 
ATOM     11  C   UNL A   1      42.553  44.942  17.633  1.00  0.00     0.065 C 
ATOM     12  C   UNL A   1      43.476  45.049  18.805  1.00  0.00     0.024 A 
ATOM     13  N   UNL A   1      44.402  46.084  18.925  1.00  0.00    -0.313 N 
ATOM     14  C   UNL A   1      44.760  44.677  20.619  1.00  0.00     0.033 A 
ATOM     15  C   UNL A   1      45.290  45.763  19.940  1.00  0.00     0.053 A 
BRANCH  13  16
ATOM     16  C   UNL A   1      44.509  47.254  18.123  1.00  0.00     0.049 A 
ATOM     17  C   UNL A   1      45.391  47.284  17.036  1.00  0.00     0.027 A 
ATOM     18  C   UNL A   1      43.922  48.437  18.581  1.00  0.00     0.065 A 
ATOM     19  C   UNL A   1      45.665  48.497  16.392  1.00  0.00     0.005 A 
ATOM     20  C   UNL A   1      44.203  49.631  17.917  1.00  0.00     0.125 A 
ATOM     21  C   UNL A   1      45.066  49.673  16.833  1.00  0.00     0.039 A 
ATOM     22  F   UNL A   1      43.682  50.789  18.330  1.00  0.00    -0.207 F 
ENDBRANCH  13  16
BRANCH  15  23
ATOM     23  C   UNL A   1      46.582  46.436  20.100  1.00  0.00    -0.001 A 
ATOM     24  C   UNL A   1      47.741  45.961  19.471  1.00  0.00     0.011 A 
ATOM     25  C   UNL A   1      46.679  47.505  21.003  1.00  0.00     0.011 A 
ATOM     26  C   UNL A   1      48.985  46.535  19.753  1.00  0.00     0.021 A 
ATOM     27  C   UNL A   1      47.917  48.081  21.290  1.00  0.00     0.021 A 
ATOM     28  C   UNL A   1      49.065  47.587  20.672  1.00  0.00     0.067 A 
BRANCH  28  29
ATOM     29  S   UNL A   1      50.646  48.333  20.997  1.00  0.00     0.175 S 
ATOM     30  C   UNL A   1      50.292  49.665  22.113  1.00  0.00     0.163 C 
ATOM     31  O   UNL A   1      51.446  47.357  21.681  1.00  0.00    -0.224 OA
ATOM     32  O   UNL A   1      51.106  48.939  19.744  1.00  0.00    -0.224 OA
ENDBRANCH  28  29
ENDBRANCH  15  23
ENDBRANCH   9  10
ENDBRANCH   7   9
ENDBRANCH   6   7
ENDBRANCH   5   6
ENDBRANCH   4   5
ENDBRANCH   3   4
ENDBRANCH   2   3
ENDBRANCH   1   2
BRANCH   1  33
ATOM     33  O   UNL A   1      45.796  44.674  28.337  1.00  0.00    -0.377 OA
BRANCH  33  34
ATOM     34  C   UNL A   1      44.848  43.960  29.076  1.00  0.00     0.188 C 
BRANCH  34  35
ATOM     35  C   UNL A   1      44.197  44.816  30.154  1.00  0.00     0.188 C 
BRANCH  35  36
ATOM     36  O   UNL A   1      43.152  44.216  30.909  1.00  0.00    -0.376 OA
BRANCH  36  37
ATOM     37  C   UNL A   1      43.239  44.214  32.343  1.00  0.00     0.202 C 
BRANCH  37  38
ATOM     38  C   UNL A   1      44.649  44.276  33.005  1.00  0.00     0.261 C 
BRANCH  38  39
ATOM     39  O   UNL A   1      45.306  43.017  33.455  1.00  0.00    -0.460 OA
BRANCH  39  40
ATOM     40  C   UNL A   1      45.704  42.165  32.437  1.00  0.00     0.338 C 
ATOM     41  O   UNL A   1      46.499  42.519  31.571  1.00  0.00    -0.246 OA
BRANCH  40  42
ATOM     42  C   UNL A   1      45.170  40.707  32.380  1.00  0.00     0.060 A 
ATOM     43  C   UNL A   1      43.836  40.459  32.673  1.00  0.00     0.016 A 
ATOM     44  C   UNL A   1      45.978  39.543  32.455  1.00  0.00     0.016 A 
ATOM     45  C   UNL A   1      43.350  39.127  32.993  1.00  0.00     0.010 A 
ATOM     46  C   UNL A   1      45.484  38.187  32.857  1.00  0.00     0.010 A 
ATOM     47  C   UNL A   1      44.139  37.920  33.179  1.00  0.00    -0.014 A 
BRANCH  47  48
ATOM     48  C   UNL A   1      43.458  36.681  34.099  1.00  0.00     0.031 A 
ATOM     49  C   UNL A   1      44.206  35.499  33.586  1.00  0.00     0.074 A 
ATOM     50  C   UNL A   1      42.444  36.276  35.004  1.00  0.00     0.049 A 
ATOM     51  N   UNL A   1      44.190  35.246  32.306  1.00  0.00    -0.248 NA
ATOM     52  C   UNL A   1      45.268  34.824  34.333  1.00  0.00     0.031 C 
ATOM     53  C   UNL A   1      41.340  37.074  35.578  1.00  0.00     0.029 A 
ATOM     54  N   UNL A   1      42.134  35.001  35.648  1.00  0.00    -0.354 N 
ATOM     55  C   UNL A   1      45.020  34.175  32.120  1.00  0.00     0.074 A 
ATOM     56  C   UNL A   1      45.812  34.108  33.341  1.00  0.00     0.031 C 
ATOM     57  C   UNL A   1      40.611  36.379  36.509  1.00  0.00     0.029 A 
ATOM     58  C   UNL A   1      41.074  34.994  36.652  1.00  0.00     0.049 A 
ATOM     59  H   UNL A   1      42.621  34.178  35.413  1.00  0.00     0.167 HD
ATOM     60  C   UNL A   1      44.496  33.166  31.369  1.00  0.00     0.037 A 
ATOM     61  C   UNL A   1      40.533  33.979  37.464  1.00  0.00     0.037 A 
ATOM     62  C   UNL A   1      44.082  32.057  32.180  1.00  0.00     0.049 A 
ATOM     63  C   UNL A   1      40.782  32.705  36.781  1.00  0.00     0.074 A 
ATOM     64  C   UNL A   1      44.649  31.429  33.270  1.00  0.00     0.029 A 
ATOM     65  N   UNL A   1      42.733  31.777  32.220  1.00  0.00    -0.354 N 
ATOM     66  N   UNL A   1      40.015  32.326  35.807  1.00  0.00    -0.248 NA
ATOM     67  C   UNL A   1      41.736  31.703  37.244  1.00  0.00     0.031 C 
ATOM     68  C   UNL A   1      43.585  31.304  34.188  1.00  0.00     0.029 A 
ATOM     69  C   UNL A   1      42.383  31.478  33.514  1.00  0.00     0.049 A 
ATOM     70  H   UNL A   1      42.122  31.789  31.448  1.00  0.00     0.167 HD
ATOM     71  C   UNL A   1      40.734  31.350  35.212  1.00  0.00     0.074 A 
ATOM     72  C   UNL A   1      41.585  30.813  36.257  1.00  0.00     0.031 C 
ATOM     73  C   UNL A   1      41.005  31.586  33.907  1.00  0.00     0.037 A 
BRANCH  60  74
ATOM     74  C   UNL A   1      43.750  33.653  30.157  1.00  0.00     0.064 A 
ATOM     75  C   UNL A   1      44.383  33.624  28.913  1.00  0.00     0.173 A 
ATOM     76  C   UNL A   1      42.490  34.287  30.231  1.00  0.00     0.173 A 
ATOM     77  F   UNL A   1      45.548  32.975  28.768  1.00  0.00    -0.203 F 
ATOM     78  C   UNL A   1      43.819  34.263  27.809  1.00  0.00     0.198 A 
ATOM     79  C   UNL A   1      41.966  34.985  29.150  1.00  0.00     0.198 A 
ATOM     80  F   UNL A   1      41.758  34.229  31.356  1.00  0.00    -0.203 F 
ATOM     81  F   UNL A   1      44.426  34.194  26.617  1.00  0.00    -0.200 F 
ATOM     82  C   UNL A   1      42.635  34.977  27.940  1.00  0.00     0.200 A 
ATOM     83  F   UNL A   1      40.815  35.660  29.285  1.00  0.00    -0.200 F 
ATOM     84  F   UNL A   1      42.122  35.633  26.890  1.00  0.00    -0.200 F 
ENDBRANCH  60  74
BRANCH  61  85
ATOM     85  C   UNL A   1      39.570  33.631  38.674  1.00  0.00     0.064 A 
ATOM     86  C   UNL A   1      38.177  33.295  38.463  1.00  0.00     0.173 A 
ATOM     87  C   UNL A   1      40.053  33.159  39.904  1.00  0.00     0.173 A 
ATOM     88  F   UNL A   1      37.510  33.714  37.380  1.00  0.00    -0.203 F 
ATOM     89  C   UNL A   1      37.415  32.467  39.312  1.00  0.00     0.198 A 
ATOM     90  C   UNL A   1      39.263  32.366  40.789  1.00  0.00     0.198 A 
ATOM     91  F   UNL A   1      41.330  33.373  40.242  1.00  0.00    -0.203 F 
ATOM     92  F   UNL A   1      36.175  32.088  38.959  1.00  0.00    -0.200 F 
ATOM     93  C   UNL A   1      37.967  31.987  40.473  1.00  0.00     0.200 A 
ATOM     94  F   UNL A   1      39.796  31.904  41.929  1.00  0.00    -0.200 F 
ATOM     95  F   UNL A   1      37.271  31.150  41.261  1.00  0.00    -0.200 F 
ENDBRANCH  61  85
BRANCH  73  96
ATOM     96  C   UNL A   1      39.846  32.124  33.073  1.00  0.00     0.064 A 
ATOM     97  C   UNL A   1      39.348  33.454  33.055  1.00  0.00     0.173 A 
ATOM     98  C   UNL A   1      39.096  31.187  32.353  1.00  0.00     0.173 A 
ATOM     99  F   UNL A   1      40.035  34.483  33.570  1.00  0.00    -0.203 F 
ATOM    100  C   UNL A   1      38.115  33.775  32.479  1.00  0.00     0.198 A 
ATOM    101  C   UNL A   1      37.897  31.524  31.724  1.00  0.00     0.198 A 
ATOM    102  F   UNL A   1      39.531  29.922  32.251  1.00  0.00    -0.203 F 
ATOM    103  F   UNL A   1      37.632  35.023  32.572  1.00  0.00    -0.200 F 
ATOM    104  C   UNL A   1      37.386  32.806  31.820  1.00  0.00     0.200 A 
ATOM    105  F   UNL A   1      37.229  30.590  31.033  1.00  0.00    -0.200 F 
ATOM    106  F   UNL A   1      36.205  33.108  31.263  1.00  0.00    -0.200 F 
ENDBRANCH  73  96
ENDBRANCH  47  48
ENDBRANCH  40  42
ENDBRANCH  39  40
ENDBRANCH  38  39
ENDBRANCH  37  38
ENDBRANCH  36  37
ENDBRANCH  35  36
ENDBRANCH  34  35
ENDBRANCH  33  34
ENDBRANCH   1  33
TORSDOF 24
ENDMDL
