MODEL 1
REMARK VINA RESULT:      -9.9      0.000      0.000
REMARK SMILES O=C(OCCOCCOCCOCCOC(=O)[C@H]([C@@H]1CCOC1)[C@@H]1CCS(=O)(=O)C1)c1ccc(-c2c3nc(c(-c4c(F)c(F)c(F)c(F)c4F)c4ccc([nH]4)c(-c4c(F)c(F)c(F)c(F)c4F)c4nc(c(-c5c(F)c(F)c(F)c(F)c5F)c5ccc2[nH]5)C=C4)C=C3)cc1
REMARK SMILES IDX 8 1 7 2 6 3 5 4 4 5 3 6 2 7 1 8 31 9 32 10 93 11 33 12 92 13
REMARK SMILES IDX 34 14 35 15 36 16 86 17 37 18 91 19 85 20 87 21 38 22 90 23
REMARK SMILES IDX 84 24 83 25 39 27 71 28 51 29 70 30 52 31 55 32 69 33 88 34
REMARK SMILES IDX 53 35 54 36 68 38 89 39 56 40 40 41 41 42 49 43 42 44 43 45
REMARK SMILES IDX 47 46 50 47 44 48 45 49 48 50 46 51 72 52 73 53 81 54 74 55
REMARK SMILES IDX 75 56 79 57 82 58 76 59 77 60 80 61 78 62 57 63 58 64 66 65
REMARK SMILES IDX 59 66 60 67 64 68 67 69 61 70 62 71 65 72 63 73 9 74 10 75
REMARK SMILES IDX 11 76 12 77 13 78 14 79 15 80 16 81 17 82 18 83 24 84 25 85
REMARK SMILES IDX 30 86 26 87 27 88 28 89 29 90 19 91 20 92 23 93 21 94 22 95
REMARK H PARENT 87 26 55 37
REMARK Flexibility Score: inf
ROOT
ATOM      1  C   UNL A   1      32.905  26.293  26.470  1.00  0.00     0.188 C 
ENDROOT
BRANCH   1   2
ATOM      2  C   UNL A   1      33.508  27.064  25.294  1.00  0.00     0.188 C 
BRANCH   2   3
ATOM      3  O   UNL A   1      32.486  27.834  24.674  1.00  0.00    -0.376 OA
BRANCH   3   4
ATOM      4  C   UNL A   1      32.565  29.250  24.708  1.00  0.00     0.202 C 
BRANCH   4   5
ATOM      5  C   UNL A   1      32.335  29.897  26.069  1.00  0.00     0.261 C 
BRANCH   5   6
ATOM      6  O   UNL A   1      32.759  31.270  26.159  1.00  0.00    -0.460 OA
BRANCH   6   7
ATOM      7  C   UNL A   1      33.361  31.913  27.191  1.00  0.00     0.338 C 
ATOM      8  O   UNL A   1      32.831  32.911  27.674  1.00  0.00    -0.246 OA
BRANCH   7   9
ATOM      9  C   UNL A   1      34.618  31.424  27.809  1.00  0.00     0.060 A 
ATOM     10  C   UNL A   1      34.842  30.099  28.152  1.00  0.00     0.016 A 
ATOM     11  C   UNL A   1      35.678  32.324  27.958  1.00  0.00     0.016 A 
ATOM     12  C   UNL A   1      35.964  29.706  28.847  1.00  0.00     0.010 A 
ATOM     13  C   UNL A   1      36.884  31.906  28.533  1.00  0.00     0.010 A 
ATOM     14  C   UNL A   1      37.002  30.605  29.041  1.00  0.00    -0.014 A 
BRANCH  14  15
ATOM     15  C   UNL A   1      38.111  30.172  29.910  1.00  0.00     0.031 A 
ATOM     16  C   UNL A   1      39.177  29.311  29.302  1.00  0.00     0.074 A 
ATOM     17  C   UNL A   1      38.248  30.702  31.140  1.00  0.00     0.049 A 
ATOM     18  N   UNL A   1      40.207  28.746  29.866  1.00  0.00    -0.248 NA
ATOM     19  C   UNL A   1      39.070  29.055  27.854  1.00  0.00     0.031 C 
ATOM     20  C   UNL A   1      37.331  31.672  31.753  1.00  0.00     0.029 A 
ATOM     21  N   UNL A   1      39.233  30.548  32.078  1.00  0.00    -0.354 N 
ATOM     22  C   UNL A   1      40.840  28.034  28.856  1.00  0.00     0.074 A 
ATOM     23  C   UNL A   1      40.076  28.223  27.646  1.00  0.00     0.031 C 
ATOM     24  C   UNL A   1      37.824  32.060  32.938  1.00  0.00     0.029 A 
ATOM     25  C   UNL A   1      39.026  31.287  33.218  1.00  0.00     0.049 A 
ATOM     26  H   UNL A   1      40.015  29.964  31.948  1.00  0.00     0.167 HD
ATOM     27  C   UNL A   1      41.966  27.291  28.944  1.00  0.00     0.037 A 
ATOM     28  C   UNL A   1      39.707  31.287  34.378  1.00  0.00     0.037 A 
ATOM     29  C   UNL A   1      42.709  27.145  30.164  1.00  0.00     0.049 A 
ATOM     30  C   UNL A   1      40.896  30.371  34.480  1.00  0.00     0.074 A 
ATOM     31  C   UNL A   1      43.806  26.348  30.425  1.00  0.00     0.029 A 
ATOM     32  N   UNL A   1      42.424  27.841  31.334  1.00  0.00    -0.354 N 
ATOM     33  N   UNL A   1      41.426  29.599  33.560  1.00  0.00    -0.248 NA
ATOM     34  C   UNL A   1      41.570  30.306  35.780  1.00  0.00     0.031 C 
ATOM     35  C   UNL A   1      44.162  26.534  31.766  1.00  0.00     0.029 A 
ATOM     36  C   UNL A   1      43.321  27.487  32.324  1.00  0.00     0.049 A 
ATOM     37  H   UNL A   1      41.691  28.489  31.441  1.00  0.00     0.167 HD
ATOM     38  C   UNL A   1      42.498  28.962  34.164  1.00  0.00     0.074 A 
ATOM     39  C   UNL A   1      42.564  29.471  35.521  1.00  0.00     0.031 C 
ATOM     40  C   UNL A   1      43.345  28.031  33.660  1.00  0.00     0.037 A 
BRANCH  27  41
ATOM     41  C   UNL A   1      42.389  26.545  27.715  1.00  0.00     0.064 A 
ATOM     42  C   UNL A   1      41.908  25.261  27.419  1.00  0.00     0.173 A 
ATOM     43  C   UNL A   1      43.331  27.108  26.840  1.00  0.00     0.173 A 
ATOM     44  F   UNL A   1      41.035  24.660  28.243  1.00  0.00    -0.203 F 
ATOM     45  C   UNL A   1      42.374  24.557  26.310  1.00  0.00     0.198 A 
ATOM     46  C   UNL A   1      43.773  26.414  25.717  1.00  0.00     0.198 A 
ATOM     47  F   UNL A   1      43.836  28.326  27.085  1.00  0.00    -0.203 F 
ATOM     48  F   UNL A   1      41.948  23.307  26.084  1.00  0.00    -0.200 F 
ATOM     49  C   UNL A   1      43.302  25.136  25.458  1.00  0.00     0.200 A 
ATOM     50  F   UNL A   1      44.672  26.976  24.896  1.00  0.00    -0.200 F 
ATOM     51  F   UNL A   1      43.755  24.456  24.396  1.00  0.00    -0.200 F 
ENDBRANCH  27  41
BRANCH  28  52
ATOM     52  C   UNL A   1      39.235  32.093  35.539  1.00  0.00     0.064 A 
ATOM     53  C   UNL A   1      39.613  33.433  35.707  1.00  0.00     0.173 A 
ATOM     54  C   UNL A   1      38.419  31.525  36.531  1.00  0.00     0.173 A 
ATOM     55  F   UNL A   1      40.407  34.023  34.802  1.00  0.00    -0.203 F 
ATOM     56  C   UNL A   1      39.219  34.159  36.832  1.00  0.00     0.198 A 
ATOM     57  C   UNL A   1      37.992  32.264  37.634  1.00  0.00     0.198 A 
ATOM     58  F   UNL A   1      38.023  30.248  36.428  1.00  0.00    -0.203 F 
ATOM     59  F   UNL A   1      39.648  35.418  36.997  1.00  0.00    -0.200 F 
ATOM     60  C   UNL A   1      38.405  33.576  37.790  1.00  0.00     0.200 A 
ATOM     61  F   UNL A   1      37.189  31.698  38.545  1.00  0.00    -0.200 F 
ATOM     62  F   UNL A   1      38.028  34.274  38.870  1.00  0.00    -0.200 F 
ENDBRANCH  28  52
BRANCH  40  63
ATOM     63  C   UNL A   1      44.423  27.542  34.578  1.00  0.00     0.064 A 
ATOM     64  C   UNL A   1      45.666  28.186  34.659  1.00  0.00     0.173 A 
ATOM     65  C   UNL A   1      44.196  26.432  35.404  1.00  0.00     0.173 A 
ATOM     66  F   UNL A   1      45.933  29.241  33.874  1.00  0.00    -0.203 F 
ATOM     67  C   UNL A   1      46.659  27.711  35.509  1.00  0.00     0.198 A 
ATOM     68  C   UNL A   1      45.177  25.982  36.279  1.00  0.00     0.198 A 
ATOM     69  F   UNL A   1      43.018  25.791  35.366  1.00  0.00    -0.203 F 
ATOM     70  F   UNL A   1      47.861  28.301  35.526  1.00  0.00    -0.200 F 
ATOM     71  C   UNL A   1      46.411  26.615  36.323  1.00  0.00     0.200 A 
ATOM     72  F   UNL A   1      44.932  24.934  37.076  1.00  0.00    -0.200 F 
ATOM     73  F   UNL A   1      47.368  26.162  37.145  1.00  0.00    -0.200 F 
ENDBRANCH  40  63
ENDBRANCH  14  15
ENDBRANCH   7   9
ENDBRANCH   6   7
ENDBRANCH   5   6
ENDBRANCH   4   5
ENDBRANCH   3   4
ENDBRANCH   2   3
ENDBRANCH   1   2
BRANCH   1  74
ATOM     74  O   UNL A   1      32.689  24.906  26.221  1.00  0.00    -0.377 OA
BRANCH  74  75
ATOM     75  C   UNL A   1      31.345  24.456  26.334  1.00  0.00     0.188 C 
BRANCH  75  76
ATOM     76  C   UNL A   1      30.193  25.425  25.955  1.00  0.00     0.188 C 
BRANCH  76  77
ATOM     77  O   UNL A   1      29.933  25.563  24.562  1.00  0.00    -0.376 OA
BRANCH  77  78
ATOM     78  C   UNL A   1      30.562  24.573  23.744  1.00  0.00     0.202 C 
BRANCH  78  79
ATOM     79  C   UNL A   1      31.459  25.131  22.630  1.00  0.00     0.261 C 
BRANCH  79  80
ATOM     80  O   UNL A   1      32.872  24.964  22.863  1.00  0.00    -0.463 OA
BRANCH  80  81
ATOM     81  C   UNL A   1      33.458  23.807  22.470  1.00  0.00     0.309 C 
ATOM     82  O   UNL A   1      33.468  23.395  21.320  1.00  0.00    -0.252 OA
BRANCH  81  83
ATOM     83  C   UNL A   1      34.106  23.100  23.677  1.00  0.00     0.109 C 
BRANCH  83  84
ATOM     84  C   UNL A   1      33.911  21.569  23.512  1.00  0.00     0.019 C 
ATOM     85  C   UNL A   1      32.408  21.169  23.450  1.00  0.00     0.021 C 
ATOM     86  C   UNL A   1      34.446  20.694  24.662  1.00  0.00     0.141 C 
ATOM     87  C   UNL A   1      31.844  21.196  24.868  1.00  0.00     0.137 C 
ATOM     88  S   UNL A   1      33.158  20.576  25.894  1.00  0.00     0.150 S 
ATOM     89  O   UNL A   1      33.428  21.557  26.937  1.00  0.00    -0.229 OA
ATOM     90  O   UNL A   1      32.916  19.188  26.183  1.00  0.00    -0.229 OA
ENDBRANCH  83  84
BRANCH  83  91
ATOM     91  C   UNL A   1      35.534  23.713  23.888  1.00  0.00     0.032 C 
ATOM     92  C   UNL A   1      36.721  22.953  23.338  1.00  0.00     0.035 C 
ATOM     93  C   UNL A   1      35.976  23.940  25.323  1.00  0.00     0.164 C 
ATOM     94  C   UNL A   1      37.188  22.126  24.507  1.00  0.00     0.160 C 
ATOM     95  O   UNL A   1      36.727  22.780  25.697  1.00  0.00    -0.381 OA
ENDBRANCH  83  91
ENDBRANCH  81  83
ENDBRANCH  80  81
ENDBRANCH  79  80
ENDBRANCH  78  79
ENDBRANCH  77  78
ENDBRANCH  76  77
ENDBRANCH  75  76
ENDBRANCH  74  75
ENDBRANCH   1  74
TORSDOF 22
ENDMDL
MODEL 2
REMARK VINA RESULT:      -9.5      1.729      2.870
REMARK SMILES O=C(OCCOCCOCCOCCOC(=O)[C@H]([C@@H]1CCOC1)[C@@H]1CCS(=O)(=O)C1)c1ccc(-c2c3nc(c(-c4c(F)c(F)c(F)c(F)c4F)c4ccc([nH]4)c(-c4c(F)c(F)c(F)c(F)c4F)c4nc(c(-c5c(F)c(F)c(F)c(F)c5F)c5ccc2[nH]5)C=C4)C=C3)cc1
REMARK SMILES IDX 8 1 7 2 6 3 5 4 4 5 3 6 2 7 1 8 31 9 32 10 93 11 33 12 92 13
REMARK SMILES IDX 34 14 35 15 36 16 86 17 37 18 91 19 85 20 87 21 38 22 90 23
REMARK SMILES IDX 84 24 83 25 39 27 71 28 51 29 70 30 52 31 55 32 69 33 88 34
REMARK SMILES IDX 53 35 54 36 68 38 89 39 56 40 40 41 41 42 49 43 42 44 43 45
REMARK SMILES IDX 47 46 50 47 44 48 45 49 48 50 46 51 72 52 73 53 81 54 74 55
REMARK SMILES IDX 75 56 79 57 82 58 76 59 77 60 80 61 78 62 57 63 58 64 66 65
REMARK SMILES IDX 59 66 60 67 64 68 67 69 61 70 62 71 65 72 63 73 9 74 10 75
REMARK SMILES IDX 11 76 12 77 13 78 14 79 15 80 16 81 17 82 18 83 24 84 25 85
REMARK SMILES IDX 30 86 26 87 27 88 28 89 29 90 19 91 20 92 23 93 21 94 22 95
REMARK H PARENT 87 26 55 37
REMARK Flexibility Score: inf
ROOT
ATOM      1  C   UNL A   1      31.781  29.129  25.679  1.00  0.00     0.188 C 
ENDROOT
BRANCH   1   2
ATOM      2  C   UNL A   1      31.325  30.589  25.625  1.00  0.00     0.188 C 
BRANCH   2   3
ATOM      3  O   UNL A   1      31.844  31.277  26.756  1.00  0.00    -0.376 OA
BRANCH   3   4
ATOM      4  C   UNL A   1      31.585  32.663  26.907  1.00  0.00     0.202 C 
BRANCH   4   5
ATOM      5  C   UNL A   1      32.789  33.530  27.257  1.00  0.00     0.261 C 
BRANCH   5   6
ATOM      6  O   UNL A   1      32.526  34.556  28.233  1.00  0.00    -0.460 OA
BRANCH   6   7
ATOM      7  C   UNL A   1      33.283  34.947  29.288  1.00  0.00     0.338 C 
ATOM      8  O   UNL A   1      32.994  35.978  29.892  1.00  0.00    -0.246 OA
BRANCH   7   9
ATOM      9  C   UNL A   1      34.425  34.143  29.790  1.00  0.00     0.060 A 
ATOM     10  C   UNL A   1      34.280  32.993  30.552  1.00  0.00     0.016 A 
ATOM     11  C   UNL A   1      35.715  34.500  29.387  1.00  0.00     0.016 A 
ATOM     12  C   UNL A   1      35.361  32.351  31.114  1.00  0.00     0.010 A 
ATOM     13  C   UNL A   1      36.822  33.768  29.832  1.00  0.00     0.010 A 
ATOM     14  C   UNL A   1      36.646  32.728  30.755  1.00  0.00    -0.014 A 
BRANCH  14  15
ATOM     15  C   UNL A   1      37.759  32.103  31.492  1.00  0.00     0.031 A 
ATOM     16  C   UNL A   1      38.593  31.090  30.768  1.00  0.00     0.074 A 
ATOM     17  C   UNL A   1      38.119  32.580  32.699  1.00  0.00     0.049 A 
ATOM     18  N   UNL A   1      39.573  30.354  31.210  1.00  0.00    -0.248 NA
ATOM     19  C   UNL A   1      38.284  30.883  29.340  1.00  0.00     0.031 C 
ATOM     20  C   UNL A   1      37.450  33.675  33.413  1.00  0.00     0.029 A 
ATOM     21  N   UNL A   1      39.164  32.248  33.519  1.00  0.00    -0.354 N 
ATOM     22  C   UNL A   1      39.962  29.567  30.134  1.00  0.00     0.074 A 
ATOM     23  C   UNL A   1      39.109  29.901  29.020  1.00  0.00     0.031 C 
ATOM     24  C   UNL A   1      38.130  33.955  34.534  1.00  0.00     0.029 A 
ATOM     25  C   UNL A   1      39.211  32.989  34.676  1.00  0.00     0.049 A 
ATOM     26  H   UNL A   1      39.820  31.547  33.301  1.00  0.00     0.167 HD
ATOM     27  C   UNL A   1      40.952  28.647  30.094  1.00  0.00     0.037 A 
ATOM     28  C   UNL A   1      40.008  32.856  35.750  1.00  0.00     0.037 A 
ATOM     29  C   UNL A   1      41.793  28.358  31.221  1.00  0.00     0.049 A 
ATOM     30  C   UNL A   1      41.034  31.755  35.716  1.00  0.00     0.074 A 
ATOM     31  C   UNL A   1      42.765  27.387  31.356  1.00  0.00     0.029 A 
ATOM     32  N   UNL A   1      41.761  29.069  32.416  1.00  0.00    -0.354 N 
ATOM     33  N   UNL A   1      41.322  30.925  34.741  1.00  0.00    -0.248 NA
ATOM     34  C   UNL A   1      41.829  31.557  36.931  1.00  0.00     0.031 C 
ATOM     35  C   UNL A   1      43.296  27.487  32.647  1.00  0.00     0.029 A 
ATOM     36  C   UNL A   1      42.692  28.554  33.298  1.00  0.00     0.049 A 
ATOM     37  H   UNL A   1      41.162  29.827  32.606  1.00  0.00     0.167 HD
ATOM     38  C   UNL A   1      42.335  30.109  35.220  1.00  0.00     0.074 A 
ATOM     39  C   UNL A   1      42.637  30.575  36.561  1.00  0.00     0.031 C 
ATOM     40  C   UNL A   1      42.955  29.061  34.622  1.00  0.00     0.037 A 
BRANCH  27  41
ATOM     41  C   UNL A   1      41.106  27.865  28.824  1.00  0.00     0.064 A 
ATOM     42  C   UNL A   1      40.346  26.716  28.560  1.00  0.00     0.173 A 
ATOM     43  C   UNL A   1      42.066  28.248  27.875  1.00  0.00     0.173 A 
ATOM     44  F   UNL A   1      39.442  26.284  29.452  1.00  0.00    -0.203 F 
ATOM     45  C   UNL A   1      40.560  25.964  27.407  1.00  0.00     0.198 A 
ATOM     46  C   UNL A   1      42.258  27.510  26.710  1.00  0.00     0.198 A 
ATOM     47  F   UNL A   1      42.831  29.329  28.086  1.00  0.00    -0.203 F 
ATOM     48  F   UNL A   1      39.868  24.834  27.207  1.00  0.00    -0.200 F 
ATOM     49  C   UNL A   1      41.513  26.364  26.480  1.00  0.00     0.200 A 
ATOM     50  F   UNL A   1      43.180  27.899  25.817  1.00  0.00    -0.200 F 
ATOM     51  F   UNL A   1      41.723  25.636  25.376  1.00  0.00    -0.200 F 
ENDBRANCH  27  41
BRANCH  28  52
ATOM     52  C   UNL A   1      39.810  33.707  36.957  1.00  0.00     0.064 A 
ATOM     53  C   UNL A   1      38.919  33.343  37.976  1.00  0.00     0.173 A 
ATOM     54  C   UNL A   1      40.488  34.929  37.101  1.00  0.00     0.173 A 
ATOM     55  F   UNL A   1      38.229  32.197  37.885  1.00  0.00    -0.203 F 
ATOM     56  C   UNL A   1      38.692  34.179  39.070  1.00  0.00     0.198 A 
ATOM     57  C   UNL A   1      40.292  35.744  38.214  1.00  0.00     0.198 A 
ATOM     58  F   UNL A   1      41.354  35.333  36.160  1.00  0.00    -0.203 F 
ATOM     59  F   UNL A   1      37.788  33.835  39.997  1.00  0.00    -0.200 F 
ATOM     60  C   UNL A   1      39.383  35.375  39.191  1.00  0.00     0.200 A 
ATOM     61  F   UNL A   1      40.979  36.888  38.333  1.00  0.00    -0.200 F 
ATOM     62  F   UNL A   1      39.165  36.177  40.242  1.00  0.00    -0.200 F 
ENDBRANCH  28  52
BRANCH  40  63
ATOM     63  C   UNL A   1      44.034  28.385  35.411  1.00  0.00     0.064 A 
ATOM     64  C   UNL A   1      45.357  28.849  35.394  1.00  0.00     0.173 A 
ATOM     65  C   UNL A   1      43.730  27.275  36.213  1.00  0.00     0.173 A 
ATOM     66  F   UNL A   1      45.695  29.897  34.628  1.00  0.00    -0.203 F 
ATOM     67  C   UNL A   1      46.347  28.202  36.125  1.00  0.00     0.198 A 
ATOM     68  C   UNL A   1      44.715  26.653  36.971  1.00  0.00     0.198 A 
ATOM     69  F   UNL A   1      42.476  26.803  36.267  1.00  0.00    -0.203 F 
ATOM     70  F   UNL A   1      47.617  28.622  36.047  1.00  0.00    -0.200 F 
ATOM     71  C   UNL A   1      46.024  27.110  36.918  1.00  0.00     0.200 A 
ATOM     72  F   UNL A   1      44.400  25.609  37.748  1.00  0.00    -0.200 F 
ATOM     73  F   UNL A   1      46.979  26.490  37.624  1.00  0.00    -0.200 F 
ENDBRANCH  40  63
ENDBRANCH  14  15
ENDBRANCH   7   9
ENDBRANCH   6   7
ENDBRANCH   5   6
ENDBRANCH   4   5
ENDBRANCH   3   4
ENDBRANCH   2   3
ENDBRANCH   1   2
BRANCH   1  74
ATOM     74  O   UNL A   1      31.017  28.240  24.868  1.00  0.00    -0.377 OA
BRANCH  74  75
ATOM     75  C   UNL A   1      31.144  28.417  23.462  1.00  0.00     0.188 C 
BRANCH  75  76
ATOM     76  C   UNL A   1      32.551  28.679  22.861  1.00  0.00     0.188 C 
BRANCH  76  77
ATOM     77  O   UNL A   1      33.100  27.621  22.084  1.00  0.00    -0.376 OA
BRANCH  77  78
ATOM     78  C   UNL A   1      32.297  26.439  22.048  1.00  0.00     0.202 C 
BRANCH  78  79
ATOM     79  C   UNL A   1      32.902  25.271  21.257  1.00  0.00     0.261 C 
BRANCH  79  80
ATOM     80  O   UNL A   1      33.712  24.374  22.044  1.00  0.00    -0.463 OA
BRANCH  80  81
ATOM     81  C   UNL A   1      33.136  23.251  22.539  1.00  0.00     0.309 C 
ATOM     82  O   UNL A   1      32.904  22.247  21.883  1.00  0.00    -0.252 OA
BRANCH  81  83
ATOM     83  C   UNL A   1      32.824  23.429  24.039  1.00  0.00     0.109 C 
BRANCH  83  84
ATOM     84  C   UNL A   1      31.331  23.081  24.274  1.00  0.00     0.019 C 
ATOM     85  C   UNL A   1      30.446  24.352  24.428  1.00  0.00     0.021 C 
ATOM     86  C   UNL A   1      31.017  22.294  25.561  1.00  0.00     0.141 C 
ATOM     87  C   UNL A   1      30.648  24.912  25.834  1.00  0.00     0.137 C 
ATOM     88  S   UNL A   1      30.795  23.480  26.878  1.00  0.00     0.150 S 
ATOM     89  O   UNL A   1      32.044  23.580  27.622  1.00  0.00    -0.229 OA
ATOM     90  O   UNL A   1      29.531  23.232  27.520  1.00  0.00    -0.229 OA
ENDBRANCH  83  84
BRANCH  83  91
ATOM     91  C   UNL A   1      33.957  22.716  24.856  1.00  0.00     0.032 C 
ATOM     92  C   UNL A   1      34.687  23.523  25.909  1.00  0.00     0.035 C 
ATOM     93  C   UNL A   1      35.123  22.155  24.062  1.00  0.00     0.164 C 
ATOM     94  C   UNL A   1      35.898  24.045  25.181  1.00  0.00     0.160 C 
ATOM     95  O   UNL A   1      36.138  23.165  24.074  1.00  0.00    -0.381 OA
ENDBRANCH  83  91
ENDBRANCH  81  83
ENDBRANCH  80  81
ENDBRANCH  79  80
ENDBRANCH  78  79
ENDBRANCH  77  78
ENDBRANCH  76  77
ENDBRANCH  75  76
ENDBRANCH  74  75
ENDBRANCH   1  74
TORSDOF 22
ENDMDL
MODEL 3
REMARK VINA RESULT:      -9.5      2.778      8.283
REMARK SMILES O=C(OCCOCCOCCOCCOC(=O)[C@H]([C@@H]1CCOC1)[C@@H]1CCS(=O)(=O)C1)c1ccc(-c2c3nc(c(-c4c(F)c(F)c(F)c(F)c4F)c4ccc([nH]4)c(-c4c(F)c(F)c(F)c(F)c4F)c4nc(c(-c5c(F)c(F)c(F)c(F)c5F)c5ccc2[nH]5)C=C4)C=C3)cc1
REMARK SMILES IDX 8 1 7 2 6 3 5 4 4 5 3 6 2 7 1 8 31 9 32 10 93 11 33 12 92 13
REMARK SMILES IDX 34 14 35 15 36 16 86 17 37 18 91 19 85 20 87 21 38 22 90 23
REMARK SMILES IDX 84 24 83 25 39 27 71 28 51 29 70 30 52 31 55 32 69 33 88 34
REMARK SMILES IDX 53 35 54 36 68 38 89 39 56 40 40 41 41 42 49 43 42 44 43 45
REMARK SMILES IDX 47 46 50 47 44 48 45 49 48 50 46 51 72 52 73 53 81 54 74 55
REMARK SMILES IDX 75 56 79 57 82 58 76 59 77 60 80 61 78 62 57 63 58 64 66 65
REMARK SMILES IDX 59 66 60 67 64 68 67 69 61 70 62 71 65 72 63 73 9 74 10 75
REMARK SMILES IDX 11 76 12 77 13 78 14 79 15 80 16 81 17 82 18 83 24 84 25 85
REMARK SMILES IDX 30 86 26 87 27 88 28 89 29 90 19 91 20 92 23 93 21 94 22 95
REMARK H PARENT 87 26 55 37
REMARK Flexibility Score: inf
ROOT
ATOM      1  C   UNL A   1      41.194  22.408  26.318  1.00  0.00     0.188 C 
ENDROOT
BRANCH   1   2
ATOM      2  C   UNL A   1      42.148  21.228  26.124  1.00  0.00     0.188 C 
BRANCH   2   3
ATOM      3  O   UNL A   1      43.011  21.508  25.029  1.00  0.00    -0.376 OA
BRANCH   3   4
ATOM      4  C   UNL A   1      44.415  21.411  25.206  1.00  0.00     0.202 C 
BRANCH   4   5
ATOM      5  C   UNL A   1      45.148  22.726  25.444  1.00  0.00     0.261 C 
BRANCH   5   6
ATOM      6  O   UNL A   1      44.421  23.900  25.035  1.00  0.00    -0.460 OA
BRANCH   6   7
ATOM      7  C   UNL A   1      44.677  25.204  25.308  1.00  0.00     0.338 C 
ATOM      8  O   UNL A   1      45.515  25.808  24.642  1.00  0.00    -0.246 OA
BRANCH   7   9
ATOM      9  C   UNL A   1      43.939  25.959  26.350  1.00  0.00     0.060 A 
ATOM     10  C   UNL A   1      44.014  27.336  26.500  1.00  0.00     0.016 A 
ATOM     11  C   UNL A   1      43.037  25.262  27.160  1.00  0.00     0.016 A 
ATOM     12  C   UNL A   1      43.424  27.986  27.561  1.00  0.00     0.010 A 
ATOM     13  C   UNL A   1      42.316  25.935  28.154  1.00  0.00     0.010 A 
ATOM     14  C   UNL A   1      42.563  27.293  28.398  1.00  0.00    -0.014 A 
BRANCH  14  15
ATOM     15  C   UNL A   1      42.075  28.003  29.594  1.00  0.00     0.031 A 
ATOM     16  C   UNL A   1      40.764  28.721  29.491  1.00  0.00     0.074 A 
ATOM     17  C   UNL A   1      42.696  27.834  30.777  1.00  0.00     0.049 A 
ATOM     18  N   UNL A   1      40.158  29.471  30.369  1.00  0.00    -0.248 NA
ATOM     19  C   UNL A   1      40.027  28.569  28.222  1.00  0.00     0.031 C 
ATOM     20  C   UNL A   1      43.899  27.020  30.995  1.00  0.00     0.029 A 
ATOM     21  N   UNL A   1      42.379  28.288  32.029  1.00  0.00    -0.354 N 
ATOM     22  C   UNL A   1      39.000  29.915  29.744  1.00  0.00     0.074 A 
ATOM     23  C   UNL A   1      38.989  29.366  28.409  1.00  0.00     0.031 C 
ATOM     24  C   UNL A   1      44.184  26.994  32.305  1.00  0.00     0.029 A 
ATOM     25  C   UNL A   1      43.259  27.876  33.002  1.00  0.00     0.049 A 
ATOM     26  H   UNL A   1      41.595  28.855  32.215  1.00  0.00     0.167 HD
ATOM     27  C   UNL A   1      38.035  30.712  30.254  1.00  0.00     0.037 A 
ATOM     28  C   UNL A   1      43.332  28.226  34.298  1.00  0.00     0.037 A 
ATOM     29  C   UNL A   1      38.075  31.222  31.595  1.00  0.00     0.049 A 
ATOM     30  C   UNL A   1      42.303  29.196  34.810  1.00  0.00     0.074 A 
ATOM     31  C   UNL A   1      37.222  32.116  32.212  1.00  0.00     0.029 A 
ATOM     32  N   UNL A   1      39.030  30.855  32.537  1.00  0.00    -0.354 N 
ATOM     33  N   UNL A   1      41.274  29.716  34.183  1.00  0.00    -0.248 NA
ATOM     34  C   UNL A   1      42.453  29.646  36.197  1.00  0.00     0.031 C 
ATOM     35  C   UNL A   1      37.685  32.319  33.517  1.00  0.00     0.029 A 
ATOM     36  C   UNL A   1      38.793  31.510  33.731  1.00  0.00     0.049 A 
ATOM     37  H   UNL A   1      39.767  30.223  32.377  1.00  0.00     0.167 HD
ATOM     38  C   UNL A   1      40.648  30.548  35.098  1.00  0.00     0.074 A 
ATOM     39  C   UNL A   1      41.395  30.430  36.337  1.00  0.00     0.031 C 
ATOM     40  C   UNL A   1      39.567  31.351  34.937  1.00  0.00     0.037 A 
BRANCH  27  41
ATOM     41  C   UNL A   1      36.926  31.118  29.330  1.00  0.00     0.064 A 
ATOM     42  C   UNL A   1      36.839  32.412  28.795  1.00  0.00     0.173 A 
ATOM     43  C   UNL A   1      35.907  30.207  29.012  1.00  0.00     0.173 A 
ATOM     44  F   UNL A   1      37.766  33.333  29.098  1.00  0.00    -0.203 F 
ATOM     45  C   UNL A   1      35.758  32.787  27.999  1.00  0.00     0.198 A 
ATOM     46  C   UNL A   1      34.844  30.577  28.193  1.00  0.00     0.198 A 
ATOM     47  F   UNL A   1      35.935  28.962  29.511  1.00  0.00    -0.203 F 
ATOM     48  F   UNL A   1      35.662  34.047  27.552  1.00  0.00    -0.200 F 
ATOM     49  C   UNL A   1      34.764  31.868  27.695  1.00  0.00     0.200 A 
ATOM     50  F   UNL A   1      33.884  29.687  27.902  1.00  0.00    -0.200 F 
ATOM     51  F   UNL A   1      33.722  32.232  26.936  1.00  0.00    -0.200 F 
ENDBRANCH  27  41
BRANCH  28  52
ATOM     52  C   UNL A   1      44.450  27.740  35.156  1.00  0.00     0.064 A 
ATOM     53  C   UNL A   1      45.672  28.422  35.228  1.00  0.00     0.173 A 
ATOM     54  C   UNL A   1      44.328  26.555  35.901  1.00  0.00     0.173 A 
ATOM     55  F   UNL A   1      45.854  29.548  34.524  1.00  0.00    -0.203 F 
ATOM     56  C   UNL A   1      46.734  27.923  35.984  1.00  0.00     0.198 A 
ATOM     57  C   UNL A   1      45.375  26.080  36.689  1.00  0.00     0.198 A 
ATOM     58  F   UNL A   1      43.183  25.857  35.874  1.00  0.00    -0.203 F 
ATOM     59  F   UNL A   1      47.912  28.562  35.984  1.00  0.00    -0.200 F 
ATOM     60  C   UNL A   1      46.582  26.756  36.718  1.00  0.00     0.200 A 
ATOM     61  F   UNL A   1      45.212  24.962  37.410  1.00  0.00    -0.200 F 
ATOM     62  F   UNL A   1      47.602  26.278  37.443  1.00  0.00    -0.200 F 
ENDBRANCH  28  52
BRANCH  40  63
ATOM     63  C   UNL A   1      39.126  32.126  36.140  1.00  0.00     0.064 A 
ATOM     64  C   UNL A   1      39.565  33.437  36.371  1.00  0.00     0.173 A 
ATOM     65  C   UNL A   1      38.232  31.554  37.058  1.00  0.00     0.173 A 
ATOM     66  F   UNL A   1      40.434  34.016  35.528  1.00  0.00    -0.203 F 
ATOM     67  C   UNL A   1      39.153  34.137  37.500  1.00  0.00     0.198 A 
ATOM     68  C   UNL A   1      37.794  32.270  38.166  1.00  0.00     0.198 A 
ATOM     69  F   UNL A   1      37.779  30.305  36.873  1.00  0.00    -0.203 F 
ATOM     70  F   UNL A   1      39.633  35.365  37.736  1.00  0.00    -0.200 F 
ATOM     71  C   UNL A   1      38.263  33.556  38.392  1.00  0.00     0.200 A 
ATOM     72  F   UNL A   1      36.922  31.715  39.018  1.00  0.00    -0.200 F 
ATOM     73  F   UNL A   1      37.864  34.234  39.477  1.00  0.00    -0.200 F 
ENDBRANCH  40  63
ENDBRANCH  14  15
ENDBRANCH   7   9
ENDBRANCH   6   7
ENDBRANCH   5   6
ENDBRANCH   4   5
ENDBRANCH   3   4
ENDBRANCH   2   3
ENDBRANCH   1   2
BRANCH   1  74
ATOM     74  O   UNL A   1      39.859  22.041  26.658  1.00  0.00    -0.377 OA
BRANCH  74  75
ATOM     75  C   UNL A   1      38.843  22.957  26.267  1.00  0.00     0.188 C 
BRANCH  75  76
ATOM     76  C   UNL A   1      37.429  22.413  25.931  1.00  0.00     0.188 C 
BRANCH  76  77
ATOM     77  O   UNL A   1      36.429  23.395  25.688  1.00  0.00    -0.376 OA
BRANCH  77  78
ATOM     78  C   UNL A   1      35.187  23.148  26.351  1.00  0.00     0.202 C 
BRANCH  78  79
ATOM     79  C   UNL A   1      34.039  24.081  25.941  1.00  0.00     0.261 C 
BRANCH  79  80
ATOM     80  O   UNL A   1      32.841  23.400  25.517  1.00  0.00    -0.463 OA
BRANCH  80  81
ATOM     81  C   UNL A   1      31.662  24.067  25.582  1.00  0.00     0.309 C 
ATOM     82  O   UNL A   1      30.725  23.743  26.296  1.00  0.00    -0.252 OA
BRANCH  81  83
ATOM     83  C   UNL A   1      31.685  25.283  24.634  1.00  0.00     0.109 C 
BRANCH  83  84
ATOM     84  C   UNL A   1      31.156  24.833  23.247  1.00  0.00     0.019 C 
ATOM     85  C   UNL A   1      31.844  23.529  22.748  1.00  0.00     0.021 C 
ATOM     86  C   UNL A   1      31.403  25.811  22.083  1.00  0.00     0.141 C 
ATOM     87  C   UNL A   1      33.232  23.888  22.223  1.00  0.00     0.137 C 
ATOM     88  S   UNL A   1      33.022  25.459  21.415  1.00  0.00     0.150 S 
ATOM     89  O   UNL A   1      33.972  26.402  21.992  1.00  0.00    -0.229 OA
ATOM     90  O   UNL A   1      32.906  25.249  19.997  1.00  0.00    -0.229 OA
ENDBRANCH  83  84
BRANCH  83  91
ATOM     91  C   UNL A   1      31.039  26.497  25.389  1.00  0.00     0.032 C 
ATOM     92  C   UNL A   1      30.481  27.633  24.560  1.00  0.00     0.035 C 
ATOM     93  C   UNL A   1      31.932  27.255  26.355  1.00  0.00     0.164 C 
ATOM     94  C   UNL A   1      31.620  28.616  24.491  1.00  0.00     0.160 C 
ATOM     95  O   UNL A   1      32.468  28.361  25.619  1.00  0.00    -0.381 OA
ENDBRANCH  83  91
ENDBRANCH  81  83
ENDBRANCH  80  81
ENDBRANCH  79  80
ENDBRANCH  78  79
ENDBRANCH  77  78
ENDBRANCH  76  77
ENDBRANCH  75  76
ENDBRANCH  74  75
ENDBRANCH   1  74
TORSDOF 22
ENDMDL
