MODEL 1
REMARK VINA RESULT:     -10.6      0.000      0.000
REMARK SMILES Cc1cc2c(c(C)c1Br)C=C(C(=O)OCCOCCOCCOCCOC(=O)c1ccc(-c3c4nc(c(-c5c(F)c(F)c(F)c(F)c5F)c5ccc([nH]5)c(-c5c(F)c(F)c(F)c(F)c5F)c5nc(c(-c6c(F)c(F)c(F)c(F)c6F)c6ccc3[nH]6)C=C5)C=C4)cc1)[C@@H](C(F)(F)F)O2
REMARK SMILES IDX 21 1 20 2 19 3 18 4 17 5 16 6 15 7 14 8 12 9 13 10 11 11
REMARK SMILES IDX 1 12 2 13 3 14 8 15 4 16 6 17 9 18 5 19 97 20 7 21 10 22
REMARK SMILES IDX 92 23 93 24 94 25 95 26 96 27 22 28 23 29 24 30 25 31 26 32
REMARK SMILES IDX 27 33 28 34 29 35 30 36 91 37 31 38 90 39 32 40 33 41 34 42
REMARK SMILES IDX 84 43 35 44 89 45 83 46 85 47 36 48 88 49 82 50 81 51 37 53
REMARK SMILES IDX 69 54 49 55 68 56 50 57 53 58 67 59 86 60 51 61 52 62 66 64
REMARK SMILES IDX 87 65 54 66 38 67 39 68 47 69 40 70 41 71 45 72 48 73 42 74
REMARK SMILES IDX 43 75 46 76 44 77 70 78 71 79 79 80 72 81 73 82 77 83 80 84
REMARK SMILES IDX 74 85 75 86 78 87 76 88 55 89 56 90 64 91 57 92 58 93 62 94
REMARK SMILES IDX 65 95 59 96 60 97 63 98 61 99
REMARK H PARENT 85 52 53 63
REMARK Flexibility Score: inf
ROOT
ATOM      1  C   UNL A   1      30.097  31.580  24.455  1.00  0.00     0.188 C 
ENDROOT
BRANCH   1   2
ATOM      2  O   UNL A   1      28.800  31.155  24.028  1.00  0.00    -0.377 OA
BRANCH   2   3
ATOM      3  C   UNL A   1      28.714  30.029  23.170  1.00  0.00     0.188 C 
BRANCH   3   4
ATOM      4  C   UNL A   1      29.236  30.301  21.745  1.00  0.00     0.188 C 
BRANCH   4   5
ATOM      5  O   UNL A   1      30.489  29.695  21.484  1.00  0.00    -0.376 OA
BRANCH   5   6
ATOM      6  C   UNL A   1      31.035  28.728  22.365  1.00  0.00     0.202 C 
BRANCH   6   7
ATOM      7  C   UNL A   1      32.470  28.788  22.922  1.00  0.00     0.261 C 
BRANCH   7   8
ATOM      8  O   UNL A   1      33.016  27.583  23.459  1.00  0.00    -0.460 OA
BRANCH   8   9
ATOM      9  C   UNL A   1      33.389  27.592  24.751  1.00  0.00     0.338 C 
ATOM     10  O   UNL A   1      33.649  28.569  25.430  1.00  0.00    -0.246 OA
BRANCH   9  11
ATOM     11  C   UNL A   1      33.252  26.211  25.265  1.00  0.00     0.087 C 
ATOM     12  C   UNL A   1      33.279  19.836  26.180  1.00  0.00     0.046 C 
ATOM     13  C   UNL A   1      33.701  21.275  26.041  1.00  0.00    -0.033 A 
ATOM     14  C   UNL A   1      32.757  22.254  26.378  1.00  0.00     0.051 A 
ATOM     15  C   UNL A   1      34.938  21.682  25.498  1.00  0.00     0.024 A 
ATOM     16  C   UNL A   1      32.989  23.598  26.108  1.00  0.00     0.128 A 
ATOM     17  C   UNL A   1      35.216  23.054  25.275  1.00  0.00    -0.026 A 
ATOM     18  Br  UNL A   1      36.213  20.344  25.001  1.00  0.00    -0.050 Br
ATOM     19  C   UNL A   1      34.185  24.001  25.509  1.00  0.00     0.021 A 
ATOM     20  O   UNL A   1      31.966  24.438  26.444  1.00  0.00    -0.475 OA
ATOM     21  C   UNL A   1      36.564  23.542  24.794  1.00  0.00     0.046 C 
ATOM     22  C   UNL A   1      34.284  25.386  25.054  1.00  0.00     0.027 C 
ATOM     23  C   UNL A   1      32.025  25.832  26.047  1.00  0.00     0.316 C 
BRANCH  23  24
ATOM     24  C   UNL A   1      30.727  26.167  25.299  1.00  0.00     0.430 C 
ATOM     25  F   UNL A   1      29.659  25.559  25.870  1.00  0.00    -0.167 F 
ATOM     26  F   UNL A   1      30.464  27.495  25.305  1.00  0.00    -0.167 F 
ATOM     27  F   UNL A   1      30.776  25.771  24.007  1.00  0.00    -0.167 F 
ENDBRANCH  23  24
ENDBRANCH   9  11
ENDBRANCH   8   9
ENDBRANCH   7   8
ENDBRANCH   6   7
ENDBRANCH   5   6
ENDBRANCH   4   5
ENDBRANCH   3   4
ENDBRANCH   2   3
ENDBRANCH   1   2
BRANCH   1  28
ATOM     28  C   UNL A   1      31.005  30.699  25.351  1.00  0.00     0.188 C 
BRANCH  28  29
ATOM     29  O   UNL A   1      31.333  31.278  26.605  1.00  0.00    -0.376 OA
BRANCH  29  30
ATOM     30  C   UNL A   1      31.542  32.677  26.674  1.00  0.00     0.202 C 
BRANCH  30  31
ATOM     31  C   UNL A   1      32.539  33.164  27.733  1.00  0.00     0.261 C 
BRANCH  31  32
ATOM     32  O   UNL A   1      32.961  34.530  27.610  1.00  0.00    -0.460 OA
BRANCH  32  33
ATOM     33  C   UNL A   1      33.092  35.243  28.748  1.00  0.00     0.338 C 
ATOM     34  O   UNL A   1      32.335  36.095  29.179  1.00  0.00    -0.246 OA
BRANCH  33  35
ATOM     35  C   UNL A   1      34.232  34.675  29.496  1.00  0.00     0.060 A 
ATOM     36  C   UNL A   1      35.518  34.757  28.946  1.00  0.00     0.016 A 
ATOM     37  C   UNL A   1      34.028  34.077  30.742  1.00  0.00     0.016 A 
ATOM     38  C   UNL A   1      36.602  34.205  29.628  1.00  0.00     0.010 A 
ATOM     39  C   UNL A   1      35.110  33.503  31.410  1.00  0.00     0.010 A 
ATOM     40  C   UNL A   1      36.394  33.534  30.840  1.00  0.00    -0.014 A 
BRANCH  40  41
ATOM     41  C   UNL A   1      37.464  32.676  31.399  1.00  0.00     0.031 A 
ATOM     42  C   UNL A   1      37.973  32.994  32.778  1.00  0.00     0.074 A 
ATOM     43  C   UNL A   1      37.960  31.630  30.716  1.00  0.00     0.049 A 
ATOM     44  N   UNL A   1      38.944  32.440  33.456  1.00  0.00    -0.248 NA
ATOM     45  C   UNL A   1      37.290  34.088  33.489  1.00  0.00     0.031 C 
ATOM     46  C   UNL A   1      37.504  31.188  29.401  1.00  0.00     0.029 A 
ATOM     47  N   UNL A   1      38.965  30.753  31.041  1.00  0.00    -0.354 N 
ATOM     48  C   UNL A   1      38.987  33.115  34.668  1.00  0.00     0.074 A 
ATOM     49  C   UNL A   1      37.972  34.142  34.622  1.00  0.00     0.031 C 
ATOM     50  C   UNL A   1      38.233  30.122  29.026  1.00  0.00     0.029 A 
ATOM     51  C   UNL A   1      39.230  29.834  30.057  1.00  0.00     0.049 A 
ATOM     52  H   UNL A   1      39.447  30.780  31.898  1.00  0.00     0.167 HD
ATOM     53  C   UNL A   1      39.795  32.888  35.730  1.00  0.00     0.037 A 
ATOM     54  C   UNL A   1      40.186  28.885  29.991  1.00  0.00     0.037 A 
ATOM     55  C   UNL A   1      40.809  31.869  35.767  1.00  0.00     0.049 A 
ATOM     56  C   UNL A   1      41.143  28.719  31.146  1.00  0.00     0.074 A 
ATOM     57  C   UNL A   1      41.686  31.566  36.793  1.00  0.00     0.029 A 
ATOM     58  N   UNL A   1      41.086  30.992  34.730  1.00  0.00    -0.354 N 
ATOM     59  N   UNL A   1      41.181  29.359  32.290  1.00  0.00    -0.248 NA
ATOM     60  C   UNL A   1      42.191  27.698  31.000  1.00  0.00     0.031 C 
ATOM     61  C   UNL A   1      42.530  30.541  36.355  1.00  0.00     0.029 A 
ATOM     62  C   UNL A   1      42.137  30.162  35.081  1.00  0.00     0.049 A 
ATOM     63  H   UNL A   1      40.606  30.963  33.870  1.00  0.00     0.167 HD
ATOM     64  C   UNL A   1      42.231  28.801  33.009  1.00  0.00     0.074 A 
ATOM     65  C   UNL A   1      42.798  27.760  32.177  1.00  0.00     0.031 C 
ATOM     66  C   UNL A   1      42.683  29.121  34.247  1.00  0.00     0.037 A 
BRANCH  53  67
ATOM     67  C   UNL A   1      39.628  33.768  36.934  1.00  0.00     0.064 A 
ATOM     68  C   UNL A   1      40.239  35.029  37.014  1.00  0.00     0.173 A 
ATOM     69  C   UNL A   1      38.800  33.371  37.994  1.00  0.00     0.173 A 
ATOM     70  F   UNL A   1      41.055  35.447  36.035  1.00  0.00    -0.203 F 
ATOM     71  C   UNL A   1      40.036  35.853  38.117  1.00  0.00     0.198 A 
ATOM     72  C   UNL A   1      38.575  34.211  39.081  1.00  0.00     0.198 A 
ATOM     73  F   UNL A   1      38.194  32.175  37.968  1.00  0.00    -0.203 F 
ATOM     74  F   UNL A   1      40.660  37.037  38.189  1.00  0.00    -0.200 F 
ATOM     75  C   UNL A   1      39.197  35.449  39.144  1.00  0.00     0.200 A 
ATOM     76  F   UNL A   1      37.752  33.824  40.065  1.00  0.00    -0.200 F 
ATOM     77  F   UNL A   1      38.987  36.252  40.196  1.00  0.00    -0.200 F 
ENDBRANCH  53  67
BRANCH  54  78
ATOM     78  C   UNL A   1      40.283  28.012  28.790  1.00  0.00     0.064 A 
ATOM     79  C   UNL A   1      39.616  26.781  28.738  1.00  0.00     0.173 A 
ATOM     80  C   UNL A   1      41.040  28.390  27.672  1.00  0.00     0.173 A 
ATOM     81  F   UNL A   1      38.903  26.361  29.793  1.00  0.00    -0.203 F 
ATOM     82  C   UNL A   1      39.707  25.958  27.616  1.00  0.00     0.198 A 
ATOM     83  C   UNL A   1      41.107  27.581  26.540  1.00  0.00     0.198 A 
ATOM     84  F   UNL A   1      41.705  29.555  27.673  1.00  0.00    -0.203 F 
ATOM     85  F   UNL A   1      39.091  24.768  27.609  1.00  0.00    -0.200 F 
ATOM     86  C   UNL A   1      40.445  26.364  26.514  1.00  0.00     0.200 A 
ATOM     87  F   UNL A   1      41.812  27.981  25.472  1.00  0.00    -0.200 F 
ATOM     88  F   UNL A   1      40.524  25.578  25.432  1.00  0.00    -0.200 F 
ENDBRANCH  54  78
BRANCH  66  89
ATOM     89  C   UNL A   1      43.829  28.323  34.804  1.00  0.00     0.064 A 
ATOM     90  C   UNL A   1      45.157  28.754  34.683  1.00  0.00     0.173 A 
ATOM     91  C   UNL A   1      43.584  27.151  35.538  1.00  0.00     0.173 A 
ATOM     92  F   UNL A   1      45.447  29.862  33.984  1.00  0.00    -0.203 F 
ATOM     93  C   UNL A   1      46.199  28.032  35.258  1.00  0.00     0.198 A 
ATOM     94  C   UNL A   1      44.625  26.451  36.142  1.00  0.00     0.198 A 
ATOM     95  F   UNL A   1      42.331  26.699  35.696  1.00  0.00    -0.203 F 
ATOM     96  F   UNL A   1      47.465  28.441  35.095  1.00  0.00    -0.200 F 
ATOM     97  C   UNL A   1      45.933  26.889  35.997  1.00  0.00     0.200 A 
ATOM     98  F   UNL A   1      44.362  25.359  36.872  1.00  0.00    -0.200 F 
ATOM     99  F   UNL A   1      46.936  26.206  36.566  1.00  0.00    -0.200 F 
ENDBRANCH  66  89
ENDBRANCH  40  41
ENDBRANCH  33  35
ENDBRANCH  32  33
ENDBRANCH  31  32
ENDBRANCH  30  31
ENDBRANCH  29  30
ENDBRANCH  28  29
ENDBRANCH   1  28
TORSDOF 21
ENDMDL
MODEL 2
REMARK VINA RESULT:     -10.5      3.980      9.204
REMARK SMILES Cc1cc2c(c(C)c1Br)C=C(C(=O)OCCOCCOCCOCCOC(=O)c1ccc(-c3c4nc(c(-c5c(F)c(F)c(F)c(F)c5F)c5ccc([nH]5)c(-c5c(F)c(F)c(F)c(F)c5F)c5nc(c(-c6c(F)c(F)c(F)c(F)c6F)c6ccc3[nH]6)C=C5)C=C4)cc1)[C@@H](C(F)(F)F)O2
REMARK SMILES IDX 21 1 20 2 19 3 18 4 17 5 16 6 15 7 14 8 12 9 13 10 11 11
REMARK SMILES IDX 1 12 2 13 3 14 8 15 4 16 6 17 9 18 5 19 97 20 7 21 10 22
REMARK SMILES IDX 92 23 93 24 94 25 95 26 96 27 22 28 23 29 24 30 25 31 26 32
REMARK SMILES IDX 27 33 28 34 29 35 30 36 91 37 31 38 90 39 32 40 33 41 34 42
REMARK SMILES IDX 84 43 35 44 89 45 83 46 85 47 36 48 88 49 82 50 81 51 37 53
REMARK SMILES IDX 69 54 49 55 68 56 50 57 53 58 67 59 86 60 51 61 52 62 66 64
REMARK SMILES IDX 87 65 54 66 38 67 39 68 47 69 40 70 41 71 45 72 48 73 42 74
REMARK SMILES IDX 43 75 46 76 44 77 70 78 71 79 79 80 72 81 73 82 77 83 80 84
REMARK SMILES IDX 74 85 75 86 78 87 76 88 55 89 56 90 64 91 57 92 58 93 62 94
REMARK SMILES IDX 65 95 59 96 60 97 63 98 61 99
REMARK H PARENT 85 52 53 63
REMARK Flexibility Score: inf
ROOT
ATOM      1  C   UNL A   1      42.144  21.350  27.899  1.00  0.00     0.188 C 
ENDROOT
BRANCH   1   2
ATOM      2  O   UNL A   1      40.847  20.765  27.755  1.00  0.00    -0.377 OA
BRANCH   2   3
ATOM      3  C   UNL A   1      40.426  20.387  26.453  1.00  0.00     0.188 C 
BRANCH   3   4
ATOM      4  C   UNL A   1      39.246  21.224  25.921  1.00  0.00     0.188 C 
BRANCH   4   5
ATOM      5  O   UNL A   1      39.213  22.538  26.448  1.00  0.00    -0.376 OA
BRANCH   5   6
ATOM      6  C   UNL A   1      38.212  23.462  26.058  1.00  0.00     0.202 C 
BRANCH   6   7
ATOM      7  C   UNL A   1      36.805  23.054  25.581  1.00  0.00     0.261 C 
BRANCH   7   8
ATOM      8  O   UNL A   1      36.075  24.004  24.805  1.00  0.00    -0.460 OA
BRANCH   8   9
ATOM      9  C   UNL A   1      35.664  23.624  23.582  1.00  0.00     0.338 C 
ATOM     10  O   UNL A   1      36.289  22.957  22.776  1.00  0.00    -0.246 OA
BRANCH   9  11
ATOM     11  C   UNL A   1      34.239  24.000  23.452  1.00  0.00     0.087 C 
ATOM     12  C   UNL A   1      28.411  26.707  23.876  1.00  0.00     0.046 C 
ATOM     13  C   UNL A   1      29.855  26.437  23.544  1.00  0.00    -0.033 A 
ATOM     14  C   UNL A   1      30.247  25.095  23.440  1.00  0.00     0.051 A 
ATOM     15  C   UNL A   1      30.839  27.442  23.438  1.00  0.00     0.024 A 
ATOM     16  C   UNL A   1      31.588  24.746  23.322  1.00  0.00     0.128 A 
ATOM     17  C   UNL A   1      32.204  27.105  23.254  1.00  0.00    -0.026 A 
ATOM     18  Br  UNL A   1      30.312  29.273  23.619  1.00  0.00    -0.050 Br
ATOM     19  C   UNL A   1      32.574  25.735  23.284  1.00  0.00     0.021 A 
ATOM     20  O   UNL A   1      31.831  23.403  23.278  1.00  0.00    -0.475 OA
ATOM     21  C   UNL A   1      33.275  28.148  23.032  1.00  0.00     0.046 C 
ATOM     22  C   UNL A   1      33.967  25.308  23.377  1.00  0.00     0.027 C 
ATOM     23  C   UNL A   1      33.198  22.921  23.335  1.00  0.00     0.316 C 
BRANCH  23  24
ATOM     24  C   UNL A   1      33.291  21.891  24.468  1.00  0.00     0.430 C 
ATOM     25  F   UNL A   1      33.423  22.496  25.674  1.00  0.00    -0.167 F 
ATOM     26  F   UNL A   1      32.185  21.116  24.544  1.00  0.00    -0.167 F 
ATOM     27  F   UNL A   1      34.352  21.066  24.310  1.00  0.00    -0.167 F 
ENDBRANCH  23  24
ENDBRANCH   9  11
ENDBRANCH   8   9
ENDBRANCH   7   8
ENDBRANCH   6   7
ENDBRANCH   5   6
ENDBRANCH   4   5
ENDBRANCH   3   4
ENDBRANCH   2   3
ENDBRANCH   1   2
BRANCH   1  28
ATOM     28  C   UNL A   1      42.763  22.273  26.819  1.00  0.00     0.188 C 
BRANCH  28  29
ATOM     29  O   UNL A   1      44.018  21.835  26.320  1.00  0.00    -0.376 OA
BRANCH  29  30
ATOM     30  C   UNL A   1      44.185  21.711  24.919  1.00  0.00     0.202 C 
BRANCH  30  31
ATOM     31  C   UNL A   1      45.045  22.785  24.240  1.00  0.00     0.261 C 
BRANCH  31  32
ATOM     32  O   UNL A   1      44.563  24.132  24.352  1.00  0.00    -0.460 OA
BRANCH  32  33
ATOM     33  C   UNL A   1      45.390  25.041  24.910  1.00  0.00     0.338 C 
ATOM     34  O   UNL A   1      46.556  25.254  24.626  1.00  0.00    -0.246 OA
BRANCH  33  35
ATOM     35  C   UNL A   1      44.577  25.880  25.812  1.00  0.00     0.060 A 
ATOM     36  C   UNL A   1      44.626  27.274  25.679  1.00  0.00     0.016 A 
ATOM     37  C   UNL A   1      43.761  25.288  26.779  1.00  0.00     0.016 A 
ATOM     38  C   UNL A   1      43.883  28.083  26.539  1.00  0.00     0.010 A 
ATOM     39  C   UNL A   1      43.038  26.098  27.655  1.00  0.00     0.010 A 
ATOM     40  C   UNL A   1      43.124  27.498  27.561  1.00  0.00    -0.014 A 
BRANCH  40  41
ATOM     41  C   UNL A   1      42.603  28.339  28.663  1.00  0.00     0.031 A 
ATOM     42  C   UNL A   1      43.475  28.534  29.873  1.00  0.00     0.074 A 
ATOM     43  C   UNL A   1      41.400  28.933  28.590  1.00  0.00     0.049 A 
ATOM     44  N   UNL A   1      43.221  29.165  30.990  1.00  0.00    -0.248 NA
ATOM     45  C   UNL A   1      44.820  27.937  29.811  1.00  0.00     0.031 C 
ATOM     46  C   UNL A   1      40.494  28.867  27.446  1.00  0.00     0.029 A 
ATOM     47  N   UNL A   1      40.734  29.707  29.508  1.00  0.00    -0.354 N 
ATOM     48  C   UNL A   1      44.369  29.040  31.759  1.00  0.00     0.074 A 
ATOM     49  C   UNL A   1      45.309  28.245  31.001  1.00  0.00     0.031 C 
ATOM     50  C   UNL A   1      39.384  29.568  27.733  1.00  0.00     0.029 A 
ATOM     51  C   UNL A   1      39.485  30.098  29.093  1.00  0.00     0.049 A 
ATOM     52  H   UNL A   1      41.115  29.957  30.380  1.00  0.00     0.167 HD
ATOM     53  C   UNL A   1      44.621  29.554  32.986  1.00  0.00     0.037 A 
ATOM     54  C   UNL A   1      38.529  30.786  29.749  1.00  0.00     0.037 A 
ATOM     55  C   UNL A   1      43.680  30.338  33.739  1.00  0.00     0.049 A 
ATOM     56  C   UNL A   1      38.794  31.260  31.157  1.00  0.00     0.074 A 
ATOM     57  C   UNL A   1      43.836  30.897  34.995  1.00  0.00     0.029 A 
ATOM     58  N   UNL A   1      42.404  30.669  33.308  1.00  0.00    -0.354 N 
ATOM     59  N   UNL A   1      39.881  31.140  31.881  1.00  0.00    -0.248 NA
ATOM     60  C   UNL A   1      37.699  31.967  31.838  1.00  0.00     0.031 C 
ATOM     61  C   UNL A   1      42.635  31.518  35.347  1.00  0.00     0.029 A 
ATOM     62  C   UNL A   1      41.752  31.403  34.285  1.00  0.00     0.049 A 
ATOM     63  H   UNL A   1      42.018  30.418  32.438  1.00  0.00     0.167 HD
ATOM     64  C   UNL A   1      39.613  31.778  33.086  1.00  0.00     0.074 A 
ATOM     65  C   UNL A   1      38.265  32.297  32.991  1.00  0.00     0.031 C 
ATOM     66  C   UNL A   1      40.412  31.923  34.172  1.00  0.00     0.037 A 
BRANCH  53  67
ATOM     67  C   UNL A   1      45.961  29.273  33.599  1.00  0.00     0.064 A 
ATOM     68  C   UNL A   1      46.237  28.053  34.237  1.00  0.00     0.173 A 
ATOM     69  C   UNL A   1      47.001  30.210  33.496  1.00  0.00     0.173 A 
ATOM     70  F   UNL A   1      45.272  27.132  34.378  1.00  0.00    -0.203 F 
ATOM     71  C   UNL A   1      47.500  27.789  34.758  1.00  0.00     0.198 A 
ATOM     72  C   UNL A   1      48.270  29.928  33.991  1.00  0.00     0.198 A 
ATOM     73  F   UNL A   1      46.790  31.391  32.897  1.00  0.00    -0.203 F 
ATOM     74  F   UNL A   1      47.730  26.633  35.396  1.00  0.00    -0.200 F 
ATOM     75  C   UNL A   1      48.518  28.720  34.626  1.00  0.00     0.200 A 
ATOM     76  F   UNL A   1      49.257  30.825  33.849  1.00  0.00    -0.200 F 
ATOM     77  F   UNL A   1      49.738  28.456  35.112  1.00  0.00    -0.200 F 
ENDBRANCH  53  67
BRANCH  54  78
ATOM     78  C   UNL A   1      37.231  31.072  29.081  1.00  0.00     0.064 A 
ATOM     79  C   UNL A   1      36.921  32.363  28.632  1.00  0.00     0.173 A 
ATOM     80  C   UNL A   1      36.277  30.065  28.875  1.00  0.00     0.173 A 
ATOM     81  F   UNL A   1      37.788  33.366  28.831  1.00  0.00    -0.203 F 
ATOM     82  C   UNL A   1      35.705  32.637  28.008  1.00  0.00     0.198 A 
ATOM     83  C   UNL A   1      35.074  30.333  28.226  1.00  0.00     0.198 A 
ATOM     84  F   UNL A   1      36.519  28.814  29.293  1.00  0.00    -0.203 F 
ATOM     85  F   UNL A   1      35.418  33.888  27.624  1.00  0.00    -0.200 F 
ATOM     86  C   UNL A   1      34.786  31.620  27.798  1.00  0.00     0.200 A 
ATOM     87  F   UNL A   1      34.193  29.345  28.014  1.00  0.00    -0.200 F 
ATOM     88  F   UNL A   1      33.622  31.881  27.189  1.00  0.00    -0.200 F 
ENDBRANCH  54  78
BRANCH  66  89
ATOM     89  C   UNL A   1      39.874  32.699  35.341  1.00  0.00     0.064 A 
ATOM     90  C   UNL A   1      40.047  34.085  35.450  1.00  0.00     0.173 A 
ATOM     91  C   UNL A   1      39.106  32.055  36.325  1.00  0.00     0.173 A 
ATOM     92  F   UNL A   1      40.780  34.748  34.542  1.00  0.00    -0.203 F 
ATOM     93  C   UNL A   1      39.489  34.796  36.510  1.00  0.00     0.198 A 
ATOM     94  C   UNL A   1      38.521  32.774  37.364  1.00  0.00     0.198 A 
ATOM     95  F   UNL A   1      38.898  30.731  36.264  1.00  0.00    -0.203 F 
ATOM     96  F   UNL A   1      39.703  36.115  36.615  1.00  0.00    -0.200 F 
ATOM     97  C   UNL A   1      38.718  34.143  37.459  1.00  0.00     0.200 A 
ATOM     98  F   UNL A   1      37.758  32.143  38.267  1.00  0.00    -0.200 F 
ATOM     99  F   UNL A   1      38.166  34.832  38.467  1.00  0.00    -0.200 F 
ENDBRANCH  66  89
ENDBRANCH  40  41
ENDBRANCH  33  35
ENDBRANCH  32  33
ENDBRANCH  31  32
ENDBRANCH  30  31
ENDBRANCH  29  30
ENDBRANCH  28  29
ENDBRANCH   1  28
TORSDOF 21
ENDMDL
MODEL 3
REMARK VINA RESULT:     -10.4      1.941      3.382
REMARK SMILES Cc1cc2c(c(C)c1Br)C=C(C(=O)OCCOCCOCCOCCOC(=O)c1ccc(-c3c4nc(c(-c5c(F)c(F)c(F)c(F)c5F)c5ccc([nH]5)c(-c5c(F)c(F)c(F)c(F)c5F)c5nc(c(-c6c(F)c(F)c(F)c(F)c6F)c6ccc3[nH]6)C=C5)C=C4)cc1)[C@@H](C(F)(F)F)O2
REMARK SMILES IDX 21 1 20 2 19 3 18 4 17 5 16 6 15 7 14 8 12 9 13 10 11 11
REMARK SMILES IDX 1 12 2 13 3 14 8 15 4 16 6 17 9 18 5 19 97 20 7 21 10 22
REMARK SMILES IDX 92 23 93 24 94 25 95 26 96 27 22 28 23 29 24 30 25 31 26 32
REMARK SMILES IDX 27 33 28 34 29 35 30 36 91 37 31 38 90 39 32 40 33 41 34 42
REMARK SMILES IDX 84 43 35 44 89 45 83 46 85 47 36 48 88 49 82 50 81 51 37 53
REMARK SMILES IDX 69 54 49 55 68 56 50 57 53 58 67 59 86 60 51 61 52 62 66 64
REMARK SMILES IDX 87 65 54 66 38 67 39 68 47 69 40 70 41 71 45 72 48 73 42 74
REMARK SMILES IDX 43 75 46 76 44 77 70 78 71 79 79 80 72 81 73 82 77 83 80 84
REMARK SMILES IDX 74 85 75 86 78 87 76 88 55 89 56 90 64 91 57 92 58 93 62 94
REMARK SMILES IDX 65 95 59 96 60 97 63 98 61 99
REMARK H PARENT 85 52 53 63
REMARK Flexibility Score: inf
ROOT
ATOM      1  C   UNL A   1      35.003  34.101  29.108  1.00  0.00     0.188 C 
ENDROOT
BRANCH   1   2
ATOM      2  O   UNL A   1      35.103  32.675  29.082  1.00  0.00    -0.377 OA
BRANCH   2   3
ATOM      3  C   UNL A   1      34.323  31.967  28.131  1.00  0.00     0.188 C 
BRANCH   3   4
ATOM      4  C   UNL A   1      34.991  30.672  27.629  1.00  0.00     0.188 C 
BRANCH   4   5
ATOM      5  O   UNL A   1      34.121  29.555  27.640  1.00  0.00    -0.376 OA
BRANCH   5   6
ATOM      6  C   UNL A   1      34.089  28.636  26.561  1.00  0.00     0.202 C 
BRANCH   6   7
ATOM      7  C   UNL A   1      33.020  27.540  26.398  1.00  0.00     0.261 C 
BRANCH   7   8
ATOM      8  O   UNL A   1      32.411  27.404  25.114  1.00  0.00    -0.460 OA
BRANCH   8   9
ATOM      9  C   UNL A   1      33.139  26.830  24.139  1.00  0.00     0.338 C 
ATOM     10  O   UNL A   1      33.785  27.401  23.277  1.00  0.00    -0.246 OA
BRANCH   9  11
ATOM     11  C   UNL A   1      33.173  25.375  24.403  1.00  0.00     0.087 C 
ATOM     12  C   UNL A   1      34.509  19.079  24.634  1.00  0.00     0.046 C 
ATOM     13  C   UNL A   1      34.553  20.571  24.836  1.00  0.00    -0.033 A 
ATOM     14  C   UNL A   1      33.330  21.257  24.797  1.00  0.00     0.051 A 
ATOM     15  C   UNL A   1      35.745  21.315  24.956  1.00  0.00     0.024 A 
ATOM     16  C   UNL A   1      33.287  22.647  24.788  1.00  0.00     0.128 A 
ATOM     17  C   UNL A   1      35.715  22.731  25.011  1.00  0.00    -0.026 A 
ATOM     18  Br  UNL A   1      37.417  20.382  24.970  1.00  0.00    -0.050 Br
ATOM     19  C   UNL A   1      34.470  23.390  24.838  1.00  0.00     0.021 A 
ATOM     20  O   UNL A   1      32.035  23.183  24.699  1.00  0.00    -0.475 OA
ATOM     21  C   UNL A   1      36.957  23.561  25.243  1.00  0.00     0.046 C 
ATOM     22  C   UNL A   1      34.377  24.829  24.608  1.00  0.00     0.027 C 
ATOM     23  C   UNL A   1      31.881  24.612  24.503  1.00  0.00     0.316 C 
BRANCH  23  24
ATOM     24  C   UNL A   1      30.977  24.829  23.282  1.00  0.00     0.430 C 
ATOM     25  F   UNL A   1      30.143  23.776  23.094  1.00  0.00    -0.167 F 
ATOM     26  F   UNL A   1      30.192  25.923  23.417  1.00  0.00    -0.167 F 
ATOM     27  F   UNL A   1      31.695  24.985  22.147  1.00  0.00    -0.167 F 
ENDBRANCH  23  24
ENDBRANCH   9  11
ENDBRANCH   8   9
ENDBRANCH   7   8
ENDBRANCH   6   7
ENDBRANCH   5   6
ENDBRANCH   4   5
ENDBRANCH   3   4
ENDBRANCH   2   3
ENDBRANCH   1   2
BRANCH   1  28
ATOM     28  C   UNL A   1      33.720  34.851  28.670  1.00  0.00     0.188 C 
BRANCH  28  29
ATOM     29  O   UNL A   1      33.738  36.247  28.926  1.00  0.00    -0.376 OA
BRANCH  29  30
ATOM     30  C   UNL A   1      33.244  36.717  30.168  1.00  0.00     0.202 C 
BRANCH  30  31
ATOM     31  C   UNL A   1      32.013  35.992  30.726  1.00  0.00     0.261 C 
BRANCH  31  32
ATOM     32  O   UNL A   1      32.153  35.455  32.049  1.00  0.00    -0.460 OA
BRANCH  32  33
ATOM     33  C   UNL A   1      33.102  35.998  32.841  1.00  0.00     0.338 C 
ATOM     34  O   UNL A   1      32.991  36.965  33.574  1.00  0.00    -0.246 OA
BRANCH  33  35
ATOM     35  C   UNL A   1      34.269  35.095  32.812  1.00  0.00     0.060 A 
ATOM     36  C   UNL A   1      34.097  33.743  33.138  1.00  0.00     0.016 A 
ATOM     37  C   UNL A   1      35.528  35.584  32.450  1.00  0.00     0.016 A 
ATOM     38  C   UNL A   1      35.195  32.882  33.139  1.00  0.00     0.010 A 
ATOM     39  C   UNL A   1      36.628  34.726  32.477  1.00  0.00     0.010 A 
ATOM     40  C   UNL A   1      36.472  33.382  32.855  1.00  0.00    -0.014 A 
BRANCH  40  41
ATOM     41  C   UNL A   1      37.667  32.565  33.167  1.00  0.00     0.031 A 
ATOM     42  C   UNL A   1      38.387  32.836  34.459  1.00  0.00     0.074 A 
ATOM     43  C   UNL A   1      38.095  31.595  32.341  1.00  0.00     0.049 A 
ATOM     44  N   UNL A   1      39.488  32.308  34.926  1.00  0.00    -0.248 NA
ATOM     45  C   UNL A   1      37.777  33.839  35.348  1.00  0.00     0.031 C 
ATOM     46  C   UNL A   1      37.446  31.202  31.093  1.00  0.00     0.029 A 
ATOM     47  N   UNL A   1      39.187  30.768  32.432  1.00  0.00    -0.354 N 
ATOM     48  C   UNL A   1      39.701  32.913  36.157  1.00  0.00     0.074 A 
ATOM     49  C   UNL A   1      38.638  33.872  36.352  1.00  0.00     0.031 C 
ATOM     50  C   UNL A   1      38.157  30.209  30.530  1.00  0.00     0.029 A 
ATOM     51  C   UNL A   1      39.330  29.928  31.357  1.00  0.00     0.049 A 
ATOM     52  H   UNL A   1      39.807  30.778  33.196  1.00  0.00     0.167 HD
ATOM     53  C   UNL A   1      40.690  32.679  37.050  1.00  0.00     0.037 A 
ATOM     54  C   UNL A   1      40.311  29.048  31.068  1.00  0.00     0.037 A 
ATOM     55  C   UNL A   1      41.750  31.728  36.848  1.00  0.00     0.049 A 
ATOM     56  C   UNL A   1      41.460  28.879  32.032  1.00  0.00     0.074 A 
ATOM     57  C   UNL A   1      42.805  31.423  37.689  1.00  0.00     0.029 A 
ATOM     58  N   UNL A   1      41.892  30.932  35.721  1.00  0.00    -0.354 N 
ATOM     59  N   UNL A   1      41.657  29.453  33.194  1.00  0.00    -0.248 NA
ATOM     60  C   UNL A   1      42.521  27.939  31.642  1.00  0.00     0.031 C 
ATOM     61  C   UNL A   1      43.616  30.483  37.047  1.00  0.00     0.029 A 
ATOM     62  C   UNL A   1      43.033  30.154  35.834  1.00  0.00     0.049 A 
ATOM     63  H   UNL A   1      41.275  30.921  34.954  1.00  0.00     0.167 HD
ATOM     64  C   UNL A   1      42.844  28.924  33.688  1.00  0.00     0.074 A 
ATOM     65  C   UNL A   1      43.316  27.973  32.704  1.00  0.00     0.031 C 
ATOM     66  C   UNL A   1      43.484  29.201  34.851  1.00  0.00     0.037 A 
BRANCH  53  67
ATOM     67  C   UNL A   1      40.684  33.474  38.322  1.00  0.00     0.064 A 
ATOM     68  C   UNL A   1      39.837  33.145  39.391  1.00  0.00     0.173 A 
ATOM     69  C   UNL A   1      41.578  34.541  38.497  1.00  0.00     0.173 A 
ATOM     70  F   UNL A   1      38.951  32.145  39.267  1.00  0.00    -0.203 F 
ATOM     71  C   UNL A   1      39.877  33.864  40.582  1.00  0.00     0.198 A 
ATOM     72  C   UNL A   1      41.636  35.237  39.701  1.00  0.00     0.198 A 
ATOM     73  F   UNL A   1      42.409  34.897  37.506  1.00  0.00    -0.203 F 
ATOM     74  F   UNL A   1      39.032  33.555  41.577  1.00  0.00    -0.200 F 
ATOM     75  C   UNL A   1      40.783  34.900  40.741  1.00  0.00     0.200 A 
ATOM     76  F   UNL A   1      42.523  36.230  39.857  1.00  0.00    -0.200 F 
ATOM     77  F   UNL A   1      40.833  35.578  41.896  1.00  0.00    -0.200 F 
ENDBRANCH  53  67
BRANCH  54  78
ATOM     78  C   UNL A   1      40.249  28.256  29.811  1.00  0.00     0.064 A 
ATOM     79  C   UNL A   1      40.897  28.695  28.649  1.00  0.00     0.173 A 
ATOM     80  C   UNL A   1      39.544  27.044  29.744  1.00  0.00     0.173 A 
ATOM     81  F   UNL A   1      41.560  29.861  28.652  1.00  0.00    -0.203 F 
ATOM     82  C   UNL A   1      40.839  27.958  27.467  1.00  0.00     0.198 A 
ATOM     83  C   UNL A   1      39.510  26.294  28.571  1.00  0.00     0.198 A 
ATOM     84  F   UNL A   1      38.899  26.582  30.825  1.00  0.00    -0.203 F 
ATOM     85  F   UNL A   1      41.435  28.421  26.360  1.00  0.00    -0.200 F 
ATOM     86  C   UNL A   1      40.153  26.753  27.433  1.00  0.00     0.200 A 
ATOM     87  F   UNL A   1      38.856  25.124  28.545  1.00  0.00    -0.200 F 
ATOM     88  F   UNL A   1      40.106  26.039  26.300  1.00  0.00    -0.200 F 
ENDBRANCH  54  78
BRANCH  66  89
ATOM     89  C   UNL A   1      44.750  28.448  35.152  1.00  0.00     0.064 A 
ATOM     90  C   UNL A   1      44.733  27.204  35.796  1.00  0.00     0.173 A 
ATOM     91  C   UNL A   1      45.990  28.945  34.719  1.00  0.00     0.173 A 
ATOM     92  F   UNL A   1      43.576  26.688  36.239  1.00  0.00    -0.203 F 
ATOM     93  C   UNL A   1      45.911  26.493  36.012  1.00  0.00     0.198 A 
ATOM     94  C   UNL A   1      47.161  28.216  34.905  1.00  0.00     0.198 A 
ATOM     95  F   UNL A   1      46.063  30.126  34.086  1.00  0.00    -0.203 F 
ATOM     96  F   UNL A   1      45.874  25.324  36.666  1.00  0.00    -0.200 F 
ATOM     97  C   UNL A   1      47.121  26.993  35.557  1.00  0.00     0.200 A 
ATOM     98  F   UNL A   1      48.326  28.692  34.446  1.00  0.00    -0.200 F 
ATOM     99  F   UNL A   1      48.251  26.298  35.750  1.00  0.00    -0.200 F 
ENDBRANCH  66  89
ENDBRANCH  40  41
ENDBRANCH  33  35
ENDBRANCH  32  33
ENDBRANCH  31  32
ENDBRANCH  30  31
ENDBRANCH  29  30
ENDBRANCH  28  29
ENDBRANCH   1  28
TORSDOF 21
ENDMDL
