MODEL 1
REMARK VINA RESULT:     -10.0      0.000      0.000
REMARK SMILES Cc1ccsc1[C@@H]1C[C@H]1C(=O)OCCOCCOCCOCCOC(=O)c1ccc(-c2c3nc(c(-c4c(F)c(F)c(F)c(F)c4F)c4ccc([nH]4)c(-c4c(F)c(F)c(F)c(F)c4F)c4nc(c(-c5c(F)c(F)c(F)c(F)c5F)c5ccc2[nH]5)C=C4)C=C3)cc1
REMARK SMILES IDX 19 1 18 2 17 3 16 4 15 5 14 6 13 7 12 8 10 9 11 10 9 11 7 12
REMARK SMILES IDX 8 13 6 14 1 15 2 16 3 17 4 18 5 19 20 20 21 21 22 22 23 23
REMARK SMILES IDX 24 24 25 25 26 26 27 27 28 28 89 29 29 30 88 31 30 32 31 33
REMARK SMILES IDX 32 34 82 35 33 36 87 37 81 38 83 39 34 40 86 41 80 42 79 43
REMARK SMILES IDX 35 45 67 46 47 47 66 48 48 49 51 50 65 51 84 52 49 53 50 54
REMARK SMILES IDX 64 56 85 57 52 58 36 59 37 60 45 61 38 62 39 63 43 64 46 65
REMARK SMILES IDX 40 66 41 67 44 68 42 69 68 70 69 71 77 72 70 73 71 74 75 75
REMARK SMILES IDX 78 76 72 77 73 78 76 79 74 80 53 81 54 82 62 83 55 84 56 85
REMARK SMILES IDX 60 86 63 87 57 88 58 89 61 90 59 91
REMARK H PARENT 83 44 51 55
REMARK Flexibility Score: inf
ROOT
ATOM      1  C   UNL A   1      39.075  21.752  25.951  1.00  0.00     0.188 C 
ENDROOT
BRANCH   1   2
ATOM      2  O   UNL A   1      38.649  23.097  26.124  1.00  0.00    -0.377 OA
BRANCH   2   3
ATOM      3  C   UNL A   1      37.255  23.338  26.125  1.00  0.00     0.188 C 
BRANCH   3   4
ATOM      4  C   UNL A   1      36.538  22.911  24.830  1.00  0.00     0.188 C 
BRANCH   4   5
ATOM      5  O   UNL A   1      35.210  22.402  24.868  1.00  0.00    -0.376 OA
BRANCH   5   6
ATOM      6  C   UNL A   1      34.823  21.417  25.817  1.00  0.00     0.202 C 
BRANCH   6   7
ATOM      7  C   UNL A   1      33.719  21.664  26.860  1.00  0.00     0.261 C 
BRANCH   7   8
ATOM      8  O   UNL A   1      33.498  23.037  27.202  1.00  0.00    -0.463 OA
BRANCH   8   9
ATOM      9  C   UNL A   1      32.278  23.548  26.912  1.00  0.00     0.309 C 
ATOM     10  O   UNL A   1      31.239  23.321  27.512  1.00  0.00    -0.252 OA
BRANCH   9  11
ATOM     11  C   UNL A   1      32.324  24.568  25.830  1.00  0.00     0.108 C 
ATOM     12  C   UNL A   1      32.132  26.054  26.074  1.00  0.00     0.045 C 
ATOM     13  C   UNL A   1      33.500  25.492  25.768  1.00  0.00     0.026 C 
BRANCH  12  14
ATOM     14  C   UNL A   1      31.470  27.003  25.043  1.00  0.00     0.011 A 
ATOM     15  C   UNL A   1      33.090  29.050  24.872  1.00  0.00     0.045 C 
ATOM     16  C   UNL A   1      31.867  28.248  24.569  1.00  0.00    -0.037 A 
ATOM     17  C   UNL A   1      30.860  28.791  23.687  1.00  0.00     0.015 A 
ATOM     18  C   UNL A   1      29.789  27.954  23.495  1.00  0.00     0.065 A 
ATOM     19  S   UNL A   1      29.972  26.500  24.355  1.00  0.00    -0.148 S 
ENDBRANCH  12  14
ENDBRANCH   9  11
ENDBRANCH   8   9
ENDBRANCH   7   8
ENDBRANCH   6   7
ENDBRANCH   5   6
ENDBRANCH   4   5
ENDBRANCH   3   4
ENDBRANCH   2   3
ENDBRANCH   1   2
BRANCH   1  20
ATOM     20  C   UNL A   1      40.379  21.285  26.632  1.00  0.00     0.188 C 
BRANCH  20  21
ATOM     21  O   UNL A   1      41.286  20.615  25.766  1.00  0.00    -0.376 OA
BRANCH  21  22
ATOM     22  C   UNL A   1      42.640  20.488  26.175  1.00  0.00     0.202 C 
BRANCH  22  23
ATOM     23  C   UNL A   1      43.665  21.400  25.481  1.00  0.00     0.261 C 
BRANCH  23  24
ATOM     24  O   UNL A   1      43.987  22.623  26.162  1.00  0.00    -0.460 OA
BRANCH  24  25
ATOM     25  C   UNL A   1      43.895  23.775  25.467  1.00  0.00     0.338 C 
ATOM     26  O   UNL A   1      44.180  23.957  24.296  1.00  0.00    -0.246 OA
BRANCH  25  27
ATOM     27  C   UNL A   1      43.203  24.764  26.319  1.00  0.00     0.060 A 
ATOM     28  C   UNL A   1      43.718  26.064  26.403  1.00  0.00     0.016 A 
ATOM     29  C   UNL A   1      42.059  24.410  27.040  1.00  0.00     0.016 A 
ATOM     30  C   UNL A   1      43.117  27.002  27.244  1.00  0.00     0.010 A 
ATOM     31  C   UNL A   1      41.469  25.345  27.897  1.00  0.00     0.010 A 
ATOM     32  C   UNL A   1      42.018  26.633  28.031  1.00  0.00    -0.014 A 
BRANCH  32  33
ATOM     33  C   UNL A   1      41.572  27.515  29.138  1.00  0.00     0.031 A 
ATOM     34  C   UNL A   1      42.318  27.450  30.445  1.00  0.00     0.074 A 
ATOM     35  C   UNL A   1      40.552  28.378  28.987  1.00  0.00     0.049 A 
ATOM     36  N   UNL A   1      42.084  28.072  31.573  1.00  0.00    -0.248 NA
ATOM     37  C   UNL A   1      43.490  26.560  30.482  1.00  0.00     0.031 C 
ATOM     38  C   UNL A   1      39.784  28.576  27.759  1.00  0.00     0.029 A 
ATOM     39  N   UNL A   1      39.980  29.247  29.884  1.00  0.00    -0.354 N 
ATOM     40  C   UNL A   1      43.077  27.650  32.448  1.00  0.00     0.074 A 
ATOM     41  C   UNL A   1      43.892  26.691  31.737  1.00  0.00     0.031 C 
ATOM     42  C   UNL A   1      38.833  29.501  27.984  1.00  0.00     0.029 A 
ATOM     43  C   UNL A   1      38.901  29.932  29.380  1.00  0.00     0.049 A 
ATOM     44  H   UNL A   1      40.313  29.368  30.803  1.00  0.00     0.167 HD
ATOM     45  C   UNL A   1      43.298  28.039  33.725  1.00  0.00     0.037 A 
ATOM     46  C   UNL A   1      38.054  30.787  29.988  1.00  0.00     0.037 A 
ATOM     47  C   UNL A   1      42.483  28.989  34.435  1.00  0.00     0.049 A 
ATOM     48  C   UNL A   1      38.264  31.121  31.446  1.00  0.00     0.074 A 
ATOM     49  C   UNL A   1      42.617  29.437  35.738  1.00  0.00     0.029 A 
ATOM     50  N   UNL A   1      41.376  29.632  33.902  1.00  0.00    -0.354 N 
ATOM     51  N   UNL A   1      39.212  30.731  32.262  1.00  0.00    -0.248 NA
ATOM     52  C   UNL A   1      37.281  32.022  32.067  1.00  0.00     0.031 C 
ATOM     53  C   UNL A   1      41.562  30.314  36.009  1.00  0.00     0.029 A 
ATOM     54  C   UNL A   1      40.808  30.460  34.855  1.00  0.00     0.049 A 
ATOM     55  H   UNL A   1      41.044  29.516  32.982  1.00  0.00     0.167 HD
ATOM     56  C   UNL A   1      38.965  31.371  33.473  1.00  0.00     0.074 A 
ATOM     57  C   UNL A   1      37.786  32.186  33.280  1.00  0.00     0.031 C 
ATOM     58  C   UNL A   1      39.652  31.290  34.639  1.00  0.00     0.037 A 
BRANCH  45  59
ATOM     59  C   UNL A   1      44.466  27.432  34.446  1.00  0.00     0.064 A 
ATOM     60  C   UNL A   1      45.728  28.046  34.449  1.00  0.00     0.173 A 
ATOM     61  C   UNL A   1      44.310  26.251  35.187  1.00  0.00     0.173 A 
ATOM     62  F   UNL A   1      45.934  29.168  33.742  1.00  0.00    -0.203 F 
ATOM     63  C   UNL A   1      46.794  27.492  35.153  1.00  0.00     0.198 A 
ATOM     64  C   UNL A   1      45.369  25.717  35.915  1.00  0.00     0.198 A 
ATOM     65  F   UNL A   1      43.124  25.625  35.220  1.00  0.00    -0.203 F 
ATOM     66  F   UNL A   1      47.999  28.074  35.109  1.00  0.00    -0.200 F 
ATOM     67  C   UNL A   1      46.610  26.333  35.893  1.00  0.00     0.200 A 
ATOM     68  F   UNL A   1      45.187  24.605  36.642  1.00  0.00    -0.200 F 
ATOM     69  F   UNL A   1      47.632  25.810  36.584  1.00  0.00    -0.200 F 
ENDBRANCH  45  59
BRANCH  46  70
ATOM     70  C   UNL A   1      36.909  31.381  29.242  1.00  0.00     0.064 A 
ATOM     71  C   UNL A   1      36.881  32.748  28.928  1.00  0.00     0.173 A 
ATOM     72  C   UNL A   1      35.788  30.613  28.897  1.00  0.00     0.173 A 
ATOM     73  F   UNL A   1      37.917  33.533  29.262  1.00  0.00    -0.203 F 
ATOM     74  C   UNL A   1      35.761  33.329  28.337  1.00  0.00     0.198 A 
ATOM     75  C   UNL A   1      34.683  31.189  28.273  1.00  0.00     0.198 A 
ATOM     76  F   UNL A   1      35.757  29.302  29.179  1.00  0.00    -0.203 F 
ATOM     77  F   UNL A   1      35.732  34.652  28.119  1.00  0.00    -0.200 F 
ATOM     78  C   UNL A   1      34.664  32.549  28.006  1.00  0.00     0.200 A 
ATOM     79  F   UNL A   1      33.628  30.428  27.946  1.00  0.00    -0.200 F 
ATOM     80  F   UNL A   1      33.583  33.110  27.449  1.00  0.00    -0.200 F 
ENDBRANCH  46  70
BRANCH  58  81
ATOM     81  C   UNL A   1      39.191  32.155  35.779  1.00  0.00     0.064 A 
ATOM     82  C   UNL A   1      38.298  31.686  36.754  1.00  0.00     0.173 A 
ATOM     83  C   UNL A   1      39.683  33.462  35.919  1.00  0.00     0.173 A 
ATOM     84  F   UNL A   1      37.787  30.448  36.663  1.00  0.00    -0.203 F 
ATOM     85  C   UNL A   1      37.892  32.503  37.806  1.00  0.00     0.198 A 
ATOM     86  C   UNL A   1      39.304  34.264  36.990  1.00  0.00     0.198 A 
ATOM     87  F   UNL A   1      40.549  33.958  35.021  1.00  0.00    -0.203 F 
ATOM     88  F   UNL A   1      36.995  32.052  38.694  1.00  0.00    -0.200 F 
ATOM     89  C   UNL A   1      38.401  33.788  37.928  1.00  0.00     0.200 A 
ATOM     90  F   UNL A   1      39.811  35.498  37.116  1.00  0.00    -0.200 F 
ATOM     91  F   UNL A   1      38.014  34.569  38.945  1.00  0.00    -0.200 F 
ENDBRANCH  58  81
ENDBRANCH  32  33
ENDBRANCH  25  27
ENDBRANCH  24  25
ENDBRANCH  23  24
ENDBRANCH  22  23
ENDBRANCH  21  22
ENDBRANCH  20  21
ENDBRANCH   1  20
TORSDOF 21
ENDMDL
MODEL 2
REMARK VINA RESULT:      -9.8      5.368     10.657
REMARK SMILES Cc1ccsc1[C@@H]1C[C@H]1C(=O)OCCOCCOCCOCCOC(=O)c1ccc(-c2c3nc(c(-c4c(F)c(F)c(F)c(F)c4F)c4ccc([nH]4)c(-c4c(F)c(F)c(F)c(F)c4F)c4nc(c(-c5c(F)c(F)c(F)c(F)c5F)c5ccc2[nH]5)C=C4)C=C3)cc1
REMARK SMILES IDX 19 1 18 2 17 3 16 4 15 5 14 6 13 7 12 8 10 9 11 10 9 11 7 12
REMARK SMILES IDX 8 13 6 14 1 15 2 16 3 17 4 18 5 19 20 20 21 21 22 22 23 23
REMARK SMILES IDX 24 24 25 25 26 26 27 27 28 28 89 29 29 30 88 31 30 32 31 33
REMARK SMILES IDX 32 34 82 35 33 36 87 37 81 38 83 39 34 40 86 41 80 42 79 43
REMARK SMILES IDX 35 45 67 46 47 47 66 48 48 49 51 50 65 51 84 52 49 53 50 54
REMARK SMILES IDX 64 56 85 57 52 58 36 59 37 60 45 61 38 62 39 63 43 64 46 65
REMARK SMILES IDX 40 66 41 67 44 68 42 69 68 70 69 71 77 72 70 73 71 74 75 75
REMARK SMILES IDX 78 76 72 77 73 78 76 79 74 80 53 81 54 82 62 83 55 84 56 85
REMARK SMILES IDX 60 86 63 87 57 88 58 89 61 90 59 91
REMARK H PARENT 83 44 51 55
REMARK Flexibility Score: inf
ROOT
ATOM      1  C   UNL A   1      34.127  32.294  28.713  1.00  0.00     0.188 C 
ENDROOT
BRANCH   1   2
ATOM      2  O   UNL A   1      35.074  31.781  27.786  1.00  0.00    -0.377 OA
BRANCH   2   3
ATOM      3  C   UNL A   1      35.035  30.391  27.525  1.00  0.00     0.188 C 
BRANCH   3   4
ATOM      4  C   UNL A   1      33.675  29.882  27.011  1.00  0.00     0.188 C 
BRANCH   4   5
ATOM      5  O   UNL A   1      33.607  28.947  25.941  1.00  0.00    -0.376 OA
BRANCH   5   6
ATOM      6  C   UNL A   1      32.647  27.898  25.936  1.00  0.00     0.202 C 
BRANCH   6   7
ATOM      7  C   UNL A   1      32.495  26.923  24.755  1.00  0.00     0.261 C 
BRANCH   7   8
ATOM      8  O   UNL A   1      33.527  26.999  23.765  1.00  0.00    -0.463 OA
BRANCH   8   9
ATOM      9  C   UNL A   1      33.723  25.896  23.004  1.00  0.00     0.309 C 
ATOM     10  O   UNL A   1      33.854  25.869  21.791  1.00  0.00    -0.252 OA
BRANCH   9  11
ATOM     11  C   UNL A   1      33.910  24.663  23.816  1.00  0.00     0.108 C 
ATOM     12  C   UNL A   1      34.065  23.279  23.210  1.00  0.00     0.045 C 
ATOM     13  C   UNL A   1      35.251  23.998  23.807  1.00  0.00     0.026 C 
BRANCH  12  14
ATOM     14  C   UNL A   1      33.552  21.991  23.900  1.00  0.00     0.011 A 
ATOM     15  C   UNL A   1      31.900  20.915  22.180  1.00  0.00     0.045 C 
ATOM     16  C   UNL A   1      32.642  21.031  23.472  1.00  0.00    -0.037 A 
ATOM     17  C   UNL A   1      32.409  20.060  24.516  1.00  0.00     0.015 A 
ATOM     18  C   UNL A   1      33.153  20.284  25.648  1.00  0.00     0.065 A 
ATOM     19  S   UNL A   1      34.152  21.648  25.480  1.00  0.00    -0.148 S 
ENDBRANCH  12  14
ENDBRANCH   9  11
ENDBRANCH   8   9
ENDBRANCH   7   8
ENDBRANCH   6   7
ENDBRANCH   5   6
ENDBRANCH   4   5
ENDBRANCH   3   4
ENDBRANCH   2   3
ENDBRANCH   1   2
BRANCH   1  20
ATOM     20  C   UNL A   1      34.077  33.815  28.970  1.00  0.00     0.188 C 
BRANCH  20  21
ATOM     21  O   UNL A   1      34.898  34.257  30.043  1.00  0.00    -0.376 OA
BRANCH  21  22
ATOM     22  C   UNL A   1      34.268  34.694  31.239  1.00  0.00     0.202 C 
BRANCH  22  23
ATOM     23  C   UNL A   1      34.107  33.655  32.360  1.00  0.00     0.261 C 
BRANCH  23  24
ATOM     24  O   UNL A   1      34.882  32.453  32.226  1.00  0.00    -0.460 OA
BRANCH  24  25
ATOM     25  C   UNL A   1      35.984  32.324  32.992  1.00  0.00     0.338 C 
ATOM     26  O   UNL A   1      36.115  32.649  34.160  1.00  0.00    -0.246 OA
BRANCH  25  27
ATOM     27  C   UNL A   1      36.976  31.538  32.230  1.00  0.00     0.060 A 
ATOM     28  C   UNL A   1      37.955  30.822  32.930  1.00  0.00     0.016 A 
ATOM     29  C   UNL A   1      36.949  31.516  30.833  1.00  0.00     0.016 A 
ATOM     30  C   UNL A   1      38.938  30.117  32.234  1.00  0.00     0.010 A 
ATOM     31  C   UNL A   1      37.945  30.825  30.137  1.00  0.00     0.010 A 
ATOM     32  C   UNL A   1      38.966  30.154  30.834  1.00  0.00    -0.014 A 
BRANCH  32  33
ATOM     33  C   UNL A   1      40.166  29.672  30.105  1.00  0.00     0.031 A 
ATOM     34  C   UNL A   1      41.307  30.633  29.899  1.00  0.00     0.074 A 
ATOM     35  C   UNL A   1      40.262  28.406  29.662  1.00  0.00     0.049 A 
ATOM     36  N   UNL A   1      42.429  30.470  29.245  1.00  0.00    -0.248 NA
ATOM     37  C   UNL A   1      41.159  31.961  30.516  1.00  0.00     0.031 C 
ATOM     38  C   UNL A   1      39.253  27.365  29.845  1.00  0.00     0.029 A 
ATOM     39  N   UNL A   1      41.264  27.784  28.955  1.00  0.00    -0.354 N 
ATOM     40  C   UNL A   1      43.118  31.669  29.374  1.00  0.00     0.074 A 
ATOM     41  C   UNL A   1      42.274  32.565  30.133  1.00  0.00     0.031 C 
ATOM     42  C   UNL A   1      39.682  26.234  29.254  1.00  0.00     0.029 A 
ATOM     43  C   UNL A   1      40.977  26.482  28.621  1.00  0.00     0.049 A 
ATOM     44  H   UNL A   1      42.107  28.229  28.711  1.00  0.00     0.167 HD
ATOM     45  C   UNL A   1      44.350  31.990  28.915  1.00  0.00     0.037 A 
ATOM     46  C   UNL A   1      41.672  25.606  27.868  1.00  0.00     0.037 A 
ATOM     47  C   UNL A   1      45.187  31.101  28.154  1.00  0.00     0.049 A 
ATOM     48  C   UNL A   1      42.997  26.029  27.279  1.00  0.00     0.074 A 
ATOM     49  C   UNL A   1      46.446  31.338  27.630  1.00  0.00     0.029 A 
ATOM     50  N   UNL A   1      44.846  29.804  27.803  1.00  0.00    -0.354 N 
ATOM     51  N   UNL A   1      43.649  27.158  27.417  1.00  0.00    -0.248 NA
ATOM     52  C   UNL A   1      43.687  25.047  26.428  1.00  0.00     0.031 C 
ATOM     53  C   UNL A   1      46.845  30.202  26.920  1.00  0.00     0.029 A 
ATOM     54  C   UNL A   1      45.863  29.235  27.055  1.00  0.00     0.049 A 
ATOM     55  H   UNL A   1      44.004  29.354  28.049  1.00  0.00     0.167 HD
ATOM     56  C   UNL A   1      44.837  27.006  26.711  1.00  0.00     0.074 A 
ATOM     57  C   UNL A   1      44.825  25.669  26.158  1.00  0.00     0.031 C 
ATOM     58  C   UNL A   1      45.848  27.892  26.536  1.00  0.00     0.037 A 
BRANCH  45  59
ATOM     59  C   UNL A   1      44.869  33.366  29.214  1.00  0.00     0.064 A 
ATOM     60  C   UNL A   1      45.646  33.627  30.353  1.00  0.00     0.173 A 
ATOM     61  C   UNL A   1      44.632  34.425  28.326  1.00  0.00     0.173 A 
ATOM     62  F   UNL A   1      45.888  32.652  31.242  1.00  0.00    -0.203 F 
ATOM     63  C   UNL A   1      46.153  34.900  30.599  1.00  0.00     0.198 A 
ATOM     64  C   UNL A   1      45.166  35.690  28.558  1.00  0.00     0.198 A 
ATOM     65  F   UNL A   1      43.896  34.230  27.221  1.00  0.00    -0.203 F 
ATOM     66  F   UNL A   1      46.860  35.135  31.713  1.00  0.00    -0.200 F 
ATOM     67  C   UNL A   1      45.921  35.927  29.696  1.00  0.00     0.200 A 
ATOM     68  F   UNL A   1      44.952  36.678  27.678  1.00  0.00    -0.200 F 
ATOM     69  F   UNL A   1      46.423  37.148  29.926  1.00  0.00    -0.200 F 
ENDBRANCH  45  59
BRANCH  46  70
ATOM     70  C   UNL A   1      41.135  24.243  27.597  1.00  0.00     0.064 A 
ATOM     71  C   UNL A   1      41.733  23.105  28.157  1.00  0.00     0.173 A 
ATOM     72  C   UNL A   1      40.064  24.045  26.713  1.00  0.00     0.173 A 
ATOM     73  F   UNL A   1      42.779  23.238  28.987  1.00  0.00    -0.203 F 
ATOM     74  C   UNL A   1      41.308  21.823  27.813  1.00  0.00     0.198 A 
ATOM     75  C   UNL A   1      39.616  22.764  26.398  1.00  0.00     0.198 A 
ATOM     76  F   UNL A   1      39.458  25.097  26.143  1.00  0.00    -0.203 F 
ATOM     77  F   UNL A   1      41.948  20.753  28.304  1.00  0.00    -0.200 F 
ATOM     78  C   UNL A   1      40.248  21.653  26.936  1.00  0.00     0.200 A 
ATOM     79  F   UNL A   1      38.584  22.605  25.557  1.00  0.00    -0.200 F 
ATOM     80  F   UNL A   1      39.847  20.421  26.595  1.00  0.00    -0.200 F 
ENDBRANCH  46  70
BRANCH  58  81
ATOM     81  C   UNL A   1      47.057  27.427  25.772  1.00  0.00     0.064 A 
ATOM     82  C   UNL A   1      47.181  27.620  24.388  1.00  0.00     0.173 A 
ATOM     83  C   UNL A   1      48.126  26.813  26.445  1.00  0.00     0.173 A 
ATOM     84  F   UNL A   1      46.185  28.191  23.693  1.00  0.00    -0.203 F 
ATOM     85  C   UNL A   1      48.315  27.188  23.703  1.00  0.00     0.198 A 
ATOM     86  C   UNL A   1      49.271  26.415  25.764  1.00  0.00     0.198 A 
ATOM     87  F   UNL A   1      48.064  26.614  27.770  1.00  0.00    -0.203 F 
ATOM     88  F   UNL A   1      48.386  27.333  22.373  1.00  0.00    -0.200 F 
ATOM     89  C   UNL A   1      49.361  26.593  24.392  1.00  0.00     0.200 A 
ATOM     90  F   UNL A   1      50.289  25.858  26.434  1.00  0.00    -0.200 F 
ATOM     91  F   UNL A   1      50.454  26.186  23.732  1.00  0.00    -0.200 F 
ENDBRANCH  58  81
ENDBRANCH  32  33
ENDBRANCH  25  27
ENDBRANCH  24  25
ENDBRANCH  23  24
ENDBRANCH  22  23
ENDBRANCH  21  22
ENDBRANCH  20  21
ENDBRANCH   1  20
TORSDOF 21
ENDMDL
MODEL 3
REMARK VINA RESULT:      -9.8      3.408      8.814
REMARK SMILES Cc1ccsc1[C@@H]1C[C@H]1C(=O)OCCOCCOCCOCCOC(=O)c1ccc(-c2c3nc(c(-c4c(F)c(F)c(F)c(F)c4F)c4ccc([nH]4)c(-c4c(F)c(F)c(F)c(F)c4F)c4nc(c(-c5c(F)c(F)c(F)c(F)c5F)c5ccc2[nH]5)C=C4)C=C3)cc1
REMARK SMILES IDX 19 1 18 2 17 3 16 4 15 5 14 6 13 7 12 8 10 9 11 10 9 11 7 12
REMARK SMILES IDX 8 13 6 14 1 15 2 16 3 17 4 18 5 19 20 20 21 21 22 22 23 23
REMARK SMILES IDX 24 24 25 25 26 26 27 27 28 28 89 29 29 30 88 31 30 32 31 33
REMARK SMILES IDX 32 34 82 35 33 36 87 37 81 38 83 39 34 40 86 41 80 42 79 43
REMARK SMILES IDX 35 45 67 46 47 47 66 48 48 49 51 50 65 51 84 52 49 53 50 54
REMARK SMILES IDX 64 56 85 57 52 58 36 59 37 60 45 61 38 62 39 63 43 64 46 65
REMARK SMILES IDX 40 66 41 67 44 68 42 69 68 70 69 71 77 72 70 73 71 74 75 75
REMARK SMILES IDX 78 76 72 77 73 78 76 79 74 80 53 81 54 82 62 83 55 84 56 85
REMARK SMILES IDX 60 86 63 87 57 88 58 89 61 90 59 91
REMARK H PARENT 83 44 51 55
REMARK Flexibility Score: inf
ROOT
ATOM      1  C   UNL A   1      33.804  28.628  26.827  1.00  0.00     0.188 C 
ENDROOT
BRANCH   1   2
ATOM      2  O   UNL A   1      33.419  27.699  25.822  1.00  0.00    -0.377 OA
BRANCH   2   3
ATOM      3  C   UNL A   1      33.875  27.946  24.506  1.00  0.00     0.188 C 
BRANCH   3   4
ATOM      4  C   UNL A   1      33.080  29.030  23.753  1.00  0.00     0.188 C 
BRANCH   4   5
ATOM      5  O   UNL A   1      32.271  28.692  22.633  1.00  0.00    -0.376 OA
BRANCH   5   6
ATOM      6  C   UNL A   1      31.416  27.557  22.654  1.00  0.00     0.202 C 
BRANCH   6   7
ATOM      7  C   UNL A   1      31.541  26.410  21.636  1.00  0.00     0.261 C 
BRANCH   7   8
ATOM      8  O   UNL A   1      31.640  25.098  22.204  1.00  0.00    -0.463 OA
BRANCH   8   9
ATOM      9  C   UNL A   1      32.812  24.445  22.025  1.00  0.00     0.309 C 
ATOM     10  O   UNL A   1      33.370  24.240  20.958  1.00  0.00    -0.252 OA
BRANCH   9  11
ATOM     11  C   UNL A   1      33.476  24.091  23.309  1.00  0.00     0.108 C 
ATOM     12  C   UNL A   1      33.438  22.699  23.913  1.00  0.00     0.045 C 
ATOM     13  C   UNL A   1      34.697  23.226  23.268  1.00  0.00     0.026 C 
BRANCH  12  14
ATOM     14  C   UNL A   1      33.437  22.437  25.439  1.00  0.00     0.011 A 
ATOM     15  C   UNL A   1      31.165  23.414  26.292  1.00  0.00     0.045 C 
ATOM     16  C   UNL A   1      32.500  22.755  26.416  1.00  0.00    -0.037 A 
ATOM     17  C   UNL A   1      32.997  22.394  27.723  1.00  0.00     0.015 A 
ATOM     18  C   UNL A   1      34.234  21.798  27.695  1.00  0.00     0.065 A 
ATOM     19  S   UNL A   1      34.818  21.648  26.106  1.00  0.00    -0.148 S 
ENDBRANCH  12  14
ENDBRANCH   9  11
ENDBRANCH   8   9
ENDBRANCH   7   8
ENDBRANCH   6   7
ENDBRANCH   5   6
ENDBRANCH   4   5
ENDBRANCH   3   4
ENDBRANCH   2   3
ENDBRANCH   1   2
BRANCH   1  20
ATOM     20  C   UNL A   1      32.765  29.642  27.348  1.00  0.00     0.188 C 
BRANCH  20  21
ATOM     21  O   UNL A   1      32.930  30.962  26.847  1.00  0.00    -0.376 OA
BRANCH  21  22
ATOM     22  C   UNL A   1      31.798  31.819  26.814  1.00  0.00     0.202 C 
BRANCH  22  23
ATOM     23  C   UNL A   1      32.056  33.321  27.015  1.00  0.00     0.261 C 
BRANCH  23  24
ATOM     24  O   UNL A   1      32.544  33.711  28.309  1.00  0.00    -0.460 OA
BRANCH  24  25
ATOM     25  C   UNL A   1      33.671  34.449  28.362  1.00  0.00     0.338 C 
ATOM     26  O   UNL A   1      33.764  35.663  28.301  1.00  0.00    -0.246 OA
BRANCH  25  27
ATOM     27  C   UNL A   1      34.789  33.544  28.701  1.00  0.00     0.060 A 
ATOM     28  C   UNL A   1      34.509  32.339  29.358  1.00  0.00     0.016 A 
ATOM     29  C   UNL A   1      36.106  33.885  28.383  1.00  0.00     0.016 A 
ATOM     30  C   UNL A   1      35.550  31.492  29.739  1.00  0.00     0.010 A 
ATOM     31  C   UNL A   1      37.150  33.045  28.782  1.00  0.00     0.010 A 
ATOM     32  C   UNL A   1      36.879  31.863  29.495  1.00  0.00    -0.014 A 
BRANCH  32  33
ATOM     33  C   UNL A   1      37.986  31.131  30.161  1.00  0.00     0.031 A 
ATOM     34  C   UNL A   1      38.280  31.445  31.604  1.00  0.00     0.074 A 
ATOM     35  C   UNL A   1      38.696  30.188  29.517  1.00  0.00     0.049 A 
ATOM     36  N   UNL A   1      39.229  30.987  32.382  1.00  0.00    -0.248 NA
ATOM     37  C   UNL A   1      37.379  32.408  32.258  1.00  0.00     0.031 C 
ATOM     38  C   UNL A   1      38.476  29.753  28.140  1.00  0.00     0.029 A 
ATOM     39  N   UNL A   1      39.758  29.427  29.944  1.00  0.00    -0.354 N 
ATOM     40  C   UNL A   1      39.036  31.603  33.612  1.00  0.00     0.074 A 
ATOM     41  C   UNL A   1      37.909  32.497  33.469  1.00  0.00     0.031 C 
ATOM     42  C   UNL A   1      39.384  28.810  27.829  1.00  0.00     0.029 A 
ATOM     43  C   UNL A   1      40.271  28.601  28.973  1.00  0.00     0.049 A 
ATOM     44  H   UNL A   1      40.118  29.470  30.859  1.00  0.00     0.167 HD
ATOM     45  C   UNL A   1      39.728  31.429  34.762  1.00  0.00     0.037 A 
ATOM     46  C   UNL A   1      41.350  27.793  29.003  1.00  0.00     0.037 A 
ATOM     47  C   UNL A   1      40.855  30.545  34.902  1.00  0.00     0.049 A 
ATOM     48  C   UNL A   1      42.168  27.699  30.270  1.00  0.00     0.074 A 
ATOM     49  C   UNL A   1      41.632  30.310  36.023  1.00  0.00     0.029 A 
ATOM     50  N   UNL A   1      41.368  29.754  33.886  1.00  0.00    -0.354 N 
ATOM     51  N   UNL A   1      41.972  28.273  31.432  1.00  0.00    -0.248 NA
ATOM     52  C   UNL A   1      43.359  26.838  30.227  1.00  0.00     0.031 C 
ATOM     53  C   UNL A   1      42.646  29.414  35.672  1.00  0.00     0.029 A 
ATOM     54  C   UNL A   1      42.463  29.043  34.349  1.00  0.00     0.049 A 
ATOM     55  H   UNL A   1      41.008  29.706  32.971  1.00  0.00     0.167 HD
ATOM     56  C   UNL A   1      42.984  27.809  32.265  1.00  0.00     0.074 A 
ATOM     57  C   UNL A   1      43.784  26.895  31.480  1.00  0.00     0.031 C 
ATOM     58  C   UNL A   1      43.231  28.113  33.563  1.00  0.00     0.037 A 
BRANCH  45  59
ATOM     59  C   UNL A   1      39.294  32.217  35.963  1.00  0.00     0.064 A 
ATOM     60  C   UNL A   1      38.372  31.701  36.886  1.00  0.00     0.173 A 
ATOM     61  C   UNL A   1      39.845  33.480  36.223  1.00  0.00     0.173 A 
ATOM     62  F   UNL A   1      37.803  30.505  36.675  1.00  0.00    -0.203 F 
ATOM     63  C   UNL A   1      38.006  32.427  38.017  1.00  0.00     0.198 A 
ATOM     64  C   UNL A   1      39.501  34.190  37.370  1.00  0.00     0.198 A 
ATOM     65  F   UNL A   1      40.733  34.019  35.374  1.00  0.00    -0.203 F 
ATOM     66  F   UNL A   1      37.094  31.932  38.863  1.00  0.00    -0.200 F 
ATOM     67  C   UNL A   1      38.579  33.667  38.262  1.00  0.00     0.200 A 
ATOM     68  F   UNL A   1      40.066  35.382  37.614  1.00  0.00    -0.200 F 
ATOM     69  F   UNL A   1      38.238  34.357  39.359  1.00  0.00    -0.200 F 
ENDBRANCH  45  59
BRANCH  46  70
ATOM     70  C   UNL A   1      41.750  27.015  27.797  1.00  0.00     0.064 A 
ATOM     71  C   UNL A   1      41.274  25.713  27.583  1.00  0.00     0.173 A 
ATOM     72  C   UNL A   1      42.676  27.526  26.875  1.00  0.00     0.173 A 
ATOM     73  F   UNL A   1      40.408  25.167  28.451  1.00  0.00    -0.203 F 
ATOM     74  C   UNL A   1      41.737  24.941  26.521  1.00  0.00     0.198 A 
ATOM     75  C   UNL A   1      43.111  26.765  25.792  1.00  0.00     0.198 A 
ATOM     76  F   UNL A   1      43.170  28.764  27.033  1.00  0.00    -0.203 F 
ATOM     77  F   UNL A   1      41.322  23.673  26.386  1.00  0.00    -0.200 F 
ATOM     78  C   UNL A   1      42.653  25.468  25.623  1.00  0.00     0.200 A 
ATOM     79  F   UNL A   1      43.989  27.284  24.921  1.00  0.00    -0.200 F 
ATOM     80  F   UNL A   1      43.107  24.721  24.609  1.00  0.00    -0.200 F 
ENDBRANCH  46  70
BRANCH  58  81
ATOM     81  C   UNL A   1      44.369  27.402  34.241  1.00  0.00     0.064 A 
ATOM     82  C   UNL A   1      44.205  26.151  34.854  1.00  0.00     0.173 A 
ATOM     83  C   UNL A   1      45.655  27.967  34.241  1.00  0.00     0.173 A 
ATOM     84  F   UNL A   1      42.996  25.572  34.894  1.00  0.00    -0.203 F 
ATOM     85  C   UNL A   1      45.278  25.508  35.468  1.00  0.00     0.198 A 
ATOM     86  C   UNL A   1      46.731  27.306  34.824  1.00  0.00     0.198 A 
ATOM     87  F   UNL A   1      45.871  29.156  33.659  1.00  0.00    -0.203 F 
ATOM     88  F   UNL A   1      45.084  24.340  36.096  1.00  0.00    -0.200 F 
ATOM     89  C   UNL A   1      46.540  26.082  35.446  1.00  0.00     0.200 A 
ATOM     90  F   UNL A   1      47.954  27.852  34.784  1.00  0.00    -0.200 F 
ATOM     91  F   UNL A   1      47.571  25.457  36.031  1.00  0.00    -0.200 F 
ENDBRANCH  58  81
ENDBRANCH  32  33
ENDBRANCH  25  27
ENDBRANCH  24  25
ENDBRANCH  23  24
ENDBRANCH  22  23
ENDBRANCH  21  22
ENDBRANCH  20  21
ENDBRANCH   1  20
TORSDOF 21
ENDMDL
