MODEL 1
REMARK VINA RESULT:      -8.6      0.000      0.000
REMARK SMILES CC(C)Cc1s/c(=N/C(=O)CCC(=O)Nc2nccs2)[nH]c1C(=O)OCCOCCOCCOCCOC(=O)c1ccc(-c2c3nc(c(-c4c(F)c(F)c(F)c(F)c4F)c4ccc([nH]4)c(-c4c(F)c(F)c(F)c(F)c4F)c4nc(c(-c5c(F)c(F)c(F)c(F)c5F)c5ccc2[nH]5)C=C4)C=C3)cc1
REMARK SMILES IDX 29 1 28 2 27 3 26 4 25 5 23 6 24 7 22 8 5 9 6 10 7 11 21 12
REMARK SMILES IDX 8 13 4 15 2 16 1 17 3 18 9 19 10 20 11 21 12 22 13 23 14 24
REMARK SMILES IDX 15 25 16 27 17 28 20 29 18 30 19 31 30 32 31 33 32 34 33 35
REMARK SMILES IDX 34 36 35 37 36 38 37 39 38 40 39 41 40 42 41 43 102 44 42 45
REMARK SMILES IDX 101 46 43 47 44 48 45 49 95 50 46 51 100 52 94 53 96 54
REMARK SMILES IDX 47 55 99 56 93 57 92 58 48 60 80 61 60 62 79 63 61 64 64 65
REMARK SMILES IDX 78 66 97 67 62 68 63 69 77 71 98 72 65 73 49 74 50 75 58 76
REMARK SMILES IDX 51 77 52 78 56 79 59 80 53 81 54 82 57 83 55 84 81 85 82 86
REMARK SMILES IDX 90 87 83 88 84 89 88 90 91 91 85 92 86 93 89 94 87 95 66 96
REMARK SMILES IDX 67 97 75 98 68 99 69 100 73 101 76 102 70 103 71 104 74 105
REMARK SMILES IDX 72 106
REMARK H PARENT 21 14 15 26 96 59 64 70
REMARK Flexibility Score: inf
ROOT
ATOM      1  C   UNL A   1      41.147  26.886  28.144  1.00  0.00     0.188 C 
ENDROOT
BRANCH   1   2
ATOM      2  O   UNL A   1      40.644  28.208  28.101  1.00  0.00    -0.376 OA
BRANCH   2   3
ATOM      3  C   UNL A   1      39.802  28.743  29.110  1.00  0.00     0.202 C 
BRANCH   3   4
ATOM      4  C   UNL A   1      38.618  29.710  28.902  1.00  0.00     0.261 C 
BRANCH   4   5
ATOM      5  O   UNL A   1      38.030  30.316  30.052  1.00  0.00    -0.459 OA
BRANCH   5   6
ATOM      6  C   UNL A   1      36.748  30.019  30.331  1.00  0.00     0.356 C 
ATOM      7  O   UNL A   1      36.356  29.367  31.287  1.00  0.00    -0.244 OA
BRANCH   6   8
ATOM      8  C   UNL A   1      35.829  30.786  29.434  1.00  0.00     0.140 A 
ATOM      9  C   UNL A   1      35.438  32.084  29.503  1.00  0.00     0.039 A 
ATOM     10  S   UNL A   1      34.264  32.421  28.212  1.00  0.00    -0.101 S 
ATOM     11  C   UNL A   1      34.285  30.733  27.661  1.00  0.00     0.190 A 
ATOM     12  N   UNL A   1      35.197  30.070  28.424  1.00  0.00    -0.325 N 
ATOM     13  N   UNL A   1      33.465  30.401  26.738  1.00  0.00    -0.185 NA
ATOM     14  H   UNL A   1      35.402  29.119  28.267  1.00  0.00     0.169 HD
BRANCH   9  15
ATOM     15  C   UNL A   1      35.752  33.168  30.509  1.00  0.00     0.052 C 
BRANCH  15  16
ATOM     16  C   UNL A   1      37.249  33.487  30.743  1.00  0.00    -0.012 C 
ATOM     17  C   UNL A   1      37.906  34.215  29.565  1.00  0.00     0.008 C 
ATOM     18  C   UNL A   1      37.401  34.373  31.987  1.00  0.00     0.008 C 
ENDBRANCH  15  16
ENDBRANCH   9  15
BRANCH  13  19
ATOM     19  C   UNL A   1      33.316  29.077  26.436  1.00  0.00     0.248 C 
ATOM     20  O   UNL A   1      32.905  28.220  27.216  1.00  0.00    -0.273 OA
BRANCH  19  21
ATOM     21  C   UNL A   1      33.788  28.716  25.036  1.00  0.00     0.112 C 
BRANCH  21  22
ATOM     22  C   UNL A   1      33.497  27.306  24.529  1.00  0.00     0.110 C 
BRANCH  22  23
ATOM     23  C   UNL A   1      32.577  27.208  23.325  1.00  0.00     0.226 C 
ATOM     24  O   UNL A   1      31.926  28.195  22.965  1.00  0.00    -0.275 OA
ATOM     25  N   UNL A   1      32.476  26.062  22.593  1.00  0.00    -0.302 N 
ATOM     26  H   UNL A   1      31.975  26.115  21.747  1.00  0.00     0.172 HD
BRANCH  25  27
ATOM     27  C   UNL A   1      33.005  24.850  22.924  1.00  0.00     0.189 A 
ATOM     28  N   UNL A   1      34.126  24.313  22.516  1.00  0.00    -0.229 NA
ATOM     29  S   UNL A   1      32.125  23.967  24.090  1.00  0.00    -0.105 S 
ATOM     30  C   UNL A   1      34.352  23.139  23.199  1.00  0.00     0.125 A 
ATOM     31  C   UNL A   1      33.361  22.775  24.082  1.00  0.00     0.088 A 
ENDBRANCH  25  27
ENDBRANCH  22  23
ENDBRANCH  21  22
ENDBRANCH  19  21
ENDBRANCH  13  19
ENDBRANCH   6   8
ENDBRANCH   5   6
ENDBRANCH   4   5
ENDBRANCH   3   4
ENDBRANCH   2   3
ENDBRANCH   1   2
BRANCH   1  32
ATOM     32  C   UNL A   1      40.551  25.893  27.131  1.00  0.00     0.188 C 
BRANCH  32  33
ATOM     33  O   UNL A   1      39.139  25.788  27.228  1.00  0.00    -0.377 OA
BRANCH  33  34
ATOM     34  C   UNL A   1      38.608  24.466  27.291  1.00  0.00     0.188 C 
BRANCH  34  35
ATOM     35  C   UNL A   1      38.878  23.473  26.138  1.00  0.00     0.188 C 
BRANCH  35  36
ATOM     36  O   UNL A   1      38.296  22.188  26.342  1.00  0.00    -0.376 OA
BRANCH  36  37
ATOM     37  C   UNL A   1      38.315  21.267  25.265  1.00  0.00     0.202 C 
BRANCH  37  38
ATOM     38  C   UNL A   1      38.947  19.910  25.598  1.00  0.00     0.261 C 
BRANCH  38  39
ATOM     39  O   UNL A   1      39.963  19.948  26.610  1.00  0.00    -0.460 OA
BRANCH  39  40
ATOM     40  C   UNL A   1      41.210  19.600  26.227  1.00  0.00     0.338 C 
ATOM     41  O   UNL A   1      41.543  18.589  25.633  1.00  0.00    -0.246 OA
BRANCH  40  42
ATOM     42  C   UNL A   1      42.097  20.751  26.480  1.00  0.00     0.060 A 
ATOM     43  C   UNL A   1      43.439  20.664  26.089  1.00  0.00     0.016 A 
ATOM     44  C   UNL A   1      41.607  21.912  27.082  1.00  0.00     0.016 A 
ATOM     45  C   UNL A   1      44.303  21.732  26.329  1.00  0.00     0.010 A 
ATOM     46  C   UNL A   1      42.478  22.973  27.339  1.00  0.00     0.010 A 
ATOM     47  C   UNL A   1      43.837  22.875  26.990  1.00  0.00    -0.014 A 
BRANCH  47  48
ATOM     48  C   UNL A   1      44.806  23.890  27.468  1.00  0.00     0.031 A 
ATOM     49  C   UNL A   1      44.844  24.211  28.936  1.00  0.00     0.074 A 
ATOM     50  C   UNL A   1      45.656  24.494  26.620  1.00  0.00     0.049 A 
ATOM     51  N   UNL A   1      45.589  25.070  29.582  1.00  0.00    -0.248 NA
ATOM     52  C   UNL A   1      43.914  23.458  29.792  1.00  0.00     0.031 C 
ATOM     53  C   UNL A   1      45.739  24.241  25.184  1.00  0.00     0.029 A 
ATOM     54  N   UNL A   1      46.611  25.453  26.851  1.00  0.00    -0.354 N 
ATOM     55  C   UNL A   1      45.215  24.965  30.916  1.00  0.00     0.074 A 
ATOM     56  C   UNL A   1      44.153  23.984  30.983  1.00  0.00     0.031 C 
ATOM     57  C   UNL A   1      46.689  25.032  24.658  1.00  0.00     0.029 A 
ATOM     58  C   UNL A   1      47.258  25.869  25.713  1.00  0.00     0.049 A 
ATOM     59  H   UNL A   1      46.814  25.807  27.746  1.00  0.00     0.167 HD
ATOM     60  C   UNL A   1      45.721  25.618  31.989  1.00  0.00     0.037 A 
ATOM     61  C   UNL A   1      48.184  26.832  25.545  1.00  0.00     0.037 A 
ATOM     62  C   UNL A   1      46.772  26.598  31.917  1.00  0.00     0.049 A 
ATOM     63  C   UNL A   1      48.674  27.604  26.745  1.00  0.00     0.074 A 
ATOM     64  C   UNL A   1      47.368  27.302  32.947  1.00  0.00     0.029 A 
ATOM     65  N   UNL A   1      47.376  27.022  30.741  1.00  0.00    -0.354 N 
ATOM     66  N   UNL A   1      48.343  27.474  28.007  1.00  0.00    -0.248 NA
ATOM     67  C   UNL A   1      49.672  28.655  26.496  1.00  0.00     0.031 C 
ATOM     68  C   UNL A   1      48.284  28.201  32.391  1.00  0.00     0.029 A 
ATOM     69  C   UNL A   1      48.313  28.005  31.020  1.00  0.00     0.049 A 
ATOM     70  H   UNL A   1      47.170  26.677  29.843  1.00  0.00     0.167 HD
ATOM     71  C   UNL A   1      49.112  28.399  28.705  1.00  0.00     0.074 A 
ATOM     72  C   UNL A   1      49.939  29.072  27.725  1.00  0.00     0.031 C 
ATOM     73  C   UNL A   1      49.133  28.665  30.034  1.00  0.00     0.037 A 
BRANCH  60  74
ATOM     74  C   UNL A   1      45.117  25.317  33.331  1.00  0.00     0.064 A 
ATOM     75  C   UNL A   1      45.695  24.394  34.215  1.00  0.00     0.173 A 
ATOM     76  C   UNL A   1      43.955  25.986  33.750  1.00  0.00     0.173 A 
ATOM     77  F   UNL A   1      46.796  23.716  33.859  1.00  0.00    -0.203 F 
ATOM     78  C   UNL A   1      45.117  24.130  35.455  1.00  0.00     0.198 A 
ATOM     79  C   UNL A   1      43.400  25.744  35.002  1.00  0.00     0.198 A 
ATOM     80  F   UNL A   1      43.361  26.880  32.945  1.00  0.00    -0.203 F 
ATOM     81  F   UNL A   1      45.656  23.203  36.260  1.00  0.00    -0.200 F 
ATOM     82  C   UNL A   1      43.975  24.810  35.850  1.00  0.00     0.200 A 
ATOM     83  F   UNL A   1      42.304  26.413  35.389  1.00  0.00    -0.200 F 
ATOM     84  F   UNL A   1      43.424  24.559  37.047  1.00  0.00    -0.200 F 
ENDBRANCH  60  74
BRANCH  61  85
ATOM     85  C   UNL A   1      48.707  27.135  24.185  1.00  0.00     0.064 A 
ATOM     86  C   UNL A   1      50.013  26.786  23.815  1.00  0.00     0.173 A 
ATOM     87  C   UNL A   1      47.918  27.801  23.235  1.00  0.00     0.173 A 
ATOM     88  F   UNL A   1      50.817  26.172  24.695  1.00  0.00    -0.203 F 
ATOM     89  C   UNL A   1      50.517  27.110  22.556  1.00  0.00     0.198 A 
ATOM     90  C   UNL A   1      48.411  28.094  21.965  1.00  0.00     0.198 A 
ATOM     91  F   UNL A   1      46.662  28.160  23.537  1.00  0.00    -0.203 F 
ATOM     92  F   UNL A   1      51.787  26.813  22.248  1.00  0.00    -0.200 F 
ATOM     93  C   UNL A   1      49.713  27.759  21.630  1.00  0.00     0.200 A 
ATOM     94  F   UNL A   1      47.626  28.708  21.070  1.00  0.00    -0.200 F 
ATOM     95  F   UNL A   1      50.196  28.065  20.418  1.00  0.00    -0.200 F 
ENDBRANCH  61  85
BRANCH  73  96
ATOM     96  C   UNL A   1      50.109  29.703  30.518  1.00  0.00     0.064 A 
ATOM     97  C   UNL A   1      49.767  31.060  30.606  1.00  0.00     0.173 A 
ATOM     98  C   UNL A   1      51.395  29.324  30.936  1.00  0.00     0.173 A 
ATOM     99  F   UNL A   1      48.556  31.479  30.209  1.00  0.00    -0.203 F 
ATOM    100  C   UNL A   1      50.686  32.003  31.062  1.00  0.00     0.198 A 
ATOM    101  C   UNL A   1      52.298  30.264  31.427  1.00  0.00     0.198 A 
ATOM    102  F   UNL A   1      51.773  28.038  30.885  1.00  0.00    -0.203 F 
ATOM    103  F   UNL A   1      50.355  33.302  31.082  1.00  0.00    -0.200 F 
ATOM    104  C   UNL A   1      51.947  31.604  31.479  1.00  0.00     0.200 A 
ATOM    105  F   UNL A   1      53.508  29.872  31.847  1.00  0.00    -0.200 F 
ATOM    106  F   UNL A   1      52.826  32.512  31.925  1.00  0.00    -0.200 F 
ENDBRANCH  73  96
ENDBRANCH  47  48
ENDBRANCH  40  42
ENDBRANCH  39  40
ENDBRANCH  38  39
ENDBRANCH  37  38
ENDBRANCH  36  37
ENDBRANCH  35  36
ENDBRANCH  34  35
ENDBRANCH  33  34
ENDBRANCH  32  33
ENDBRANCH   1  32
TORSDOF 27
ENDMDL
MODEL 2
REMARK VINA RESULT:      -8.4      4.121      6.131
REMARK SMILES CC(C)Cc1s/c(=N/C(=O)CCC(=O)Nc2nccs2)[nH]c1C(=O)OCCOCCOCCOCCOC(=O)c1ccc(-c2c3nc(c(-c4c(F)c(F)c(F)c(F)c4F)c4ccc([nH]4)c(-c4c(F)c(F)c(F)c(F)c4F)c4nc(c(-c5c(F)c(F)c(F)c(F)c5F)c5ccc2[nH]5)C=C4)C=C3)cc1
REMARK SMILES IDX 29 1 28 2 27 3 26 4 25 5 23 6 24 7 22 8 5 9 6 10 7 11 21 12
REMARK SMILES IDX 8 13 4 15 2 16 1 17 3 18 9 19 10 20 11 21 12 22 13 23 14 24
REMARK SMILES IDX 15 25 16 27 17 28 20 29 18 30 19 31 30 32 31 33 32 34 33 35
REMARK SMILES IDX 34 36 35 37 36 38 37 39 38 40 39 41 40 42 41 43 102 44 42 45
REMARK SMILES IDX 101 46 43 47 44 48 45 49 95 50 46 51 100 52 94 53 96 54
REMARK SMILES IDX 47 55 99 56 93 57 92 58 48 60 80 61 60 62 79 63 61 64 64 65
REMARK SMILES IDX 78 66 97 67 62 68 63 69 77 71 98 72 65 73 49 74 50 75 58 76
REMARK SMILES IDX 51 77 52 78 56 79 59 80 53 81 54 82 57 83 55 84 81 85 82 86
REMARK SMILES IDX 90 87 83 88 84 89 88 90 91 91 85 92 86 93 89 94 87 95 66 96
REMARK SMILES IDX 67 97 75 98 68 99 69 100 73 101 76 102 70 103 71 104 74 105
REMARK SMILES IDX 72 106
REMARK H PARENT 21 14 15 26 96 59 64 70
REMARK Flexibility Score: inf
ROOT
ATOM      1  C   UNL A   1      40.639  24.656  27.073  1.00  0.00     0.188 C 
ENDROOT
BRANCH   1   2
ATOM      2  O   UNL A   1      41.255  25.773  27.686  1.00  0.00    -0.376 OA
BRANCH   2   3
ATOM      3  C   UNL A   1      40.530  26.922  28.096  1.00  0.00     0.202 C 
BRANCH   3   4
ATOM      4  C   UNL A   1      39.595  27.032  29.318  1.00  0.00     0.261 C 
BRANCH   4   5
ATOM      5  O   UNL A   1      39.958  27.925  30.370  1.00  0.00    -0.459 OA
BRANCH   5   6
ATOM      6  C   UNL A   1      39.139  28.007  31.433  1.00  0.00     0.356 C 
ATOM      7  O   UNL A   1      38.250  27.218  31.714  1.00  0.00    -0.244 OA
BRANCH   6   8
ATOM      8  C   UNL A   1      39.604  29.079  32.367  1.00  0.00     0.140 A 
ATOM      9  C   UNL A   1      40.513  29.016  33.373  1.00  0.00     0.039 A 
ATOM     10  S   UNL A   1      40.596  30.586  34.200  1.00  0.00    -0.101 S 
ATOM     11  C   UNL A   1      39.311  31.266  33.181  1.00  0.00     0.190 A 
ATOM     12  N   UNL A   1      38.966  30.311  32.274  1.00  0.00    -0.325 N 
ATOM     13  N   UNL A   1      38.892  32.441  33.462  1.00  0.00    -0.185 NA
ATOM     14  H   UNL A   1      38.290  30.485  31.578  1.00  0.00     0.169 HD
BRANCH   9  15
ATOM     15  C   UNL A   1      41.320  27.858  33.915  1.00  0.00     0.052 C 
BRANCH  15  16
ATOM     16  C   UNL A   1      42.073  28.098  35.246  1.00  0.00    -0.012 C 
ATOM     17  C   UNL A   1      42.124  26.859  36.148  1.00  0.00     0.008 C 
ATOM     18  C   UNL A   1      43.518  28.526  34.954  1.00  0.00     0.008 C 
ENDBRANCH  15  16
ENDBRANCH   9  15
BRANCH  13  19
ATOM     19  C   UNL A   1      37.774  32.908  32.830  1.00  0.00     0.248 C 
ATOM     20  O   UNL A   1      36.702  32.309  32.763  1.00  0.00    -0.273 OA
BRANCH  19  21
ATOM     21  C   UNL A   1      37.986  34.238  32.124  1.00  0.00     0.112 C 
BRANCH  21  22
ATOM     22  C   UNL A   1      38.019  34.236  30.597  1.00  0.00     0.110 C 
BRANCH  22  23
ATOM     23  C   UNL A   1      37.668  32.919  29.926  1.00  0.00     0.226 C 
ATOM     24  O   UNL A   1      38.552  32.080  29.718  1.00  0.00    -0.275 OA
ATOM     25  N   UNL A   1      36.387  32.612  29.579  1.00  0.00    -0.302 N 
ATOM     26  H   UNL A   1      36.213  31.690  29.283  1.00  0.00     0.172 HD
BRANCH  25  27
ATOM     27  C   UNL A   1      35.322  33.464  29.604  1.00  0.00     0.189 A 
ATOM     28  N   UNL A   1      34.756  34.028  30.640  1.00  0.00    -0.229 NA
ATOM     29  S   UNL A   1      34.717  33.916  28.074  1.00  0.00    -0.105 S 
ATOM     30  C   UNL A   1      33.803  34.925  30.215  1.00  0.00     0.125 A 
ATOM     31  C   UNL A   1      33.623  34.986  28.852  1.00  0.00     0.088 A 
ENDBRANCH  25  27
ENDBRANCH  22  23
ENDBRANCH  21  22
ENDBRANCH  19  21
ENDBRANCH  13  19
ENDBRANCH   6   8
ENDBRANCH   5   6
ENDBRANCH   4   5
ENDBRANCH   3   4
ENDBRANCH   2   3
ENDBRANCH   1   2
BRANCH   1  32
ATOM     32  C   UNL A   1      40.827  23.299  27.774  1.00  0.00     0.188 C 
BRANCH  32  33
ATOM     33  O   UNL A   1      41.430  22.326  26.935  1.00  0.00    -0.377 OA
BRANCH  33  34
ATOM     34  C   UNL A   1      40.668  21.145  26.693  1.00  0.00     0.188 C 
BRANCH  34  35
ATOM     35  C   UNL A   1      41.381  19.777  26.583  1.00  0.00     0.188 C 
BRANCH  35  36
ATOM     36  O   UNL A   1      42.125  19.615  25.379  1.00  0.00    -0.376 OA
BRANCH  36  37
ATOM     37  C   UNL A   1      43.510  19.330  25.482  1.00  0.00     0.202 C 
BRANCH  37  38
ATOM     38  C   UNL A   1      44.430  20.452  24.985  1.00  0.00     0.261 C 
BRANCH  38  39
ATOM     39  O   UNL A   1      43.798  21.733  24.840  1.00  0.00    -0.460 OA
BRANCH  39  40
ATOM     40  C   UNL A   1      44.438  22.638  24.071  1.00  0.00     0.338 C 
ATOM     41  O   UNL A   1      44.524  22.644  22.855  1.00  0.00    -0.246 OA
BRANCH  40  42
ATOM     42  C   UNL A   1      44.866  23.748  24.943  1.00  0.00     0.060 A 
ATOM     43  C   UNL A   1      46.199  23.792  25.371  1.00  0.00     0.016 A 
ATOM     44  C   UNL A   1      43.966  24.747  25.322  1.00  0.00     0.016 A 
ATOM     45  C   UNL A   1      46.627  24.823  26.208  1.00  0.00     0.010 A 
ATOM     46  C   UNL A   1      44.391  25.767  26.176  1.00  0.00     0.010 A 
ATOM     47  C   UNL A   1      45.717  25.792  26.645  1.00  0.00    -0.014 A 
BRANCH  47  48
ATOM     48  C   UNL A   1      46.108  26.727  27.727  1.00  0.00     0.031 A 
ATOM     49  C   UNL A   1      46.023  26.254  29.152  1.00  0.00     0.074 A 
ATOM     50  C   UNL A   1      46.559  27.963  27.450  1.00  0.00     0.049 A 
ATOM     51  N   UNL A   1      46.292  26.893  30.260  1.00  0.00    -0.248 NA
ATOM     52  C   UNL A   1      45.571  24.867  29.351  1.00  0.00     0.031 C 
ATOM     53  C   UNL A   1      46.719  28.522  26.111  1.00  0.00     0.029 A 
ATOM     54  N   UNL A   1      46.958  28.973  28.290  1.00  0.00    -0.354 N 
ATOM     55  C   UNL A   1      46.040  25.992  31.286  1.00  0.00     0.074 A 
ATOM     56  C   UNL A   1      45.561  24.772  30.671  1.00  0.00     0.031 C 
ATOM     57  C   UNL A   1      47.178  29.781  26.218  1.00  0.00     0.029 A 
ATOM     58  C   UNL A   1      47.311  30.126  27.633  1.00  0.00     0.049 A 
ATOM     59  H   UNL A   1      46.991  28.879  29.269  1.00  0.00     0.167 HD
ATOM     60  C   UNL A   1      46.204  26.162  32.620  1.00  0.00     0.037 A 
ATOM     61  C   UNL A   1      47.675  31.327  28.123  1.00  0.00     0.037 A 
ATOM     62  C   UNL A   1      46.672  27.379  33.227  1.00  0.00     0.049 A 
ATOM     63  C   UNL A   1      47.772  31.517  29.616  1.00  0.00     0.074 A 
ATOM     64  C   UNL A   1      46.891  27.647  34.566  1.00  0.00     0.029 A 
ATOM     65  N   UNL A   1      46.981  28.540  32.532  1.00  0.00    -0.354 N 
ATOM     66  N   UNL A   1      47.567  30.650  30.578  1.00  0.00    -0.248 NA
ATOM     67  C   UNL A   1      48.156  32.854  30.091  1.00  0.00     0.031 C 
ATOM     68  C   UNL A   1      47.267  28.988  34.689  1.00  0.00     0.029 A 
ATOM     69  C   UNL A   1      47.355  29.536  33.420  1.00  0.00     0.049 A 
ATOM     70  H   UNL A   1      46.942  28.640  31.553  1.00  0.00     0.167 HD
ATOM     71  C   UNL A   1      47.828  31.324  31.766  1.00  0.00     0.074 A 
ATOM     72  C   UNL A   1      48.223  32.669  31.401  1.00  0.00     0.031 C 
ATOM     73  C   UNL A   1      47.750  30.871  33.042  1.00  0.00     0.037 A 
BRANCH  60  74
ATOM     74  C   UNL A   1      45.839  25.012  33.515  1.00  0.00     0.064 A 
ATOM     75  C   UNL A   1      46.810  24.162  34.065  1.00  0.00     0.173 A 
ATOM     76  C   UNL A   1      44.496  24.775  33.851  1.00  0.00     0.173 A 
ATOM     77  F   UNL A   1      48.106  24.334  33.764  1.00  0.00    -0.203 F 
ATOM     78  C   UNL A   1      46.450  23.101  34.891  1.00  0.00     0.198 A 
ATOM     79  C   UNL A   1      44.143  23.734  34.704  1.00  0.00     0.198 A 
ATOM     80  F   UNL A   1      43.526  25.558  33.355  1.00  0.00    -0.203 F 
ATOM     81  F   UNL A   1      47.390  22.269  35.360  1.00  0.00    -0.200 F 
ATOM     82  C   UNL A   1      45.118  22.893  35.217  1.00  0.00     0.200 A 
ATOM     83  F   UNL A   1      42.856  23.543  35.029  1.00  0.00    -0.200 F 
ATOM     84  F   UNL A   1      44.773  21.875  36.019  1.00  0.00    -0.200 F 
ENDBRANCH  60  74
BRANCH  61  85
ATOM     85  C   UNL A   1      47.966  32.454  27.195  1.00  0.00     0.064 A 
ATOM     86  C   UNL A   1      49.271  32.710  26.751  1.00  0.00     0.173 A 
ATOM     87  C   UNL A   1      46.948  33.311  26.752  1.00  0.00     0.173 A 
ATOM     88  F   UNL A   1      50.284  31.936  27.167  1.00  0.00    -0.203 F 
ATOM     89  C   UNL A   1      49.550  33.793  25.918  1.00  0.00     0.198 A 
ATOM     90  C   UNL A   1      47.223  34.373  25.892  1.00  0.00     0.198 A 
ATOM     91  F   UNL A   1      45.683  33.113  27.147  1.00  0.00    -0.203 F 
ATOM     92  F   UNL A   1      50.814  34.046  25.553  1.00  0.00    -0.200 F 
ATOM     93  C   UNL A   1      48.524  34.619  25.484  1.00  0.00     0.200 A 
ATOM     94  F   UNL A   1      46.226  35.159  25.464  1.00  0.00    -0.200 F 
ATOM     95  F   UNL A   1      48.792  35.657  24.679  1.00  0.00    -0.200 F 
ENDBRANCH  61  85
BRANCH  73  96
ATOM     96  C   UNL A   1      48.137  31.823  34.140  1.00  0.00     0.064 A 
ATOM     97  C   UNL A   1      49.464  31.953  34.578  1.00  0.00     0.173 A 
ATOM     98  C   UNL A   1      47.170  32.647  34.737  1.00  0.00     0.173 A 
ATOM     99  F   UNL A   1      50.427  31.181  34.051  1.00  0.00    -0.203 F 
ATOM    100  C   UNL A   1      49.801  32.844  35.594  1.00  0.00     0.198 A 
ATOM    101  C   UNL A   1      47.515  33.565  35.726  1.00  0.00     0.198 A 
ATOM    102  F   UNL A   1      45.886  32.574  34.351  1.00  0.00    -0.203 F 
ATOM    103  F   UNL A   1      51.065  32.908  36.034  1.00  0.00    -0.200 F 
ATOM    104  C   UNL A   1      48.829  33.655  36.161  1.00  0.00     0.200 A 
ATOM    105  F   UNL A   1      46.578  34.360  36.258  1.00  0.00    -0.200 F 
ATOM    106  F   UNL A   1      49.157  34.519  37.132  1.00  0.00    -0.200 F 
ENDBRANCH  73  96
ENDBRANCH  47  48
ENDBRANCH  40  42
ENDBRANCH  39  40
ENDBRANCH  38  39
ENDBRANCH  37  38
ENDBRANCH  36  37
ENDBRANCH  35  36
ENDBRANCH  34  35
ENDBRANCH  33  34
ENDBRANCH  32  33
ENDBRANCH   1  32
TORSDOF 27
ENDMDL
MODEL 3
REMARK VINA RESULT:      -8.1      8.904     16.539
REMARK SMILES CC(C)Cc1s/c(=N/C(=O)CCC(=O)Nc2nccs2)[nH]c1C(=O)OCCOCCOCCOCCOC(=O)c1ccc(-c2c3nc(c(-c4c(F)c(F)c(F)c(F)c4F)c4ccc([nH]4)c(-c4c(F)c(F)c(F)c(F)c4F)c4nc(c(-c5c(F)c(F)c(F)c(F)c5F)c5ccc2[nH]5)C=C4)C=C3)cc1
REMARK SMILES IDX 29 1 28 2 27 3 26 4 25 5 23 6 24 7 22 8 5 9 6 10 7 11 21 12
REMARK SMILES IDX 8 13 4 15 2 16 1 17 3 18 9 19 10 20 11 21 12 22 13 23 14 24
REMARK SMILES IDX 15 25 16 27 17 28 20 29 18 30 19 31 30 32 31 33 32 34 33 35
REMARK SMILES IDX 34 36 35 37 36 38 37 39 38 40 39 41 40 42 41 43 102 44 42 45
REMARK SMILES IDX 101 46 43 47 44 48 45 49 95 50 46 51 100 52 94 53 96 54
REMARK SMILES IDX 47 55 99 56 93 57 92 58 48 60 80 61 60 62 79 63 61 64 64 65
REMARK SMILES IDX 78 66 97 67 62 68 63 69 77 71 98 72 65 73 49 74 50 75 58 76
REMARK SMILES IDX 51 77 52 78 56 79 59 80 53 81 54 82 57 83 55 84 81 85 82 86
REMARK SMILES IDX 90 87 83 88 84 89 88 90 91 91 85 92 86 93 89 94 87 95 66 96
REMARK SMILES IDX 67 97 75 98 68 99 69 100 73 101 76 102 70 103 71 104 74 105
REMARK SMILES IDX 72 106
REMARK H PARENT 21 14 15 26 96 59 64 70
REMARK Flexibility Score: inf
ROOT
ATOM      1  C   UNL A   1      52.704  22.955  43.024  1.00  0.00     0.188 C 
ENDROOT
BRANCH   1   2
ATOM      2  O   UNL A   1      52.143  21.658  43.097  1.00  0.00    -0.376 OA
BRANCH   2   3
ATOM      3  C   UNL A   1      51.671  20.960  41.955  1.00  0.00     0.202 C 
BRANCH   3   4
ATOM      4  C   UNL A   1      50.312  20.245  41.810  1.00  0.00     0.261 C 
BRANCH   4   5
ATOM      5  O   UNL A   1      49.706  20.200  40.519  1.00  0.00    -0.459 OA
BRANCH   5   6
ATOM      6  C   UNL A   1      49.616  19.004  39.911  1.00  0.00     0.356 C 
ATOM      7  O   UNL A   1      50.433  18.100  39.986  1.00  0.00    -0.244 OA
BRANCH   6   8
ATOM      8  C   UNL A   1      48.261  18.831  39.300  1.00  0.00     0.140 A 
ATOM      9  C   UNL A   1      47.735  19.404  38.188  1.00  0.00     0.039 A 
ATOM     10  S   UNL A   1      46.045  18.889  37.995  1.00  0.00    -0.101 S 
ATOM     11  C   UNL A   1      46.088  17.957  39.505  1.00  0.00     0.190 A 
ATOM     12  N   UNL A   1      47.353  18.044  40.000  1.00  0.00    -0.325 N 
ATOM     13  N   UNL A   1      44.995  17.428  39.906  1.00  0.00    -0.185 NA
ATOM     14  H   UNL A   1      47.617  17.567  40.821  1.00  0.00     0.169 HD
BRANCH   9  15
ATOM     15  C   UNL A   1      48.305  20.423  37.227  1.00  0.00     0.052 C 
BRANCH  15  16
ATOM     16  C   UNL A   1      47.447  20.762  35.983  1.00  0.00    -0.012 C 
ATOM     17  C   UNL A   1      46.849  22.173  36.024  1.00  0.00     0.008 C 
ATOM     18  C   UNL A   1      48.306  20.653  34.716  1.00  0.00     0.008 C 
ENDBRANCH  15  16
ENDBRANCH   9  15
BRANCH  13  19
ATOM     19  C   UNL A   1      44.949  16.880  41.156  1.00  0.00     0.248 C 
ATOM     20  O   UNL A   1      45.921  16.736  41.896  1.00  0.00    -0.273 OA
BRANCH  19  21
ATOM     21  C   UNL A   1      43.570  16.373  41.549  1.00  0.00     0.112 C 
BRANCH  21  22
ATOM     22  C   UNL A   1      43.255  16.249  43.037  1.00  0.00     0.110 C 
BRANCH  22  23
ATOM     23  C   UNL A   1      42.318  15.119  43.428  1.00  0.00     0.226 C 
ATOM     24  O   UNL A   1      41.132  15.156  43.084  1.00  0.00    -0.275 OA
ATOM     25  N   UNL A   1      42.760  14.031  44.120  1.00  0.00    -0.302 N 
ATOM     26  H   UNL A   1      42.135  13.276  44.212  1.00  0.00     0.172 HD
BRANCH  25  27
ATOM     27  C   UNL A   1      43.988  13.891  44.697  1.00  0.00     0.189 A 
ATOM     28  N   UNL A   1      45.165  14.078  44.159  1.00  0.00    -0.229 NA
ATOM     29  S   UNL A   1      43.969  13.510  46.360  1.00  0.00    -0.105 S 
ATOM     30  C   UNL A   1      46.139  13.966  45.125  1.00  0.00     0.125 A 
ATOM     31  C   UNL A   1      45.681  13.637  46.381  1.00  0.00     0.088 A 
ENDBRANCH  25  27
ENDBRANCH  22  23
ENDBRANCH  21  22
ENDBRANCH  19  21
ENDBRANCH  13  19
ENDBRANCH   6   8
ENDBRANCH   5   6
ENDBRANCH   4   5
ENDBRANCH   3   4
ENDBRANCH   2   3
ENDBRANCH   1   2
BRANCH   1  32
ATOM     32  C   UNL A   1      52.777  23.594  41.626  1.00  0.00     0.188 C 
BRANCH  32  33
ATOM     33  O   UNL A   1      51.909  24.708  41.484  1.00  0.00    -0.377 OA
BRANCH  33  34
ATOM     34  C   UNL A   1      50.526  24.409  41.305  1.00  0.00     0.188 C 
BRANCH  34  35
ATOM     35  C   UNL A   1      49.909  24.439  39.887  1.00  0.00     0.188 C 
BRANCH  35  36
ATOM     36  O   UNL A   1      49.214  25.648  39.592  1.00  0.00    -0.376 OA
BRANCH  36  37
ATOM     37  C   UNL A   1      49.881  26.631  38.819  1.00  0.00     0.202 C 
BRANCH  37  38
ATOM     38  C   UNL A   1      49.203  26.962  37.484  1.00  0.00     0.261 C 
BRANCH  38  39
ATOM     39  O   UNL A   1      48.131  26.081  37.116  1.00  0.00    -0.460 OA
BRANCH  39  40
ATOM     40  C   UNL A   1      47.995  25.812  35.801  1.00  0.00     0.338 C 
ATOM     41  O   UNL A   1      48.639  25.013  35.141  1.00  0.00    -0.246 OA
BRANCH  40  42
ATOM     42  C   UNL A   1      46.792  26.516  35.318  1.00  0.00     0.060 A 
ATOM     43  C   UNL A   1      45.553  25.870  35.413  1.00  0.00     0.016 A 
ATOM     44  C   UNL A   1      46.881  27.807  34.793  1.00  0.00     0.016 A 
ATOM     45  C   UNL A   1      44.400  26.506  34.951  1.00  0.00     0.010 A 
ATOM     46  C   UNL A   1      45.730  28.434  34.313  1.00  0.00     0.010 A 
ATOM     47  C   UNL A   1      44.489  27.774  34.363  1.00  0.00    -0.014 A 
BRANCH  47  48
ATOM     48  C   UNL A   1      43.317  28.332  33.649  1.00  0.00     0.031 A 
ATOM     49  C   UNL A   1      43.118  27.972  32.202  1.00  0.00     0.074 A 
ATOM     50  C   UNL A   1      42.427  29.120  34.278  1.00  0.00     0.049 A 
ATOM     51  N   UNL A   1      42.183  28.350  31.370  1.00  0.00    -0.248 NA
ATOM     52  C   UNL A   1      44.113  27.059  31.617  1.00  0.00     0.031 C 
ATOM     53  C   UNL A   1      42.492  29.510  35.684  1.00  0.00     0.029 A 
ATOM     54  N   UNL A   1      41.296  29.738  33.807  1.00  0.00    -0.354 N 
ATOM     55  C   UNL A   1      42.478  27.727  30.164  1.00  0.00     0.074 A 
ATOM     56  C   UNL A   1      43.699  26.975  30.362  1.00  0.00     0.031 C 
ATOM     57  C   UNL A   1      41.448  30.310  35.961  1.00  0.00     0.029 A 
ATOM     58  C   UNL A   1      40.662  30.514  34.745  1.00  0.00     0.049 A 
ATOM     59  H   UNL A   1      40.970  29.635  32.884  1.00  0.00     0.167 HD
ATOM     60  C   UNL A   1      41.787  27.768  29.000  1.00  0.00     0.037 A 
ATOM     61  C   UNL A   1      39.585  31.314  34.626  1.00  0.00     0.037 A 
ATOM     62  C   UNL A   1      40.578  28.524  28.806  1.00  0.00     0.049 A 
ATOM     63  C   UNL A   1      38.878  31.408  33.296  1.00  0.00     0.074 A 
ATOM     64  C   UNL A   1      39.791  28.617  27.672  1.00  0.00     0.029 A 
ATOM     65  N   UNL A   1      39.987  29.330  29.769  1.00  0.00    -0.354 N 
ATOM     66  N   UNL A   1      39.141  30.788  32.171  1.00  0.00    -0.248 NA
ATOM     67  C   UNL A   1      37.721  32.311  33.223  1.00  0.00     0.031 C 
ATOM     68  C   UNL A   1      38.764  29.530  27.926  1.00  0.00     0.029 A 
ATOM     69  C   UNL A   1      38.865  29.951  29.242  1.00  0.00     0.049 A 
ATOM     70  H   UNL A   1      40.315  29.443  30.690  1.00  0.00     0.167 HD
ATOM     71  C   UNL A   1      38.167  31.198  31.268  1.00  0.00     0.074 A 
ATOM     72  C   UNL A   1      37.297  32.109  31.984  1.00  0.00     0.031 C 
ATOM     73  C   UNL A   1      38.005  30.853  29.967  1.00  0.00     0.037 A 
BRANCH  60  74
ATOM     74  C   UNL A   1      42.344  27.000  27.835  1.00  0.00     0.064 A 
ATOM     75  C   UNL A   1      42.020  25.653  27.612  1.00  0.00     0.173 A 
ATOM     76  C   UNL A   1      43.193  27.632  26.913  1.00  0.00     0.173 A 
ATOM     77  F   UNL A   1      41.226  24.998  28.471  1.00  0.00    -0.203 F 
ATOM     78  C   UNL A   1      42.550  24.960  26.526  1.00  0.00     0.198 A 
ATOM     79  C   UNL A   1      43.692  26.945  25.810  1.00  0.00     0.198 A 
ATOM     80  F   UNL A   1      43.534  28.919  27.077  1.00  0.00    -0.203 F 
ATOM     81  F   UNL A   1      42.271  23.659  26.364  1.00  0.00    -0.200 F 
ATOM     82  C   UNL A   1      43.378  25.608  25.622  1.00  0.00     0.200 A 
ATOM     83  F   UNL A   1      44.481  27.576  24.930  1.00  0.00    -0.200 F 
ATOM     84  F   UNL A   1      43.880  24.940  24.574  1.00  0.00    -0.200 F 
ENDBRANCH  60  74
BRANCH  61  85
ATOM     85  C   UNL A   1      39.109  32.104  35.794  1.00  0.00     0.064 A 
ATOM     86  C   UNL A   1      39.499  33.438  35.976  1.00  0.00     0.173 A 
ATOM     87  C   UNL A   1      38.272  31.533  36.764  1.00  0.00     0.173 A 
ATOM     88  F   UNL A   1      40.320  34.023  35.091  1.00  0.00    -0.203 F 
ATOM     89  C   UNL A   1      39.089  34.163  37.095  1.00  0.00     0.198 A 
ATOM     90  C   UNL A   1      37.835  32.269  37.864  1.00  0.00     0.198 A 
ATOM     91  F   UNL A   1      37.871  30.260  36.640  1.00  0.00    -0.203 F 
ATOM     92  F   UNL A   1      39.521  35.419  37.271  1.00  0.00    -0.200 F 
ATOM     93  C   UNL A   1      38.252  33.579  38.034  1.00  0.00     0.200 A 
ATOM     94  F   UNL A   1      37.016  31.705  38.761  1.00  0.00    -0.200 F 
ATOM     95  F   UNL A   1      37.854  34.278  39.106  1.00  0.00    -0.200 F 
ENDBRANCH  61  85
BRANCH  73  96
ATOM     96  C   UNL A   1      36.821  31.427  29.239  1.00  0.00     0.064 A 
ATOM     97  C   UNL A   1      35.720  30.639  28.872  1.00  0.00     0.173 A 
ATOM     98  C   UNL A   1      36.771  32.798  28.938  1.00  0.00     0.173 A 
ATOM     99  F   UNL A   1      35.720  29.320  29.125  1.00  0.00    -0.203 F 
ATOM    100  C   UNL A   1      34.632  31.193  28.202  1.00  0.00     0.198 A 
ATOM    101  C   UNL A   1      35.666  33.356  28.302  1.00  0.00     0.198 A 
ATOM    102  F   UNL A   1      37.791  33.603  29.275  1.00  0.00    -0.203 F 
ATOM    103  F   UNL A   1      33.618  30.408  27.811  1.00  0.00    -0.200 F 
ATOM    104  C   UNL A   1      34.602  32.551  27.925  1.00  0.00     0.200 A 
ATOM    105  F   UNL A   1      35.631  34.672  28.053  1.00  0.00    -0.200 F 
ATOM    106  F   UNL A   1      33.549  33.084  27.288  1.00  0.00    -0.200 F 
ENDBRANCH  73  96
ENDBRANCH  47  48
ENDBRANCH  40  42
ENDBRANCH  39  40
ENDBRANCH  38  39
ENDBRANCH  37  38
ENDBRANCH  36  37
ENDBRANCH  35  36
ENDBRANCH  34  35
ENDBRANCH  33  34
ENDBRANCH  32  33
ENDBRANCH   1  32
TORSDOF 27
ENDMDL
