MODEL 1
REMARK VINA RESULT:      -9.0      0.000      0.000
REMARK SMILES CCc1ccc(C(=O)NC[C@@H](CC(C)C)C(=O)OCCOCCOCCOCCOC(=O)c2ccc(-c3c4nc(c(-c5c(F)c(F)c(F)c(F)c5F)c5ccc([nH]5)c(-c5c(F)c(F)c(F)c(F)c5F)c5nc(c(-c6c(F)c(F)c(F)c(F)c6F)c6ccc3[nH]6)C=C5)C=C4)cc2)s1
REMARK SMILES IDX 23 1 22 2 21 3 20 4 19 5 18 6 16 7 17 8 11 9 10 10 9 11 7 12
REMARK SMILES IDX 8 13 6 15 3 16 4 17 96 18 5 19 2 20 1 21 12 22 13 23 14 24
REMARK SMILES IDX 15 25 24 26 25 27 26 28 27 29 28 30 29 31 30 32 31 33 32 34
REMARK SMILES IDX 33 35 34 36 95 37 35 38 94 39 36 40 37 41 38 42 88 43 39 44
REMARK SMILES IDX 93 45 87 46 89 47 40 48 92 49 86 50 85 51 41 53 73 54 53 55
REMARK SMILES IDX 72 56 54 57 57 58 71 59 90 60 55 61 56 62 70 64 91 65 58 66
REMARK SMILES IDX 42 67 43 68 51 69 44 70 45 71 49 72 52 73 46 74 47 75 50 76
REMARK SMILES IDX 48 77 74 78 75 79 83 80 76 81 77 82 81 83 84 84 78 85 79 86
REMARK SMILES IDX 82 87 80 88 59 89 60 90 68 91 61 92 62 93 66 94 69 95 63 96
REMARK SMILES IDX 64 97 67 98 65 99
REMARK H PARENT 9 14 89 52 57 63
REMARK Flexibility Score: inf
ROOT
ATOM      1  C   UNL A   1      34.496  16.818  24.192  1.00  0.00     0.188 C 
ENDROOT
BRANCH   1   2
ATOM      2  C   UNL A   1      33.182  16.594  24.939  1.00  0.00     0.188 C 
BRANCH   2   3
ATOM      3  O   UNL A   1      32.258  17.655  25.026  1.00  0.00    -0.376 OA
BRANCH   3   4
ATOM      4  C   UNL A   1      32.528  18.760  25.876  1.00  0.00     0.202 C 
BRANCH   4   5
ATOM      5  C   UNL A   1      32.621  20.207  25.363  1.00  0.00     0.261 C 
BRANCH   5   6
ATOM      6  O   UNL A   1      31.404  20.988  25.335  1.00  0.00    -0.463 OA
BRANCH   6   7
ATOM      7  C   UNL A   1      31.518  22.300  25.646  1.00  0.00     0.310 C 
ATOM      8  O   UNL A   1      31.476  22.725  26.798  1.00  0.00    -0.252 OA
BRANCH   7   9
ATOM      9  C   UNL A   1      31.575  23.264  24.459  1.00  0.00     0.118 C 
BRANCH   9  10
ATOM     10  C   UNL A   1      31.970  22.761  23.061  1.00  0.00     0.131 C 
BRANCH  10  11
ATOM     11  N   UNL A   1      33.429  22.846  22.828  1.00  0.00    -0.350 N 
ATOM     12  C   UNL A   1      34.448  23.732  23.137  1.00  0.00     0.261 C 
ATOM     13  O   UNL A   1      35.559  23.381  22.726  1.00  0.00    -0.268 OA
ATOM     14  H   UNL A   1      33.761  22.072  22.321  1.00  0.00     0.163 HD
BRANCH  12  15
ATOM     15  C   UNL A   1      34.239  24.986  23.857  1.00  0.00     0.092 A 
ATOM     16  C   UNL A   1      33.585  27.349  24.417  1.00  0.00     0.005 A 
ATOM     17  C   UNL A   1      33.881  26.583  25.517  1.00  0.00     0.016 A 
ATOM     18  S   UNL A   1      33.653  26.385  22.999  1.00  0.00    -0.135 S 
ATOM     19  C   UNL A   1      34.476  25.348  25.163  1.00  0.00     0.026 A 
BRANCH  16  20
ATOM     20  C   UNL A   1      33.245  28.816  24.386  1.00  0.00     0.043 C 
ATOM     21  C   UNL A   1      32.070  29.164  25.307  1.00  0.00     0.010 C 
ENDBRANCH  16  20
ENDBRANCH  12  15
ENDBRANCH  10  11
ENDBRANCH   9  10
BRANCH   9  22
ATOM     22  C   UNL A   1      30.295  24.121  24.478  1.00  0.00     0.020 C 
BRANCH  22  23
ATOM     23  C   UNL A   1      30.421  25.641  24.734  1.00  0.00    -0.017 C 
ATOM     24  C   UNL A   1      29.674  26.534  23.746  1.00  0.00     0.007 C 
ATOM     25  C   UNL A   1      29.913  25.938  26.147  1.00  0.00     0.007 C 
ENDBRANCH  22  23
ENDBRANCH   9  22
ENDBRANCH   7   9
ENDBRANCH   6   7
ENDBRANCH   5   6
ENDBRANCH   4   5
ENDBRANCH   3   4
ENDBRANCH   2   3
ENDBRANCH   1   2
BRANCH   1  26
ATOM     26  O   UNL A   1      35.077  18.110  24.252  1.00  0.00    -0.377 OA
BRANCH  26  27
ATOM     27  C   UNL A   1      36.273  18.317  24.998  1.00  0.00     0.188 C 
BRANCH  27  28
ATOM     28  C   UNL A   1      36.950  19.697  24.998  1.00  0.00     0.188 C 
BRANCH  28  29
ATOM     29  O   UNL A   1      36.047  20.785  25.106  1.00  0.00    -0.376 OA
BRANCH  29  30
ATOM     30  C   UNL A   1      36.396  21.895  25.920  1.00  0.00     0.202 C 
BRANCH  30  31
ATOM     31  C   UNL A   1      37.440  22.883  25.380  1.00  0.00     0.261 C 
BRANCH  31  32
ATOM     32  O   UNL A   1      38.802  22.451  25.384  1.00  0.00    -0.460 OA
BRANCH  32  33
ATOM     33  C   UNL A   1      39.464  22.476  26.553  1.00  0.00     0.338 C 
ATOM     34  O   UNL A   1      40.007  21.560  27.128  1.00  0.00    -0.246 OA
BRANCH  33  35
ATOM     35  C   UNL A   1      39.576  23.898  26.917  1.00  0.00     0.060 A 
ATOM     36  C   UNL A   1      40.221  24.764  26.028  1.00  0.00     0.016 A 
ATOM     37  C   UNL A   1      39.043  24.360  28.121  1.00  0.00     0.016 A 
ATOM     38  C   UNL A   1      40.393  26.098  26.376  1.00  0.00     0.010 A 
ATOM     39  C   UNL A   1      39.231  25.693  28.477  1.00  0.00     0.010 A 
ATOM     40  C   UNL A   1      39.949  26.550  27.625  1.00  0.00    -0.014 A 
BRANCH  40  41
ATOM     41  C   UNL A   1      40.438  27.849  28.131  1.00  0.00     0.031 A 
ATOM     42  C   UNL A   1      41.925  28.058  28.205  1.00  0.00     0.074 A 
ATOM     43  C   UNL A   1      39.580  28.824  28.476  1.00  0.00     0.049 A 
ATOM     44  N   UNL A   1      42.598  29.086  28.651  1.00  0.00    -0.248 NA
ATOM     45  C   UNL A   1      42.769  26.957  27.707  1.00  0.00     0.031 C 
ATOM     46  C   UNL A   1      38.124  28.737  28.393  1.00  0.00     0.029 A 
ATOM     47  N   UNL A   1      39.818  30.079  28.972  1.00  0.00    -0.354 N 
ATOM     48  C   UNL A   1      43.937  28.749  28.502  1.00  0.00     0.074 A 
ATOM     49  C   UNL A   1      43.987  27.416  27.946  1.00  0.00     0.031 C 
ATOM     50  C   UNL A   1      37.595  29.888  28.841  1.00  0.00     0.029 A 
ATOM     51  C   UNL A   1      38.674  30.774  29.276  1.00  0.00     0.049 A 
ATOM     52  H   UNL A   1      40.722  30.448  29.100  1.00  0.00     0.167 HD
ATOM     53  C   UNL A   1      45.026  29.494  28.799  1.00  0.00     0.037 A 
ATOM     54  C   UNL A   1      38.525  31.976  29.866  1.00  0.00     0.037 A 
ATOM     55  C   UNL A   1      44.961  30.825  29.341  1.00  0.00     0.049 A 
ATOM     56  C   UNL A   1      39.761  32.753  30.250  1.00  0.00     0.074 A 
ATOM     57  C   UNL A   1      46.001  31.679  29.653  1.00  0.00     0.029 A 
ATOM     58  N   UNL A   1      43.784  31.488  29.658  1.00  0.00    -0.354 N 
ATOM     59  N   UNL A   1      41.026  32.446  30.075  1.00  0.00    -0.248 NA
ATOM     60  C   UNL A   1      39.550  34.048  30.912  1.00  0.00     0.031 C 
ATOM     61  C   UNL A   1      45.458  32.834  30.222  1.00  0.00     0.029 A 
ATOM     62  C   UNL A   1      44.077  32.730  30.196  1.00  0.00     0.049 A 
ATOM     63  H   UNL A   1      42.878  31.129  29.523  1.00  0.00     0.167 HD
ATOM     64  C   UNL A   1      41.753  33.522  30.567  1.00  0.00     0.074 A 
ATOM     65  C   UNL A   1      40.790  34.496  31.032  1.00  0.00     0.031 C 
ATOM     66  C   UNL A   1      43.098  33.691  30.632  1.00  0.00     0.037 A 
BRANCH  53  67
ATOM     67  C   UNL A   1      46.379  28.887  28.579  1.00  0.00     0.064 A 
ATOM     68  C   UNL A   1      46.999  28.082  29.548  1.00  0.00     0.173 A 
ATOM     69  C   UNL A   1      47.035  29.059  27.351  1.00  0.00     0.173 A 
ATOM     70  F   UNL A   1      46.423  27.902  30.745  1.00  0.00    -0.203 F 
ATOM     71  C   UNL A   1      48.229  27.479  29.295  1.00  0.00     0.198 A 
ATOM     72  C   UNL A   1      48.249  28.430  27.091  1.00  0.00     0.198 A 
ATOM     73  F   UNL A   1      46.487  29.821  26.393  1.00  0.00    -0.203 F 
ATOM     74  F   UNL A   1      48.818  26.740  30.245  1.00  0.00    -0.200 F 
ATOM     75  C   UNL A   1      48.846  27.642  28.064  1.00  0.00     0.200 A 
ATOM     76  F   UNL A   1      48.837  28.579  25.896  1.00  0.00    -0.200 F 
ATOM     77  F   UNL A   1      50.018  27.042  27.815  1.00  0.00    -0.200 F 
ENDBRANCH  53  67
BRANCH  54  78
ATOM     78  C   UNL A   1      37.170  32.512  30.164  1.00  0.00     0.064 A 
ATOM     79  C   UNL A   1      36.463  33.269  29.220  1.00  0.00     0.173 A 
ATOM     80  C   UNL A   1      36.578  32.329  31.424  1.00  0.00     0.173 A 
ATOM     81  F   UNL A   1      36.993  33.492  28.007  1.00  0.00    -0.203 F 
ATOM     82  C   UNL A   1      35.240  33.859  29.537  1.00  0.00     0.198 A 
ATOM     83  C   UNL A   1      35.337  32.886  31.726  1.00  0.00     0.198 A 
ATOM     84  F   UNL A   1      37.207  31.611  32.365  1.00  0.00    -0.203 F 
ATOM     85  F   UNL A   1      34.623  34.639  28.639  1.00  0.00    -0.200 F 
ATOM     86  C   UNL A   1      34.677  33.664  30.788  1.00  0.00     0.200 A 
ATOM     87  F   UNL A   1      34.790  32.681  32.931  1.00  0.00    -0.200 F 
ATOM     88  F   UNL A   1      33.505  34.237  31.095  1.00  0.00    -0.200 F 
ENDBRANCH  54  78
BRANCH  66  89
ATOM     89  C   UNL A   1      43.605  34.999  31.170  1.00  0.00     0.064 A 
ATOM     90  C   UNL A   1      43.762  36.127  30.352  1.00  0.00     0.173 A 
ATOM     91  C   UNL A   1      43.894  35.134  32.538  1.00  0.00     0.173 A 
ATOM     92  F   UNL A   1      43.510  36.048  29.037  1.00  0.00    -0.203 F 
ATOM     93  C   UNL A   1      44.220  37.333  30.877  1.00  0.00     0.198 A 
ATOM     94  C   UNL A   1      44.315  36.351  33.065  1.00  0.00     0.198 A 
ATOM     95  F   UNL A   1      43.750  34.089  33.367  1.00  0.00    -0.203 F 
ATOM     96  F   UNL A   1      44.418  38.381  30.067  1.00  0.00    -0.200 F 
ATOM     97  C   UNL A   1      44.487  37.446  32.233  1.00  0.00     0.200 A 
ATOM     98  F   UNL A   1      44.552  36.463  34.379  1.00  0.00    -0.200 F 
ATOM     99  F   UNL A   1      44.919  38.610  32.737  1.00  0.00    -0.200 F 
ENDBRANCH  66  89
ENDBRANCH  40  41
ENDBRANCH  33  35
ENDBRANCH  32  33
ENDBRANCH  31  32
ENDBRANCH  30  31
ENDBRANCH  29  30
ENDBRANCH  28  29
ENDBRANCH  27  28
ENDBRANCH  26  27
ENDBRANCH   1  26
TORSDOF 26
ENDMDL
MODEL 2
REMARK VINA RESULT:      -8.9      4.203      9.345
REMARK SMILES CCc1ccc(C(=O)NC[C@@H](CC(C)C)C(=O)OCCOCCOCCOCCOC(=O)c2ccc(-c3c4nc(c(-c5c(F)c(F)c(F)c(F)c5F)c5ccc([nH]5)c(-c5c(F)c(F)c(F)c(F)c5F)c5nc(c(-c6c(F)c(F)c(F)c(F)c6F)c6ccc3[nH]6)C=C5)C=C4)cc2)s1
REMARK SMILES IDX 23 1 22 2 21 3 20 4 19 5 18 6 16 7 17 8 11 9 10 10 9 11 7 12
REMARK SMILES IDX 8 13 6 15 3 16 4 17 96 18 5 19 2 20 1 21 12 22 13 23 14 24
REMARK SMILES IDX 15 25 24 26 25 27 26 28 27 29 28 30 29 31 30 32 31 33 32 34
REMARK SMILES IDX 33 35 34 36 95 37 35 38 94 39 36 40 37 41 38 42 88 43 39 44
REMARK SMILES IDX 93 45 87 46 89 47 40 48 92 49 86 50 85 51 41 53 73 54 53 55
REMARK SMILES IDX 72 56 54 57 57 58 71 59 90 60 55 61 56 62 70 64 91 65 58 66
REMARK SMILES IDX 42 67 43 68 51 69 44 70 45 71 49 72 52 73 46 74 47 75 50 76
REMARK SMILES IDX 48 77 74 78 75 79 83 80 76 81 77 82 81 83 84 84 78 85 79 86
REMARK SMILES IDX 82 87 80 88 59 89 60 90 68 91 61 92 62 93 66 94 69 95 63 96
REMARK SMILES IDX 64 97 67 98 65 99
REMARK H PARENT 9 14 89 52 57 63
REMARK Flexibility Score: inf
ROOT
ATOM      1  C   UNL A   1      33.481  28.716  23.032  1.00  0.00     0.188 C 
ENDROOT
BRANCH   1   2
ATOM      2  C   UNL A   1      33.905  27.510  22.196  1.00  0.00     0.188 C 
BRANCH   2   3
ATOM      3  O   UNL A   1      33.153  26.320  22.287  1.00  0.00    -0.376 OA
BRANCH   3   4
ATOM      4  C   UNL A   1      32.939  25.528  21.128  1.00  0.00     0.202 C 
BRANCH   4   5
ATOM      5  C   UNL A   1      32.918  23.991  21.158  1.00  0.00     0.261 C 
BRANCH   5   6
ATOM      6  O   UNL A   1      32.457  23.351  22.372  1.00  0.00    -0.463 OA
BRANCH   6   7
ATOM      7  C   UNL A   1      33.399  22.748  23.134  1.00  0.00     0.310 C 
ATOM      8  O   UNL A   1      34.600  22.989  23.037  1.00  0.00    -0.252 OA
BRANCH   7   9
ATOM      9  C   UNL A   1      32.898  21.632  24.053  1.00  0.00     0.118 C 
BRANCH   9  10
ATOM     10  C   UNL A   1      31.592  21.799  24.847  1.00  0.00     0.131 C 
BRANCH  10  11
ATOM     11  N   UNL A   1      31.796  22.543  26.109  1.00  0.00    -0.350 N 
ATOM     12  C   UNL A   1      31.435  23.780  26.618  1.00  0.00     0.261 C 
ATOM     13  O   UNL A   1      31.840  23.986  27.768  1.00  0.00    -0.268 OA
ATOM     14  H   UNL A   1      32.326  22.024  26.755  1.00  0.00     0.163 HD
BRANCH  12  15
ATOM     15  C   UNL A   1      30.673  24.774  25.865  1.00  0.00     0.092 A 
ATOM     16  C   UNL A   1      30.010  26.497  24.159  1.00  0.00     0.005 A 
ATOM     17  C   UNL A   1      28.954  26.008  24.888  1.00  0.00     0.016 A 
ATOM     18  S   UNL A   1      31.450  25.668  24.588  1.00  0.00    -0.135 S 
ATOM     19  C   UNL A   1      29.383  25.233  25.993  1.00  0.00     0.026 A 
BRANCH  16  20
ATOM     20  C   UNL A   1      29.980  27.593  23.125  1.00  0.00     0.043 C 
ATOM     21  C   UNL A   1      29.933  28.990  23.754  1.00  0.00     0.010 C 
ENDBRANCH  16  20
ENDBRANCH  12  15
ENDBRANCH  10  11
ENDBRANCH   9  10
BRANCH   9  22
ATOM     22  C   UNL A   1      33.000  20.300  23.287  1.00  0.00     0.020 C 
BRANCH  22  23
ATOM     23  C   UNL A   1      32.383  19.030  23.918  1.00  0.00    -0.017 C 
ATOM     24  C   UNL A   1      32.481  17.764  23.069  1.00  0.00     0.007 C 
ATOM     25  C   UNL A   1      33.068  18.774  25.262  1.00  0.00     0.007 C 
ENDBRANCH  22  23
ENDBRANCH   9  22
ENDBRANCH   7   9
ENDBRANCH   6   7
ENDBRANCH   5   6
ENDBRANCH   4   5
ENDBRANCH   3   4
ENDBRANCH   2   3
ENDBRANCH   1   2
BRANCH   1  26
ATOM     26  O   UNL A   1      33.432  28.559  24.441  1.00  0.00    -0.377 OA
BRANCH  26  27
ATOM     27  C   UNL A   1      33.451  29.706  25.285  1.00  0.00     0.188 C 
BRANCH  27  28
ATOM     28  C   UNL A   1      33.123  29.567  26.781  1.00  0.00     0.188 C 
BRANCH  28  29
ATOM     29  O   UNL A   1      31.979  30.295  27.193  1.00  0.00    -0.376 OA
BRANCH  29  30
ATOM     30  C   UNL A   1      31.591  31.446  26.457  1.00  0.00     0.202 C 
BRANCH  30  31
ATOM     31  C   UNL A   1      31.760  32.818  27.124  1.00  0.00     0.261 C 
BRANCH  31  32
ATOM     32  O   UNL A   1      33.077  33.372  27.137  1.00  0.00    -0.460 OA
BRANCH  32  33
ATOM     33  C   UNL A   1      33.551  33.834  28.307  1.00  0.00     0.338 C 
ATOM     34  O   UNL A   1      33.045  34.636  29.058  1.00  0.00    -0.246 OA
BRANCH  33  35
ATOM     35  C   UNL A   1      34.738  33.017  28.605  1.00  0.00     0.060 A 
ATOM     36  C   UNL A   1      34.550  31.733  29.126  1.00  0.00     0.016 A 
ATOM     37  C   UNL A   1      36.018  33.521  28.365  1.00  0.00     0.016 A 
ATOM     38  C   UNL A   1      35.656  30.966  29.473  1.00  0.00     0.010 A 
ATOM     39  C   UNL A   1      37.125  32.760  28.729  1.00  0.00     0.010 A 
ATOM     40  C   UNL A   1      36.942  31.502  29.328  1.00  0.00    -0.014 A 
BRANCH  40  41
ATOM     41  C   UNL A   1      38.073  30.842  30.013  1.00  0.00     0.031 A 
ATOM     42  C   UNL A   1      38.323  31.196  31.453  1.00  0.00     0.074 A 
ATOM     43  C   UNL A   1      38.826  29.928  29.380  1.00  0.00     0.049 A 
ATOM     44  N   UNL A   1      39.272  30.790  32.255  1.00  0.00    -0.248 NA
ATOM     45  C   UNL A   1      37.373  32.137  32.074  1.00  0.00     0.031 C 
ATOM     46  C   UNL A   1      38.633  29.480  28.003  1.00  0.00     0.029 A 
ATOM     47  N   UNL A   1      39.913  29.217  29.820  1.00  0.00    -0.354 N 
ATOM     48  C   UNL A   1      39.042  31.435  33.463  1.00  0.00     0.074 A 
ATOM     49  C   UNL A   1      37.879  32.276  33.288  1.00  0.00     0.031 C 
ATOM     50  C   UNL A   1      39.583  28.578  27.703  1.00  0.00     0.029 A 
ATOM     51  C   UNL A   1      40.471  28.417  28.853  1.00  0.00     0.049 A 
ATOM     52  H   UNL A   1      40.261  29.274  30.739  1.00  0.00     0.167 HD
ATOM     53  C   UNL A   1      39.739  31.327  34.617  1.00  0.00     0.037 A 
ATOM     54  C   UNL A   1      41.589  27.667  28.895  1.00  0.00     0.037 A 
ATOM     55  C   UNL A   1      40.887  30.476  34.780  1.00  0.00     0.049 A 
ATOM     56  C   UNL A   1      42.385  27.622  30.177  1.00  0.00     0.074 A 
ATOM     57  C   UNL A   1      41.651  30.269  35.913  1.00  0.00     0.029 A 
ATOM     58  N   UNL A   1      41.439  29.698  33.772  1.00  0.00    -0.354 N 
ATOM     59  N   UNL A   1      42.144  28.206  31.328  1.00  0.00    -0.248 NA
ATOM     60  C   UNL A   1      43.609  26.809  30.167  1.00  0.00     0.031 C 
ATOM     61  C   UNL A   1      42.706  29.418  35.574  1.00  0.00     0.029 A 
ATOM     62  C   UNL A   1      42.556  29.036  34.251  1.00  0.00     0.049 A 
ATOM     63  H   UNL A   1      41.089  29.628  32.855  1.00  0.00     0.167 HD
ATOM     64  C   UNL A   1      43.160  27.800  32.184  1.00  0.00     0.074 A 
ATOM     65  C   UNL A   1      44.011  26.908  31.426  1.00  0.00     0.031 C 
ATOM     66  C   UNL A   1      43.375  28.135  33.481  1.00  0.00     0.037 A 
BRANCH  53  67
ATOM     67  C   UNL A   1      39.309  32.164  35.784  1.00  0.00     0.064 A 
ATOM     68  C   UNL A   1      39.770  33.476  35.967  1.00  0.00     0.173 A 
ATOM     69  C   UNL A   1      38.367  31.665  36.697  1.00  0.00     0.173 A 
ATOM     70  F   UNL A   1      40.685  33.993  35.134  1.00  0.00    -0.203 F 
ATOM     71  C   UNL A   1      39.307  34.255  37.026  1.00  0.00     0.198 A 
ATOM     72  C   UNL A   1      37.885  32.457  37.735  1.00  0.00     0.198 A 
ATOM     73  F   UNL A   1      37.897  30.415  36.568  1.00  0.00    -0.203 F 
ATOM     74  F   UNL A   1      39.784  35.495  37.200  1.00  0.00    -0.200 F 
ATOM     75  C   UNL A   1      38.357  33.750  37.900  1.00  0.00     0.200 A 
ATOM     76  F   UNL A   1      36.956  31.970  38.570  1.00  0.00    -0.200 F 
ATOM     77  F   UNL A   1      37.896  34.509  38.904  1.00  0.00    -0.200 F 
ENDBRANCH  53  67
BRANCH  54  78
ATOM     78  C   UNL A   1      42.049  26.924  27.691  1.00  0.00     0.064 A 
ATOM     79  C   UNL A   1      41.674  25.592  27.469  1.00  0.00     0.173 A 
ATOM     80  C   UNL A   1      42.924  27.514  26.765  1.00  0.00     0.173 A 
ATOM     81  F   UNL A   1      40.856  24.974  28.336  1.00  0.00    -0.203 F 
ATOM     82  C   UNL A   1      42.189  24.866  26.398  1.00  0.00     0.198 A 
ATOM     83  C   UNL A   1      43.408  26.798  25.671  1.00  0.00     0.198 A 
ATOM     84  F   UNL A   1      43.315  28.787  26.924  1.00  0.00    -0.203 F 
ATOM     85  F   UNL A   1      41.871  23.572  26.254  1.00  0.00    -0.200 F 
ATOM     86  C   UNL A   1      43.053  25.470  25.497  1.00  0.00     0.200 A 
ATOM     87  F   UNL A   1      44.229  27.392  24.796  1.00  0.00    -0.200 F 
ATOM     88  F   UNL A   1      43.554  24.770  24.471  1.00  0.00    -0.200 F 
ENDBRANCH  54  78
BRANCH  66  89
ATOM     89  C   UNL A   1      44.538  27.490  34.178  1.00  0.00     0.064 A 
ATOM     90  C   UNL A   1      45.797  28.105  34.245  1.00  0.00     0.173 A 
ATOM     91  C   UNL A   1      44.375  26.257  34.829  1.00  0.00     0.173 A 
ATOM     92  F   UNL A   1      46.008  29.279  33.630  1.00  0.00    -0.203 F 
ATOM     93  C   UNL A   1      46.857  27.494  34.909  1.00  0.00     0.198 A 
ATOM     94  C   UNL A   1      45.426  25.668  35.525  1.00  0.00     0.198 A 
ATOM     95  F   UNL A   1      43.188  25.631  34.806  1.00  0.00    -0.203 F 
ATOM     96  F   UNL A   1      48.066  28.072  34.911  1.00  0.00    -0.200 F 
ATOM     97  C   UNL A   1      46.669  26.282  35.556  1.00  0.00     0.200 A 
ATOM     98  F   UNL A   1      45.235  24.507  36.166  1.00  0.00    -0.200 F 
ATOM     99  F   UNL A   1      47.688  25.700  36.203  1.00  0.00    -0.200 F 
ENDBRANCH  66  89
ENDBRANCH  40  41
ENDBRANCH  33  35
ENDBRANCH  32  33
ENDBRANCH  31  32
ENDBRANCH  30  31
ENDBRANCH  29  30
ENDBRANCH  28  29
ENDBRANCH  27  28
ENDBRANCH  26  27
ENDBRANCH   1  26
TORSDOF 26
ENDMDL
MODEL 3
REMARK VINA RESULT:      -8.6      4.442      9.376
REMARK SMILES CCc1ccc(C(=O)NC[C@@H](CC(C)C)C(=O)OCCOCCOCCOCCOC(=O)c2ccc(-c3c4nc(c(-c5c(F)c(F)c(F)c(F)c5F)c5ccc([nH]5)c(-c5c(F)c(F)c(F)c(F)c5F)c5nc(c(-c6c(F)c(F)c(F)c(F)c6F)c6ccc3[nH]6)C=C5)C=C4)cc2)s1
REMARK SMILES IDX 23 1 22 2 21 3 20 4 19 5 18 6 16 7 17 8 11 9 10 10 9 11 7 12
REMARK SMILES IDX 8 13 6 15 3 16 4 17 96 18 5 19 2 20 1 21 12 22 13 23 14 24
REMARK SMILES IDX 15 25 24 26 25 27 26 28 27 29 28 30 29 31 30 32 31 33 32 34
REMARK SMILES IDX 33 35 34 36 95 37 35 38 94 39 36 40 37 41 38 42 88 43 39 44
REMARK SMILES IDX 93 45 87 46 89 47 40 48 92 49 86 50 85 51 41 53 73 54 53 55
REMARK SMILES IDX 72 56 54 57 57 58 71 59 90 60 55 61 56 62 70 64 91 65 58 66
REMARK SMILES IDX 42 67 43 68 51 69 44 70 45 71 49 72 52 73 46 74 47 75 50 76
REMARK SMILES IDX 48 77 74 78 75 79 83 80 76 81 77 82 81 83 84 84 78 85 79 86
REMARK SMILES IDX 82 87 80 88 59 89 60 90 68 91 61 92 62 93 66 94 69 95 63 96
REMARK SMILES IDX 64 97 67 98 65 99
REMARK H PARENT 9 14 89 52 57 63
REMARK Flexibility Score: inf
ROOT
ATOM      1  C   UNL A   1      33.404  29.033  24.055  1.00  0.00     0.188 C 
ENDROOT
BRANCH   1   2
ATOM      2  C   UNL A   1      33.919  27.641  23.690  1.00  0.00     0.188 C 
BRANCH   2   3
ATOM      3  O   UNL A   1      33.531  27.073  22.459  1.00  0.00    -0.376 OA
BRANCH   3   4
ATOM      4  C   UNL A   1      33.824  25.711  22.185  1.00  0.00     0.202 C 
BRANCH   4   5
ATOM      5  C   UNL A   1      32.733  24.648  21.972  1.00  0.00     0.261 C 
BRANCH   5   6
ATOM      6  O   UNL A   1      31.355  25.089  21.989  1.00  0.00    -0.463 OA
BRANCH   6   7
ATOM      7  C   UNL A   1      30.653  24.836  23.119  1.00  0.00     0.310 C 
ATOM      8  O   UNL A   1      30.325  23.705  23.468  1.00  0.00    -0.252 OA
BRANCH   7   9
ATOM      9  C   UNL A   1      30.164  26.064  23.888  1.00  0.00     0.118 C 
BRANCH   9  10
ATOM     10  C   UNL A   1      30.568  26.281  25.356  1.00  0.00     0.131 C 
BRANCH  10  11
ATOM     11  N   UNL A   1      30.159  25.153  26.221  1.00  0.00    -0.350 N 
ATOM     12  C   UNL A   1      30.753  24.013  26.739  1.00  0.00     0.261 C 
ATOM     13  O   UNL A   1      30.000  23.333  27.444  1.00  0.00    -0.268 OA
ATOM     14  H   UNL A   1      29.219  25.233  26.502  1.00  0.00     0.163 HD
BRANCH  12  15
ATOM     15  C   UNL A   1      32.133  23.623  26.460  1.00  0.00     0.092 A 
ATOM     16  C   UNL A   1      34.585  23.711  25.912  1.00  0.00     0.005 A 
ATOM     17  C   UNL A   1      34.171  22.494  26.394  1.00  0.00     0.016 A 
ATOM     18  S   UNL A   1      33.283  24.828  25.950  1.00  0.00    -0.135 S 
ATOM     19  C   UNL A   1      32.760  22.399  26.459  1.00  0.00     0.026 A 
BRANCH  16  20
ATOM     20  C   UNL A   1      35.957  24.080  25.410  1.00  0.00     0.043 C 
ATOM     21  C   UNL A   1      37.061  23.219  26.036  1.00  0.00     0.010 C 
ENDBRANCH  16  20
ENDBRANCH  12  15
ENDBRANCH  10  11
ENDBRANCH   9  10
BRANCH   9  22
ATOM     22  C   UNL A   1      30.367  27.301  22.993  1.00  0.00     0.020 C 
BRANCH  22  23
ATOM     23  C   UNL A   1      29.209  28.317  22.854  1.00  0.00    -0.017 C 
ATOM     24  C   UNL A   1      27.893  27.902  23.507  1.00  0.00     0.007 C 
ATOM     25  C   UNL A   1      29.659  29.650  23.458  1.00  0.00     0.007 C 
ENDBRANCH  22  23
ENDBRANCH   9  22
ENDBRANCH   7   9
ENDBRANCH   6   7
ENDBRANCH   5   6
ENDBRANCH   4   5
ENDBRANCH   3   4
ENDBRANCH   2   3
ENDBRANCH   1   2
BRANCH   1  26
ATOM     26  O   UNL A   1      32.671  29.170  25.262  1.00  0.00    -0.377 OA
BRANCH  26  27
ATOM     27  C   UNL A   1      32.813  30.348  26.049  1.00  0.00     0.188 C 
BRANCH  27  28
ATOM     28  C   UNL A   1      31.939  30.548  27.299  1.00  0.00     0.188 C 
BRANCH  28  29
ATOM     29  O   UNL A   1      31.136  31.716  27.262  1.00  0.00    -0.376 OA
BRANCH  29  30
ATOM     30  C   UNL A   1      31.575  32.832  26.501  1.00  0.00     0.202 C 
BRANCH  30  31
ATOM     31  C   UNL A   1      32.212  34.010  27.251  1.00  0.00     0.261 C 
BRANCH  31  32
ATOM     32  O   UNL A   1      33.575  33.858  27.652  1.00  0.00    -0.460 OA
BRANCH  32  33
ATOM     33  C   UNL A   1      33.873  34.057  28.948  1.00  0.00     0.338 C 
ATOM     34  O   UNL A   1      33.244  34.676  29.776  1.00  0.00    -0.246 OA
BRANCH  33  35
ATOM     35  C   UNL A   1      35.034  33.197  29.225  1.00  0.00     0.060 A 
ATOM     36  C   UNL A   1      34.822  31.982  29.884  1.00  0.00     0.016 A 
ATOM     37  C   UNL A   1      36.314  33.594  28.832  1.00  0.00     0.016 A 
ATOM     38  C   UNL A   1      35.910  31.182  30.212  1.00  0.00     0.010 A 
ATOM     39  C   UNL A   1      37.405  32.801  29.176  1.00  0.00     0.010 A 
ATOM     40  C   UNL A   1      37.206  31.618  29.909  1.00  0.00    -0.014 A 
BRANCH  40  41
ATOM     41  C   UNL A   1      38.355  30.954  30.559  1.00  0.00     0.031 A 
ATOM     42  C   UNL A   1      38.660  31.320  31.985  1.00  0.00     0.074 A 
ATOM     43  C   UNL A   1      39.076  30.027  29.909  1.00  0.00     0.049 A 
ATOM     44  N   UNL A   1      39.634  30.913  32.756  1.00  0.00    -0.248 NA
ATOM     45  C   UNL A   1      37.742  32.276  32.630  1.00  0.00     0.031 C 
ATOM     46  C   UNL A   1      38.829  29.567  28.544  1.00  0.00     0.029 A 
ATOM     47  N   UNL A   1      40.171  29.310  30.316  1.00  0.00    -0.354 N 
ATOM     48  C   UNL A   1      39.454  31.572  33.965  1.00  0.00     0.074 A 
ATOM     49  C   UNL A   1      38.293  32.422  33.824  1.00  0.00     0.031 C 
ATOM     50  C   UNL A   1      39.759  28.654  28.218  1.00  0.00     0.029 A 
ATOM     51  C   UNL A   1      40.686  28.495  29.338  1.00  0.00     0.049 A 
ATOM     52  H   UNL A   1      40.553  29.373  31.221  1.00  0.00     0.167 HD
ATOM     53  C   UNL A   1      40.191  31.468  35.094  1.00  0.00     0.037 A 
ATOM     54  C   UNL A   1      41.798  27.735  29.347  1.00  0.00     0.037 A 
ATOM     55  C   UNL A   1      41.336  30.608  35.224  1.00  0.00     0.049 A 
ATOM     56  C   UNL A   1      42.640  27.694  30.599  1.00  0.00     0.074 A 
ATOM     57  C   UNL A   1      42.139  30.405  36.331  1.00  0.00     0.029 A 
ATOM     58  N   UNL A   1      41.844  29.815  34.205  1.00  0.00    -0.354 N 
ATOM     59  N   UNL A   1      42.446  28.292  31.752  1.00  0.00    -0.248 NA
ATOM     60  C   UNL A   1      43.855  26.870  30.554  1.00  0.00     0.031 C 
ATOM     61  C   UNL A   1      43.173  29.540  35.963  1.00  0.00     0.029 A 
ATOM     62  C   UNL A   1      42.972  29.146  34.650  1.00  0.00     0.049 A 
ATOM     63  H   UNL A   1      41.461  29.740  33.302  1.00  0.00     0.167 HD
ATOM     64  C   UNL A   1      43.488  27.885  32.575  1.00  0.00     0.074 A 
ATOM     65  C   UNL A   1      44.303  26.978  31.796  1.00  0.00     0.031 C 
ATOM     66  C   UNL A   1      43.753  28.231  33.860  1.00  0.00     0.037 A 
BRANCH  53  67
ATOM     67  C   UNL A   1      39.811  32.320  36.268  1.00  0.00     0.064 A 
ATOM     68  C   UNL A   1      38.767  31.967  37.136  1.00  0.00     0.173 A 
ATOM     69  C   UNL A   1      40.551  33.475  36.566  1.00  0.00     0.173 A 
ATOM     70  F   UNL A   1      38.018  30.883  36.885  1.00  0.00    -0.203 F 
ATOM     71  C   UNL A   1      38.475  32.743  38.255  1.00  0.00     0.198 A 
ATOM     72  C   UNL A   1      40.275  34.231  37.702  1.00  0.00     0.198 A 
ATOM     73  F   UNL A   1      41.557  33.859  35.766  1.00  0.00    -0.203 F 
ATOM     74  F   UNL A   1      37.454  32.404  39.054  1.00  0.00    -0.200 F 
ATOM     75  C   UNL A   1      39.236  33.866  38.544  1.00  0.00     0.200 A 
ATOM     76  F   UNL A   1      41.021  35.308  37.985  1.00  0.00    -0.200 F 
ATOM     77  F   UNL A   1      38.967  34.598  39.634  1.00  0.00    -0.200 F 
ENDBRANCH  53  67
BRANCH  54  78
ATOM     78  C   UNL A   1      42.207  26.976  28.134  1.00  0.00     0.064 A 
ATOM     79  C   UNL A   1      43.050  27.544  27.169  1.00  0.00     0.173 A 
ATOM     80  C   UNL A   1      41.714  25.685  27.886  1.00  0.00     0.173 A 
ATOM     81  F   UNL A   1      43.533  28.784  27.348  1.00  0.00    -0.203 F 
ATOM     82  C   UNL A   1      43.348  26.872  25.985  1.00  0.00     0.198 A 
ATOM     83  C   UNL A   1      42.043  24.999  26.718  1.00  0.00     0.198 A 
ATOM     84  F   UNL A   1      40.905  25.090  28.775  1.00  0.00    -0.203 F 
ATOM     85  F   UNL A   1      44.096  27.471  25.048  1.00  0.00    -0.200 F 
ATOM     86  C   UNL A   1      42.847  25.599  25.762  1.00  0.00     0.200 A 
ATOM     87  F   UNL A   1      41.570  23.762  26.515  1.00  0.00    -0.200 F 
ATOM     88  F   UNL A   1      43.127  24.956  24.620  1.00  0.00    -0.200 F 
ENDBRANCH  54  78
BRANCH  66  89
ATOM     89  C   UNL A   1      44.935  27.581  34.521  1.00  0.00     0.064 A 
ATOM     90  C   UNL A   1      44.826  26.363  35.207  1.00  0.00     0.173 A 
ATOM     91  C   UNL A   1      46.208  28.168  34.425  1.00  0.00     0.173 A 
ATOM     92  F   UNL A   1      43.630  25.767  35.337  1.00  0.00    -0.203 F 
ATOM     93  C   UNL A   1      45.938  25.773  35.800  1.00  0.00     0.198 A 
ATOM     94  C   UNL A   1      47.324  27.556  34.986  1.00  0.00     0.198 A 
ATOM     95  F   UNL A   1      46.371  29.328  33.770  1.00  0.00    -0.203 F 
ATOM     96  F   UNL A   1      45.800  24.639  36.500  1.00  0.00    -0.200 F 
ATOM     97  C   UNL A   1      47.187  26.365  35.682  1.00  0.00     0.200 A 
ATOM     98  F   UNL A   1      48.533  28.120  34.852  1.00  0.00    -0.200 F 
ATOM     99  F   UNL A   1      48.259  25.790  36.245  1.00  0.00    -0.200 F 
ENDBRANCH  66  89
ENDBRANCH  40  41
ENDBRANCH  33  35
ENDBRANCH  32  33
ENDBRANCH  31  32
ENDBRANCH  30  31
ENDBRANCH  29  30
ENDBRANCH  28  29
ENDBRANCH  27  28
ENDBRANCH  26  27
ENDBRANCH   1  26
TORSDOF 26
ENDMDL
