MODEL 1
REMARK VINA RESULT:      -9.8      0.000      0.000
REMARK SMILES COC(=O)[C@H]1CC[C@]2(C)[C@H]3CC=C4[C@@H]5CC(C)(C)CC[C@@]5(C(=O)OCCOCCOCCOCCOC(=O)c5ccc(-c6c7nc(c(-c8c(F)c(F)c(F)c(F)c8F)c8ccc([nH]8)c(-c8c(F)c(F)c(F)c(F)c8F)c8nc(c(-c9c(F)c(F)c(F)c(F)c9F)c9ccc6[nH]9)C=C8)C=C7)cc5)CC[C@@]4(C)[C@@]3(C)CC[C@H]2C1(C)C
REMARK SMILES IDX 30 1 29 2 28 3 27 4 26 5 25 6 24 7 22 8 23 9 21 10 5 11 6 12
REMARK SMILES IDX 111 13 7 14 110 15 112 16 113 17 8 18 109 19 9 20 10 21
REMARK SMILES IDX 108 22 11 23 106 24 12 25 104 26 107 27 13 28 103 29 105 30
REMARK SMILES IDX 14 31 102 32 15 33 16 34 20 35 17 36 18 37 19 38 3 39 4 40
REMARK SMILES IDX 2 41 1 42 31 43 32 44 33 45 34 46 35 47 36 48 37 49 38 50
REMARK SMILES IDX 39 51 40 52 101 53 41 54 100 55 42 56 43 57 44 58 94 59
REMARK SMILES IDX 45 60 99 61 93 62 95 63 46 64 98 65 92 66 91 67 47 69 79 70
REMARK SMILES IDX 59 71 78 72 60 73 63 74 77 75 96 76 61 77 62 78 76 80 97 81
REMARK SMILES IDX 64 82 48 83 49 84 57 85 50 86 51 87 55 88 58 89 52 90 53 91
REMARK SMILES IDX 56 92 54 93 80 94 81 95 89 96 82 97 83 98 87 99 90 100
REMARK SMILES IDX 84 101 85 102 88 103 86 104 65 105 66 106 74 107 67 108
REMARK SMILES IDX 68 109 72 110 75 111 69 112 70 113 73 114 71 115
REMARK H PARENT 95 68 63 79
REMARK Flexibility Score: inf
ROOT
ATOM      1  O   UNL A   1      32.635  37.114  30.705  1.00  0.00    -0.377 OA
ENDROOT
BRANCH   1   2
ATOM      2  C   UNL A   1      33.280  37.503  31.914  1.00  0.00     0.188 C 
BRANCH   2   3
ATOM      3  C   UNL A   1      33.238  36.582  33.160  1.00  0.00     0.188 C 
BRANCH   3   4
ATOM      4  O   UNL A   1      34.493  36.323  33.755  1.00  0.00    -0.376 OA
BRANCH   4   5
ATOM      5  C   UNL A   1      34.859  34.962  33.778  1.00  0.00     0.202 C 
BRANCH   5   6
ATOM      6  C   UNL A   1      36.043  34.539  32.919  1.00  0.00     0.261 C 
BRANCH   6   7
ATOM      7  O   UNL A   1      37.273  33.939  33.446  1.00  0.00    -0.463 OA
BRANCH   7   8
ATOM      8  C   UNL A   1      37.529  32.695  33.926  1.00  0.00     0.312 C 
ATOM      9  O   UNL A   1      36.695  31.796  34.006  1.00  0.00    -0.252 OA
BRANCH   8  10
ATOM     10  C   UNL A   1      38.992  32.341  34.019  1.00  0.00     0.075 C 
ATOM     11  C   UNL A   1      45.512  35.266  36.574  1.00  0.00     0.105 C 
ATOM     12  C   UNL A   1      44.945  35.905  37.919  1.00  0.00     0.016 C 
ATOM     13  C   UNL A   1      44.500  34.477  35.636  1.00  0.00    -0.019 C 
ATOM     14  C   UNL A   1      43.509  35.608  38.406  1.00  0.00     0.008 C 
ATOM     15  C   UNL A   1      43.335  34.072  36.593  1.00  0.00     0.002 C 
ATOM     16  C   UNL A   1      44.004  35.169  34.336  1.00  0.00     0.012 C 
ATOM     17  C   UNL A   1      45.228  33.213  35.090  1.00  0.00     0.012 C 
ATOM     18  C   UNL A   1      42.558  35.299  37.220  1.00  0.00    -0.026 C 
ATOM     19  C   UNL A   1      42.561  32.817  36.272  1.00  0.00     0.005 C 
ATOM     20  C   UNL A   1      42.575  36.632  36.412  1.00  0.00     0.012 C 
ATOM     21  C   UNL A   1      41.069  35.040  37.783  1.00  0.00     0.006 C 
ATOM     22  C   UNL A   1      41.611  32.483  37.400  1.00  0.00     0.008 C 
ATOM     23  C   UNL A   1      39.986  36.027  37.178  1.00  0.00     0.032 C 
ATOM     24  C   UNL A   1      40.527  33.523  37.784  1.00  0.00    -0.020 C 
ATOM     25  C   UNL A   1      39.602  35.577  35.799  1.00  0.00    -0.027 C 
ATOM     26  C   UNL A   1      39.204  33.384  36.873  1.00  0.00    -0.006 C 
ATOM     27  C   UNL A   1      40.189  33.165  39.269  1.00  0.00     0.012 C 
ATOM     28  C   UNL A   1      39.450  34.257  35.595  1.00  0.00    -0.063 C 
ATOM     29  C   UNL A   1      38.776  31.923  36.548  1.00  0.00     0.013 C 
ATOM     30  C   UNL A   1      37.924  33.855  37.685  1.00  0.00     0.017 C 
ATOM     31  C   UNL A   1      39.797  33.602  34.241  1.00  0.00     0.033 C 
ATOM     32  C   UNL A   1      39.219  31.367  35.210  1.00  0.00     0.020 C 
ATOM     33  C   UNL A   1      40.094  34.445  32.965  1.00  0.00     0.015 C 
ATOM     34  C   UNL A   1      40.378  33.640  31.661  1.00  0.00    -0.035 C 
ATOM     35  C   UNL A   1      39.441  31.548  32.781  1.00  0.00     0.020 C 
ATOM     36  C   UNL A   1      40.067  34.525  30.435  1.00  0.00     0.011 C 
ATOM     37  C   UNL A   1      41.870  33.264  31.618  1.00  0.00     0.011 C 
ATOM     38  C   UNL A   1      39.505  32.380  31.520  1.00  0.00     0.007 C 
BRANCH  11  39
ATOM     39  C   UNL A   1      46.386  36.318  35.893  1.00  0.00     0.309 C 
ATOM     40  O   UNL A   1      46.026  37.393  35.440  1.00  0.00    -0.252 OA
BRANCH  39  41
ATOM     41  O   UNL A   1      47.679  35.875  35.891  1.00  0.00    -0.469 OA
ATOM     42  C   UNL A   1      48.664  36.888  36.070  1.00  0.00     0.282 C 
ENDBRANCH  39  41
ENDBRANCH  11  39
ENDBRANCH   8  10
ENDBRANCH   7   8
ENDBRANCH   6   7
ENDBRANCH   5   6
ENDBRANCH   4   5
ENDBRANCH   3   4
ENDBRANCH   2   3
ENDBRANCH   1   2
BRANCH   1  43
ATOM     43  C   UNL A   1      32.669  35.748  30.350  1.00  0.00     0.188 C 
BRANCH  43  44
ATOM     44  C   UNL A   1      33.839  35.280  29.475  1.00  0.00     0.188 C 
BRANCH  44  45
ATOM     45  O   UNL A   1      33.949  33.869  29.350  1.00  0.00    -0.376 OA
BRANCH  45  46
ATOM     46  C   UNL A   1      35.092  33.370  28.658  1.00  0.00     0.202 C 
BRANCH  46  47
ATOM     47  C   UNL A   1      35.008  31.981  27.980  1.00  0.00     0.261 C 
BRANCH  47  48
ATOM     48  O   UNL A   1      35.017  30.850  28.861  1.00  0.00    -0.460 OA
BRANCH  48  49
ATOM     49  C   UNL A   1      35.976  30.839  29.808  1.00  0.00     0.338 C 
ATOM     50  O   UNL A   1      35.897  31.296  30.931  1.00  0.00    -0.246 OA
BRANCH  49  51
ATOM     51  C   UNL A   1      37.076  29.964  29.346  1.00  0.00     0.060 A 
ATOM     52  C   UNL A   1      37.725  29.185  30.313  1.00  0.00     0.016 A 
ATOM     53  C   UNL A   1      37.463  29.892  28.004  1.00  0.00     0.016 A 
ATOM     54  C   UNL A   1      38.753  28.322  29.944  1.00  0.00     0.010 A 
ATOM     55  C   UNL A   1      38.558  29.094  27.646  1.00  0.00     0.010 A 
ATOM     56  C   UNL A   1      39.228  28.339  28.625  1.00  0.00    -0.014 A 
BRANCH  56  57
ATOM     57  C   UNL A   1      40.627  27.896  28.415  1.00  0.00     0.031 A 
ATOM     58  C   UNL A   1      41.688  28.954  28.583  1.00  0.00     0.074 A 
ATOM     59  C   UNL A   1      40.963  26.621  28.152  1.00  0.00     0.049 A 
ATOM     60  N   UNL A   1      42.990  28.847  28.547  1.00  0.00    -0.248 NA
ATOM     61  C   UNL A   1      41.210  30.323  28.857  1.00  0.00     0.031 C 
ATOM     62  C   UNL A   1      40.034  25.503  28.012  1.00  0.00     0.029 A 
ATOM     63  N   UNL A   1      42.200  26.060  27.954  1.00  0.00    -0.354 N 
ATOM     64  C   UNL A   1      43.474  30.119  28.822  1.00  0.00     0.074 A 
ATOM     65  C   UNL A   1      42.341  30.988  29.016  1.00  0.00     0.031 C 
ATOM     66  C   UNL A   1      40.736  24.389  27.725  1.00  0.00     0.029 A 
ATOM     67  C   UNL A   1      42.158  24.722  27.646  1.00  0.00     0.049 A 
ATOM     68  H   UNL A   1      43.040  26.568  28.027  1.00  0.00     0.167 HD
ATOM     69  C   UNL A   1      44.756  30.535  28.898  1.00  0.00     0.037 A 
ATOM     70  C   UNL A   1      43.161  23.881  27.318  1.00  0.00     0.037 A 
ATOM     71  C   UNL A   1      45.887  29.692  28.644  1.00  0.00     0.049 A 
ATOM     72  C   UNL A   1      44.581  24.400  27.305  1.00  0.00     0.074 A 
ATOM     73  C   UNL A   1      47.229  30.019  28.671  1.00  0.00     0.029 A 
ATOM     74  N   UNL A   1      45.798  28.357  28.286  1.00  0.00    -0.354 N 
ATOM     75  N   UNL A   1      45.035  25.591  27.617  1.00  0.00    -0.248 NA
ATOM     76  C   UNL A   1      45.631  23.455  26.894  1.00  0.00     0.031 C 
ATOM     77  C   UNL A   1      47.953  28.891  28.275  1.00  0.00     0.029 A 
ATOM     78  C   UNL A   1      47.063  27.850  28.059  1.00  0.00     0.049 A 
ATOM     79  H   UNL A   1      44.961  27.845  28.207  1.00  0.00     0.167 HD
ATOM     80  C   UNL A   1      46.417  25.527  27.474  1.00  0.00     0.074 A 
ATOM     81  C   UNL A   1      46.730  24.177  27.057  1.00  0.00     0.031 C 
ATOM     82  C   UNL A   1      47.346  26.495  27.667  1.00  0.00     0.037 A 
BRANCH  69  83
ATOM     83  C   UNL A   1      44.992  31.979  29.213  1.00  0.00     0.064 A 
ATOM     84  C   UNL A   1      45.308  32.404  30.511  1.00  0.00     0.173 A 
ATOM     85  C   UNL A   1      44.915  32.944  28.198  1.00  0.00     0.173 A 
ATOM     86  F   UNL A   1      45.360  31.520  31.518  1.00  0.00    -0.203 F 
ATOM     87  C   UNL A   1      45.535  33.751  30.783  1.00  0.00     0.198 A 
ATOM     88  C   UNL A   1      45.164  34.285  28.471  1.00  0.00     0.198 A 
ATOM     89  F   UNL A   1      44.599  32.584  26.946  1.00  0.00    -0.203 F 
ATOM     90  F   UNL A   1      45.803  34.143  32.036  1.00  0.00    -0.200 F 
ATOM     91  C   UNL A   1      45.471  34.687  29.762  1.00  0.00     0.200 A 
ATOM     92  F   UNL A   1      45.104  35.188  27.482  1.00  0.00    -0.200 F 
ATOM     93  F   UNL A   1      45.701  35.981  30.024  1.00  0.00    -0.200 F 
ENDBRANCH  69  83
BRANCH  70  94
ATOM     94  C   UNL A   1      42.876  22.472  26.928  1.00  0.00     0.064 A 
ATOM     95  C   UNL A   1      42.226  21.589  27.801  1.00  0.00     0.173 A 
ATOM     96  C   UNL A   1      43.327  21.958  25.702  1.00  0.00     0.173 A 
ATOM     97  F   UNL A   1      41.804  22.020  28.999  1.00  0.00    -0.203 F 
ATOM     98  C   UNL A   1      42.068  20.241  27.479  1.00  0.00     0.198 A 
ATOM     99  C   UNL A   1      43.141  20.617  25.369  1.00  0.00     0.198 A 
ATOM    100  F   UNL A   1      43.965  22.755  24.833  1.00  0.00    -0.203 F 
ATOM    101  F   UNL A   1      41.505  19.405  28.363  1.00  0.00    -0.200 F 
ATOM    102  C   UNL A   1      42.525  19.757  26.263  1.00  0.00     0.200 A 
ATOM    103  F   UNL A   1      43.581  20.155  24.190  1.00  0.00    -0.200 F 
ATOM    104  F   UNL A   1      42.387  18.458  25.961  1.00  0.00    -0.200 F 
ENDBRANCH  70  94
BRANCH  82 105
ATOM    105  C   UNL A   1      48.788  26.127  27.476  1.00  0.00     0.064 A 
ATOM    106  C   UNL A   1      49.436  26.301  26.246  1.00  0.00     0.173 A 
ATOM    107  C   UNL A   1      49.547  25.665  28.563  1.00  0.00     0.173 A 
ATOM    108  F   UNL A   1      48.752  26.733  25.177  1.00  0.00    -0.203 F 
ATOM    109  C   UNL A   1      50.789  26.006  26.105  1.00  0.00     0.198 A 
ATOM    110  C   UNL A   1      50.905  25.400  28.426  1.00  0.00     0.198 A 
ATOM    111  F   UNL A   1      48.974  25.494  29.765  1.00  0.00    -0.203 F 
ATOM    112  F   UNL A   1      51.381  26.142  24.911  1.00  0.00    -0.200 F 
ATOM    113  C   UNL A   1      51.524  25.564  27.196  1.00  0.00     0.200 A 
ATOM    114  F   UNL A   1      51.617  24.993  29.487  1.00  0.00    -0.200 F 
ATOM    115  F   UNL A   1      52.830  25.295  27.062  1.00  0.00    -0.200 F 
ENDBRANCH  82 105
ENDBRANCH  56  57
ENDBRANCH  49  51
ENDBRANCH  48  49
ENDBRANCH  47  48
ENDBRANCH  46  47
ENDBRANCH  45  46
ENDBRANCH  44  45
ENDBRANCH  43  44
ENDBRANCH   1  43
TORSDOF 22
ENDMDL
MODEL 2
REMARK VINA RESULT:      -9.8      4.613     10.163
REMARK SMILES COC(=O)[C@H]1CC[C@]2(C)[C@H]3CC=C4[C@@H]5CC(C)(C)CC[C@@]5(C(=O)OCCOCCOCCOCCOC(=O)c5ccc(-c6c7nc(c(-c8c(F)c(F)c(F)c(F)c8F)c8ccc([nH]8)c(-c8c(F)c(F)c(F)c(F)c8F)c8nc(c(-c9c(F)c(F)c(F)c(F)c9F)c9ccc6[nH]9)C=C8)C=C7)cc5)CC[C@@]4(C)[C@@]3(C)CC[C@H]2C1(C)C
REMARK SMILES IDX 30 1 29 2 28 3 27 4 26 5 25 6 24 7 22 8 23 9 21 10 5 11 6 12
REMARK SMILES IDX 111 13 7 14 110 15 112 16 113 17 8 18 109 19 9 20 10 21
REMARK SMILES IDX 108 22 11 23 106 24 12 25 104 26 107 27 13 28 103 29 105 30
REMARK SMILES IDX 14 31 102 32 15 33 16 34 20 35 17 36 18 37 19 38 3 39 4 40
REMARK SMILES IDX 2 41 1 42 31 43 32 44 33 45 34 46 35 47 36 48 37 49 38 50
REMARK SMILES IDX 39 51 40 52 101 53 41 54 100 55 42 56 43 57 44 58 94 59
REMARK SMILES IDX 45 60 99 61 93 62 95 63 46 64 98 65 92 66 91 67 47 69 79 70
REMARK SMILES IDX 59 71 78 72 60 73 63 74 77 75 96 76 61 77 62 78 76 80 97 81
REMARK SMILES IDX 64 82 48 83 49 84 57 85 50 86 51 87 55 88 58 89 52 90 53 91
REMARK SMILES IDX 56 92 54 93 80 94 81 95 89 96 82 97 83 98 87 99 90 100
REMARK SMILES IDX 84 101 85 102 88 103 86 104 65 105 66 106 74 107 67 108
REMARK SMILES IDX 68 109 72 110 75 111 69 112 70 113 73 114 71 115
REMARK H PARENT 95 68 63 79
REMARK Flexibility Score: inf
ROOT
ATOM      1  O   UNL A   1      47.087  23.737  26.648  1.00  0.00    -0.377 OA
ENDROOT
BRANCH   1   2
ATOM      2  C   UNL A   1      48.079  24.614  27.172  1.00  0.00     0.188 C 
BRANCH   2   3
ATOM      3  C   UNL A   1      47.942  25.193  28.603  1.00  0.00     0.188 C 
BRANCH   3   4
ATOM      4  O   UNL A   1      49.132  25.720  29.152  1.00  0.00    -0.376 OA
BRANCH   4   5
ATOM      5  C   UNL A   1      48.973  26.333  30.412  1.00  0.00     0.202 C 
BRANCH   5   6
ATOM      6  C   UNL A   1      47.751  25.943  31.232  1.00  0.00     0.261 C 
BRANCH   6   7
ATOM      7  O   UNL A   1      47.706  25.942  32.698  1.00  0.00    -0.463 OA
BRANCH   7   8
ATOM      8  C   UNL A   1      46.779  25.463  33.566  1.00  0.00     0.312 C 
ATOM      9  O   UNL A   1      46.517  24.272  33.715  1.00  0.00    -0.252 OA
BRANCH   8  10
ATOM     10  C   UNL A   1      46.334  26.444  34.622  1.00  0.00     0.075 C 
ATOM     11  C   UNL A   1      43.541  33.478  35.189  1.00  0.00     0.105 C 
ATOM     12  C   UNL A   1      42.544  33.410  33.949  1.00  0.00     0.016 C 
ATOM     13  C   UNL A   1      44.396  32.183  35.532  1.00  0.00    -0.019 C 
ATOM     14  C   UNL A   1      42.259  32.079  33.219  1.00  0.00     0.008 C 
ATOM     15  C   UNL A   1      43.591  31.014  34.884  1.00  0.00     0.002 C 
ATOM     16  C   UNL A   1      45.902  32.167  35.149  1.00  0.00     0.012 C 
ATOM     17  C   UNL A   1      44.442  32.027  37.082  1.00  0.00     0.012 C 
ATOM     18  C   UNL A   1      43.468  31.110  33.309  1.00  0.00    -0.026 C 
ATOM     19  C   UNL A   1      43.693  29.648  35.516  1.00  0.00     0.005 C 
ATOM     20  C   UNL A   1      44.590  31.893  32.562  1.00  0.00     0.012 C 
ATOM     21  C   UNL A   1      43.131  29.760  32.496  1.00  0.00     0.006 C 
ATOM     22  C   UNL A   1      42.705  28.698  34.878  1.00  0.00     0.008 C 
ATOM     23  C   UNL A   1      44.164  29.450  31.333  1.00  0.00     0.032 C 
ATOM     24  C   UNL A   1      42.817  28.432  33.354  1.00  0.00    -0.020 C 
ATOM     25  C   UNL A   1      45.416  28.856  31.911  1.00  0.00    -0.027 C 
ATOM     26  C   UNL A   1      43.878  27.266  33.018  1.00  0.00    -0.006 C 
ATOM     27  C   UNL A   1      41.376  27.969  32.958  1.00  0.00     0.012 C 
ATOM     28  C   UNL A   1      45.279  27.958  32.901  1.00  0.00    -0.063 C 
ATOM     29  C   UNL A   1      43.867  26.059  34.003  1.00  0.00     0.013 C 
ATOM     30  C   UNL A   1      43.466  26.514  31.682  1.00  0.00     0.017 C 
ATOM     31  C   UNL A   1      46.320  27.838  34.034  1.00  0.00     0.033 C 
ATOM     32  C   UNL A   1      44.903  26.075  35.107  1.00  0.00     0.020 C 
ATOM     33  C   UNL A   1      47.703  28.554  33.969  1.00  0.00     0.015 C 
ATOM     34  C   UNL A   1      48.668  28.295  35.164  1.00  0.00    -0.035 C 
ATOM     35  C   UNL A   1      47.210  26.327  35.880  1.00  0.00     0.020 C 
ATOM     36  C   UNL A   1      50.123  28.544  34.711  1.00  0.00     0.011 C 
ATOM     37  C   UNL A   1      48.340  29.285  36.297  1.00  0.00     0.011 C 
ATOM     38  C   UNL A   1      48.617  26.848  35.688  1.00  0.00     0.007 C 
BRANCH  11  39
ATOM     39  C   UNL A   1      44.315  34.793  35.092  1.00  0.00     0.309 C 
ATOM     40  O   UNL A   1      45.196  35.071  34.296  1.00  0.00    -0.252 OA
BRANCH  39  41
ATOM     41  O   UNL A   1      43.835  35.650  36.043  1.00  0.00    -0.469 OA
ATOM     42  C   UNL A   1      43.106  36.765  35.537  1.00  0.00     0.282 C 
ENDBRANCH  39  41
ENDBRANCH  11  39
ENDBRANCH   8  10
ENDBRANCH   7   8
ENDBRANCH   6   7
ENDBRANCH   5   6
ENDBRANCH   4   5
ENDBRANCH   3   4
ENDBRANCH   2   3
ENDBRANCH   1   2
BRANCH   1  43
ATOM     43  C   UNL A   1      46.727  23.884  25.291  1.00  0.00     0.188 C 
BRANCH  43  44
ATOM     44  C   UNL A   1      45.685  22.908  24.732  1.00  0.00     0.188 C 
BRANCH  44  45
ATOM     45  O   UNL A   1      45.734  21.608  25.303  1.00  0.00    -0.376 OA
BRANCH  45  46
ATOM     46  C   UNL A   1      44.486  20.992  25.614  1.00  0.00     0.202 C 
BRANCH  46  47
ATOM     47  C   UNL A   1      43.206  21.860  25.628  1.00  0.00     0.261 C 
BRANCH  47  48
ATOM     48  O   UNL A   1      41.967  21.153  25.764  1.00  0.00    -0.460 OA
BRANCH  48  49
ATOM     49  C   UNL A   1      41.447  21.093  27.006  1.00  0.00     0.338 C 
ATOM     50  O   UNL A   1      41.190  20.090  27.642  1.00  0.00    -0.246 OA
BRANCH  49  51
ATOM     51  C   UNL A   1      41.456  22.457  27.580  1.00  0.00     0.060 A 
ATOM     52  C   UNL A   1      40.634  23.414  26.972  1.00  0.00     0.016 A 
ATOM     53  C   UNL A   1      42.236  22.799  28.689  1.00  0.00     0.016 A 
ATOM     54  C   UNL A   1      40.575  24.710  27.474  1.00  0.00     0.010 A 
ATOM     55  C   UNL A   1      42.250  24.126  29.138  1.00  0.00     0.010 A 
ATOM     56  C   UNL A   1      41.447  25.090  28.504  1.00  0.00    -0.014 A 
BRANCH  56  57
ATOM     57  C   UNL A   1      41.777  26.533  28.599  1.00  0.00     0.031 A 
ATOM     58  C   UNL A   1      43.110  26.945  28.026  1.00  0.00     0.074 A 
ATOM     59  C   UNL A   1      40.933  27.449  29.103  1.00  0.00     0.049 A 
ATOM     60  N   UNL A   1      43.630  28.136  27.888  1.00  0.00    -0.248 NA
ATOM     61  C   UNL A   1      43.965  25.858  27.510  1.00  0.00     0.031 C 
ATOM     62  C   UNL A   1      39.604  27.182  29.644  1.00  0.00     0.029 A 
ATOM     63  N   UNL A   1      41.087  28.807  29.239  1.00  0.00    -0.354 N 
ATOM     64  C   UNL A   1      44.846  27.937  27.249  1.00  0.00     0.074 A 
ATOM     65  C   UNL A   1      45.001  26.521  27.028  1.00  0.00     0.031 C 
ATOM     66  C   UNL A   1      39.070  28.341  30.078  1.00  0.00     0.029 A 
ATOM     67  C   UNL A   1      40.028  29.424  29.859  1.00  0.00     0.049 A 
ATOM     68  H   UNL A   1      41.881  29.294  28.921  1.00  0.00     0.167 HD
ATOM     69  C   UNL A   1      45.766  28.855  26.883  1.00  0.00     0.037 A 
ATOM     70  C   UNL A   1      39.875  30.715  30.222  1.00  0.00     0.037 A 
ATOM     71  C   UNL A   1      45.649  30.257  27.155  1.00  0.00     0.049 A 
ATOM     72  C   UNL A   1      40.969  31.705  29.895  1.00  0.00     0.074 A 
ATOM     73  C   UNL A   1      46.535  31.272  26.849  1.00  0.00     0.029 A 
ATOM     74  N   UNL A   1      44.585  30.833  27.830  1.00  0.00    -0.354 N 
ATOM     75  N   UNL A   1      42.093  31.519  29.244  1.00  0.00    -0.248 NA
ATOM     76  C   UNL A   1      40.774  33.089  30.355  1.00  0.00     0.031 C 
ATOM     77  C   UNL A   1      46.032  32.459  27.387  1.00  0.00     0.029 A 
ATOM     78  C   UNL A   1      44.805  32.190  27.976  1.00  0.00     0.049 A 
ATOM     79  H   UNL A   1      43.791  30.350  28.154  1.00  0.00     0.167 HD
ATOM     80  C   UNL A   1      42.716  32.761  29.188  1.00  0.00     0.074 A 
ATOM     81  C   UNL A   1      41.841  33.697  29.860  1.00  0.00     0.031 C 
ATOM     82  C   UNL A   1      43.905  33.101  28.631  1.00  0.00     0.037 A 
BRANCH  69  83
ATOM     83  C   UNL A   1      47.002  28.356  26.202  1.00  0.00     0.064 A 
ATOM     84  C   UNL A   1      46.977  27.907  24.874  1.00  0.00     0.173 A 
ATOM     85  C   UNL A   1      48.227  28.342  26.885  1.00  0.00     0.173 A 
ATOM     86  F   UNL A   1      45.821  27.871  24.195  1.00  0.00    -0.203 F 
ATOM     87  C   UNL A   1      48.138  27.455  24.253  1.00  0.00     0.198 A 
ATOM     88  C   UNL A   1      49.389  27.911  26.253  1.00  0.00     0.198 A 
ATOM     89  F   UNL A   1      48.294  28.747  28.161  1.00  0.00    -0.203 F 
ATOM     90  F   UNL A   1      48.089  26.998  22.995  1.00  0.00    -0.200 F 
ATOM     91  C   UNL A   1      49.344  27.466  24.940  1.00  0.00     0.200 A 
ATOM     92  F   UNL A   1      50.553  27.925  26.918  1.00  0.00    -0.200 F 
ATOM     93  F   UNL A   1      50.462  27.042  24.337  1.00  0.00    -0.200 F 
ENDBRANCH  69  83
BRANCH  70  94
ATOM     94  C   UNL A   1      38.667  31.156  30.973  1.00  0.00     0.064 A 
ATOM     95  C   UNL A   1      38.616  31.102  32.373  1.00  0.00     0.173 A 
ATOM     96  C   UNL A   1      37.506  31.564  30.297  1.00  0.00     0.173 A 
ATOM     97  F   UNL A   1      39.686  30.687  33.067  1.00  0.00    -0.203 F 
ATOM     98  C   UNL A   1      37.443  31.403  33.064  1.00  0.00     0.198 A 
ATOM     99  C   UNL A   1      36.344  31.895  30.992  1.00  0.00     0.198 A 
ATOM    100  F   UNL A   1      37.495  31.625  28.957  1.00  0.00    -0.203 F 
ATOM    101  F   UNL A   1      37.402  31.275  34.398  1.00  0.00    -0.200 F 
ATOM    102  C   UNL A   1      36.309  31.801  32.374  1.00  0.00     0.200 A 
ATOM    103  F   UNL A   1      35.252  32.282  30.319  1.00  0.00    -0.200 F 
ATOM    104  F   UNL A   1      35.177  32.076  33.038  1.00  0.00    -0.200 F 
ENDBRANCH  70  94
BRANCH  82 105
ATOM    105  C   UNL A   1      44.314  34.543  28.683  1.00  0.00     0.064 A 
ATOM    106  C   UNL A   1      43.976  35.441  27.661  1.00  0.00     0.173 A 
ATOM    107  C   UNL A   1      44.986  35.046  29.808  1.00  0.00     0.173 A 
ATOM    108  F   UNL A   1      43.340  35.008  26.563  1.00  0.00    -0.203 F 
ATOM    109  C   UNL A   1      44.316  36.788  27.755  1.00  0.00     0.198 A 
ATOM    110  C   UNL A   1      45.297  36.397  29.911  1.00  0.00     0.198 A 
ATOM    111  F   UNL A   1      45.319  34.228  30.818  1.00  0.00    -0.203 F 
ATOM    112  F   UNL A   1      44.019  37.623  26.749  1.00  0.00    -0.200 F 
ATOM    113  C   UNL A   1      44.968  37.266  28.882  1.00  0.00     0.200 A 
ATOM    114  F   UNL A   1      45.908  36.860  31.011  1.00  0.00    -0.200 F 
ATOM    115  F   UNL A   1      45.280  38.566  28.977  1.00  0.00    -0.200 F 
ENDBRANCH  82 105
ENDBRANCH  56  57
ENDBRANCH  49  51
ENDBRANCH  48  49
ENDBRANCH  47  48
ENDBRANCH  46  47
ENDBRANCH  45  46
ENDBRANCH  44  45
ENDBRANCH  43  44
ENDBRANCH   1  43
TORSDOF 22
ENDMDL
MODEL 3
REMARK VINA RESULT:      -9.6      4.799     11.256
REMARK SMILES COC(=O)[C@H]1CC[C@]2(C)[C@H]3CC=C4[C@@H]5CC(C)(C)CC[C@@]5(C(=O)OCCOCCOCCOCCOC(=O)c5ccc(-c6c7nc(c(-c8c(F)c(F)c(F)c(F)c8F)c8ccc([nH]8)c(-c8c(F)c(F)c(F)c(F)c8F)c8nc(c(-c9c(F)c(F)c(F)c(F)c9F)c9ccc6[nH]9)C=C8)C=C7)cc5)CC[C@@]4(C)[C@@]3(C)CC[C@H]2C1(C)C
REMARK SMILES IDX 30 1 29 2 28 3 27 4 26 5 25 6 24 7 22 8 23 9 21 10 5 11 6 12
REMARK SMILES IDX 111 13 7 14 110 15 112 16 113 17 8 18 109 19 9 20 10 21
REMARK SMILES IDX 108 22 11 23 106 24 12 25 104 26 107 27 13 28 103 29 105 30
REMARK SMILES IDX 14 31 102 32 15 33 16 34 20 35 17 36 18 37 19 38 3 39 4 40
REMARK SMILES IDX 2 41 1 42 31 43 32 44 33 45 34 46 35 47 36 48 37 49 38 50
REMARK SMILES IDX 39 51 40 52 101 53 41 54 100 55 42 56 43 57 44 58 94 59
REMARK SMILES IDX 45 60 99 61 93 62 95 63 46 64 98 65 92 66 91 67 47 69 79 70
REMARK SMILES IDX 59 71 78 72 60 73 63 74 77 75 96 76 61 77 62 78 76 80 97 81
REMARK SMILES IDX 64 82 48 83 49 84 57 85 50 86 51 87 55 88 58 89 52 90 53 91
REMARK SMILES IDX 56 92 54 93 80 94 81 95 89 96 82 97 83 98 87 99 90 100
REMARK SMILES IDX 84 101 85 102 88 103 86 104 65 105 66 106 74 107 67 108
REMARK SMILES IDX 68 109 72 110 75 111 69 112 70 113 73 114 71 115
REMARK H PARENT 95 68 63 79
REMARK Flexibility Score: inf
ROOT
ATOM      1  O   UNL A   1      44.751  24.833  27.977  1.00  0.00    -0.377 OA
ENDROOT
BRANCH   1   2
ATOM      2  C   UNL A   1      45.643  25.920  28.203  1.00  0.00     0.188 C 
BRANCH   2   3
ATOM      3  C   UNL A   1      46.272  26.683  27.009  1.00  0.00     0.188 C 
BRANCH   3   4
ATOM      4  O   UNL A   1      45.789  27.997  26.818  1.00  0.00    -0.376 OA
BRANCH   4   5
ATOM      5  C   UNL A   1      46.736  28.896  26.285  1.00  0.00     0.202 C 
BRANCH   5   6
ATOM      6  C   UNL A   1      47.644  29.622  27.267  1.00  0.00     0.261 C 
BRANCH   6   7
ATOM      7  O   UNL A   1      48.106  31.004  27.098  1.00  0.00    -0.463 OA
BRANCH   7   8
ATOM      8  C   UNL A   1      47.468  32.113  26.645  1.00  0.00     0.312 C 
ATOM      9  O   UNL A   1      46.622  32.112  25.753  1.00  0.00    -0.252 OA
BRANCH   8  10
ATOM     10  C   UNL A   1      47.573  33.317  27.546  1.00  0.00     0.075 C 
ATOM     11  C   UNL A   1      44.008  39.882  28.884  1.00  0.00     0.105 C 
ATOM     12  C   UNL A   1      42.515  39.345  28.741  1.00  0.00     0.016 C 
ATOM     13  C   UNL A   1      45.196  38.842  28.706  1.00  0.00    -0.019 C 
ATOM     14  C   UNL A   1      42.212  37.834  28.632  1.00  0.00     0.008 C 
ATOM     15  C   UNL A   1      44.536  37.458  28.998  1.00  0.00     0.002 C 
ATOM     16  C   UNL A   1      46.004  38.861  27.378  1.00  0.00     0.012 C 
ATOM     17  C   UNL A   1      46.288  39.166  29.769  1.00  0.00     0.012 C 
ATOM     18  C   UNL A   1      43.390  37.063  27.982  1.00  0.00    -0.026 C 
ATOM     19  C   UNL A   1      45.407  36.364  29.563  1.00  0.00     0.005 C 
ATOM     20  C   UNL A   1      43.464  37.690  26.556  1.00  0.00     0.012 C 
ATOM     21  C   UNL A   1      43.001  35.503  27.855  1.00  0.00     0.006 C 
ATOM     22  C   UNL A   1      44.564  35.173  29.959  1.00  0.00     0.008 C 
ATOM     23  C   UNL A   1      43.049  34.961  26.365  1.00  0.00     0.032 C 
ATOM     24  C   UNL A   1      43.718  34.472  28.864  1.00  0.00    -0.020 C 
ATOM     25  C   UNL A   1      44.472  34.696  25.967  1.00  0.00    -0.027 C 
ATOM     26  C   UNL A   1      44.569  33.369  28.052  1.00  0.00    -0.006 C 
ATOM     27  C   UNL A   1      42.579  33.771  29.678  1.00  0.00     0.012 C 
ATOM     28  C   UNL A   1      45.278  34.129  26.880  1.00  0.00    -0.063 C 
ATOM     29  C   UNL A   1      45.547  32.522  28.918  1.00  0.00     0.013 C 
ATOM     30  C   UNL A   1      43.616  32.213  27.530  1.00  0.00     0.017 C 
ATOM     31  C   UNL A   1      46.785  34.460  26.945  1.00  0.00     0.033 C 
ATOM     32  C   UNL A   1      46.992  32.972  28.948  1.00  0.00     0.020 C 
ATOM     33  C   UNL A   1      47.508  35.256  25.818  1.00  0.00     0.015 C 
ATOM     34  C   UNL A   1      49.041  35.467  26.000  1.00  0.00    -0.035 C 
ATOM     35  C   UNL A   1      49.044  33.672  27.814  1.00  0.00     0.020 C 
ATOM     36  C   UNL A   1      49.693  35.710  24.621  1.00  0.00     0.011 C 
ATOM     37  C   UNL A   1      49.276  36.714  26.871  1.00  0.00     0.011 C 
ATOM     38  C   UNL A   1      49.756  34.247  26.610  1.00  0.00     0.007 C 
BRANCH  11  39
ATOM     39  C   UNL A   1      44.115  41.176  28.078  1.00  0.00     0.309 C 
ATOM     40  O   UNL A   1      44.933  42.070  28.226  1.00  0.00    -0.252 OA
BRANCH  39  41
ATOM     41  O   UNL A   1      43.146  41.170  27.115  1.00  0.00    -0.469 OA
ATOM     42  C   UNL A   1      43.622  41.307  25.779  1.00  0.00     0.282 C 
ENDBRANCH  39  41
ENDBRANCH  11  39
ENDBRANCH   8  10
ENDBRANCH   7   8
ENDBRANCH   6   7
ENDBRANCH   5   6
ENDBRANCH   4   5
ENDBRANCH   3   4
ENDBRANCH   2   3
ENDBRANCH   1   2
BRANCH   1  43
ATOM     43  C   UNL A   1      44.057  24.308  29.088  1.00  0.00     0.188 C 
BRANCH  43  44
ATOM     44  C   UNL A   1      43.336  22.969  28.897  1.00  0.00     0.188 C 
BRANCH  44  45
ATOM     45  O   UNL A   1      43.785  22.216  27.779  1.00  0.00    -0.376 OA
BRANCH  45  46
ATOM     46  C   UNL A   1      42.790  21.543  27.011  1.00  0.00     0.202 C 
BRANCH  46  47
ATOM     47  C   UNL A   1      42.204  22.247  25.764  1.00  0.00     0.261 C 
BRANCH  47  48
ATOM     48  O   UNL A   1      41.558  23.506  25.998  1.00  0.00    -0.460 OA
BRANCH  48  49
ATOM     49  C   UNL A   1      40.300  23.451  26.478  1.00  0.00     0.338 C 
ATOM     50  O   UNL A   1      39.571  22.480  26.503  1.00  0.00    -0.246 OA
BRANCH  49  51
ATOM     51  C   UNL A   1      40.020  24.715  27.194  1.00  0.00     0.060 A 
ATOM     52  C   UNL A   1      40.527  25.895  26.635  1.00  0.00     0.016 A 
ATOM     53  C   UNL A   1      39.275  24.757  28.376  1.00  0.00     0.016 A 
ATOM     54  C   UNL A   1      40.281  27.122  27.242  1.00  0.00     0.010 A 
ATOM     55  C   UNL A   1      39.106  25.980  29.040  1.00  0.00     0.010 A 
ATOM     56  C   UNL A   1      39.644  27.158  28.491  1.00  0.00    -0.014 A 
BRANCH  56  57
ATOM     57  C   UNL A   1      39.922  28.335  29.348  1.00  0.00     0.031 A 
ATOM     58  C   UNL A   1      41.274  28.361  30.017  1.00  0.00     0.074 A 
ATOM     59  C   UNL A   1      39.066  29.361  29.488  1.00  0.00     0.049 A 
ATOM     60  N   UNL A   1      41.828  29.292  30.747  1.00  0.00    -0.248 NA
ATOM     61  C   UNL A   1      42.131  27.178  29.808  1.00  0.00     0.031 C 
ATOM     62  C   UNL A   1      37.754  29.473  28.859  1.00  0.00     0.029 A 
ATOM     63  N   UNL A   1      39.189  30.516  30.222  1.00  0.00    -0.354 N 
ATOM     64  C   UNL A   1      43.097  28.817  31.053  1.00  0.00     0.074 A 
ATOM     65  C   UNL A   1      43.238  27.519  30.443  1.00  0.00     0.031 C 
ATOM     66  C   UNL A   1      37.178  30.626  29.254  1.00  0.00     0.029 A 
ATOM     67  C   UNL A   1      38.077  31.321  30.176  1.00  0.00     0.049 A 
ATOM     68  H   UNL A   1      39.998  30.746  30.732  1.00  0.00     0.167 HD
ATOM     69  C   UNL A   1      44.063  29.406  31.789  1.00  0.00     0.037 A 
ATOM     70  C   UNL A   1      37.820  32.474  30.827  1.00  0.00     0.037 A 
ATOM     71  C   UNL A   1      43.908  30.667  32.450  1.00  0.00     0.049 A 
ATOM     72  C   UNL A   1      38.881  33.059  31.732  1.00  0.00     0.074 A 
ATOM     73  C   UNL A   1      44.816  31.344  33.241  1.00  0.00     0.029 A 
ATOM     74  N   UNL A   1      42.748  31.425  32.419  1.00  0.00    -0.354 N 
ATOM     75  N   UNL A   1      40.098  32.631  31.973  1.00  0.00    -0.248 NA
ATOM     76  C   UNL A   1      38.533  34.292  32.455  1.00  0.00     0.031 C 
ATOM     77  C   UNL A   1      44.187  32.490  33.734  1.00  0.00     0.029 A 
ATOM     78  C   UNL A   1      42.907  32.553  33.203  1.00  0.00     0.049 A 
ATOM     79  H   UNL A   1      41.935  31.197  31.914  1.00  0.00     0.167 HD
ATOM     80  C   UNL A   1      40.666  33.555  32.844  1.00  0.00     0.074 A 
ATOM     81  C   UNL A   1      39.666  34.574  33.080  1.00  0.00     0.031 C 
ATOM     82  C   UNL A   1      41.902  33.562  33.401  1.00  0.00     0.037 A 
BRANCH  69  83
ATOM     83  C   UNL A   1      45.349  28.659  31.958  1.00  0.00     0.064 A 
ATOM     84  C   UNL A   1      45.562  27.806  33.050  1.00  0.00     0.173 A 
ATOM     85  C   UNL A   1      46.371  28.788  31.007  1.00  0.00     0.173 A 
ATOM     86  F   UNL A   1      44.626  27.678  34.002  1.00  0.00    -0.203 F 
ATOM     87  C   UNL A   1      46.761  27.111  33.186  1.00  0.00     0.198 A 
ATOM     88  C   UNL A   1      47.557  28.074  31.135  1.00  0.00     0.198 A 
ATOM     89  F   UNL A   1      46.215  29.606  29.955  1.00  0.00    -0.203 F 
ATOM     90  F   UNL A   1      46.961  26.326  34.254  1.00  0.00    -0.200 F 
ATOM     91  C   UNL A   1      47.753  27.238  32.224  1.00  0.00     0.200 A 
ATOM     92  F   UNL A   1      48.513  28.197  30.204  1.00  0.00    -0.200 F 
ATOM     93  F   UNL A   1      48.900  26.559  32.351  1.00  0.00    -0.200 F 
ENDBRANCH  69  83
BRANCH  70  94
ATOM     94  C   UNL A   1      36.496  33.144  30.697  1.00  0.00     0.064 A 
ATOM     95  C   UNL A   1      36.143  33.847  29.537  1.00  0.00     0.173 A 
ATOM     96  C   UNL A   1      35.590  33.163  31.769  1.00  0.00     0.173 A 
ATOM     97  F   UNL A   1      36.987  33.889  28.495  1.00  0.00    -0.203 F 
ATOM     98  C   UNL A   1      34.953  34.572  29.467  1.00  0.00     0.198 A 
ATOM     99  C   UNL A   1      34.387  33.863  31.685  1.00  0.00     0.198 A 
ATOM    100  F   UNL A   1      35.881  32.516  32.907  1.00  0.00    -0.203 F 
ATOM    101  F   UNL A   1      34.674  35.292  28.371  1.00  0.00    -0.200 F 
ATOM    102  C   UNL A   1      34.076  34.577  30.540  1.00  0.00     0.200 A 
ATOM    103  F   UNL A   1      33.541  33.862  32.724  1.00  0.00    -0.200 F 
ATOM    104  F   UNL A   1      32.939  35.286  30.477  1.00  0.00    -0.200 F 
ENDBRANCH  70  94
BRANCH  82 105
ATOM    105  C   UNL A   1      42.264  34.722  34.281  1.00  0.00     0.064 A 
ATOM    106  C   UNL A   1      42.678  35.950  33.748  1.00  0.00     0.173 A 
ATOM    107  C   UNL A   1      42.121  34.621  35.674  1.00  0.00     0.173 A 
ATOM    108  F   UNL A   1      42.837  36.093  32.424  1.00  0.00    -0.203 F 
ATOM    109  C   UNL A   1      42.957  37.031  34.580  1.00  0.00     0.198 A 
ATOM    110  C   UNL A   1      42.370  35.712  36.499  1.00  0.00     0.198 A 
ATOM    111  F   UNL A   1      41.715  33.470  36.231  1.00  0.00    -0.203 F 
ATOM    112  F   UNL A   1      43.389  38.185  34.053  1.00  0.00    -0.200 F 
ATOM    113  C   UNL A   1      42.794  36.914  35.953  1.00  0.00     0.200 A 
ATOM    114  F   UNL A   1      42.193  35.603  37.823  1.00  0.00    -0.200 F 
ATOM    115  F   UNL A   1      43.047  37.961  36.750  1.00  0.00    -0.200 F 
ENDBRANCH  82 105
ENDBRANCH  56  57
ENDBRANCH  49  51
ENDBRANCH  48  49
ENDBRANCH  47  48
ENDBRANCH  46  47
ENDBRANCH  45  46
ENDBRANCH  44  45
ENDBRANCH  43  44
ENDBRANCH   1  43
TORSDOF 22
ENDMDL
