MODEL 1
REMARK VINA RESULT:     -10.3      0.000      0.000
REMARK SMILES O=C(OCCOCCOCCOCCOC(=O)c1ccccc1/N=C/c1coc2ccccc2c1=O)c1ccc(-c2c3nc(c(-c4c(F)c(F)c(F)c(F)c4F)c4ccc([nH]4)c(-c4c(F)c(F)c(F)c(F)c4F)c4nc(c(-c5c(F)c(F)c(F)c(F)c5F)c5ccc2[nH]5)C=C4)C=C3)cc1
REMARK SMILES IDX 9 1 8 2 7 3 6 4 5 5 4 6 3 7 2 8 1 9 37 10 38 11 99 12 39 13
REMARK SMILES IDX 98 14 40 15 41 16 42 17 92 18 43 19 97 20 91 21 93 22 44 23
REMARK SMILES IDX 96 24 90 25 89 26 45 28 77 29 57 30 76 31 58 32 61 33 75 34
REMARK SMILES IDX 94 35 59 36 60 37 74 39 95 40 62 41 46 42 47 43 55 44 48 45
REMARK SMILES IDX 49 46 53 47 56 48 50 49 51 50 54 51 52 52 78 53 79 54 87 55
REMARK SMILES IDX 80 56 81 57 85 58 88 59 82 60 83 61 86 62 84 63 63 64 64 65
REMARK SMILES IDX 72 66 65 67 66 68 70 69 73 70 67 71 68 72 71 73 69 74 10 75
REMARK SMILES IDX 11 76 12 77 13 78 14 79 15 80 16 81 17 82 18 83 19 84 23 85
REMARK SMILES IDX 20 86 22 87 21 88 24 89 25 90 26 91 27 92 35 93 28 94 34 95
REMARK SMILES IDX 36 96 29 97 33 98 30 99 32 100 31 101
REMARK H PARENT 93 27 61 38
REMARK Flexibility Score: inf
ROOT
ATOM      1  O   UNL A   1      33.763  29.021  22.899  1.00  0.00    -0.377 OA
ENDROOT
BRANCH   1   2
ATOM      2  C   UNL A   1      33.631  28.751  24.285  1.00  0.00     0.188 C 
BRANCH   2   3
ATOM      3  C   UNL A   1      32.228  28.908  24.865  1.00  0.00     0.188 C 
BRANCH   3   4
ATOM      4  O   UNL A   1      31.935  30.253  25.235  1.00  0.00    -0.376 OA
BRANCH   4   5
ATOM      5  C   UNL A   1      31.777  30.472  26.635  1.00  0.00     0.202 C 
BRANCH   5   6
ATOM      6  C   UNL A   1      32.909  31.304  27.236  1.00  0.00     0.261 C 
BRANCH   6   7
ATOM      7  O   UNL A   1      33.880  30.487  27.907  1.00  0.00    -0.460 OA
BRANCH   7   8
ATOM      8  C   UNL A   1      35.005  30.866  28.561  1.00  0.00     0.338 C 
ATOM      9  O   UNL A   1      34.966  31.925  29.188  1.00  0.00    -0.246 OA
BRANCH   8  10
ATOM     10  C   UNL A   1      36.289  30.083  28.612  1.00  0.00     0.060 A 
ATOM     11  C   UNL A   1      36.763  29.328  29.689  1.00  0.00     0.016 A 
ATOM     12  C   UNL A   1      37.079  30.104  27.444  1.00  0.00     0.016 A 
ATOM     13  C   UNL A   1      38.000  28.694  29.653  1.00  0.00     0.010 A 
ATOM     14  C   UNL A   1      38.325  29.470  27.393  1.00  0.00     0.010 A 
ATOM     15  C   UNL A   1      38.806  28.811  28.526  1.00  0.00    -0.014 A 
BRANCH  15  16
ATOM     16  C   UNL A   1      40.233  28.485  28.692  1.00  0.00     0.031 A 
ATOM     17  C   UNL A   1      41.065  29.454  29.481  1.00  0.00     0.074 A 
ATOM     18  C   UNL A   1      40.707  27.286  28.318  1.00  0.00     0.049 A 
ATOM     19  N   UNL A   1      42.323  29.391  29.824  1.00  0.00    -0.248 NA
ATOM     20  C   UNL A   1      40.368  30.654  29.980  1.00  0.00     0.031 C 
ATOM     21  C   UNL A   1      39.918  26.230  27.681  1.00  0.00     0.029 A 
ATOM     22  N   UNL A   1      41.953  26.738  28.460  1.00  0.00    -0.354 N 
ATOM     23  C   UNL A   1      42.569  30.546  30.554  1.00  0.00     0.074 A 
ATOM     24  C   UNL A   1      41.337  31.297  30.607  1.00  0.00     0.031 C 
ATOM     25  C   UNL A   1      40.699  25.151  27.504  1.00  0.00     0.029 A 
ATOM     26  C   UNL A   1      42.048  25.460  27.968  1.00  0.00     0.049 A 
ATOM     27  H   UNL A   1      42.707  27.214  28.874  1.00  0.00     0.167 HD
ATOM     28  C   UNL A   1      43.729  30.944  31.123  1.00  0.00     0.037 A 
ATOM     29  C   UNL A   1      43.123  24.653  27.890  1.00  0.00     0.037 A 
ATOM     30  C   UNL A   1      44.940  30.178  31.048  1.00  0.00     0.049 A 
ATOM     31  C   UNL A   1      44.432  25.168  28.434  1.00  0.00     0.074 A 
ATOM     32  C   UNL A   1      46.200  30.495  31.516  1.00  0.00     0.029 A 
ATOM     33  N   UNL A   1      45.032  28.927  30.450  1.00  0.00    -0.354 N 
ATOM     34  N   UNL A   1      44.682  26.290  29.068  1.00  0.00    -0.248 NA
ATOM     35  C   UNL A   1      45.610  24.314  28.240  1.00  0.00     0.031 C 
ATOM     36  C   UNL A   1      47.066  29.456  31.156  1.00  0.00     0.029 A 
ATOM     37  C   UNL A   1      46.334  28.466  30.516  1.00  0.00     0.049 A 
ATOM     38  H   UNL A   1      44.281  28.440  30.040  1.00  0.00     0.167 HD
ATOM     39  C   UNL A   1      46.036  26.267  29.372  1.00  0.00     0.074 A 
ATOM     40  C   UNL A   1      46.550  25.009  28.864  1.00  0.00     0.031 C 
ATOM     41  C   UNL A   1      46.794  27.196  30.008  1.00  0.00     0.037 A 
BRANCH  28  42
ATOM     42  C   UNL A   1      43.737  32.294  31.777  1.00  0.00     0.064 A 
ATOM     43  C   UNL A   1      43.518  32.462  33.153  1.00  0.00     0.173 A 
ATOM     44  C   UNL A   1      43.903  33.448  30.996  1.00  0.00     0.173 A 
ATOM     45  F   UNL A   1      43.318  31.394  33.940  1.00  0.00    -0.203 F 
ATOM     46  C   UNL A   1      43.428  33.734  33.715  1.00  0.00     0.198 A 
ATOM     47  C   UNL A   1      43.841  34.717  31.565  1.00  0.00     0.198 A 
ATOM     48  F   UNL A   1      44.104  33.346  29.674  1.00  0.00    -0.203 F 
ATOM     49  F   UNL A   1      43.147  33.872  35.018  1.00  0.00    -0.200 F 
ATOM     50  C   UNL A   1      43.591  34.860  32.921  1.00  0.00     0.200 A 
ATOM     51  F   UNL A   1      44.000  35.803  30.796  1.00  0.00    -0.200 F 
ATOM     52  F   UNL A   1      43.490  36.083  33.460  1.00  0.00    -0.200 F 
ENDBRANCH  28  42
BRANCH  29  53
ATOM     53  C   UNL A   1      43.019  23.310  27.257  1.00  0.00     0.064 A 
ATOM     54  C   UNL A   1      43.524  23.066  25.972  1.00  0.00     0.173 A 
ATOM     55  C   UNL A   1      42.389  22.243  27.918  1.00  0.00     0.173 A 
ATOM     56  F   UNL A   1      44.113  24.056  25.285  1.00  0.00    -0.203 F 
ATOM     57  C   UNL A   1      43.387  21.817  25.368  1.00  0.00     0.198 A 
ATOM     58  C   UNL A   1      42.280  20.986  27.325  1.00  0.00     0.198 A 
ATOM     59  F   UNL A   1      41.880  22.419  29.146  1.00  0.00    -0.203 F 
ATOM     60  F   UNL A   1      43.833  21.627  24.118  1.00  0.00    -0.200 F 
ATOM     61  C   UNL A   1      42.770  20.777  26.046  1.00  0.00     0.200 A 
ATOM     62  F   UNL A   1      41.694  19.982  27.991  1.00  0.00    -0.200 F 
ATOM     63  F   UNL A   1      42.639  19.577  25.465  1.00  0.00    -0.200 F 
ENDBRANCH  29  53
BRANCH  41  64
ATOM     64  C   UNL A   1      48.239  26.861  30.225  1.00  0.00     0.064 A 
ATOM     65  C   UNL A   1      48.662  26.103  31.326  1.00  0.00     0.173 A 
ATOM     66  C   UNL A   1      49.202  27.264  29.288  1.00  0.00     0.173 A 
ATOM     67  F   UNL A   1      47.776  25.706  32.252  1.00  0.00    -0.203 F 
ATOM     68  C   UNL A   1      50.005  25.785  31.497  1.00  0.00     0.198 A 
ATOM     69  C   UNL A   1      50.539  26.916  29.446  1.00  0.00     0.198 A 
ATOM     70  F   UNL A   1      48.843  27.983  28.214  1.00  0.00    -0.203 F 
ATOM     71  F   UNL A   1      50.396  25.103  32.581  1.00  0.00    -0.200 F 
ATOM     72  C   UNL A   1      50.941  26.185  30.553  1.00  0.00     0.200 A 
ATOM     73  F   UNL A   1      51.439  27.288  28.525  1.00  0.00    -0.200 F 
ATOM     74  F   UNL A   1      52.233  25.868  30.716  1.00  0.00    -0.200 F 
ENDBRANCH  41  64
ENDBRANCH  15  16
ENDBRANCH   8  10
ENDBRANCH   7   8
ENDBRANCH   6   7
ENDBRANCH   5   6
ENDBRANCH   4   5
ENDBRANCH   3   4
ENDBRANCH   2   3
ENDBRANCH   1   2
BRANCH   1  75
ATOM     75  C   UNL A   1      33.994  27.941  22.003  1.00  0.00     0.188 C 
BRANCH  75  76
ATOM     76  C   UNL A   1      33.246  26.586  22.133  1.00  0.00     0.188 C 
BRANCH  76  77
ATOM     77  O   UNL A   1      34.027  25.410  21.977  1.00  0.00    -0.376 OA
BRANCH  77  78
ATOM     78  C   UNL A   1      33.591  24.278  22.722  1.00  0.00     0.202 C 
BRANCH  78  79
ATOM     79  C   UNL A   1      33.282  23.060  21.858  1.00  0.00     0.261 C 
BRANCH  79  80
ATOM     80  O   UNL A   1      33.188  21.835  22.602  1.00  0.00    -0.460 OA
BRANCH  80  81
ATOM     81  C   UNL A   1      32.059  21.091  22.521  1.00  0.00     0.340 C 
ATOM     82  O   UNL A   1      31.058  21.340  21.895  1.00  0.00    -0.246 OA
BRANCH  81  83
ATOM     83  C   UNL A   1      32.313  19.836  23.260  1.00  0.00     0.085 A 
ATOM     84  C   UNL A   1      32.536  18.681  22.484  1.00  0.00     0.018 A 
ATOM     85  C   UNL A   1      32.505  19.814  24.649  1.00  0.00     0.077 A 
ATOM     86  C   UNL A   1      32.998  17.508  23.083  1.00  0.00     0.001 A 
ATOM     87  C   UNL A   1      32.892  18.594  25.231  1.00  0.00     0.029 A 
ATOM     88  C   UNL A   1      33.159  17.460  24.462  1.00  0.00     0.002 A 
BRANCH  85  89
ATOM     89  N   UNL A   1      32.703  20.922  25.475  1.00  0.00    -0.255 NA
ATOM     90  C   UNL A   1      33.727  21.703  25.516  1.00  0.00     0.127 C 
BRANCH  90  91
ATOM     91  C   UNL A   1      34.068  22.411  26.807  1.00  0.00     0.076 A 
ATOM     92  C   UNL A   1      34.726  23.575  26.639  1.00  0.00     0.209 A 
ATOM     93  C   UNL A   1      32.833  22.758  27.610  1.00  0.00     0.201 A 
ATOM     94  O   UNL A   1      34.089  24.726  26.129  1.00  0.00    -0.463 OA
ATOM     95  C   UNL A   1      32.004  23.794  26.951  1.00  0.00     0.065 A 
ATOM     96  O   UNL A   1      32.544  22.203  28.659  1.00  0.00    -0.288 OA
ATOM     97  C   UNL A   1      32.705  24.712  26.155  1.00  0.00     0.137 A 
ATOM     98  C   UNL A   1      30.615  23.687  26.876  1.00  0.00     0.016 A 
ATOM     99  C   UNL A   1      32.020  25.544  25.278  1.00  0.00     0.048 A 
ATOM    100  C   UNL A   1      29.934  24.499  25.964  1.00  0.00     0.001 A 
ATOM    101  C   UNL A   1      30.634  25.420  25.170  1.00  0.00     0.004 A 
ENDBRANCH  90  91
ENDBRANCH  85  89
ENDBRANCH  81  83
ENDBRANCH  80  81
ENDBRANCH  79  80
ENDBRANCH  78  79
ENDBRANCH  77  78
ENDBRANCH  76  77
ENDBRANCH  75  76
ENDBRANCH   1  75
TORSDOF 22
ENDMDL
MODEL 2
REMARK VINA RESULT:     -10.3      1.328      7.309
REMARK SMILES O=C(OCCOCCOCCOCCOC(=O)c1ccccc1/N=C/c1coc2ccccc2c1=O)c1ccc(-c2c3nc(c(-c4c(F)c(F)c(F)c(F)c4F)c4ccc([nH]4)c(-c4c(F)c(F)c(F)c(F)c4F)c4nc(c(-c5c(F)c(F)c(F)c(F)c5F)c5ccc2[nH]5)C=C4)C=C3)cc1
REMARK SMILES IDX 9 1 8 2 7 3 6 4 5 5 4 6 3 7 2 8 1 9 37 10 38 11 99 12 39 13
REMARK SMILES IDX 98 14 40 15 41 16 42 17 92 18 43 19 97 20 91 21 93 22 44 23
REMARK SMILES IDX 96 24 90 25 89 26 45 28 77 29 57 30 76 31 58 32 61 33 75 34
REMARK SMILES IDX 94 35 59 36 60 37 74 39 95 40 62 41 46 42 47 43 55 44 48 45
REMARK SMILES IDX 49 46 53 47 56 48 50 49 51 50 54 51 52 52 78 53 79 54 87 55
REMARK SMILES IDX 80 56 81 57 85 58 88 59 82 60 83 61 86 62 84 63 63 64 64 65
REMARK SMILES IDX 72 66 65 67 66 68 70 69 73 70 67 71 68 72 71 73 69 74 10 75
REMARK SMILES IDX 11 76 12 77 13 78 14 79 15 80 16 81 17 82 18 83 19 84 23 85
REMARK SMILES IDX 20 86 22 87 21 88 24 89 25 90 26 91 27 92 35 93 28 94 34 95
REMARK SMILES IDX 36 96 29 97 33 98 30 99 32 100 31 101
REMARK H PARENT 93 27 61 38
REMARK Flexibility Score: inf
ROOT
ATOM      1  O   UNL A   1      33.920  28.308  23.010  1.00  0.00    -0.377 OA
ENDROOT
BRANCH   1   2
ATOM      2  C   UNL A   1      33.891  28.167  24.420  1.00  0.00     0.188 C 
BRANCH   2   3
ATOM      3  C   UNL A   1      32.523  28.322  25.079  1.00  0.00     0.188 C 
BRANCH   3   4
ATOM      4  O   UNL A   1      32.068  29.674  25.089  1.00  0.00    -0.376 OA
BRANCH   4   5
ATOM      5  C   UNL A   1      31.516  30.114  26.328  1.00  0.00     0.202 C 
BRANCH   5   6
ATOM      6  C   UNL A   1      32.440  31.070  27.081  1.00  0.00     0.261 C 
BRANCH   6   7
ATOM      7  O   UNL A   1      33.724  30.485  27.341  1.00  0.00    -0.460 OA
BRANCH   7   8
ATOM      8  C   UNL A   1      34.835  31.065  27.856  1.00  0.00     0.338 C 
ATOM      9  O   UNL A   1      34.819  32.288  28.005  1.00  0.00    -0.246 OA
BRANCH   8  10
ATOM     10  C   UNL A   1      36.076  30.335  28.295  1.00  0.00     0.060 A 
ATOM     11  C   UNL A   1      36.273  29.685  29.517  1.00  0.00     0.016 A 
ATOM     12  C   UNL A   1      37.135  30.293  27.365  1.00  0.00     0.016 A 
ATOM     13  C   UNL A   1      37.489  29.095  29.846  1.00  0.00     0.010 A 
ATOM     14  C   UNL A   1      38.363  29.702  27.682  1.00  0.00     0.010 A 
ATOM     15  C   UNL A   1      38.552  29.152  28.951  1.00  0.00    -0.014 A 
BRANCH  15  16
ATOM     16  C   UNL A   1      39.896  28.892  29.497  1.00  0.00     0.031 A 
ATOM     17  C   UNL A   1      40.615  27.678  28.985  1.00  0.00     0.074 A 
ATOM     18  C   UNL A   1      40.508  29.807  30.265  1.00  0.00     0.049 A 
ATOM     19  N   UNL A   1      41.817  27.244  29.251  1.00  0.00    -0.248 NA
ATOM     20  C   UNL A   1      39.882  26.851  28.008  1.00  0.00     0.031 C 
ATOM     21  C   UNL A   1      39.926  31.084  30.680  1.00  0.00     0.029 A 
ATOM     22  N   UNL A   1      41.769  29.821  30.796  1.00  0.00    -0.354 N 
ATOM     23  C   UNL A   1      41.972  26.088  28.495  1.00  0.00     0.074 A 
ATOM     24  C   UNL A   1      40.746  25.883  27.761  1.00  0.00     0.031 C 
ATOM     25  C   UNL A   1      40.841  31.769  31.388  1.00  0.00     0.029 A 
ATOM     26  C   UNL A   1      42.046  30.957  31.516  1.00  0.00     0.049 A 
ATOM     27  H   UNL A   1      42.415  29.089  30.673  1.00  0.00     0.167 HD
ATOM     28  C   UNL A   1      43.045  25.270  28.430  1.00  0.00     0.037 A 
ATOM     29  C   UNL A   1      43.154  31.276  32.214  1.00  0.00     0.037 A 
ATOM     30  C   UNL A   1      44.249  25.498  29.179  1.00  0.00     0.049 A 
ATOM     31  C   UNL A   1      44.295  30.291  32.215  1.00  0.00     0.074 A 
ATOM     32  C   UNL A   1      45.383  24.714  29.262  1.00  0.00     0.029 A 
ATOM     33  N   UNL A   1      44.464  26.610  29.985  1.00  0.00    -0.354 N 
ATOM     34  N   UNL A   1      44.419  29.164  31.551  1.00  0.00    -0.248 NA
ATOM     35  C   UNL A   1      45.445  30.613  33.068  1.00  0.00     0.031 C 
ATOM     36  C   UNL A   1      46.264  25.328  30.159  1.00  0.00     0.029 A 
ATOM     37  C   UNL A   1      45.704  26.523  30.590  1.00  0.00     0.049 A 
ATOM     38  H   UNL A   1      43.826  27.350  30.107  1.00  0.00     0.167 HD
ATOM     39  C   UNL A   1      45.666  28.655  31.886  1.00  0.00     0.074 A 
ATOM     40  C   UNL A   1      46.266  29.608  32.800  1.00  0.00     0.031 C 
ATOM     41  C   UNL A   1      46.265  27.506  31.483  1.00  0.00     0.037 A 
BRANCH  28  42
ATOM     42  C   UNL A   1      42.905  24.028  27.600  1.00  0.00     0.064 A 
ATOM     43  C   UNL A   1      42.510  22.800  28.152  1.00  0.00     0.173 A 
ATOM     44  C   UNL A   1      43.235  24.057  26.237  1.00  0.00     0.173 A 
ATOM     45  F   UNL A   1      42.217  22.709  29.458  1.00  0.00    -0.203 F 
ATOM     46  C   UNL A   1      42.489  21.641  27.379  1.00  0.00     0.198 A 
ATOM     47  C   UNL A   1      43.185  22.903  25.460  1.00  0.00     0.198 A 
ATOM     48  F   UNL A   1      43.629  25.203  25.662  1.00  0.00    -0.203 F 
ATOM     49  F   UNL A   1      42.179  20.465  27.943  1.00  0.00    -0.200 F 
ATOM     50  C   UNL A   1      42.824  21.693  26.033  1.00  0.00     0.200 A 
ATOM     51  F   UNL A   1      43.509  22.957  24.161  1.00  0.00    -0.200 F 
ATOM     52  F   UNL A   1      42.817  20.576  25.294  1.00  0.00    -0.200 F 
ENDBRANCH  28  42
BRANCH  29  53
ATOM     53  C   UNL A   1      43.224  32.548  32.982  1.00  0.00     0.064 A 
ATOM     54  C   UNL A   1      42.757  32.633  34.301  1.00  0.00     0.173 A 
ATOM     55  C   UNL A   1      43.742  33.718  32.403  1.00  0.00     0.173 A 
ATOM     56  F   UNL A   1      42.229  31.553  34.895  1.00  0.00    -0.203 F 
ATOM     57  C   UNL A   1      42.788  33.839  35.002  1.00  0.00     0.198 A 
ATOM     58  C   UNL A   1      43.802  34.915  33.115  1.00  0.00     0.198 A 
ATOM     59  F   UNL A   1      44.197  33.700  31.142  1.00  0.00    -0.203 F 
ATOM     60  F   UNL A   1      42.287  33.902  36.244  1.00  0.00    -0.200 F 
ATOM     61  C   UNL A   1      43.315  34.977  34.412  1.00  0.00     0.200 A 
ATOM     62  F   UNL A   1      44.323  36.008  32.543  1.00  0.00    -0.200 F 
ATOM     63  F   UNL A   1      43.345  36.134  35.086  1.00  0.00    -0.200 F 
ENDBRANCH  29  53
BRANCH  41  64
ATOM     64  C   UNL A   1      47.651  27.248  31.994  1.00  0.00     0.064 A 
ATOM     65  C   UNL A   1      48.784  27.726  31.322  1.00  0.00     0.173 A 
ATOM     66  C   UNL A   1      47.837  26.555  33.200  1.00  0.00     0.173 A 
ATOM     67  F   UNL A   1      48.653  28.383  30.160  1.00  0.00    -0.203 F 
ATOM     68  C   UNL A   1      50.061  27.493  31.825  1.00  0.00     0.198 A 
ATOM     69  C   UNL A   1      49.112  26.354  33.716  1.00  0.00     0.198 A 
ATOM     70  F   UNL A   1      46.781  26.088  33.883  1.00  0.00    -0.203 F 
ATOM     71  F   UNL A   1      51.134  27.914  31.143  1.00  0.00    -0.200 F 
ATOM     72  C   UNL A   1      50.223  26.815  33.025  1.00  0.00     0.200 A 
ATOM     73  F   UNL A   1      49.267  25.714  34.883  1.00  0.00    -0.200 F 
ATOM     74  F   UNL A   1      51.453  26.601  33.512  1.00  0.00    -0.200 F 
ENDBRANCH  41  64
ENDBRANCH  15  16
ENDBRANCH   8  10
ENDBRANCH   7   8
ENDBRANCH   6   7
ENDBRANCH   5   6
ENDBRANCH   4   5
ENDBRANCH   3   4
ENDBRANCH   2   3
ENDBRANCH   1   2
BRANCH   1  75
ATOM     75  C   UNL A   1      33.653  27.172  22.197  1.00  0.00     0.188 C 
BRANCH  75  76
ATOM     76  C   UNL A   1      32.223  26.587  22.039  1.00  0.00     0.188 C 
BRANCH  76  77
ATOM     77  O   UNL A   1      32.132  25.234  21.615  1.00  0.00    -0.376 OA
BRANCH  77  78
ATOM     78  C   UNL A   1      32.547  24.261  22.567  1.00  0.00     0.202 C 
BRANCH  78  79
ATOM     79  C   UNL A   1      33.262  23.065  21.946  1.00  0.00     0.261 C 
BRANCH  79  80
ATOM     80  O   UNL A   1      33.135  21.856  22.712  1.00  0.00    -0.460 OA
BRANCH  80  81
ATOM     81  C   UNL A   1      31.994  21.131  22.625  1.00  0.00     0.340 C 
ATOM     82  O   UNL A   1      30.971  21.432  22.061  1.00  0.00    -0.246 OA
BRANCH  81  83
ATOM     83  C   UNL A   1      32.264  19.824  23.263  1.00  0.00     0.085 A 
ATOM     84  C   UNL A   1      32.734  18.797  22.422  1.00  0.00     0.018 A 
ATOM     85  C   UNL A   1      32.230  19.652  24.655  1.00  0.00     0.077 A 
ATOM     86  C   UNL A   1      33.221  17.607  22.967  1.00  0.00     0.001 A 
ATOM     87  C   UNL A   1      32.650  18.412  25.165  1.00  0.00     0.029 A 
ATOM     88  C   UNL A   1      33.162  17.408  24.341  1.00  0.00     0.002 A 
BRANCH  85  89
ATOM     89  N   UNL A   1      32.168  20.666  25.613  1.00  0.00    -0.255 NA
ATOM     90  C   UNL A   1      32.341  21.931  25.436  1.00  0.00     0.127 C 
BRANCH  90  91
ATOM     91  C   UNL A   1      32.858  22.775  26.578  1.00  0.00     0.076 A 
ATOM     92  C   UNL A   1      33.547  22.082  27.506  1.00  0.00     0.209 A 
ATOM     93  C   UNL A   1      33.798  23.861  26.104  1.00  0.00     0.201 A 
ATOM     94  O   UNL A   1      34.835  21.569  27.249  1.00  0.00    -0.463 OA
ATOM     95  C   UNL A   1      35.073  23.316  25.582  1.00  0.00     0.065 A 
ATOM     96  O   UNL A   1      33.505  25.047  26.116  1.00  0.00    -0.288 OA
ATOM     97  C   UNL A   1      35.495  22.109  26.160  1.00  0.00     0.137 A 
ATOM     98  C   UNL A   1      35.649  23.792  24.405  1.00  0.00     0.016 A 
ATOM     99  C   UNL A   1      36.512  21.368  25.570  1.00  0.00     0.048 A 
ATOM    100  C   UNL A   1      36.644  23.023  23.792  1.00  0.00     0.001 A 
ATOM    101  C   UNL A   1      37.070  21.819  24.372  1.00  0.00     0.004 A 
ENDBRANCH  90  91
ENDBRANCH  85  89
ENDBRANCH  81  83
ENDBRANCH  80  81
ENDBRANCH  79  80
ENDBRANCH  78  79
ENDBRANCH  77  78
ENDBRANCH  76  77
ENDBRANCH  75  76
ENDBRANCH   1  75
TORSDOF 22
ENDMDL
MODEL 3
REMARK VINA RESULT:     -10.2      0.790      6.935
REMARK SMILES O=C(OCCOCCOCCOCCOC(=O)c1ccccc1/N=C/c1coc2ccccc2c1=O)c1ccc(-c2c3nc(c(-c4c(F)c(F)c(F)c(F)c4F)c4ccc([nH]4)c(-c4c(F)c(F)c(F)c(F)c4F)c4nc(c(-c5c(F)c(F)c(F)c(F)c5F)c5ccc2[nH]5)C=C4)C=C3)cc1
REMARK SMILES IDX 9 1 8 2 7 3 6 4 5 5 4 6 3 7 2 8 1 9 37 10 38 11 99 12 39 13
REMARK SMILES IDX 98 14 40 15 41 16 42 17 92 18 43 19 97 20 91 21 93 22 44 23
REMARK SMILES IDX 96 24 90 25 89 26 45 28 77 29 57 30 76 31 58 32 61 33 75 34
REMARK SMILES IDX 94 35 59 36 60 37 74 39 95 40 62 41 46 42 47 43 55 44 48 45
REMARK SMILES IDX 49 46 53 47 56 48 50 49 51 50 54 51 52 52 78 53 79 54 87 55
REMARK SMILES IDX 80 56 81 57 85 58 88 59 82 60 83 61 86 62 84 63 63 64 64 65
REMARK SMILES IDX 72 66 65 67 66 68 70 69 73 70 67 71 68 72 71 73 69 74 10 75
REMARK SMILES IDX 11 76 12 77 13 78 14 79 15 80 16 81 17 82 18 83 19 84 23 85
REMARK SMILES IDX 20 86 22 87 21 88 24 89 25 90 26 91 27 92 35 93 28 94 34 95
REMARK SMILES IDX 36 96 29 97 33 98 30 99 32 100 31 101
REMARK H PARENT 93 27 61 38
REMARK Flexibility Score: inf
ROOT
ATOM      1  O   UNL A   1      33.558  29.029  22.998  1.00  0.00    -0.377 OA
ENDROOT
BRANCH   1   2
ATOM      2  C   UNL A   1      33.186  28.768  24.341  1.00  0.00     0.188 C 
BRANCH   2   3
ATOM      3  C   UNL A   1      31.700  28.910  24.663  1.00  0.00     0.188 C 
BRANCH   3   4
ATOM      4  O   UNL A   1      31.399  30.129  25.338  1.00  0.00    -0.376 OA
BRANCH   4   5
ATOM      5  C   UNL A   1      31.697  30.135  26.733  1.00  0.00     0.202 C 
BRANCH   5   6
ATOM      6  C   UNL A   1      32.774  31.154  27.103  1.00  0.00     0.261 C 
BRANCH   6   7
ATOM      7  O   UNL A   1      34.011  30.524  27.462  1.00  0.00    -0.460 OA
BRANCH   7   8
ATOM      8  C   UNL A   1      34.916  30.897  28.400  1.00  0.00     0.338 C 
ATOM      9  O   UNL A   1      34.642  31.877  29.093  1.00  0.00    -0.246 OA
BRANCH   8  10
ATOM     10  C   UNL A   1      36.214  30.192  28.688  1.00  0.00     0.060 A 
ATOM     11  C   UNL A   1      36.549  29.508  29.861  1.00  0.00     0.016 A 
ATOM     12  C   UNL A   1      37.177  30.213  27.658  1.00  0.00     0.016 A 
ATOM     13  C   UNL A   1      37.806  28.945  30.048  1.00  0.00     0.010 A 
ATOM     14  C   UNL A   1      38.446  29.651  27.833  1.00  0.00     0.010 A 
ATOM     15  C   UNL A   1      38.775  29.065  29.057  1.00  0.00    -0.014 A 
BRANCH  15  16
ATOM     16  C   UNL A   1      40.172  28.828  29.459  1.00  0.00     0.031 A 
ATOM     17  C   UNL A   1      40.838  27.598  28.916  1.00  0.00     0.074 A 
ATOM     18  C   UNL A   1      40.860  29.773  30.119  1.00  0.00     0.049 A 
ATOM     19  N   UNL A   1      42.064  27.176  29.063  1.00  0.00    -0.248 NA
ATOM     20  C   UNL A   1      40.006  26.732  28.059  1.00  0.00     0.031 C 
ATOM     21  C   UNL A   1      40.320  31.064  30.548  1.00  0.00     0.029 A 
ATOM     22  N   UNL A   1      42.173  29.811  30.505  1.00  0.00    -0.354 N 
ATOM     23  C   UNL A   1      42.141  25.993  28.339  1.00  0.00     0.074 A 
ATOM     24  C   UNL A   1      40.843  25.757  27.754  1.00  0.00     0.031 C 
ATOM     25  C   UNL A   1      41.303  31.778  31.123  1.00  0.00     0.029 A 
ATOM     26  C   UNL A   1      42.521  30.973  31.146  1.00  0.00     0.049 A 
ATOM     27  H   UNL A   1      42.805  29.076  30.338  1.00  0.00     0.167 HD
ATOM     28  C   UNL A   1      43.206  25.175  28.186  1.00  0.00     0.037 A 
ATOM     29  C   UNL A   1      43.697  31.321  31.704  1.00  0.00     0.037 A 
ATOM     30  C   UNL A   1      44.484  25.433  28.787  1.00  0.00     0.049 A 
ATOM     31  C   UNL A   1      44.838  30.339  31.615  1.00  0.00     0.074 A 
ATOM     32  C   UNL A   1      45.625  24.656  28.772  1.00  0.00     0.029 A 
ATOM     33  N   UNL A   1      44.780  26.576  29.521  1.00  0.00    -0.354 N 
ATOM     34  N   UNL A   1      44.893  29.188  30.985  1.00  0.00    -0.248 NA
ATOM     35  C   UNL A   1      46.073  30.696  32.322  1.00  0.00     0.031 C 
ATOM     36  C   UNL A   1      46.597  25.305  29.542  1.00  0.00     0.029 A 
ATOM     37  C   UNL A   1      46.080  26.514  29.987  1.00  0.00     0.049 A 
ATOM     38  H   UNL A   1      44.156  27.319  29.685  1.00  0.00     0.167 HD
ATOM     39  C   UNL A   1      46.173  28.695  31.198  1.00  0.00     0.074 A 
ATOM     40  C   UNL A   1      46.866  29.683  32.003  1.00  0.00     0.031 C 
ATOM     41  C   UNL A   1      46.731  27.533  30.774  1.00  0.00     0.037 A 
BRANCH  28  42
ATOM     42  C   UNL A   1      42.982  23.902  27.424  1.00  0.00     0.064 A 
ATOM     43  C   UNL A   1      42.513  22.733  28.042  1.00  0.00     0.173 A 
ATOM     44  C   UNL A   1      43.306  23.836  26.061  1.00  0.00     0.173 A 
ATOM     45  F   UNL A   1      42.222  22.730  29.352  1.00  0.00    -0.203 F 
ATOM     46  C   UNL A   1      42.414  21.537  27.332  1.00  0.00     0.198 A 
ATOM     47  C   UNL A   1      43.178  22.648  25.348  1.00  0.00     0.198 A 
ATOM     48  F   UNL A   1      43.769  24.922  25.423  1.00  0.00    -0.203 F 
ATOM     49  F   UNL A   1      42.032  20.416  27.960  1.00  0.00    -0.200 F 
ATOM     50  C   UNL A   1      42.744  21.496  25.986  1.00  0.00     0.200 A 
ATOM     51  F   UNL A   1      43.497  22.611  24.046  1.00  0.00    -0.200 F 
ATOM     52  F   UNL A   1      42.662  20.343  25.308  1.00  0.00    -0.200 F 
ENDBRANCH  28  42
BRANCH  29  53
ATOM     53  C   UNL A   1      43.845  32.622  32.411  1.00  0.00     0.064 A 
ATOM     54  C   UNL A   1      44.321  33.764  31.750  1.00  0.00     0.173 A 
ATOM     55  C   UNL A   1      43.533  32.747  33.774  1.00  0.00     0.173 A 
ATOM     56  F   UNL A   1      44.657  33.695  30.454  1.00  0.00    -0.203 F 
ATOM     57  C   UNL A   1      44.496  34.970  32.428  1.00  0.00     0.198 A 
ATOM     58  C   UNL A   1      43.679  33.961  34.443  1.00  0.00     0.198 A 
ATOM     59  F   UNL A   1      43.080  31.687  34.460  1.00  0.00    -0.203 F 
ATOM     60  F   UNL A   1      45.002  36.030  31.783  1.00  0.00    -0.200 F 
ATOM     61  C   UNL A   1      44.170  35.070  33.772  1.00  0.00     0.200 A 
ATOM     62  F   UNL A   1      43.351  34.054  35.739  1.00  0.00    -0.200 F 
ATOM     63  F   UNL A   1      44.338  36.229  34.422  1.00  0.00    -0.200 F 
ENDBRANCH  29  53
BRANCH  41  64
ATOM     64  C   UNL A   1      48.167  27.297  31.138  1.00  0.00     0.064 A 
ATOM     65  C   UNL A   1      48.528  26.602  32.300  1.00  0.00     0.173 A 
ATOM     66  C   UNL A   1      49.189  27.734  30.282  1.00  0.00     0.173 A 
ATOM     67  F   UNL A   1      47.583  26.177  33.154  1.00  0.00    -0.203 F 
ATOM     68  C   UNL A   1      49.866  26.377  32.608  1.00  0.00     0.198 A 
ATOM     69  C   UNL A   1      50.523  27.477  30.576  1.00  0.00     0.198 A 
ATOM     70  F   UNL A   1      48.891  28.395  29.153  1.00  0.00    -0.203 F 
ATOM     71  F   UNL A   1      50.192  25.754  33.749  1.00  0.00    -0.200 F 
ATOM     72  C   UNL A   1      50.861  26.807  31.742  1.00  0.00     0.200 A 
ATOM     73  F   UNL A   1      51.483  27.879  29.731  1.00  0.00    -0.200 F 
ATOM     74  F   UNL A   1      52.149  26.580  32.037  1.00  0.00    -0.200 F 
ENDBRANCH  41  64
ENDBRANCH  15  16
ENDBRANCH   8  10
ENDBRANCH   7   8
ENDBRANCH   6   7
ENDBRANCH   5   6
ENDBRANCH   4   5
ENDBRANCH   3   4
ENDBRANCH   2   3
ENDBRANCH   1   2
BRANCH   1  75
ATOM     75  C   UNL A   1      34.043  27.960  22.195  1.00  0.00     0.188 C 
BRANCH  75  76
ATOM     76  C   UNL A   1      33.104  26.865  21.623  1.00  0.00     0.188 C 
BRANCH  76  77
ATOM     77  O   UNL A   1      33.623  25.544  21.572  1.00  0.00    -0.376 OA
BRANCH  77  78
ATOM     78  C   UNL A   1      32.739  24.517  22.008  1.00  0.00     0.202 C 
BRANCH  78  79
ATOM     79  C   UNL A   1      33.333  23.116  21.907  1.00  0.00     0.261 C 
BRANCH  79  80
ATOM     80  O   UNL A   1      32.757  22.177  22.830  1.00  0.00    -0.460 OA
BRANCH  80  81
ATOM     81  C   UNL A   1      32.062  21.117  22.353  1.00  0.00     0.340 C 
ATOM     82  O   UNL A   1      31.337  21.085  21.389  1.00  0.00    -0.246 OA
BRANCH  81  83
ATOM     83  C   UNL A   1      32.442  19.946  23.173  1.00  0.00     0.085 A 
ATOM     84  C   UNL A   1      32.428  18.693  22.530  1.00  0.00     0.018 A 
ATOM     85  C   UNL A   1      32.964  20.082  24.468  1.00  0.00     0.077 A 
ATOM     86  C   UNL A   1      32.979  17.574  23.156  1.00  0.00     0.001 A 
ATOM     87  C   UNL A   1      33.436  18.919  25.102  1.00  0.00     0.029 A 
ATOM     88  C   UNL A   1      33.468  17.684  24.452  1.00  0.00     0.002 A 
BRANCH  85  89
ATOM     89  N   UNL A   1      33.396  21.267  25.067  1.00  0.00    -0.255 NA
ATOM     90  C   UNL A   1      34.563  21.809  24.994  1.00  0.00     0.127 C 
BRANCH  90  91
ATOM     91  C   UNL A   1      35.051  22.674  26.133  1.00  0.00     0.076 A 
ATOM     92  C   UNL A   1      35.398  23.923  25.765  1.00  0.00     0.209 A 
ATOM     93  C   UNL A   1      34.000  22.847  27.208  1.00  0.00     0.201 A 
ATOM     94  O   UNL A   1      34.436  24.885  25.392  1.00  0.00    -0.463 OA
ATOM     95  C   UNL A   1      32.844  23.649  26.744  1.00  0.00     0.065 A 
ATOM     96  O   UNL A   1      34.090  22.337  28.314  1.00  0.00    -0.288 OA
ATOM     97  C   UNL A   1      33.132  24.613  25.766  1.00  0.00     0.137 A 
ATOM     98  C   UNL A   1      31.530  23.276  27.024  1.00  0.00     0.016 A 
ATOM     99  C   UNL A   1      32.103  25.225  25.061  1.00  0.00     0.048 A 
ATOM    100  C   UNL A   1      30.499  23.865  26.285  1.00  0.00     0.001 A 
ATOM    101  C   UNL A   1      30.786  24.832  25.310  1.00  0.00     0.004 A 
ENDBRANCH  90  91
ENDBRANCH  85  89
ENDBRANCH  81  83
ENDBRANCH  80  81
ENDBRANCH  79  80
ENDBRANCH  78  79
ENDBRANCH  77  78
ENDBRANCH  76  77
ENDBRANCH  75  76
ENDBRANCH   1  75
TORSDOF 22
ENDMDL
