MODEL 1
REMARK VINA RESULT:     -10.2      0.000      0.000
REMARK SMILES Cc1n[nH]c(C(=O)OCCOCCOCCOCCOC(=O)c2ccc(-c3c4nc(c(-c5c(F)c(F)c(F)c(F)c5F)c5ccc([nH]5)c(-c5c(F)c(F)c(F)c(F)c5F)c5nc(c(-c6c(F)c(F)c(F)c(F)c6F)c6ccc3[nH]6)C=C5)C=C4)cc2)c1Br
REMARK SMILES IDX 15 1 14 2 13 3 12 4 11 5 10 6 9 7 8 8 6 9 7 10 5 11 1 12
REMARK SMILES IDX 2 13 3 14 86 15 4 16 87 17 16 19 17 20 18 21 19 22 20 23
REMARK SMILES IDX 21 24 22 25 23 26 24 27 85 28 25 29 84 30 26 31 27 32 28 33
REMARK SMILES IDX 78 34 29 35 83 36 77 37 79 38 30 39 82 40 76 41 75 42 31 44
REMARK SMILES IDX 63 45 43 46 62 47 44 48 47 49 61 50 80 51 45 52 46 53 60 55
REMARK SMILES IDX 81 56 48 57 32 58 33 59 41 60 34 61 35 62 39 63 42 64 36 65
REMARK SMILES IDX 37 66 40 67 38 68 64 69 65 70 73 71 66 72 67 73 71 74 74 75
REMARK SMILES IDX 68 76 69 77 72 78 70 79 49 80 50 81 58 82 51 83 52 84 56 85
REMARK SMILES IDX 59 86 53 87 54 88 57 89 55 90
REMARK H PARENT 4 18 79 43 47 54
REMARK Flexibility Score: inf
ROOT
ATOM      1  C   UNL A   1      40.724  21.293  26.157  1.00  0.00     0.188 C 
ENDROOT
BRANCH   1   2
ATOM      2  O   UNL A   1      39.483  21.773  26.674  1.00  0.00    -0.377 OA
BRANCH   2   3
ATOM      3  C   UNL A   1      38.404  22.078  25.802  1.00  0.00     0.188 C 
BRANCH   3   4
ATOM      4  C   UNL A   1      37.697  23.442  25.939  1.00  0.00     0.188 C 
BRANCH   4   5
ATOM      5  O   UNL A   1      36.899  23.768  24.817  1.00  0.00    -0.376 OA
BRANCH   5   6
ATOM      6  C   UNL A   1      36.322  22.735  24.049  1.00  0.00     0.202 C 
BRANCH   6   7
ATOM      7  C   UNL A   1      34.797  22.554  24.104  1.00  0.00     0.261 C 
BRANCH   7   8
ATOM      8  O   UNL A   1      34.319  21.201  24.148  1.00  0.00    -0.459 OA
BRANCH   8   9
ATOM      9  C   UNL A   1      33.016  21.035  24.530  1.00  0.00     0.357 C 
ATOM     10  O   UNL A   1      32.143  21.842  24.371  1.00  0.00    -0.244 OA
BRANCH   9  11
ATOM     11  C   UNL A   1      32.872  19.677  24.996  1.00  0.00     0.158 A 
ATOM     12  C   UNL A   1      32.514  16.007  25.020  1.00  0.00     0.070 C 
ATOM     13  C   UNL A   1      32.673  17.466  25.242  1.00  0.00     0.074 A 
ATOM     14  N   UNL A   1      32.872  17.945  26.478  1.00  0.00    -0.179 NA
ATOM     15  C   UNL A   1      32.678  18.510  24.292  1.00  0.00     0.073 A 
ATOM     16  N   UNL A   1      33.008  19.272  26.295  1.00  0.00    -0.270 N 
ATOM     17  Br  UNL A   1      32.576  18.273  22.435  1.00  0.00    -0.046 Br
ATOM     18  H   UNL A   1      33.191  19.897  27.033  1.00  0.00     0.190 HD
ENDBRANCH   9  11
ENDBRANCH   8   9
ENDBRANCH   7   8
ENDBRANCH   6   7
ENDBRANCH   5   6
ENDBRANCH   4   5
ENDBRANCH   3   4
ENDBRANCH   2   3
ENDBRANCH   1   2
BRANCH   1  19
ATOM     19  C   UNL A   1      41.100  19.788  26.065  1.00  0.00     0.188 C 
BRANCH  19  20
ATOM     20  O   UNL A   1      42.186  19.368  26.867  1.00  0.00    -0.376 OA
BRANCH  20  21
ATOM     21  C   UNL A   1      43.043  18.306  26.514  1.00  0.00     0.202 C 
BRANCH  21  22
ATOM     22  C   UNL A   1      44.096  18.517  25.437  1.00  0.00     0.261 C 
BRANCH  22  23
ATOM     23  O   UNL A   1      44.774  19.754  25.508  1.00  0.00    -0.460 OA
BRANCH  23  24
ATOM     24  C   UNL A   1      44.727  20.465  24.368  1.00  0.00     0.338 C 
ATOM     25  O   UNL A   1      44.695  20.043  23.225  1.00  0.00    -0.246 OA
BRANCH  24  26
ATOM     26  C   UNL A   1      44.908  21.868  24.718  1.00  0.00     0.060 A 
ATOM     27  C   UNL A   1      45.720  22.139  25.817  1.00  0.00     0.016 A 
ATOM     28  C   UNL A   1      44.012  22.808  24.183  1.00  0.00     0.016 A 
ATOM     29  C   UNL A   1      45.475  23.295  26.517  1.00  0.00     0.010 A 
ATOM     30  C   UNL A   1      43.754  23.948  24.895  1.00  0.00     0.010 A 
ATOM     31  C   UNL A   1      44.435  24.135  26.092  1.00  0.00    -0.014 A 
BRANCH  31  32
ATOM     32  C   UNL A   1      44.198  25.341  26.849  1.00  0.00     0.031 A 
ATOM     33  C   UNL A   1      45.258  26.332  26.589  1.00  0.00     0.074 A 
ATOM     34  C   UNL A   1      43.112  25.526  27.621  1.00  0.00     0.049 A 
ATOM     35  N   UNL A   1      46.184  26.693  27.408  1.00  0.00    -0.248 NA
ATOM     36  C   UNL A   1      45.457  26.809  25.208  1.00  0.00     0.031 C 
ATOM     37  C   UNL A   1      41.927  24.667  27.704  1.00  0.00     0.029 A 
ATOM     38  N   UNL A   1      42.787  26.575  28.431  1.00  0.00    -0.354 N 
ATOM     39  C   UNL A   1      46.915  27.655  26.725  1.00  0.00     0.074 A 
ATOM     40  C   UNL A   1      46.581  27.516  25.334  1.00  0.00     0.031 C 
ATOM     41  C   UNL A   1      40.933  25.337  28.329  1.00  0.00     0.029 A 
ATOM     42  C   UNL A   1      41.448  26.611  28.804  1.00  0.00     0.049 A 
ATOM     43  H   UNL A   1      43.444  27.247  28.726  1.00  0.00     0.167 HD
ATOM     44  C   UNL A   1      47.402  28.716  27.419  1.00  0.00     0.037 A 
ATOM     45  C   UNL A   1      40.808  27.638  29.418  1.00  0.00     0.037 A 
ATOM     46  C   UNL A   1      47.440  28.419  28.831  1.00  0.00     0.049 A 
ATOM     47  C   UNL A   1      41.838  28.473  30.077  1.00  0.00     0.074 A 
ATOM     48  C   UNL A   1      48.184  27.616  29.667  1.00  0.00     0.029 A 
ATOM     49  N   UNL A   1      46.267  28.700  29.477  1.00  0.00    -0.354 N 
ATOM     50  N   UNL A   1      42.501  28.088  31.131  1.00  0.00    -0.248 NA
ATOM     51  C   UNL A   1      42.399  29.619  29.370  1.00  0.00     0.031 C 
ATOM     52  C   UNL A   1      47.354  27.329  30.794  1.00  0.00     0.029 A 
ATOM     53  C   UNL A   1      46.143  28.000  30.644  1.00  0.00     0.049 A 
ATOM     54  H   UNL A   1      45.591  29.332  29.141  1.00  0.00     0.167 HD
ATOM     55  C   UNL A   1      43.761  28.619  30.943  1.00  0.00     0.074 A 
ATOM     56  C   UNL A   1      43.585  29.697  29.979  1.00  0.00     0.031 C 
ATOM     57  C   UNL A   1      44.865  27.905  31.309  1.00  0.00     0.037 A 
BRANCH  44  58
ATOM     58  C   UNL A   1      47.276  30.146  26.934  1.00  0.00     0.064 A 
ATOM     59  C   UNL A   1      48.398  30.992  27.037  1.00  0.00     0.173 A 
ATOM     60  C   UNL A   1      46.045  30.802  26.698  1.00  0.00     0.173 A 
ATOM     61  F   UNL A   1      49.611  30.483  27.302  1.00  0.00    -0.203 F 
ATOM     62  C   UNL A   1      48.283  32.384  26.967  1.00  0.00     0.198 A 
ATOM     63  C   UNL A   1      45.944  32.186  26.576  1.00  0.00     0.198 A 
ATOM     64  F   UNL A   1      44.874  30.158  26.698  1.00  0.00    -0.203 F 
ATOM     65  F   UNL A   1      49.358  33.152  27.193  1.00  0.00    -0.200 F 
ATOM     66  C   UNL A   1      47.056  32.979  26.739  1.00  0.00     0.200 A 
ATOM     67  F   UNL A   1      44.737  32.741  26.390  1.00  0.00    -0.200 F 
ATOM     68  F   UNL A   1      46.934  34.313  26.727  1.00  0.00    -0.200 F 
ENDBRANCH  44  58
BRANCH  45  69
ATOM     69  C   UNL A   1      39.396  28.078  29.334  1.00  0.00     0.064 A 
ATOM     70  C   UNL A   1      38.611  28.205  30.494  1.00  0.00     0.173 A 
ATOM     71  C   UNL A   1      38.884  28.670  28.165  1.00  0.00     0.173 A 
ATOM     72  F   UNL A   1      39.036  27.696  31.659  1.00  0.00    -0.203 F 
ATOM     73  C   UNL A   1      37.415  28.929  30.497  1.00  0.00     0.198 A 
ATOM     74  C   UNL A   1      37.685  29.386  28.168  1.00  0.00     0.198 A 
ATOM     75  F   UNL A   1      39.584  28.652  27.023  1.00  0.00    -0.203 F 
ATOM     76  F   UNL A   1      36.737  29.096  31.641  1.00  0.00    -0.200 F 
ATOM     77  C   UNL A   1      36.962  29.533  29.337  1.00  0.00     0.200 A 
ATOM     78  F   UNL A   1      37.273  29.993  27.046  1.00  0.00    -0.200 F 
ATOM     79  F   UNL A   1      35.856  30.291  29.354  1.00  0.00    -0.200 F 
ENDBRANCH  45  69
BRANCH  57  80
ATOM     80  C   UNL A   1      44.678  26.879  32.382  1.00  0.00     0.064 A 
ATOM     81  C   UNL A   1      44.399  25.521  32.155  1.00  0.00     0.173 A 
ATOM     82  C   UNL A   1      44.808  27.300  33.713  1.00  0.00     0.173 A 
ATOM     83  F   UNL A   1      44.348  25.023  30.911  1.00  0.00    -0.203 F 
ATOM     84  C   UNL A   1      44.188  24.644  33.218  1.00  0.00     0.198 A 
ATOM     85  C   UNL A   1      44.641  26.414  34.770  1.00  0.00     0.198 A 
ATOM     86  F   UNL A   1      45.116  28.578  33.986  1.00  0.00    -0.203 F 
ATOM     87  F   UNL A   1      43.877  23.362  32.981  1.00  0.00    -0.200 F 
ATOM     88  C   UNL A   1      44.312  25.092  34.524  1.00  0.00     0.200 A 
ATOM     89  F   UNL A   1      44.806  26.844  36.028  1.00  0.00    -0.200 F 
ATOM     90  F   UNL A   1      44.130  24.246  35.548  1.00  0.00    -0.200 F 
ENDBRANCH  57  80
ENDBRANCH  31  32
ENDBRANCH  24  26
ENDBRANCH  23  24
ENDBRANCH  22  23
ENDBRANCH  21  22
ENDBRANCH  20  21
ENDBRANCH  19  20
ENDBRANCH   1  19
TORSDOF 20
ENDMDL
MODEL 2
REMARK VINA RESULT:     -10.2      5.658     10.938
REMARK SMILES Cc1n[nH]c(C(=O)OCCOCCOCCOCCOC(=O)c2ccc(-c3c4nc(c(-c5c(F)c(F)c(F)c(F)c5F)c5ccc([nH]5)c(-c5c(F)c(F)c(F)c(F)c5F)c5nc(c(-c6c(F)c(F)c(F)c(F)c6F)c6ccc3[nH]6)C=C5)C=C4)cc2)c1Br
REMARK SMILES IDX 15 1 14 2 13 3 12 4 11 5 10 6 9 7 8 8 6 9 7 10 5 11 1 12
REMARK SMILES IDX 2 13 3 14 86 15 4 16 87 17 16 19 17 20 18 21 19 22 20 23
REMARK SMILES IDX 21 24 22 25 23 26 24 27 85 28 25 29 84 30 26 31 27 32 28 33
REMARK SMILES IDX 78 34 29 35 83 36 77 37 79 38 30 39 82 40 76 41 75 42 31 44
REMARK SMILES IDX 63 45 43 46 62 47 44 48 47 49 61 50 80 51 45 52 46 53 60 55
REMARK SMILES IDX 81 56 48 57 32 58 33 59 41 60 34 61 35 62 39 63 42 64 36 65
REMARK SMILES IDX 37 66 40 67 38 68 64 69 65 70 73 71 66 72 67 73 71 74 74 75
REMARK SMILES IDX 68 76 69 77 72 78 70 79 49 80 50 81 58 82 51 83 52 84 56 85
REMARK SMILES IDX 59 86 53 87 54 88 57 89 55 90
REMARK H PARENT 4 18 79 43 47 54
REMARK Flexibility Score: inf
ROOT
ATOM      1  C   UNL A   1      34.905  32.886  28.189  1.00  0.00     0.188 C 
ENDROOT
BRANCH   1   2
ATOM      2  O   UNL A   1      34.020  31.767  28.141  1.00  0.00    -0.377 OA
BRANCH   2   3
ATOM      3  C   UNL A   1      34.215  30.729  27.190  1.00  0.00     0.188 C 
BRANCH   3   4
ATOM      4  C   UNL A   1      34.624  29.328  27.691  1.00  0.00     0.188 C 
BRANCH   4   5
ATOM      5  O   UNL A   1      34.720  28.374  26.650  1.00  0.00    -0.376 OA
BRANCH   5   6
ATOM      6  C   UNL A   1      33.629  27.522  26.383  1.00  0.00     0.202 C 
BRANCH   6   7
ATOM      7  C   UNL A   1      33.264  27.245  24.917  1.00  0.00     0.261 C 
BRANCH   7   8
ATOM      8  O   UNL A   1      32.739  28.354  24.171  1.00  0.00    -0.459 OA
BRANCH   8   9
ATOM      9  C   UNL A   1      32.522  28.134  22.838  1.00  0.00     0.357 C 
ATOM     10  O   UNL A   1      33.238  27.495  22.119  1.00  0.00    -0.244 OA
BRANCH   9  11
ATOM     11  C   UNL A   1      31.219  28.667  22.519  1.00  0.00     0.158 A 
ATOM     12  C   UNL A   1      27.570  29.194  22.480  1.00  0.00     0.070 C 
ATOM     13  C   UNL A   1      29.049  29.170  22.359  1.00  0.00     0.074 A 
ATOM     14  N   UNL A   1      29.689  30.132  21.679  1.00  0.00    -0.179 NA
ATOM     15  C   UNL A   1      29.966  28.247  22.907  1.00  0.00     0.073 A 
ATOM     16  N   UNL A   1      30.990  29.813  21.811  1.00  0.00    -0.270 N 
ATOM     17  Br  UNL A   1      29.514  26.829  24.045  1.00  0.00    -0.046 Br
ATOM     18  H   UNL A   1      31.715  30.360  21.430  1.00  0.00     0.190 HD
ENDBRANCH   9  11
ENDBRANCH   8   9
ENDBRANCH   7   8
ENDBRANCH   6   7
ENDBRANCH   5   6
ENDBRANCH   4   5
ENDBRANCH   3   4
ENDBRANCH   2   3
ENDBRANCH   1   2
BRANCH   1  19
ATOM     19  C   UNL A   1      34.451  34.360  27.997  1.00  0.00     0.188 C 
BRANCH  19  20
ATOM     20  O   UNL A   1      33.134  34.664  28.409  1.00  0.00    -0.376 OA
BRANCH  20  21
ATOM     21  C   UNL A   1      32.761  35.914  28.944  1.00  0.00     0.202 C 
BRANCH  21  22
ATOM     22  C   UNL A   1      33.005  36.205  30.416  1.00  0.00     0.261 C 
BRANCH  22  23
ATOM     23  O   UNL A   1      33.202  35.061  31.219  1.00  0.00    -0.460 OA
BRANCH  23  24
ATOM     24  C   UNL A   1      33.566  35.341  32.483  1.00  0.00     0.338 C 
ATOM     25  O   UNL A   1      33.193  36.268  33.180  1.00  0.00    -0.246 OA
BRANCH  24  26
ATOM     26  C   UNL A   1      34.651  34.435  32.838  1.00  0.00     0.060 A 
ATOM     27  C   UNL A   1      35.864  35.019  33.195  1.00  0.00     0.016 A 
ATOM     28  C   UNL A   1      34.535  33.084  32.472  1.00  0.00     0.016 A 
ATOM     29  C   UNL A   1      37.007  34.291  32.977  1.00  0.00     0.010 A 
ATOM     30  C   UNL A   1      35.677  32.369  32.232  1.00  0.00     0.010 A 
ATOM     31  C   UNL A   1      36.896  33.010  32.415  1.00  0.00    -0.014 A 
BRANCH  31  32
ATOM     32  C   UNL A   1      38.115  32.270  32.193  1.00  0.00     0.031 A 
ATOM     33  C   UNL A   1      38.853  32.096  33.457  1.00  0.00     0.074 A 
ATOM     34  C   UNL A   1      38.462  31.762  30.996  1.00  0.00     0.049 A 
ATOM     35  N   UNL A   1      39.954  32.679  33.785  1.00  0.00    -0.248 NA
ATOM     36  C   UNL A   1      38.197  31.382  34.567  1.00  0.00     0.031 C 
ATOM     37  C   UNL A   1      37.637  31.703  29.786  1.00  0.00     0.029 A 
ATOM     38  N   UNL A   1      39.597  31.101  30.626  1.00  0.00    -0.354 N 
ATOM     39  C   UNL A   1      40.265  32.181  35.042  1.00  0.00     0.074 A 
ATOM     40  C   UNL A   1      39.063  31.588  35.560  1.00  0.00     0.031 C 
ATOM     41  C   UNL A   1      38.202  30.850  28.902  1.00  0.00     0.029 A 
ATOM     42  C   UNL A   1      39.485  30.409  29.425  1.00  0.00     0.049 A 
ATOM     43  H   UNL A   1      40.423  31.114  31.162  1.00  0.00     0.167 HD
ATOM     44  C   UNL A   1      41.569  31.955  35.347  1.00  0.00     0.037 A 
ATOM     45  C   UNL A   1      40.367  29.506  28.929  1.00  0.00     0.037 A 
ATOM     46  C   UNL A   1      42.431  32.692  34.454  1.00  0.00     0.049 A 
ATOM     47  C   UNL A   1      41.672  29.753  29.583  1.00  0.00     0.074 A 
ATOM     48  C   UNL A   1      42.776  34.011  34.255  1.00  0.00     0.029 A 
ATOM     49  N   UNL A   1      42.719  32.019  33.297  1.00  0.00    -0.354 N 
ATOM     50  N   UNL A   1      42.408  30.800  29.334  1.00  0.00    -0.248 NA
ATOM     51  C   UNL A   1      42.028  29.012  30.788  1.00  0.00     0.031 C 
ATOM     52  C   UNL A   1      43.171  34.122  32.887  1.00  0.00     0.029 A 
ATOM     53  C   UNL A   1      43.105  32.863  32.295  1.00  0.00     0.049 A 
ATOM     54  H   UNL A   1      42.654  31.041  33.199  1.00  0.00     0.167 HD
ATOM     55  C   UNL A   1      42.978  31.102  30.554  1.00  0.00     0.074 A 
ATOM     56  C   UNL A   1      42.881  29.880  31.339  1.00  0.00     0.031 C 
ATOM     57  C   UNL A   1      43.144  32.405  30.926  1.00  0.00     0.037 A 
BRANCH  44  58
ATOM     58  C   UNL A   1      42.052  30.678  36.005  1.00  0.00     0.064 A 
ATOM     59  C   UNL A   1      43.089  30.762  36.955  1.00  0.00     0.173 A 
ATOM     60  C   UNL A   1      41.789  29.378  35.512  1.00  0.00     0.173 A 
ATOM     61  F   UNL A   1      43.454  31.951  37.460  1.00  0.00    -0.203 F 
ATOM     62  C   UNL A   1      43.838  29.643  37.334  1.00  0.00     0.198 A 
ATOM     63  C   UNL A   1      42.503  28.258  35.932  1.00  0.00     0.198 A 
ATOM     64  F   UNL A   1      40.925  29.145  34.520  1.00  0.00    -0.203 F 
ATOM     65  F   UNL A   1      44.893  29.792  38.146  1.00  0.00    -0.200 F 
ATOM     66  C   UNL A   1      43.544  28.393  36.820  1.00  0.00     0.200 A 
ATOM     67  F   UNL A   1      42.222  27.062  35.393  1.00  0.00    -0.200 F 
ATOM     68  F   UNL A   1      44.295  27.329  37.138  1.00  0.00    -0.200 F 
ENDBRANCH  44  58
BRANCH  45  69
ATOM     69  C   UNL A   1      40.146  28.317  28.073  1.00  0.00     0.064 A 
ATOM     70  C   UNL A   1      40.847  28.159  26.863  1.00  0.00     0.173 A 
ATOM     71  C   UNL A   1      39.483  27.177  28.563  1.00  0.00     0.173 A 
ATOM     72  F   UNL A   1      41.531  29.186  26.338  1.00  0.00    -0.203 F 
ATOM     73  C   UNL A   1      40.926  26.923  26.214  1.00  0.00     0.198 A 
ATOM     74  C   UNL A   1      39.555  25.945  27.909  1.00  0.00     0.198 A 
ATOM     75  F   UNL A   1      38.836  27.211  29.736  1.00  0.00    -0.203 F 
ATOM     76  F   UNL A   1      41.670  26.796  25.107  1.00  0.00    -0.200 F 
ATOM     77  C   UNL A   1      40.293  25.814  26.747  1.00  0.00     0.200 A 
ATOM     78  F   UNL A   1      38.966  24.870  28.453  1.00  0.00    -0.200 F 
ATOM     79  F   UNL A   1      40.431  24.612  26.170  1.00  0.00    -0.200 F 
ENDBRANCH  45  69
BRANCH  57  80
ATOM     80  C   UNL A   1      43.243  33.413  29.824  1.00  0.00     0.064 A 
ATOM     81  C   UNL A   1      44.397  33.658  29.061  1.00  0.00     0.173 A 
ATOM     82  C   UNL A   1      42.096  34.159  29.521  1.00  0.00     0.173 A 
ATOM     83  F   UNL A   1      45.507  32.925  29.230  1.00  0.00    -0.203 F 
ATOM     84  C   UNL A   1      44.416  34.656  28.088  1.00  0.00     0.198 A 
ATOM     85  C   UNL A   1      42.104  35.122  28.520  1.00  0.00     0.198 A 
ATOM     86  F   UNL A   1      40.953  33.936  30.191  1.00  0.00    -0.203 F 
ATOM     87  F   UNL A   1      45.540  34.906  27.402  1.00  0.00    -0.200 F 
ATOM     88  C   UNL A   1      43.268  35.384  27.817  1.00  0.00     0.200 A 
ATOM     89  F   UNL A   1      40.979  35.792  28.234  1.00  0.00    -0.200 F 
ATOM     90  F   UNL A   1      43.278  36.330  26.868  1.00  0.00    -0.200 F 
ENDBRANCH  57  80
ENDBRANCH  31  32
ENDBRANCH  24  26
ENDBRANCH  23  24
ENDBRANCH  22  23
ENDBRANCH  21  22
ENDBRANCH  20  21
ENDBRANCH  19  20
ENDBRANCH   1  19
TORSDOF 20
ENDMDL
MODEL 3
REMARK VINA RESULT:     -10.0      1.620      2.492
REMARK SMILES Cc1n[nH]c(C(=O)OCCOCCOCCOCCOC(=O)c2ccc(-c3c4nc(c(-c5c(F)c(F)c(F)c(F)c5F)c5ccc([nH]5)c(-c5c(F)c(F)c(F)c(F)c5F)c5nc(c(-c6c(F)c(F)c(F)c(F)c6F)c6ccc3[nH]6)C=C5)C=C4)cc2)c1Br
REMARK SMILES IDX 15 1 14 2 13 3 12 4 11 5 10 6 9 7 8 8 6 9 7 10 5 11 1 12
REMARK SMILES IDX 2 13 3 14 86 15 4 16 87 17 16 19 17 20 18 21 19 22 20 23
REMARK SMILES IDX 21 24 22 25 23 26 24 27 85 28 25 29 84 30 26 31 27 32 28 33
REMARK SMILES IDX 78 34 29 35 83 36 77 37 79 38 30 39 82 40 76 41 75 42 31 44
REMARK SMILES IDX 63 45 43 46 62 47 44 48 47 49 61 50 80 51 45 52 46 53 60 55
REMARK SMILES IDX 81 56 48 57 32 58 33 59 41 60 34 61 35 62 39 63 42 64 36 65
REMARK SMILES IDX 37 66 40 67 38 68 64 69 65 70 73 71 66 72 67 73 71 74 74 75
REMARK SMILES IDX 68 76 69 77 72 78 70 79 49 80 50 81 58 82 51 83 52 84 56 85
REMARK SMILES IDX 59 86 53 87 54 88 57 89 55 90
REMARK H PARENT 4 18 79 43 47 54
REMARK Flexibility Score: inf
ROOT
ATOM      1  C   UNL A   1      41.198  21.450  26.618  1.00  0.00     0.188 C 
ENDROOT
BRANCH   1   2
ATOM      2  O   UNL A   1      39.952  21.894  27.156  1.00  0.00    -0.377 OA
BRANCH   2   3
ATOM      3  C   UNL A   1      38.922  22.367  26.300  1.00  0.00     0.188 C 
BRANCH   3   4
ATOM      4  C   UNL A   1      38.285  21.389  25.291  1.00  0.00     0.188 C 
BRANCH   4   5
ATOM      5  O   UNL A   1      36.986  21.778  24.886  1.00  0.00    -0.376 OA
BRANCH   5   6
ATOM      6  C   UNL A   1      35.931  20.843  24.934  1.00  0.00     0.202 C 
BRANCH   6   7
ATOM      7  C   UNL A   1      34.491  21.364  24.817  1.00  0.00     0.261 C 
BRANCH   7   8
ATOM      8  O   UNL A   1      34.336  22.695  24.302  1.00  0.00    -0.459 OA
BRANCH   8   9
ATOM      9  C   UNL A   1      33.066  23.058  23.945  1.00  0.00     0.357 C 
ATOM     10  O   UNL A   1      32.447  22.591  23.031  1.00  0.00    -0.244 OA
BRANCH   9  11
ATOM     11  C   UNL A   1      32.576  23.966  24.955  1.00  0.00     0.158 A 
ATOM     12  C   UNL A   1      31.608  27.068  26.697  1.00  0.00     0.070 C 
ATOM     13  C   UNL A   1      31.906  25.709  26.179  1.00  0.00     0.074 A 
ATOM     14  N   UNL A   1      31.512  24.623  26.860  1.00  0.00    -0.179 NA
ATOM     15  C   UNL A   1      32.560  25.342  24.984  1.00  0.00     0.073 A 
ATOM     16  N   UNL A   1      31.910  23.594  26.090  1.00  0.00    -0.270 N 
ATOM     17  Br  UNL A   1      33.146  26.540  23.667  1.00  0.00    -0.046 Br
ATOM     18  H   UNL A   1      31.737  22.653  26.324  1.00  0.00     0.190 HD
ENDBRANCH   9  11
ENDBRANCH   8   9
ENDBRANCH   7   8
ENDBRANCH   6   7
ENDBRANCH   5   6
ENDBRANCH   4   5
ENDBRANCH   3   4
ENDBRANCH   2   3
ENDBRANCH   1   2
BRANCH   1  19
ATOM     19  C   UNL A   1      41.449  20.012  26.086  1.00  0.00     0.188 C 
BRANCH  19  20
ATOM     20  O   UNL A   1      42.479  19.282  26.724  1.00  0.00    -0.376 OA
BRANCH  20  21
ATOM     21  C   UNL A   1      43.208  18.258  26.089  1.00  0.00     0.202 C 
BRANCH  21  22
ATOM     22  C   UNL A   1      44.580  18.562  25.508  1.00  0.00     0.261 C 
BRANCH  22  23
ATOM     23  O   UNL A   1      44.964  19.919  25.579  1.00  0.00    -0.460 OA
BRANCH  23  24
ATOM     24  C   UNL A   1      44.741  20.606  24.445  1.00  0.00     0.338 C 
ATOM     25  O   UNL A   1      44.601  20.164  23.318  1.00  0.00    -0.246 OA
BRANCH  24  26
ATOM     26  C   UNL A   1      44.876  22.023  24.758  1.00  0.00     0.060 A 
ATOM     27  C   UNL A   1      45.729  22.354  25.808  1.00  0.00     0.016 A 
ATOM     28  C   UNL A   1      43.912  22.911  24.251  1.00  0.00     0.016 A 
ATOM     29  C   UNL A   1      45.468  23.513  26.496  1.00  0.00     0.010 A 
ATOM     30  C   UNL A   1      43.640  24.054  24.953  1.00  0.00     0.010 A 
ATOM     31  C   UNL A   1      44.371  24.297  26.109  1.00  0.00    -0.014 A 
BRANCH  31  32
ATOM     32  C   UNL A   1      44.119  25.508  26.853  1.00  0.00     0.031 A 
ATOM     33  C   UNL A   1      45.160  26.513  26.575  1.00  0.00     0.074 A 
ATOM     34  C   UNL A   1      43.033  25.684  27.629  1.00  0.00     0.049 A 
ATOM     35  N   UNL A   1      46.085  26.899  27.385  1.00  0.00    -0.248 NA
ATOM     36  C   UNL A   1      45.344  26.977  25.188  1.00  0.00     0.031 C 
ATOM     37  C   UNL A   1      41.864  24.807  27.728  1.00  0.00     0.029 A 
ATOM     38  N   UNL A   1      42.696  26.737  28.428  1.00  0.00    -0.354 N 
ATOM     39  C   UNL A   1      46.796  27.865  26.686  1.00  0.00     0.074 A 
ATOM     40  C   UNL A   1      46.456  27.704  25.299  1.00  0.00     0.031 C 
ATOM     41  C   UNL A   1      40.862  25.467  28.352  1.00  0.00     0.029 A 
ATOM     42  C   UNL A   1      41.359  26.755  28.809  1.00  0.00     0.049 A 
ATOM     43  H   UNL A   1      43.344  27.423  28.712  1.00  0.00     0.167 HD
ATOM     44  C   UNL A   1      47.270  28.941  27.365  1.00  0.00     0.037 A 
ATOM     45  C   UNL A   1      40.705  27.778  29.414  1.00  0.00     0.037 A 
ATOM     46  C   UNL A   1      47.320  28.662  28.781  1.00  0.00     0.049 A 
ATOM     47  C   UNL A   1      41.725  28.638  30.058  1.00  0.00     0.074 A 
ATOM     48  C   UNL A   1      48.082  27.881  29.622  1.00  0.00     0.029 A 
ATOM     49  N   UNL A   1      46.146  28.931  29.430  1.00  0.00    -0.354 N 
ATOM     50  N   UNL A   1      42.400  28.277  31.112  1.00  0.00    -0.248 NA
ATOM     51  C   UNL A   1      42.263  29.785  29.334  1.00  0.00     0.031 C 
ATOM     52  C   UNL A   1      47.263  27.594  30.756  1.00  0.00     0.029 A 
ATOM     53  C   UNL A   1      46.040  28.243  30.606  1.00  0.00     0.049 A 
ATOM     54  H   UNL A   1      45.458  29.548  29.090  1.00  0.00     0.167 HD
ATOM     55  C   UNL A   1      43.650  28.826  30.911  1.00  0.00     0.074 A 
ATOM     56  C   UNL A   1      43.451  29.890  29.936  1.00  0.00     0.031 C 
ATOM     57  C   UNL A   1      44.767  28.135  31.279  1.00  0.00     0.037 A 
BRANCH  44  58
ATOM     58  C   UNL A   1      47.117  30.364  26.865  1.00  0.00     0.064 A 
ATOM     59  C   UNL A   1      48.215  31.238  26.981  1.00  0.00     0.173 A 
ATOM     60  C   UNL A   1      45.875  30.986  26.599  1.00  0.00     0.173 A 
ATOM     61  F   UNL A   1      49.435  30.763  27.275  1.00  0.00    -0.203 F 
ATOM     62  C   UNL A   1      48.067  32.626  26.896  1.00  0.00     0.198 A 
ATOM     63  C   UNL A   1      45.741  32.366  26.462  1.00  0.00     0.198 A 
ATOM     64  F   UNL A   1      44.720  30.313  26.582  1.00  0.00    -0.203 F 
ATOM     65  F   UNL A   1      49.117  33.423  27.135  1.00  0.00    -0.200 F 
ATOM     66  C   UNL A   1      46.830  33.188  26.638  1.00  0.00     0.200 A 
ATOM     67  F   UNL A   1      44.525  32.888  26.246  1.00  0.00    -0.200 F 
ATOM     68  F   UNL A   1      46.675  34.518  26.612  1.00  0.00    -0.200 F 
ENDBRANCH  44  58
BRANCH  45  69
ATOM     69  C   UNL A   1      39.286  28.194  29.333  1.00  0.00     0.064 A 
ATOM     70  C   UNL A   1      38.499  28.302  30.494  1.00  0.00     0.173 A 
ATOM     71  C   UNL A   1      38.763  28.784  28.168  1.00  0.00     0.173 A 
ATOM     72  F   UNL A   1      38.933  27.793  31.657  1.00  0.00    -0.203 F 
ATOM     73  C   UNL A   1      37.290  29.005  30.502  1.00  0.00     0.198 A 
ATOM     74  C   UNL A   1      37.551  29.478  28.175  1.00  0.00     0.198 A 
ATOM     75  F   UNL A   1      39.463  28.784  27.026  1.00  0.00    -0.203 F 
ATOM     76  F   UNL A   1      36.610  29.153  31.647  1.00  0.00    -0.200 F 
ATOM     77  C   UNL A   1      36.826  29.606  29.345  1.00  0.00     0.200 A 
ATOM     78  F   UNL A   1      37.128  30.085  27.056  1.00  0.00    -0.200 F 
ATOM     79  F   UNL A   1      35.708  30.345  29.367  1.00  0.00    -0.200 F 
ENDBRANCH  45  69
BRANCH  57  80
ATOM     80  C   UNL A   1      44.604  27.118  32.365  1.00  0.00     0.064 A 
ATOM     81  C   UNL A   1      44.561  27.411  33.739  1.00  0.00     0.173 A 
ATOM     82  C   UNL A   1      44.468  25.777  31.984  1.00  0.00     0.173 A 
ATOM     83  F   UNL A   1      44.594  28.677  34.178  1.00  0.00    -0.203 F 
ATOM     84  C   UNL A   1      44.459  26.393  34.686  1.00  0.00     0.198 A 
ATOM     85  C   UNL A   1      44.322  24.768  32.929  1.00  0.00     0.198 A 
ATOM     86  F   UNL A   1      44.460  25.445  30.683  1.00  0.00    -0.203 F 
ATOM     87  F   UNL A   1      44.466  26.688  35.994  1.00  0.00    -0.200 F 
ATOM     88  C   UNL A   1      44.337  25.074  34.279  1.00  0.00     0.200 A 
ATOM     89  F   UNL A   1      44.160  23.501  32.527  1.00  0.00    -0.200 F 
ATOM     90  F   UNL A   1      44.218  24.096  35.188  1.00  0.00    -0.200 F 
ENDBRANCH  57  80
ENDBRANCH  31  32
ENDBRANCH  24  26
ENDBRANCH  23  24
ENDBRANCH  22  23
ENDBRANCH  21  22
ENDBRANCH  20  21
ENDBRANCH  19  20
ENDBRANCH   1  19
TORSDOF 20
ENDMDL
