MODEL 1
REMARK VINA RESULT:      -9.5      0.000      0.000
REMARK SMILES O=C(Nc1ccc(-c2nc3ccccc3[nH]2)cc1)c1ccc(C(=O)OCCOCCOCCOCCOC(=O)c2ccc(-c3c4nc(c(-c5c(F)c(F)c(F)c(F)c5F)c5ccc([nH]5)c(-c5c(F)c(F)c(F)c(F)c5F)c5nc(c(-c6c(F)c(F)c(F)c(F)c6F)c6ccc3[nH]6)C=C5)C=C4)cc2)cc1
REMARK SMILES IDX 30 1 29 2 28 3 27 4 26 5 25 6 23 7 24 8 22 9 19 10 20 11
REMARK SMILES IDX 104 12 21 13 103 14 2 15 1 16 3 17 4 19 5 20 18 21 6 22
REMARK SMILES IDX 17 23 7 24 8 25 9 26 16 27 10 28 15 29 11 31 14 32 12 33
REMARK SMILES IDX 13 34 31 35 32 36 33 37 34 38 35 39 36 40 37 41 38 42 39 43
REMARK SMILES IDX 40 44 41 45 102 46 42 47 101 48 43 49 44 50 45 51 95 52
REMARK SMILES IDX 46 53 100 54 94 55 96 56 47 57 99 58 93 59 92 60 48 62 80 63
REMARK SMILES IDX 60 64 79 65 61 66 64 67 78 68 97 69 62 70 63 71 77 73 98 74
REMARK SMILES IDX 65 75 49 76 50 77 58 78 51 79 52 80 56 81 59 82 53 83 54 84
REMARK SMILES IDX 57 85 55 86 81 87 82 88 90 89 83 90 84 91 88 92 91 93 85 94
REMARK SMILES IDX 86 95 89 96 87 97 66 98 67 99 75 100 68 101 69 102 73 103
REMARK SMILES IDX 76 104 70 105 71 106 74 107 72 108
REMARK H PARENT 3 18 16 30 96 61 64 72
REMARK Flexibility Score: inf
ROOT
ATOM      1  C   UNL A   1      33.022  26.720  22.017  1.00  0.00     0.188 C 
ENDROOT
BRANCH   1   2
ATOM      2  C   UNL A   1      33.354  25.589  23.012  1.00  0.00     0.188 C 
BRANCH   2   3
ATOM      3  O   UNL A   1      34.191  26.004  24.077  1.00  0.00    -0.376 OA
BRANCH   3   4
ATOM      4  C   UNL A   1      33.659  26.081  25.387  1.00  0.00     0.202 C 
BRANCH   4   5
ATOM      5  C   UNL A   1      32.151  25.879  25.614  1.00  0.00     0.261 C 
BRANCH   5   6
ATOM      6  O   UNL A   1      31.667  24.531  25.547  1.00  0.00    -0.460 OA
BRANCH   6   7
ATOM      7  C   UNL A   1      32.009  23.713  26.564  1.00  0.00     0.338 C 
ATOM      8  O   UNL A   1      31.414  23.584  27.620  1.00  0.00    -0.246 OA
BRANCH   7   9
ATOM      9  C   UNL A   1      33.108  22.821  26.113  1.00  0.00     0.060 A 
ATOM     10  C   UNL A   1      35.192  21.086  25.393  1.00  0.00     0.040 A 
ATOM     11  C   UNL A   1      35.000  21.443  26.735  1.00  0.00     0.015 A 
ATOM     12  C   UNL A   1      34.340  21.605  24.409  1.00  0.00     0.015 A 
ATOM     13  C   UNL A   1      33.960  22.302  27.093  1.00  0.00     0.016 A 
ATOM     14  C   UNL A   1      33.288  22.460  24.769  1.00  0.00     0.016 A 
BRANCH  10  15
ATOM     15  C   UNL A   1      36.353  20.232  25.000  1.00  0.00     0.255 C 
ATOM     16  O   UNL A   1      36.147  19.073  24.653  1.00  0.00    -0.269 OA
ATOM     17  N   UNL A   1      37.614  20.791  24.894  1.00  0.00    -0.322 N 
ATOM     18  H   UNL A   1      38.216  20.379  24.232  1.00  0.00     0.170 HD
BRANCH  17  19
ATOM     19  C   UNL A   1      38.139  21.875  25.618  1.00  0.00     0.041 A 
ATOM     20  C   UNL A   1      39.296  21.698  26.384  1.00  0.00     0.027 A 
ATOM     21  C   UNL A   1      37.514  23.118  25.602  1.00  0.00     0.027 A 
ATOM     22  C   UNL A   1      39.886  22.792  27.043  1.00  0.00     0.014 A 
ATOM     23  C   UNL A   1      38.083  24.192  26.276  1.00  0.00     0.014 A 
ATOM     24  C   UNL A   1      39.286  24.055  26.980  1.00  0.00     0.017 A 
BRANCH  24  25
ATOM     25  C   UNL A   1      39.818  25.263  27.608  1.00  0.00     0.138 A 
ATOM     26  N   UNL A   1      39.533  26.485  27.196  1.00  0.00    -0.229 NA
ATOM     27  N   UNL A   1      40.772  25.308  28.600  1.00  0.00    -0.338 N 
ATOM     28  C   UNL A   1      40.371  27.323  27.870  1.00  0.00     0.089 A 
ATOM     29  C   UNL A   1      41.175  26.615  28.753  1.00  0.00     0.066 A 
ATOM     30  H   UNL A   1      41.109  24.537  29.112  1.00  0.00     0.168 HD
ATOM     31  C   UNL A   1      40.515  28.710  27.748  1.00  0.00     0.030 A 
ATOM     32  C   UNL A   1      42.153  27.228  29.540  1.00  0.00     0.028 A 
ATOM     33  C   UNL A   1      41.491  29.348  28.518  1.00  0.00     0.002 A 
ATOM     34  C   UNL A   1      42.294  28.616  29.397  1.00  0.00     0.002 A 
ENDBRANCH  24  25
ENDBRANCH  17  19
ENDBRANCH  10  15
ENDBRANCH   7   9
ENDBRANCH   6   7
ENDBRANCH   5   6
ENDBRANCH   4   5
ENDBRANCH   3   4
ENDBRANCH   2   3
ENDBRANCH   1   2
BRANCH   1  35
ATOM     35  O   UNL A   1      33.493  28.024  22.330  1.00  0.00    -0.377 OA
BRANCH  35  36
ATOM     36  C   UNL A   1      32.724  28.872  23.183  1.00  0.00     0.188 C 
BRANCH  36  37
ATOM     37  C   UNL A   1      33.246  29.401  24.543  1.00  0.00     0.188 C 
BRANCH  37  38
ATOM     38  O   UNL A   1      32.239  29.690  25.495  1.00  0.00    -0.376 OA
BRANCH  38  39
ATOM     39  C   UNL A   1      32.619  29.836  26.850  1.00  0.00     0.202 C 
BRANCH  39  40
ATOM     40  C   UNL A   1      33.257  31.173  27.248  1.00  0.00     0.261 C 
BRANCH  40  41
ATOM     41  O   UNL A   1      34.270  31.111  28.265  1.00  0.00    -0.460 OA
BRANCH  41  42
ATOM     42  C   UNL A   1      34.720  32.282  28.759  1.00  0.00     0.338 C 
ATOM     43  O   UNL A   1      34.112  33.342  28.823  1.00  0.00    -0.246 OA
BRANCH  42  44
ATOM     44  C   UNL A   1      36.034  32.039  29.385  1.00  0.00     0.060 A 
ATOM     45  C   UNL A   1      36.295  32.571  30.656  1.00  0.00     0.016 A 
ATOM     46  C   UNL A   1      37.012  31.304  28.711  1.00  0.00     0.016 A 
ATOM     47  C   UNL A   1      37.558  32.420  31.229  1.00  0.00     0.010 A 
ATOM     48  C   UNL A   1      38.282  31.170  29.277  1.00  0.00     0.010 A 
ATOM     49  C   UNL A   1      38.574  31.769  30.516  1.00  0.00    -0.014 A 
BRANCH  49  50
ATOM     50  C   UNL A   1      39.987  31.941  30.937  1.00  0.00     0.031 A 
ATOM     51  C   UNL A   1      40.598  30.866  31.797  1.00  0.00     0.074 A 
ATOM     52  C   UNL A   1      40.725  32.992  30.543  1.00  0.00     0.049 A 
ATOM     53  N   UNL A   1      41.788  30.802  32.337  1.00  0.00    -0.248 NA
ATOM     54  C   UNL A   1      39.744  29.702  32.088  1.00  0.00     0.031 C 
ATOM     55  C   UNL A   1      40.267  34.070  29.669  1.00  0.00     0.029 A 
ATOM     56  N   UNL A   1      42.024  33.325  30.839  1.00  0.00    -0.354 N 
ATOM     57  C   UNL A   1      41.821  29.599  33.032  1.00  0.00     0.074 A 
ATOM     58  C   UNL A   1      40.521  28.983  32.882  1.00  0.00     0.031 C 
ATOM     59  C   UNL A   1      41.269  34.952  29.505  1.00  0.00     0.029 A 
ATOM     60  C   UNL A   1      42.425  34.520  30.290  1.00  0.00     0.049 A 
ATOM     61  H   UNL A   1      42.612  32.762  31.391  1.00  0.00     0.167 HD
ATOM     62  C   UNL A   1      42.847  29.047  33.721  1.00  0.00     0.037 A 
ATOM     63  C   UNL A   1      43.586  35.190  30.430  1.00  0.00     0.037 A 
ATOM     64  C   UNL A   1      44.138  29.662  33.875  1.00  0.00     0.049 A 
ATOM     65  C   UNL A   1      44.683  34.596  31.282  1.00  0.00     0.074 A 
ATOM     66  C   UNL A   1      45.242  29.193  34.563  1.00  0.00     0.029 A 
ATOM     67  N   UNL A   1      44.495  30.888  33.331  1.00  0.00    -0.354 N 
ATOM     68  N   UNL A   1      44.712  33.455  31.928  1.00  0.00    -0.248 NA
ATOM     69  C   UNL A   1      45.916  35.386  31.416  1.00  0.00     0.031 C 
ATOM     70  C   UNL A   1      46.250  30.159  34.482  1.00  0.00     0.029 A 
ATOM     71  C   UNL A   1      45.799  31.197  33.683  1.00  0.00     0.049 A 
ATOM     72  H   UNL A   1      43.909  31.453  32.778  1.00  0.00     0.167 HD
ATOM     73  C   UNL A   1      45.977  33.369  32.499  1.00  0.00     0.074 A 
ATOM     74  C   UNL A   1      46.688  34.568  32.116  1.00  0.00     0.031 C 
ATOM     75  C   UNL A   1      46.504  32.383  33.268  1.00  0.00     0.037 A 
BRANCH  62  76
ATOM     76  C   UNL A   1      42.606  27.719  34.381  1.00  0.00     0.064 A 
ATOM     77  C   UNL A   1      43.101  26.525  33.836  1.00  0.00     0.173 A 
ATOM     78  C   UNL A   1      41.900  27.644  35.590  1.00  0.00     0.173 A 
ATOM     79  F   UNL A   1      43.768  26.538  32.672  1.00  0.00    -0.203 F 
ATOM     80  C   UNL A   1      42.875  25.302  34.465  1.00  0.00     0.198 A 
ATOM     81  C   UNL A   1      41.706  26.425  36.235  1.00  0.00     0.198 A 
ATOM     82  F   UNL A   1      41.406  28.756  36.156  1.00  0.00    -0.203 F 
ATOM     83  F   UNL A   1      43.314  24.169  33.901  1.00  0.00    -0.200 F 
ATOM     84  C   UNL A   1      42.187  25.254  35.668  1.00  0.00     0.200 A 
ATOM     85  F   UNL A   1      41.052  26.383  37.404  1.00  0.00    -0.200 F 
ATOM     86  F   UNL A   1      41.982  24.080  36.279  1.00  0.00    -0.200 F 
ENDBRANCH  62  76
BRANCH  63  87
ATOM     87  C   UNL A   1      43.785  36.506  29.762  1.00  0.00     0.064 A 
ATOM     88  C   UNL A   1      44.098  36.585  28.397  1.00  0.00     0.173 A 
ATOM     89  C   UNL A   1      43.728  37.706  30.486  1.00  0.00     0.173 A 
ATOM     90  F   UNL A   1      44.192  35.464  27.665  1.00  0.00    -0.203 F 
ATOM     91  C   UNL A   1      44.383  37.808  27.792  1.00  0.00     0.198 A 
ATOM     92  C   UNL A   1      43.977  38.932  29.871  1.00  0.00     0.198 A 
ATOM     93  F   UNL A   1      43.436  37.690  31.794  1.00  0.00    -0.203 F 
ATOM     94  F   UNL A   1      44.750  37.845  26.504  1.00  0.00    -0.200 F 
ATOM     95  C   UNL A   1      44.319  38.981  28.528  1.00  0.00     0.200 A 
ATOM     96  F   UNL A   1      43.903  40.064  30.584  1.00  0.00    -0.200 F 
ATOM     97  F   UNL A   1      44.601  40.155  27.948  1.00  0.00    -0.200 F 
ENDBRANCH  63  87
BRANCH  75  98
ATOM     98  C   UNL A   1      47.945  32.518  33.680  1.00  0.00     0.064 A 
ATOM     99  C   UNL A   1      48.324  33.140  34.878  1.00  0.00     0.173 A 
ATOM    100  C   UNL A   1      48.959  31.985  32.870  1.00  0.00     0.173 A 
ATOM    101  F   UNL A   1      47.397  33.675  35.686  1.00  0.00    -0.203 F 
ATOM    102  C   UNL A   1      49.667  33.261  35.228  1.00  0.00     0.198 A 
ATOM    103  C   UNL A   1      50.298  32.071  33.242  1.00  0.00     0.198 A 
ATOM    104  F   UNL A   1      48.653  31.366  31.719  1.00  0.00    -0.203 F 
ATOM    105  F   UNL A   1      50.010  33.917  36.346  1.00  0.00    -0.200 F 
ATOM    106  C   UNL A   1      50.651  32.721  34.415  1.00  0.00     0.200 A 
ATOM    107  F   UNL A   1      51.245  31.531  32.464  1.00  0.00    -0.200 F 
ATOM    108  F   UNL A   1      51.943  32.834  34.756  1.00  0.00    -0.200 F 
ENDBRANCH  75  98
ENDBRANCH  49  50
ENDBRANCH  42  44
ENDBRANCH  41  42
ENDBRANCH  40  41
ENDBRANCH  39  40
ENDBRANCH  38  39
ENDBRANCH  37  38
ENDBRANCH  36  37
ENDBRANCH  35  36
ENDBRANCH   1  35
TORSDOF 23
ENDMDL
MODEL 2
REMARK VINA RESULT:      -9.4      3.730      8.139
REMARK SMILES O=C(Nc1ccc(-c2nc3ccccc3[nH]2)cc1)c1ccc(C(=O)OCCOCCOCCOCCOC(=O)c2ccc(-c3c4nc(c(-c5c(F)c(F)c(F)c(F)c5F)c5ccc([nH]5)c(-c5c(F)c(F)c(F)c(F)c5F)c5nc(c(-c6c(F)c(F)c(F)c(F)c6F)c6ccc3[nH]6)C=C5)C=C4)cc2)cc1
REMARK SMILES IDX 30 1 29 2 28 3 27 4 26 5 25 6 23 7 24 8 22 9 19 10 20 11
REMARK SMILES IDX 104 12 21 13 103 14 2 15 1 16 3 17 4 19 5 20 18 21 6 22
REMARK SMILES IDX 17 23 7 24 8 25 9 26 16 27 10 28 15 29 11 31 14 32 12 33
REMARK SMILES IDX 13 34 31 35 32 36 33 37 34 38 35 39 36 40 37 41 38 42 39 43
REMARK SMILES IDX 40 44 41 45 102 46 42 47 101 48 43 49 44 50 45 51 95 52
REMARK SMILES IDX 46 53 100 54 94 55 96 56 47 57 99 58 93 59 92 60 48 62 80 63
REMARK SMILES IDX 60 64 79 65 61 66 64 67 78 68 97 69 62 70 63 71 77 73 98 74
REMARK SMILES IDX 65 75 49 76 50 77 58 78 51 79 52 80 56 81 59 82 53 83 54 84
REMARK SMILES IDX 57 85 55 86 81 87 82 88 90 89 83 90 84 91 88 92 91 93 85 94
REMARK SMILES IDX 86 95 89 96 87 97 66 98 67 99 75 100 68 101 69 102 73 103
REMARK SMILES IDX 76 104 70 105 71 106 74 107 72 108
REMARK H PARENT 3 18 16 30 96 61 64 72
REMARK Flexibility Score: inf
ROOT
ATOM      1  C   UNL A   1      40.281  27.652  29.222  1.00  0.00     0.188 C 
ENDROOT
BRANCH   1   2
ATOM      2  C   UNL A   1      40.094  28.923  28.368  1.00  0.00     0.188 C 
BRANCH   2   3
ATOM      3  O   UNL A   1      39.399  29.957  29.043  1.00  0.00    -0.376 OA
BRANCH   3   4
ATOM      4  C   UNL A   1      38.475  29.622  30.062  1.00  0.00     0.202 C 
BRANCH   4   5
ATOM      5  C   UNL A   1      38.725  30.089  31.507  1.00  0.00     0.261 C 
BRANCH   5   6
ATOM      6  O   UNL A   1      38.818  31.504  31.716  1.00  0.00    -0.460 OA
BRANCH   6   7
ATOM      7  C   UNL A   1      37.856  32.069  32.477  1.00  0.00     0.338 C 
ATOM      8  O   UNL A   1      37.887  32.222  33.685  1.00  0.00    -0.246 OA
BRANCH   7   9
ATOM      9  C   UNL A   1      36.838  32.681  31.585  1.00  0.00     0.060 A 
ATOM     10  C   UNL A   1      35.012  33.831  29.792  1.00  0.00     0.040 A 
ATOM     11  C   UNL A   1      36.388  33.878  29.528  1.00  0.00     0.015 A 
ATOM     12  C   UNL A   1      34.551  33.210  30.961  1.00  0.00     0.015 A 
ATOM     13  C   UNL A   1      37.295  33.301  30.417  1.00  0.00     0.016 A 
ATOM     14  C   UNL A   1      35.462  32.620  31.850  1.00  0.00     0.016 A 
BRANCH  10  15
ATOM     15  C   UNL A   1      34.047  34.518  28.882  1.00  0.00     0.255 C 
ATOM     16  O   UNL A   1      33.774  35.698  29.087  1.00  0.00    -0.269 OA
ATOM     17  N   UNL A   1      33.588  33.870  27.749  1.00  0.00    -0.322 N 
ATOM     18  H   UNL A   1      33.363  34.445  26.982  1.00  0.00     0.170 HD
BRANCH  17  19
ATOM     19  C   UNL A   1      33.405  32.489  27.562  1.00  0.00     0.041 A 
ATOM     20  C   UNL A   1      32.138  32.001  27.226  1.00  0.00     0.027 A 
ATOM     21  C   UNL A   1      34.460  31.597  27.727  1.00  0.00     0.027 A 
ATOM     22  C   UNL A   1      31.955  30.634  26.947  1.00  0.00     0.014 A 
ATOM     23  C   UNL A   1      34.271  30.243  27.478  1.00  0.00     0.014 A 
ATOM     24  C   UNL A   1      33.031  29.745  27.059  1.00  0.00     0.017 A 
BRANCH  24  25
ATOM     25  C   UNL A   1      32.962  28.312  26.778  1.00  0.00     0.138 A 
ATOM     26  N   UNL A   1      33.983  27.608  26.325  1.00  0.00    -0.229 NA
ATOM     27  N   UNL A   1      31.825  27.535  26.808  1.00  0.00    -0.338 N 
ATOM     28  C   UNL A   1      33.484  26.386  25.980  1.00  0.00     0.089 A 
ATOM     29  C   UNL A   1      32.126  26.309  26.258  1.00  0.00     0.066 A 
ATOM     30  H   UNL A   1      30.948  27.809  27.162  1.00  0.00     0.168 HD
ATOM     31  C   UNL A   1      34.142  25.301  25.391  1.00  0.00     0.030 A 
ATOM     32  C   UNL A   1      31.359  25.179  25.965  1.00  0.00     0.028 A 
ATOM     33  C   UNL A   1      33.398  24.160  25.080  1.00  0.00     0.002 A 
ATOM     34  C   UNL A   1      32.031  24.105  25.362  1.00  0.00     0.002 A 
ENDBRANCH  24  25
ENDBRANCH  17  19
ENDBRANCH  10  15
ENDBRANCH   7   9
ENDBRANCH   6   7
ENDBRANCH   5   6
ENDBRANCH   4   5
ENDBRANCH   3   4
ENDBRANCH   2   3
ENDBRANCH   1   2
BRANCH   1  35
ATOM     35  O   UNL A   1      40.912  26.539  28.605  1.00  0.00    -0.377 OA
BRANCH  35  36
ATOM     36  C   UNL A   1      40.124  25.451  28.122  1.00  0.00     0.188 C 
BRANCH  36  37
ATOM     37  C   UNL A   1      40.500  24.626  26.865  1.00  0.00     0.188 C 
BRANCH  37  38
ATOM     38  O   UNL A   1      41.202  23.426  27.129  1.00  0.00    -0.376 OA
BRANCH  38  39
ATOM     39  C   UNL A   1      41.909  22.814  26.067  1.00  0.00     0.202 C 
BRANCH  39  40
ATOM     40  C   UNL A   1      43.352  23.283  25.838  1.00  0.00     0.261 C 
BRANCH  40  41
ATOM     41  O   UNL A   1      43.513  24.453  25.021  1.00  0.00    -0.460 OA
BRANCH  41  42
ATOM     42  C   UNL A   1      44.716  25.058  25.040  1.00  0.00     0.338 C 
ATOM     43  O   UNL A   1      45.722  24.728  24.426  1.00  0.00    -0.246 OA
BRANCH  42  44
ATOM     44  C   UNL A   1      44.585  26.316  25.802  1.00  0.00     0.060 A 
ATOM     45  C   UNL A   1      45.695  26.813  26.498  1.00  0.00     0.016 A 
ATOM     46  C   UNL A   1      43.363  26.991  25.841  1.00  0.00     0.016 A 
ATOM     47  C   UNL A   1      45.567  27.957  27.287  1.00  0.00     0.010 A 
ATOM     48  C   UNL A   1      43.231  28.125  26.647  1.00  0.00     0.010 A 
ATOM     49  C   UNL A   1      44.320  28.582  27.411  1.00  0.00    -0.014 A 
BRANCH  49  50
ATOM     50  C   UNL A   1      44.090  29.539  28.523  1.00  0.00     0.031 A 
ATOM     51  C   UNL A   1      43.876  28.973  29.902  1.00  0.00     0.074 A 
ATOM     52  C   UNL A   1      44.107  30.869  28.333  1.00  0.00     0.049 A 
ATOM     53  N   UNL A   1      43.606  29.587  31.026  1.00  0.00    -0.248 NA
ATOM     54  C   UNL A   1      43.981  27.510  30.028  1.00  0.00     0.031 C 
ATOM     55  C   UNL A   1      44.355  31.541  27.059  1.00  0.00     0.029 A 
ATOM     56  N   UNL A   1      43.902  31.895  29.222  1.00  0.00    -0.354 N 
ATOM     57  C   UNL A   1      43.505  28.586  31.985  1.00  0.00     0.074 A 
ATOM     58  C   UNL A   1      43.700  27.324  31.308  1.00  0.00     0.031 C 
ATOM     59  C   UNL A   1      44.280  32.871  27.248  1.00  0.00     0.029 A 
ATOM     60  C   UNL A   1      43.943  33.142  28.645  1.00  0.00     0.049 A 
ATOM     61  H   UNL A   1      43.741  31.752  30.182  1.00  0.00     0.167 HD
ATOM     62  C   UNL A   1      43.285  28.708  33.316  1.00  0.00     0.037 A 
ATOM     63  C   UNL A   1      43.712  34.354  29.185  1.00  0.00     0.037 A 
ATOM     64  C   UNL A   1      43.085  29.964  33.988  1.00  0.00     0.049 A 
ATOM     65  C   UNL A   1      43.376  34.455  30.655  1.00  0.00     0.074 A 
ATOM     66  C   UNL A   1      42.842  30.197  35.330  1.00  0.00     0.029 A 
ATOM     67  N   UNL A   1      43.102  31.202  33.362  1.00  0.00    -0.354 N 
ATOM     68  N   UNL A   1      43.292  33.507  31.558  1.00  0.00    -0.248 NA
ATOM     69  C   UNL A   1      43.110  35.803  31.181  1.00  0.00     0.031 C 
ATOM     70  C   UNL A   1      42.658  31.572  35.508  1.00  0.00     0.029 A 
ATOM     71  C   UNL A   1      42.858  32.202  34.290  1.00  0.00     0.049 A 
ATOM     72  H   UNL A   1      43.263  31.349  32.403  1.00  0.00     0.167 HD
ATOM     73  C   UNL A   1      43.015  34.148  32.761  1.00  0.00     0.074 A 
ATOM     74  C   UNL A   1      42.955  35.564  32.475  1.00  0.00     0.031 C 
ATOM     75  C   UNL A   1      42.831  33.611  33.994  1.00  0.00     0.037 A 
BRANCH  62  76
ATOM     76  C   UNL A   1      43.225  27.446  34.128  1.00  0.00     0.064 A 
ATOM     77  C   UNL A   1      44.388  26.821  34.603  1.00  0.00     0.173 A 
ATOM     78  C   UNL A   1      41.990  26.874  34.463  1.00  0.00     0.173 A 
ATOM     79  F   UNL A   1      45.596  27.316  34.297  1.00  0.00    -0.203 F 
ATOM     80  C   UNL A   1      44.316  25.654  35.362  1.00  0.00     0.198 A 
ATOM     81  C   UNL A   1      41.919  25.728  35.252  1.00  0.00     0.198 A 
ATOM     82  F   UNL A   1      40.847  27.432  34.036  1.00  0.00    -0.203 F 
ATOM     83  F   UNL A   1      45.440  25.047  35.764  1.00  0.00    -0.200 F 
ATOM     84  C   UNL A   1      43.082  25.115  35.694  1.00  0.00     0.200 A 
ATOM     85  F   UNL A   1      40.725  25.217  35.582  1.00  0.00    -0.200 F 
ATOM     86  F   UNL A   1      43.012  24.001  36.435  1.00  0.00    -0.200 F 
ENDBRANCH  62  76
BRANCH  63  87
ATOM     87  C   UNL A   1      43.777  35.582  28.346  1.00  0.00     0.064 A 
ATOM     88  C   UNL A   1      44.996  36.238  28.115  1.00  0.00     0.173 A 
ATOM     89  C   UNL A   1      42.617  36.159  27.808  1.00  0.00     0.173 A 
ATOM     90  F   UNL A   1      46.131  35.742  28.630  1.00  0.00    -0.203 F 
ATOM     91  C   UNL A   1      45.046  37.442  27.413  1.00  0.00     0.198 A 
ATOM     92  C   UNL A   1      42.674  37.344  27.076  1.00  0.00     0.198 A 
ATOM     93  F   UNL A   1      41.425  35.577  28.000  1.00  0.00    -0.203 F 
ATOM     94  F   UNL A   1      46.214  38.082  27.271  1.00  0.00    -0.200 F 
ATOM     95  C   UNL A   1      43.885  37.991  26.891  1.00  0.00     0.200 A 
ATOM     96  F   UNL A   1      41.551  37.865  26.563  1.00  0.00    -0.200 F 
ATOM     97  F   UNL A   1      43.933  39.152  26.224  1.00  0.00    -0.200 F 
ENDBRANCH  63  87
BRANCH  75  98
ATOM     98  C   UNL A   1      42.629  34.562  35.143  1.00  0.00     0.064 A 
ATOM     99  C   UNL A   1      43.692  35.004  35.943  1.00  0.00     0.173 A 
ATOM    100  C   UNL A   1      41.347  35.060  35.424  1.00  0.00     0.173 A 
ATOM    101  F   UNL A   1      44.936  34.552  35.724  1.00  0.00    -0.203 F 
ATOM    102  C   UNL A   1      43.473  35.876  37.007  1.00  0.00     0.198 A 
ATOM    103  C   UNL A   1      41.137  35.963  36.464  1.00  0.00     0.198 A 
ATOM    104  F   UNL A   1      40.295  34.682  34.683  1.00  0.00    -0.203 F 
ATOM    105  F   UNL A   1      44.494  36.234  37.799  1.00  0.00    -0.200 F 
ATOM    106  C   UNL A   1      42.199  36.359  37.262  1.00  0.00     0.200 A 
ATOM    107  F   UNL A   1      39.909  36.444  36.694  1.00  0.00    -0.200 F 
ATOM    108  F   UNL A   1      41.992  37.202  38.284  1.00  0.00    -0.200 F 
ENDBRANCH  75  98
ENDBRANCH  49  50
ENDBRANCH  42  44
ENDBRANCH  41  42
ENDBRANCH  40  41
ENDBRANCH  39  40
ENDBRANCH  38  39
ENDBRANCH  37  38
ENDBRANCH  36  37
ENDBRANCH  35  36
ENDBRANCH   1  35
TORSDOF 23
ENDMDL
MODEL 3
REMARK VINA RESULT:      -9.4      3.417      6.751
REMARK SMILES O=C(Nc1ccc(-c2nc3ccccc3[nH]2)cc1)c1ccc(C(=O)OCCOCCOCCOCCOC(=O)c2ccc(-c3c4nc(c(-c5c(F)c(F)c(F)c(F)c5F)c5ccc([nH]5)c(-c5c(F)c(F)c(F)c(F)c5F)c5nc(c(-c6c(F)c(F)c(F)c(F)c6F)c6ccc3[nH]6)C=C5)C=C4)cc2)cc1
REMARK SMILES IDX 30 1 29 2 28 3 27 4 26 5 25 6 23 7 24 8 22 9 19 10 20 11
REMARK SMILES IDX 104 12 21 13 103 14 2 15 1 16 3 17 4 19 5 20 18 21 6 22
REMARK SMILES IDX 17 23 7 24 8 25 9 26 16 27 10 28 15 29 11 31 14 32 12 33
REMARK SMILES IDX 13 34 31 35 32 36 33 37 34 38 35 39 36 40 37 41 38 42 39 43
REMARK SMILES IDX 40 44 41 45 102 46 42 47 101 48 43 49 44 50 45 51 95 52
REMARK SMILES IDX 46 53 100 54 94 55 96 56 47 57 99 58 93 59 92 60 48 62 80 63
REMARK SMILES IDX 60 64 79 65 61 66 64 67 78 68 97 69 62 70 63 71 77 73 98 74
REMARK SMILES IDX 65 75 49 76 50 77 58 78 51 79 52 80 56 81 59 82 53 83 54 84
REMARK SMILES IDX 57 85 55 86 81 87 82 88 90 89 83 90 84 91 88 92 91 93 85 94
REMARK SMILES IDX 86 95 89 96 87 97 66 98 67 99 75 100 68 101 69 102 73 103
REMARK SMILES IDX 76 104 70 105 71 106 74 107 72 108
REMARK H PARENT 3 18 16 30 96 61 64 72
REMARK Flexibility Score: inf
ROOT
ATOM      1  C   UNL A   1      33.330  25.826  22.326  1.00  0.00     0.188 C 
ENDROOT
BRANCH   1   2
ATOM      2  C   UNL A   1      33.833  25.144  23.614  1.00  0.00     0.188 C 
BRANCH   2   3
ATOM      3  O   UNL A   1      34.117  26.056  24.661  1.00  0.00    -0.376 OA
BRANCH   3   4
ATOM      4  C   UNL A   1      33.412  25.949  25.884  1.00  0.00     0.202 C 
BRANCH   4   5
ATOM      5  C   UNL A   1      31.875  25.870  25.877  1.00  0.00     0.261 C 
BRANCH   5   6
ATOM      6  O   UNL A   1      31.299  24.616  25.493  1.00  0.00    -0.460 OA
BRANCH   6   7
ATOM      7  C   UNL A   1      31.322  23.630  26.415  1.00  0.00     0.338 C 
ATOM      8  O   UNL A   1      30.570  23.512  27.366  1.00  0.00    -0.246 OA
BRANCH   7   9
ATOM      9  C   UNL A   1      32.272  22.580  25.968  1.00  0.00     0.060 A 
ATOM     10  C   UNL A   1      34.085  20.557  25.262  1.00  0.00     0.040 A 
ATOM     11  C   UNL A   1      34.066  21.066  26.568  1.00  0.00     0.015 A 
ATOM     12  C   UNL A   1      33.195  21.067  24.307  1.00  0.00     0.015 A 
ATOM     13  C   UNL A   1      33.161  22.068  26.920  1.00  0.00     0.016 A 
ATOM     14  C   UNL A   1      32.278  22.067  24.663  1.00  0.00     0.016 A 
BRANCH  10  15
ATOM     15  C   UNL A   1      35.106  19.542  24.864  1.00  0.00     0.255 C 
ATOM     16  O   UNL A   1      34.762  18.370  24.740  1.00  0.00    -0.269 OA
ATOM     17  N   UNL A   1      36.377  19.951  24.504  1.00  0.00    -0.322 N 
ATOM     18  H   UNL A   1      36.843  19.387  23.844  1.00  0.00     0.170 HD
BRANCH  17  19
ATOM     19  C   UNL A   1      37.085  21.073  24.966  1.00  0.00     0.041 A 
ATOM     20  C   UNL A   1      36.629  22.356  24.645  1.00  0.00     0.027 A 
ATOM     21  C   UNL A   1      38.245  20.929  25.721  1.00  0.00     0.027 A 
ATOM     22  C   UNL A   1      37.273  23.491  25.171  1.00  0.00     0.014 A 
ATOM     23  C   UNL A   1      38.895  22.052  26.218  1.00  0.00     0.014 A 
ATOM     24  C   UNL A   1      38.408  23.343  25.978  1.00  0.00     0.017 A 
BRANCH  24  25
ATOM     25  C   UNL A   1      39.144  24.446  26.593  1.00  0.00     0.138 A 
ATOM     26  N   UNL A   1      38.948  24.851  27.834  1.00  0.00    -0.229 NA
ATOM     27  N   UNL A   1      40.023  25.291  25.951  1.00  0.00    -0.338 N 
ATOM     28  C   UNL A   1      39.643  26.016  27.972  1.00  0.00     0.089 A 
ATOM     29  C   UNL A   1      40.320  26.331  26.802  1.00  0.00     0.066 A 
ATOM     30  H   UNL A   1      40.377  25.171  25.040  1.00  0.00     0.168 HD
ATOM     31  C   UNL A   1      39.709  26.876  29.074  1.00  0.00     0.030 A 
ATOM     32  C   UNL A   1      41.078  27.495  26.659  1.00  0.00     0.028 A 
ATOM     33  C   UNL A   1      40.454  28.052  28.956  1.00  0.00     0.002 A 
ATOM     34  C   UNL A   1      41.125  28.354  27.768  1.00  0.00     0.002 A 
ENDBRANCH  24  25
ENDBRANCH  17  19
ENDBRANCH  10  15
ENDBRANCH   7   9
ENDBRANCH   6   7
ENDBRANCH   5   6
ENDBRANCH   4   5
ENDBRANCH   3   4
ENDBRANCH   2   3
ENDBRANCH   1   2
BRANCH   1  35
ATOM     35  O   UNL A   1      33.646  27.200  22.150  1.00  0.00    -0.377 OA
BRANCH  35  36
ATOM     36  C   UNL A   1      32.772  28.204  22.666  1.00  0.00     0.188 C 
BRANCH  36  37
ATOM     37  C   UNL A   1      33.231  29.287  23.675  1.00  0.00     0.188 C 
BRANCH  37  38
ATOM     38  O   UNL A   1      32.573  29.251  24.928  1.00  0.00    -0.376 OA
BRANCH  38  39
ATOM     39  C   UNL A   1      33.280  29.699  26.069  1.00  0.00     0.202 C 
BRANCH  39  40
ATOM     40  C   UNL A   1      32.659  30.864  26.851  1.00  0.00     0.261 C 
BRANCH  40  41
ATOM     41  O   UNL A   1      33.354  31.266  28.042  1.00  0.00    -0.460 OA
BRANCH  41  42
ATOM     42  C   UNL A   1      33.643  32.576  28.175  1.00  0.00     0.338 C 
ATOM     43  O   UNL A   1      33.112  33.514  27.596  1.00  0.00    -0.246 OA
BRANCH  42  44
ATOM     44  C   UNL A   1      34.606  32.722  29.284  1.00  0.00     0.060 A 
ATOM     45  C   UNL A   1      34.692  33.948  29.957  1.00  0.00     0.016 A 
ATOM     46  C   UNL A   1      35.434  31.656  29.644  1.00  0.00     0.016 A 
ATOM     47  C   UNL A   1      35.652  34.130  30.954  1.00  0.00     0.010 A 
ATOM     48  C   UNL A   1      36.406  31.845  30.629  1.00  0.00     0.010 A 
ATOM     49  C   UNL A   1      36.551  33.098  31.252  1.00  0.00    -0.014 A 
BRANCH  49  50
ATOM     50  C   UNL A   1      37.789  33.404  32.012  1.00  0.00     0.031 A 
ATOM     51  C   UNL A   1      39.037  33.710  31.226  1.00  0.00     0.074 A 
ATOM     52  C   UNL A   1      37.807  33.450  33.355  1.00  0.00     0.049 A 
ATOM     53  N   UNL A   1      40.251  33.958  31.646  1.00  0.00    -0.248 NA
ATOM     54  C   UNL A   1      38.892  33.739  29.761  1.00  0.00     0.031 C 
ATOM     55  C   UNL A   1      36.657  33.227  34.227  1.00  0.00     0.029 A 
ATOM     56  N   UNL A   1      38.845  33.697  34.220  1.00  0.00    -0.354 N 
ATOM     57  C   UNL A   1      41.010  34.166  30.501  1.00  0.00     0.074 A 
ATOM     58  C   UNL A   1      40.133  33.975  29.367  1.00  0.00     0.031 C 
ATOM     59  C   UNL A   1      37.054  33.339  35.507  1.00  0.00     0.029 A 
ATOM     60  C   UNL A   1      38.491  33.606  35.545  1.00  0.00     0.049 A 
ATOM     61  H   UNL A   1      39.755  33.919  33.920  1.00  0.00     0.167 HD
ATOM     62  C   UNL A   1      42.318  34.501  30.401  1.00  0.00     0.037 A 
ATOM     63  C   UNL A   1      39.252  33.706  36.653  1.00  0.00     0.037 A 
ATOM     64  C   UNL A   1      43.191  34.685  31.529  1.00  0.00     0.049 A 
ATOM     65  C   UNL A   1      40.729  33.989  36.511  1.00  0.00     0.074 A 
ATOM     66  C   UNL A   1      44.535  35.014  31.537  1.00  0.00     0.029 A 
ATOM     67  N   UNL A   1      42.802  34.552  32.854  1.00  0.00    -0.354 N 
ATOM     68  N   UNL A   1      41.438  34.194  35.426  1.00  0.00    -0.248 NA
ATOM     69  C   UNL A   1      41.510  34.062  37.755  1.00  0.00     0.031 C 
ATOM     70  C   UNL A   1      44.973  35.026  32.865  1.00  0.00     0.029 A 
ATOM     71  C   UNL A   1      43.887  34.777  33.687  1.00  0.00     0.049 A 
ATOM     72  H   UNL A   1      41.893  34.331  33.157  1.00  0.00     0.167 HD
ATOM     73  C   UNL A   1      42.730  34.469  35.860  1.00  0.00     0.074 A 
ATOM     74  C   UNL A   1      42.706  34.413  37.304  1.00  0.00     0.031 C 
ATOM     75  C   UNL A   1      43.839  34.747  35.127  1.00  0.00     0.037 A 
BRANCH  62  76
ATOM     76  C   UNL A   1      42.888  34.669  29.022  1.00  0.00     0.064 A 
ATOM     77  C   UNL A   1      43.583  33.631  28.381  1.00  0.00     0.173 A 
ATOM     78  C   UNL A   1      42.709  35.869  28.319  1.00  0.00     0.173 A 
ATOM     79  F   UNL A   1      43.798  32.469  29.015  1.00  0.00    -0.203 F 
ATOM     80  C   UNL A   1      44.099  33.800  27.098  1.00  0.00     0.198 A 
ATOM     81  C   UNL A   1      43.196  36.022  27.023  1.00  0.00     0.198 A 
ATOM     82  F   UNL A   1      42.052  36.892  28.884  1.00  0.00    -0.203 F 
ATOM     83  F   UNL A   1      44.802  32.813  26.525  1.00  0.00    -0.200 F 
ATOM     84  C   UNL A   1      43.897  34.991  26.417  1.00  0.00     0.200 A 
ATOM     85  F   UNL A   1      42.987  37.169  26.362  1.00  0.00    -0.200 F 
ATOM     86  F   UNL A   1      44.382  35.147  25.178  1.00  0.00    -0.200 F 
ENDBRANCH  62  76
BRANCH  63  87
ATOM     87  C   UNL A   1      38.649  33.530  38.003  1.00  0.00     0.064 A 
ATOM     88  C   UNL A   1      38.093  32.303  38.393  1.00  0.00     0.173 A 
ATOM     89  C   UNL A   1      38.561  34.600  38.906  1.00  0.00     0.173 A 
ATOM     90  F   UNL A   1      38.127  31.255  37.556  1.00  0.00    -0.203 F 
ATOM     91  C   UNL A   1      37.440  32.164  39.618  1.00  0.00     0.198 A 
ATOM     92  C   UNL A   1      37.940  34.449  40.145  1.00  0.00     0.198 A 
ATOM     93  F   UNL A   1      39.072  35.796  38.584  1.00  0.00    -0.203 F 
ATOM     94  F   UNL A   1      36.856  31.000  39.932  1.00  0.00    -0.200 F 
ATOM     95  C   UNL A   1      37.368  33.235  40.494  1.00  0.00     0.200 A 
ATOM     96  F   UNL A   1      37.882  35.484  40.993  1.00  0.00    -0.200 F 
ATOM     97  F   UNL A   1      36.733  33.103  41.666  1.00  0.00    -0.200 F 
ENDBRANCH  63  87
BRANCH  75  98
ATOM     98  C   UNL A   1      45.098  35.093  35.874  1.00  0.00     0.064 A 
ATOM     99  C   UNL A   1      46.034  34.120  36.252  1.00  0.00     0.173 A 
ATOM    100  C   UNL A   1      45.381  36.432  36.190  1.00  0.00     0.173 A 
ATOM    101  F   UNL A   1      45.809  32.825  35.985  1.00  0.00    -0.203 F 
ATOM    102  C   UNL A   1      47.186  34.469  36.954  1.00  0.00     0.198 A 
ATOM    103  C   UNL A   1      46.553  36.782  36.856  1.00  0.00     0.198 A 
ATOM    104  F   UNL A   1      44.527  37.406  35.840  1.00  0.00    -0.203 F 
ATOM    105  F   UNL A   1      48.035  33.515  37.362  1.00  0.00    -0.200 F 
ATOM    106  C   UNL A   1      47.447  35.799  37.249  1.00  0.00     0.200 A 
ATOM    107  F   UNL A   1      46.812  38.069  37.121  1.00  0.00    -0.200 F 
ATOM    108  F   UNL A   1      48.559  36.132  37.919  1.00  0.00    -0.200 F 
ENDBRANCH  75  98
ENDBRANCH  49  50
ENDBRANCH  42  44
ENDBRANCH  41  42
ENDBRANCH  40  41
ENDBRANCH  39  40
ENDBRANCH  38  39
ENDBRANCH  37  38
ENDBRANCH  36  37
ENDBRANCH  35  36
ENDBRANCH   1  35
TORSDOF 23
ENDMDL
