MODEL 1
REMARK VINA RESULT:     -11.2      0.000      0.000
REMARK SMILES CCc1ccc2c(CC(=O)OCCOCCOCCOCCOC(=O)c3ccc(-c4c5nc(c(-c6c(F)c(F)c(F)c(F)c6F)c6ccc([nH]6)c(-c6c(F)c(F)c(F)c(F)c6F)c6nc(c(-c7c(F)c(F)c(F)c(F)c7F)c7ccc4[nH]7)C=C6)C=C5)cc3)c(C(=O)c3cc(C)ccn3)[nH]c2c1
REMARK SMILES IDX 16 1 15 2 14 3 13 4 12 5 11 6 9 7 10 8 8 9 7 10 3 11 4 12
REMARK SMILES IDX 101 13 5 14 100 15 6 16 99 17 89 18 2 20 1 21 90 22 91 23
REMARK SMILES IDX 92 24 93 25 98 26 94 27 97 28 95 29 96 30 17 31 18 32 19 33
REMARK SMILES IDX 20 34 21 35 22 36 23 37 24 38 25 39 26 40 27 41 88 42 28 43
REMARK SMILES IDX 87 44 29 45 30 46 31 47 81 48 32 49 86 50 80 51 82 52 33 53
REMARK SMILES IDX 85 54 79 55 78 56 34 58 66 59 46 60 65 61 47 62 50 63 64 64
REMARK SMILES IDX 83 65 48 66 49 67 63 69 84 70 51 71 35 72 36 73 44 74 37 75
REMARK SMILES IDX 38 76 42 77 45 78 39 79 40 80 43 81 41 82 67 83 68 84 76 85
REMARK SMILES IDX 69 86 70 87 74 88 77 89 71 90 72 91 75 92 73 93 52 94 53 95
REMARK SMILES IDX 61 96 54 97 55 98 59 99 62 100 56 101 57 102 60 103 58 104
REMARK H PARENT 99 19 82 57 50 68
REMARK Flexibility Score: inf
ROOT
ATOM      1  C   UNL A   1      30.627  29.670  24.089  1.00  0.00     0.188 C 
ENDROOT
BRANCH   1   2
ATOM      2  C   UNL A   1      29.953  28.851  22.964  1.00  0.00     0.188 C 
BRANCH   2   3
ATOM      3  O   UNL A   1      30.125  27.451  22.943  1.00  0.00    -0.376 OA
BRANCH   3   4
ATOM      4  C   UNL A   1      29.527  26.589  23.885  1.00  0.00     0.202 C 
BRANCH   4   5
ATOM      5  C   UNL A   1      30.090  25.226  24.339  1.00  0.00     0.261 C 
BRANCH   5   6
ATOM      6  O   UNL A   1      30.640  25.126  25.665  1.00  0.00    -0.463 OA
BRANCH   6   7
ATOM      7  C   UNL A   1      30.907  23.891  26.148  1.00  0.00     0.310 C 
ATOM      8  O   UNL A   1      30.775  23.608  27.339  1.00  0.00    -0.252 OA
BRANCH   7   9
ATOM      9  C   UNL A   1      31.359  22.835  25.139  1.00  0.00     0.161 C 
BRANCH   9  10
ATOM     10  C   UNL A   1      32.741  22.188  25.162  1.00  0.00     0.000 A 
ATOM     11  C   UNL A   1      34.113  18.222  24.532  1.00  0.00    -0.046 A 
ATOM     12  C   UNL A   1      32.726  18.382  24.638  1.00  0.00     0.004 A 
ATOM     13  C   UNL A   1      34.953  19.319  24.769  1.00  0.00     0.030 A 
ATOM     14  C   UNL A   1      32.152  19.635  24.916  1.00  0.00     0.011 A 
ATOM     15  C   UNL A   1      34.356  20.569  24.996  1.00  0.00     0.046 A 
ATOM     16  C   UNL A   1      32.981  20.767  25.050  1.00  0.00     0.004 A 
ATOM     17  N   UNL A   1      34.939  21.795  25.179  1.00  0.00    -0.352 N 
ATOM     18  C   UNL A   1      34.010  22.808  25.053  1.00  0.00     0.093 A 
ATOM     19  H   UNL A   1      35.893  21.934  25.376  1.00  0.00     0.167 HD
BRANCH  11  20
ATOM     20  C   UNL A   1      34.701  16.898  24.102  1.00  0.00     0.032 C 
ATOM     21  C   UNL A   1      34.312  15.737  25.003  1.00  0.00     0.009 C 
ENDBRANCH  11  20
BRANCH  18  22
ATOM     22  C   UNL A   1      34.351  24.237  24.924  1.00  0.00     0.227 C 
ATOM     23  O   UNL A   1      35.082  24.798  25.738  1.00  0.00    -0.285 OA
BRANCH  22  24
ATOM     24  C   UNL A   1      33.898  25.051  23.728  1.00  0.00     0.113 A 
ATOM     25  C   UNL A   1      34.030  26.437  23.637  1.00  0.00     0.036 A 
ATOM     26  N   UNL A   1      33.354  24.311  22.724  1.00  0.00    -0.253 NA
ATOM     27  C   UNL A   1      33.547  27.090  22.487  1.00  0.00    -0.047 A 
ATOM     28  C   UNL A   1      32.918  24.960  21.622  1.00  0.00     0.112 A 
ATOM     29  C   UNL A   1      33.649  28.576  22.301  1.00  0.00     0.044 C 
ATOM     30  C   UNL A   1      32.960  26.331  21.473  1.00  0.00     0.023 A 
ENDBRANCH  22  24
ENDBRANCH  18  22
ENDBRANCH   9  10
ENDBRANCH   7   9
ENDBRANCH   6   7
ENDBRANCH   5   6
ENDBRANCH   4   5
ENDBRANCH   3   4
ENDBRANCH   2   3
ENDBRANCH   1   2
BRANCH   1  31
ATOM     31  O   UNL A   1      31.852  29.384  24.734  1.00  0.00    -0.377 OA
BRANCH  31  32
ATOM     32  C   UNL A   1      31.802  28.994  26.081  1.00  0.00     0.188 C 
BRANCH  32  33
ATOM     33  C   UNL A   1      33.040  29.467  26.842  1.00  0.00     0.188 C 
BRANCH  33  34
ATOM     34  O   UNL A   1      33.185  30.874  26.840  1.00  0.00    -0.376 OA
BRANCH  34  35
ATOM     35  C   UNL A   1      32.031  31.700  26.949  1.00  0.00     0.202 C 
BRANCH  35  36
ATOM     36  C   UNL A   1      32.091  33.221  27.229  1.00  0.00     0.261 C 
BRANCH  36  37
ATOM     37  O   UNL A   1      33.367  33.791  27.517  1.00  0.00    -0.460 OA
BRANCH  37  38
ATOM     38  C   UNL A   1      33.672  34.020  28.800  1.00  0.00     0.338 C 
ATOM     39  O   UNL A   1      32.998  34.585  29.645  1.00  0.00    -0.246 OA
BRANCH  38  40
ATOM     40  C   UNL A   1      34.897  33.248  29.055  1.00  0.00     0.060 A 
ATOM     41  C   UNL A   1      34.754  31.946  29.548  1.00  0.00     0.016 A 
ATOM     42  C   UNL A   1      36.159  33.772  28.749  1.00  0.00     0.016 A 
ATOM     43  C   UNL A   1      35.878  31.168  29.764  1.00  0.00     0.010 A 
ATOM     44  C   UNL A   1      37.293  33.006  29.010  1.00  0.00     0.010 A 
ATOM     45  C   UNL A   1      37.146  31.723  29.561  1.00  0.00    -0.014 A 
BRANCH  45  46
ATOM     46  C   UNL A   1      38.280  31.056  30.223  1.00  0.00     0.031 A 
ATOM     47  C   UNL A   1      38.493  31.356  31.677  1.00  0.00     0.074 A 
ATOM     48  C   UNL A   1      39.007  30.134  29.574  1.00  0.00     0.049 A 
ATOM     49  N   UNL A   1      39.364  30.860  32.512  1.00  0.00    -0.248 NA
ATOM     50  C   UNL A   1      37.586  32.354  32.274  1.00  0.00     0.031 C 
ATOM     51  C   UNL A   1      38.821  29.743  28.179  1.00  0.00     0.029 A 
ATOM     52  N   UNL A   1      40.039  29.352  30.015  1.00  0.00    -0.354 N 
ATOM     53  C   UNL A   1      39.115  31.489  33.725  1.00  0.00     0.074 A 
ATOM     54  C   UNL A   1      38.037  32.426  33.514  1.00  0.00     0.031 C 
ATOM     55  C   UNL A   1      39.720  28.792  27.873  1.00  0.00     0.029 A 
ATOM     56  C   UNL A   1      40.556  28.535  29.044  1.00  0.00     0.049 A 
ATOM     57  H   UNL A   1      40.377  29.375  30.940  1.00  0.00     0.167 HD
ATOM     58  C   UNL A   1      39.731  31.289  34.912  1.00  0.00     0.037 A 
ATOM     59  C   UNL A   1      41.602  27.691  29.105  1.00  0.00     0.037 A 
ATOM     60  C   UNL A   1      40.808  30.353  35.090  1.00  0.00     0.049 A 
ATOM     61  C   UNL A   1      42.318  27.532  30.421  1.00  0.00     0.074 A 
ATOM     62  C   UNL A   1      41.515  30.056  36.239  1.00  0.00     0.029 A 
ATOM     63  N   UNL A   1      41.343  29.573  34.071  1.00  0.00    -0.354 N 
ATOM     64  N   UNL A   1      42.075  28.116  31.573  1.00  0.00    -0.248 NA
ATOM     65  C   UNL A   1      43.445  26.593  30.449  1.00  0.00     0.031 C 
ATOM     66  C   UNL A   1      42.524  29.148  35.900  1.00  0.00     0.029 A 
ATOM     67  C   UNL A   1      42.396  28.817  34.558  1.00  0.00     0.049 A 
ATOM     68  H   UNL A   1      41.021  29.559  33.142  1.00  0.00     0.167 HD
ATOM     69  C   UNL A   1      42.998  27.595  32.470  1.00  0.00     0.074 A 
ATOM     70  C   UNL A   1      43.794  26.636  31.728  1.00  0.00     0.031 C 
ATOM     71  C   UNL A   1      43.171  27.875  33.787  1.00  0.00     0.037 A 
BRANCH  58  72
ATOM     72  C   UNL A   1      39.294  32.143  36.068  1.00  0.00     0.064 A 
ATOM     73  C   UNL A   1      39.837  33.416  36.309  1.00  0.00     0.173 A 
ATOM     74  C   UNL A   1      38.332  31.664  36.970  1.00  0.00     0.173 A 
ATOM     75  F   UNL A   1      40.780  33.915  35.494  1.00  0.00    -0.203 F 
ATOM     76  C   UNL A   1      39.465  34.155  37.431  1.00  0.00     0.198 A 
ATOM     77  C   UNL A   1      37.935  32.422  38.069  1.00  0.00     0.198 A 
ATOM     78  F   UNL A   1      37.784  30.453  36.794  1.00  0.00    -0.203 F 
ATOM     79  F   UNL A   1      40.053  35.334  37.679  1.00  0.00    -0.200 F 
ATOM     80  C   UNL A   1      38.511  33.660  38.306  1.00  0.00     0.200 A 
ATOM     81  F   UNL A   1      37.005  31.944  38.907  1.00  0.00    -0.200 F 
ATOM     82  F   UNL A   1      38.155  34.370  39.385  1.00  0.00    -0.200 F 
ENDBRANCH  58  72
BRANCH  59  83
ATOM     83  C   UNL A   1      42.024  26.954  27.887  1.00  0.00     0.064 A 
ATOM     84  C   UNL A   1      42.970  27.483  27.000  1.00  0.00     0.173 A 
ATOM     85  C   UNL A   1      41.503  25.682  27.599  1.00  0.00     0.173 A 
ATOM     86  F   UNL A   1      43.486  28.701  27.220  1.00  0.00    -0.203 F 
ATOM     87  C   UNL A   1      43.371  26.776  25.867  1.00  0.00     0.198 A 
ATOM     88  C   UNL A   1      41.927  24.963  26.483  1.00  0.00     0.198 A 
ATOM     89  F   UNL A   1      40.596  25.127  28.417  1.00  0.00    -0.203 F 
ATOM     90  F   UNL A   1      44.251  27.321  25.016  1.00  0.00    -0.200 F 
ATOM     91  C   UNL A   1      42.855  25.513  25.615  1.00  0.00     0.200 A 
ATOM     92  F   UNL A   1      41.438  23.736  26.255  1.00  0.00    -0.200 F 
ATOM     93  F   UNL A   1      43.252  24.828  24.534  1.00  0.00    -0.200 F 
ENDBRANCH  59  83
BRANCH  71  94
ATOM     94  C   UNL A   1      44.236  27.105  34.513  1.00  0.00     0.064 A 
ATOM     95  C   UNL A   1      45.541  27.598  34.657  1.00  0.00     0.173 A 
ATOM     96  C   UNL A   1      43.932  25.869  35.107  1.00  0.00     0.173 A 
ATOM     97  F   UNL A   1      45.886  28.769  34.101  1.00  0.00    -0.203 F 
ATOM     98  C   UNL A   1      46.512  26.864  35.332  1.00  0.00     0.198 A 
ATOM     99  C   UNL A   1      44.894  25.157  35.815  1.00  0.00     0.198 A 
ATOM    100  F   UNL A   1      42.695  25.358  35.011  1.00  0.00    -0.203 F 
ATOM    101  F   UNL A   1      47.769  27.324  35.401  1.00  0.00    -0.200 F 
ATOM    102  C   UNL A   1      46.186  25.649  35.917  1.00  0.00     0.200 A 
ATOM    103  F   UNL A   1      44.571  23.995  36.399  1.00  0.00    -0.200 F 
ATOM    104  F   UNL A   1      47.121  24.946  36.572  1.00  0.00    -0.200 F 
ENDBRANCH  71  94
ENDBRANCH  45  46
ENDBRANCH  38  40
ENDBRANCH  37  38
ENDBRANCH  36  37
ENDBRANCH  35  36
ENDBRANCH  34  35
ENDBRANCH  33  34
ENDBRANCH  32  33
ENDBRANCH  31  32
ENDBRANCH   1  31
TORSDOF 24
ENDMDL
MODEL 2
REMARK VINA RESULT:     -11.0      1.332      3.200
REMARK SMILES CCc1ccc2c(CC(=O)OCCOCCOCCOCCOC(=O)c3ccc(-c4c5nc(c(-c6c(F)c(F)c(F)c(F)c6F)c6ccc([nH]6)c(-c6c(F)c(F)c(F)c(F)c6F)c6nc(c(-c7c(F)c(F)c(F)c(F)c7F)c7ccc4[nH]7)C=C6)C=C5)cc3)c(C(=O)c3cc(C)ccn3)[nH]c2c1
REMARK SMILES IDX 16 1 15 2 14 3 13 4 12 5 11 6 9 7 10 8 8 9 7 10 3 11 4 12
REMARK SMILES IDX 101 13 5 14 100 15 6 16 99 17 89 18 2 20 1 21 90 22 91 23
REMARK SMILES IDX 92 24 93 25 98 26 94 27 97 28 95 29 96 30 17 31 18 32 19 33
REMARK SMILES IDX 20 34 21 35 22 36 23 37 24 38 25 39 26 40 27 41 88 42 28 43
REMARK SMILES IDX 87 44 29 45 30 46 31 47 81 48 32 49 86 50 80 51 82 52 33 53
REMARK SMILES IDX 85 54 79 55 78 56 34 58 66 59 46 60 65 61 47 62 50 63 64 64
REMARK SMILES IDX 83 65 48 66 49 67 63 69 84 70 51 71 35 72 36 73 44 74 37 75
REMARK SMILES IDX 38 76 42 77 45 78 39 79 40 80 43 81 41 82 67 83 68 84 76 85
REMARK SMILES IDX 69 86 70 87 74 88 77 89 71 90 72 91 75 92 73 93 52 94 53 95
REMARK SMILES IDX 61 96 54 97 55 98 59 99 62 100 56 101 57 102 60 103 58 104
REMARK H PARENT 99 19 82 57 50 68
REMARK Flexibility Score: inf
ROOT
ATOM      1  C   UNL A   1      30.779  29.186  23.981  1.00  0.00     0.188 C 
ENDROOT
BRANCH   1   2
ATOM      2  C   UNL A   1      30.167  28.395  22.802  1.00  0.00     0.188 C 
BRANCH   2   3
ATOM      3  O   UNL A   1      30.337  26.996  22.759  1.00  0.00    -0.376 OA
BRANCH   3   4
ATOM      4  C   UNL A   1      31.506  26.378  22.268  1.00  0.00     0.202 C 
BRANCH   4   5
ATOM      5  C   UNL A   1      32.118  25.065  22.799  1.00  0.00     0.261 C 
BRANCH   5   6
ATOM      6  O   UNL A   1      33.535  25.028  23.046  1.00  0.00    -0.463 OA
BRANCH   6   7
ATOM      7  C   UNL A   1      33.986  25.531  24.219  1.00  0.00     0.310 C 
ATOM      8  O   UNL A   1      34.140  26.738  24.399  1.00  0.00    -0.252 OA
BRANCH   7   9
ATOM      9  C   UNL A   1      34.273  24.530  25.338  1.00  0.00     0.161 C 
BRANCH   9  10
ATOM     10  C   UNL A   1      35.079  23.249  25.134  1.00  0.00     0.000 A 
ATOM     11  C   UNL A   1      38.995  22.061  26.254  1.00  0.00    -0.046 A 
ATOM     12  C   UNL A   1      38.688  23.413  26.439  1.00  0.00     0.004 A 
ATOM     13  C   UNL A   1      38.073  21.228  25.603  1.00  0.00     0.030 A 
ATOM     14  C   UNL A   1      37.448  23.944  26.043  1.00  0.00     0.011 A 
ATOM     15  C   UNL A   1      36.824  21.768  25.261  1.00  0.00     0.046 A 
ATOM     16  C   UNL A   1      36.472  23.095  25.485  1.00  0.00     0.004 A 
ATOM     17  N   UNL A   1      35.736  21.162  24.693  1.00  0.00    -0.352 N 
ATOM     18  C   UNL A   1      34.610  21.952  24.813  1.00  0.00     0.093 A 
ATOM     19  H   UNL A   1      35.754  20.280  24.256  1.00  0.00     0.167 HD
BRANCH  11  20
ATOM     20  C   UNL A   1      40.278  21.483  26.807  1.00  0.00     0.032 C 
ATOM     21  C   UNL A   1      40.651  20.139  26.201  1.00  0.00     0.009 C 
ENDBRANCH  11  20
BRANCH  18  22
ATOM     22  C   UNL A   1      33.235  21.485  24.555  1.00  0.00     0.227 C 
ATOM     23  O   UNL A   1      32.290  22.270  24.504  1.00  0.00    -0.285 OA
BRANCH  22  24
ATOM     24  C   UNL A   1      32.942  20.031  24.240  1.00  0.00     0.113 A 
ATOM     25  C   UNL A   1      33.102  18.990  25.156  1.00  0.00     0.036 A 
ATOM     26  N   UNL A   1      32.490  19.815  22.974  1.00  0.00    -0.253 NA
ATOM     27  C   UNL A   1      32.824  17.674  24.741  1.00  0.00    -0.047 A 
ATOM     28  C   UNL A   1      32.210  18.546  22.609  1.00  0.00     0.112 A 
ATOM     29  C   UNL A   1      32.965  16.494  25.657  1.00  0.00     0.044 C 
ATOM     30  C   UNL A   1      32.392  17.453  23.432  1.00  0.00     0.023 A 
ENDBRANCH  22  24
ENDBRANCH  18  22
ENDBRANCH   9  10
ENDBRANCH   7   9
ENDBRANCH   6   7
ENDBRANCH   5   6
ENDBRANCH   4   5
ENDBRANCH   3   4
ENDBRANCH   2   3
ENDBRANCH   1   2
BRANCH   1  31
ATOM     31  O   UNL A   1      31.874  28.802  24.786  1.00  0.00    -0.377 OA
BRANCH  31  32
ATOM     32  C   UNL A   1      31.716  28.877  26.178  1.00  0.00     0.188 C 
BRANCH  32  33
ATOM     33  C   UNL A   1      33.003  29.343  26.860  1.00  0.00     0.188 C 
BRANCH  33  34
ATOM     34  O   UNL A   1      33.190  30.743  26.788  1.00  0.00    -0.376 OA
BRANCH  34  35
ATOM     35  C   UNL A   1      32.063  31.608  26.882  1.00  0.00     0.202 C 
BRANCH  35  36
ATOM     36  C   UNL A   1      32.165  33.108  27.251  1.00  0.00     0.261 C 
BRANCH  36  37
ATOM     37  O   UNL A   1      33.466  33.643  27.493  1.00  0.00    -0.460 OA
BRANCH  37  38
ATOM     38  C   UNL A   1      33.801  33.918  28.759  1.00  0.00     0.338 C 
ATOM     39  O   UNL A   1      33.147  34.512  29.599  1.00  0.00    -0.246 OA
BRANCH  38  40
ATOM     40  C   UNL A   1      35.033  33.156  29.012  1.00  0.00     0.060 A 
ATOM     41  C   UNL A   1      34.901  31.842  29.476  1.00  0.00     0.016 A 
ATOM     42  C   UNL A   1      36.291  33.703  28.732  1.00  0.00     0.016 A 
ATOM     43  C   UNL A   1      36.032  31.075  29.689  1.00  0.00     0.010 A 
ATOM     44  C   UNL A   1      37.432  32.946  28.990  1.00  0.00     0.010 A 
ATOM     45  C   UNL A   1      37.295  31.649  29.512  1.00  0.00    -0.014 A 
BRANCH  45  46
ATOM     46  C   UNL A   1      38.430  30.983  30.173  1.00  0.00     0.031 A 
ATOM     47  C   UNL A   1      38.611  31.239  31.640  1.00  0.00     0.074 A 
ATOM     48  C   UNL A   1      39.187  30.097  29.509  1.00  0.00     0.049 A 
ATOM     49  N   UNL A   1      39.477  30.734  32.475  1.00  0.00    -0.248 NA
ATOM     50  C   UNL A   1      37.674  32.200  32.252  1.00  0.00     0.031 C 
ATOM     51  C   UNL A   1      39.034  29.748  28.098  1.00  0.00     0.029 A 
ATOM     52  N   UNL A   1      40.225  29.321  29.943  1.00  0.00    -0.354 N 
ATOM     53  C   UNL A   1      39.193  31.317  33.702  1.00  0.00     0.074 A 
ATOM     54  C   UNL A   1      38.101  32.240  33.501  1.00  0.00     0.031 C 
ATOM     55  C   UNL A   1      39.957  28.825  27.778  1.00  0.00     0.029 A 
ATOM     56  C   UNL A   1      40.777  28.546  28.956  1.00  0.00     0.049 A 
ATOM     57  H   UNL A   1      40.547  29.320  30.874  1.00  0.00     0.167 HD
ATOM     58  C   UNL A   1      39.793  31.090  34.893  1.00  0.00     0.037 A 
ATOM     59  C   UNL A   1      41.837  27.721  29.008  1.00  0.00     0.037 A 
ATOM     60  C   UNL A   1      40.884  30.171  35.061  1.00  0.00     0.049 A 
ATOM     61  C   UNL A   1      42.533  27.533  30.332  1.00  0.00     0.074 A 
ATOM     62  C   UNL A   1      41.576  29.850  36.212  1.00  0.00     0.029 A 
ATOM     63  N   UNL A   1      41.453  29.434  34.028  1.00  0.00    -0.354 N 
ATOM     64  N   UNL A   1      42.258  28.073  31.497  1.00  0.00    -0.248 NA
ATOM     65  C   UNL A   1      43.677  26.615  30.351  1.00  0.00     0.031 C 
ATOM     66  C   UNL A   1      42.609  28.973  35.863  1.00  0.00     0.029 A 
ATOM     67  C   UNL A   1      42.511  28.683  34.509  1.00  0.00     0.049 A 
ATOM     68  H   UNL A   1      41.148  29.445  33.092  1.00  0.00     0.167 HD
ATOM     69  C   UNL A   1      43.174  27.541  32.394  1.00  0.00     0.074 A 
ATOM     70  C   UNL A   1      44.003  26.623  31.636  1.00  0.00     0.031 C 
ATOM     71  C   UNL A   1      43.318  27.782  33.723  1.00  0.00     0.037 A 
BRANCH  58  72
ATOM     72  C   UNL A   1      39.318  31.898  36.068  1.00  0.00     0.064 A 
ATOM     73  C   UNL A   1      38.303  31.447  36.928  1.00  0.00     0.173 A 
ATOM     74  C   UNL A   1      39.870  33.164  36.319  1.00  0.00     0.173 A 
ATOM     75  F   UNL A   1      37.721  30.255  36.722  1.00  0.00    -0.203 F 
ATOM     76  C   UNL A   1      37.832  32.249  37.966  1.00  0.00     0.198 A 
ATOM     77  C   UNL A   1      39.422  33.946  37.380  1.00  0.00     0.198 A 
ATOM     78  F   UNL A   1      40.837  33.649  35.526  1.00  0.00    -0.203 F 
ATOM     79  F   UNL A   1      36.812  31.828  38.727  1.00  0.00    -0.200 F 
ATOM     80  C   UNL A   1      38.396  33.495  38.195  1.00  0.00     0.200 A 
ATOM     81  F   UNL A   1      39.977  35.146  37.604  1.00  0.00    -0.200 F 
ATOM     82  F   UNL A   1      37.941  34.267  39.191  1.00  0.00    -0.200 F 
ENDBRANCH  58  72
BRANCH  59  83
ATOM     83  C   UNL A   1      42.296  27.032  27.775  1.00  0.00     0.064 A 
ATOM     84  C   UNL A   1      43.202  27.633  26.893  1.00  0.00     0.173 A 
ATOM     85  C   UNL A   1      41.851  25.736  27.468  1.00  0.00     0.173 A 
ATOM     86  F   UNL A   1      43.644  28.876  27.132  1.00  0.00    -0.203 F 
ATOM     87  C   UNL A   1      43.638  26.972  25.746  1.00  0.00     0.198 A 
ATOM     88  C   UNL A   1      42.310  25.063  26.337  1.00  0.00     0.198 A 
ATOM     89  F   UNL A   1      40.984  25.112  28.281  1.00  0.00    -0.203 F 
ATOM     90  F   UNL A   1      44.478  27.584  24.899  1.00  0.00    -0.200 F 
ATOM     91  C   UNL A   1      43.198  25.684  25.474  1.00  0.00     0.200 A 
ATOM     92  F   UNL A   1      41.896  23.813  26.090  1.00  0.00    -0.200 F 
ATOM     93  F   UNL A   1      43.629  25.043  24.379  1.00  0.00    -0.200 F 
ENDBRANCH  59  83
BRANCH  71  94
ATOM     94  C   UNL A   1      44.386  27.009  34.443  1.00  0.00     0.064 A 
ATOM     95  C   UNL A   1      45.697  27.491  34.565  1.00  0.00     0.173 A 
ATOM     96  C   UNL A   1      44.077  25.782  35.053  1.00  0.00     0.173 A 
ATOM     97  F   UNL A   1      46.045  28.654  33.994  1.00  0.00    -0.203 F 
ATOM     98  C   UNL A   1      46.669  26.755  35.236  1.00  0.00     0.198 A 
ATOM     99  C   UNL A   1      45.042  25.068  35.757  1.00  0.00     0.198 A 
ATOM    100  F   UNL A   1      42.835  25.282  34.977  1.00  0.00    -0.203 F 
ATOM    101  F   UNL A   1      47.931  27.204  35.285  1.00  0.00    -0.200 F 
ATOM    102  C   UNL A   1      46.340  25.549  35.837  1.00  0.00     0.200 A 
ATOM    103  F   UNL A   1      44.715  23.915  36.355  1.00  0.00    -0.200 F 
ATOM    104  F   UNL A   1      47.275  24.844  36.488  1.00  0.00    -0.200 F 
ENDBRANCH  71  94
ENDBRANCH  45  46
ENDBRANCH  38  40
ENDBRANCH  37  38
ENDBRANCH  36  37
ENDBRANCH  35  36
ENDBRANCH  34  35
ENDBRANCH  33  34
ENDBRANCH  32  33
ENDBRANCH  31  32
ENDBRANCH   1  31
TORSDOF 24
ENDMDL
MODEL 3
REMARK VINA RESULT:     -11.0      1.943      7.902
REMARK SMILES CCc1ccc2c(CC(=O)OCCOCCOCCOCCOC(=O)c3ccc(-c4c5nc(c(-c6c(F)c(F)c(F)c(F)c6F)c6ccc([nH]6)c(-c6c(F)c(F)c(F)c(F)c6F)c6nc(c(-c7c(F)c(F)c(F)c(F)c7F)c7ccc4[nH]7)C=C6)C=C5)cc3)c(C(=O)c3cc(C)ccn3)[nH]c2c1
REMARK SMILES IDX 16 1 15 2 14 3 13 4 12 5 11 6 9 7 10 8 8 9 7 10 3 11 4 12
REMARK SMILES IDX 101 13 5 14 100 15 6 16 99 17 89 18 2 20 1 21 90 22 91 23
REMARK SMILES IDX 92 24 93 25 98 26 94 27 97 28 95 29 96 30 17 31 18 32 19 33
REMARK SMILES IDX 20 34 21 35 22 36 23 37 24 38 25 39 26 40 27 41 88 42 28 43
REMARK SMILES IDX 87 44 29 45 30 46 31 47 81 48 32 49 86 50 80 51 82 52 33 53
REMARK SMILES IDX 85 54 79 55 78 56 34 58 66 59 46 60 65 61 47 62 50 63 64 64
REMARK SMILES IDX 83 65 48 66 49 67 63 69 84 70 51 71 35 72 36 73 44 74 37 75
REMARK SMILES IDX 38 76 42 77 45 78 39 79 40 80 43 81 41 82 67 83 68 84 76 85
REMARK SMILES IDX 69 86 70 87 74 88 77 89 71 90 72 91 75 92 73 93 52 94 53 95
REMARK SMILES IDX 61 96 54 97 55 98 59 99 62 100 56 101 57 102 60 103 58 104
REMARK H PARENT 99 19 82 57 50 68
REMARK Flexibility Score: inf
ROOT
ATOM      1  C   UNL A   1      32.250  29.319  25.102  1.00  0.00     0.188 C 
ENDROOT
BRANCH   1   2
ATOM      2  C   UNL A   1      31.444  29.035  23.813  1.00  0.00     0.188 C 
BRANCH   2   3
ATOM      3  O   UNL A   1      31.222  27.695  23.430  1.00  0.00    -0.376 OA
BRANCH   3   4
ATOM      4  C   UNL A   1      32.052  27.008  22.521  1.00  0.00     0.202 C 
BRANCH   4   5
ATOM      5  C   UNL A   1      31.797  25.589  21.970  1.00  0.00     0.261 C 
BRANCH   5   6
ATOM      6  O   UNL A   1      31.870  24.482  22.887  1.00  0.00    -0.463 OA
BRANCH   6   7
ATOM      7  C   UNL A   1      33.092  23.968  23.161  1.00  0.00     0.310 C 
ATOM      8  O   UNL A   1      34.058  24.140  22.419  1.00  0.00    -0.252 OA
BRANCH   7   9
ATOM      9  C   UNL A   1      33.236  23.177  24.461  1.00  0.00     0.161 C 
BRANCH   9  10
ATOM     10  C   UNL A   1      34.346  22.158  24.706  1.00  0.00     0.000 A 
ATOM     11  C   UNL A   1      38.402  22.500  25.904  1.00  0.00    -0.046 A 
ATOM     12  C   UNL A   1      37.756  23.697  25.577  1.00  0.00     0.004 A 
ATOM     13  C   UNL A   1      37.741  21.281  25.694  1.00  0.00     0.030 A 
ATOM     14  C   UNL A   1      36.434  23.710  25.100  1.00  0.00     0.011 A 
ATOM     15  C   UNL A   1      36.406  21.321  25.264  1.00  0.00     0.046 A 
ATOM     16  C   UNL A   1      35.722  22.499  24.986  1.00  0.00     0.004 A 
ATOM     17  N   UNL A   1      35.524  20.294  25.055  1.00  0.00    -0.352 N 
ATOM     18  C   UNL A   1      34.232  20.766  24.945  1.00  0.00     0.093 A 
ATOM     19  H   UNL A   1      35.779  19.345  24.991  1.00  0.00     0.167 HD
BRANCH  11  20
ATOM     20  C   UNL A   1      39.773  22.517  26.540  1.00  0.00     0.032 C 
ATOM     21  C   UNL A   1      40.484  21.174  26.491  1.00  0.00     0.009 C 
ENDBRANCH  11  20
BRANCH  18  22
ATOM     22  C   UNL A   1      33.029  19.914  24.989  1.00  0.00     0.227 C 
ATOM     23  O   UNL A   1      31.904  20.398  25.101  1.00  0.00    -0.285 OA
BRANCH  22  24
ATOM     24  C   UNL A   1      33.118  18.413  24.796  1.00  0.00     0.113 A 
ATOM     25  C   UNL A   1      32.521  17.484  25.649  1.00  0.00     0.036 A 
ATOM     26  N   UNL A   1      33.828  18.033  23.699  1.00  0.00    -0.253 NA
ATOM     27  C   UNL A   1      32.695  16.113  25.385  1.00  0.00    -0.047 A 
ATOM     28  C   UNL A   1      33.962  16.712  23.457  1.00  0.00     0.112 A 
ATOM     29  C   UNL A   1      32.087  15.042  26.245  1.00  0.00     0.044 C 
ATOM     30  C   UNL A   1      33.451  15.726  24.277  1.00  0.00     0.023 A 
ENDBRANCH  22  24
ENDBRANCH  18  22
ENDBRANCH   9  10
ENDBRANCH   7   9
ENDBRANCH   6   7
ENDBRANCH   5   6
ENDBRANCH   4   5
ENDBRANCH   3   4
ENDBRANCH   2   3
ENDBRANCH   1   2
BRANCH   1  31
ATOM     31  O   UNL A   1      33.637  29.135  25.297  1.00  0.00    -0.377 OA
BRANCH  31  32
ATOM     32  C   UNL A   1      34.053  28.567  26.511  1.00  0.00     0.188 C 
BRANCH  32  33
ATOM     33  C   UNL A   1      35.127  29.420  27.185  1.00  0.00     0.188 C 
BRANCH  33  34
ATOM     34  O   UNL A   1      34.805  30.796  27.207  1.00  0.00    -0.376 OA
BRANCH  34  35
ATOM     35  C   UNL A   1      33.640  31.235  27.899  1.00  0.00     0.202 C 
BRANCH  35  36
ATOM     36  C   UNL A   1      32.901  32.556  27.578  1.00  0.00     0.261 C 
BRANCH  36  37
ATOM     37  O   UNL A   1      33.665  33.761  27.582  1.00  0.00    -0.460 OA
BRANCH  37  38
ATOM     38  C   UNL A   1      33.512  34.592  28.620  1.00  0.00     0.338 C 
ATOM     39  O   UNL A   1      32.599  35.374  28.830  1.00  0.00    -0.246 OA
BRANCH  38  40
ATOM     40  C   UNL A   1      34.555  34.212  29.584  1.00  0.00     0.060 A 
ATOM     41  C   UNL A   1      35.889  34.349  29.185  1.00  0.00     0.016 A 
ATOM     42  C   UNL A   1      34.225  33.794  30.878  1.00  0.00     0.016 A 
ATOM     43  C   UNL A   1      36.904  34.042  30.073  1.00  0.00     0.010 A 
ATOM     44  C   UNL A   1      35.246  33.441  31.758  1.00  0.00     0.010 A 
ATOM     45  C   UNL A   1      36.582  33.523  31.332  1.00  0.00    -0.014 A 
BRANCH  45  46
ATOM     46  C   UNL A   1      37.644  32.794  32.045  1.00  0.00     0.031 A 
ATOM     47  C   UNL A   1      38.281  31.642  31.327  1.00  0.00     0.074 A 
ATOM     48  C   UNL A   1      38.093  33.225  33.234  1.00  0.00     0.049 A 
ATOM     49  N   UNL A   1      39.274  30.878  31.690  1.00  0.00    -0.248 NA
ATOM     50  C   UNL A   1      37.719  31.310  30.004  1.00  0.00     0.031 C 
ATOM     51  C   UNL A   1      37.566  34.373  33.967  1.00  0.00     0.029 A 
ATOM     52  N   UNL A   1      39.105  32.750  34.021  1.00  0.00    -0.354 N 
ATOM     53  C   UNL A   1      39.450  29.977  30.648  1.00  0.00     0.074 A 
ATOM     54  C   UNL A   1      38.442  30.262  29.654  1.00  0.00     0.031 C 
ATOM     55  C   UNL A   1      38.260  34.512  35.110  1.00  0.00     0.029 A 
ATOM     56  C   UNL A   1      39.255  33.444  35.193  1.00  0.00     0.049 A 
ATOM     57  H   UNL A   1      39.669  31.982  33.771  1.00  0.00     0.167 HD
ATOM     58  C   UNL A   1      40.381  29.003  30.535  1.00  0.00     0.037 A 
ATOM     59  C   UNL A   1      40.095  33.219  36.219  1.00  0.00     0.037 A 
ATOM     60  C   UNL A   1      41.367  28.737  31.546  1.00  0.00     0.049 A 
ATOM     61  C   UNL A   1      41.082  32.085  36.100  1.00  0.00     0.074 A 
ATOM     62  C   UNL A   1      42.365  27.782  31.551  1.00  0.00     0.029 A 
ATOM     63  N   UNL A   1      41.463  29.430  32.747  1.00  0.00    -0.354 N 
ATOM     64  N   UNL A   1      41.258  31.241  35.110  1.00  0.00    -0.248 NA
ATOM     65  C   UNL A   1      41.990  31.881  37.234  1.00  0.00     0.031 C 
ATOM     66  C   UNL A   1      43.019  27.851  32.786  1.00  0.00     0.029 A 
ATOM     67  C   UNL A   1      42.483  28.901  33.518  1.00  0.00     0.049 A 
ATOM     68  H   UNL A   1      40.890  30.185  33.011  1.00  0.00     0.167 HD
ATOM     69  C   UNL A   1      42.315  30.422  35.486  1.00  0.00     0.074 A 
ATOM     70  C   UNL A   1      42.747  30.886  36.791  1.00  0.00     0.031 C 
ATOM     71  C   UNL A   1      42.883  29.386  34.817  1.00  0.00     0.037 A 
BRANCH  58  72
ATOM     72  C   UNL A   1      40.319  28.130  29.313  1.00  0.00     0.064 A 
ATOM     73  C   UNL A   1      39.563  26.947  29.273  1.00  0.00     0.173 A 
ATOM     74  C   UNL A   1      41.056  28.471  28.169  1.00  0.00     0.173 A 
ATOM     75  F   UNL A   1      38.858  26.558  30.347  1.00  0.00    -0.203 F 
ATOM     76  C   UNL A   1      39.582  26.119  28.152  1.00  0.00     0.198 A 
ATOM     77  C   UNL A   1      41.043  27.660  27.037  1.00  0.00     0.198 A 
ATOM     78  F   UNL A   1      41.802  29.585  28.152  1.00  0.00    -0.203 F 
ATOM     79  F   UNL A   1      38.912  24.958  28.165  1.00  0.00    -0.200 F 
ATOM     80  C   UNL A   1      40.317  26.480  27.033  1.00  0.00     0.200 A 
ATOM     81  F   UNL A   1      41.747  28.017  25.953  1.00  0.00    -0.200 F 
ATOM     82  F   UNL A   1      40.338  25.682  25.956  1.00  0.00    -0.200 F 
ENDBRANCH  58  72
BRANCH  59  83
ATOM     83  C   UNL A   1      40.026  34.076  37.430  1.00  0.00     0.064 A 
ATOM     84  C   UNL A   1      39.180  33.763  38.501  1.00  0.00     0.173 A 
ATOM     85  C   UNL A   1      40.831  35.221  37.548  1.00  0.00     0.173 A 
ATOM     86  F   UNL A   1      38.380  32.691  38.431  1.00  0.00    -0.203 F 
ATOM     87  C   UNL A   1      39.134  34.566  39.641  1.00  0.00     0.198 A 
ATOM     88  C   UNL A   1      40.806  36.006  38.699  1.00  0.00     0.198 A 
ATOM     89  F   UNL A   1      41.660  35.565  36.551  1.00  0.00    -0.203 F 
ATOM     90  F   UNL A   1      38.290  34.265  40.637  1.00  0.00    -0.200 F 
ATOM     91  C   UNL A   1      39.953  35.682  39.741  1.00  0.00     0.200 A 
ATOM     92  F   UNL A   1      41.612  37.071  38.797  1.00  0.00    -0.200 F 
ATOM     93  F   UNL A   1      39.918  36.445  40.842  1.00  0.00    -0.200 F 
ENDBRANCH  59  83
BRANCH  71  94
ATOM     94  C   UNL A   1      44.056  28.714  35.471  1.00  0.00     0.064 A 
ATOM     95  C   UNL A   1      45.374  29.139  35.246  1.00  0.00     0.173 A 
ATOM     96  C   UNL A   1      43.851  27.651  36.365  1.00  0.00     0.173 A 
ATOM     97  F   UNL A   1      45.624  30.144  34.394  1.00  0.00    -0.203 F 
ATOM     98  C   UNL A   1      46.445  28.497  35.861  1.00  0.00     0.198 A 
ATOM     99  C   UNL A   1      44.922  27.040  37.009  1.00  0.00     0.198 A 
ATOM    100  F   UNL A   1      42.610  27.215  36.625  1.00  0.00    -0.203 F 
ATOM    101  F   UNL A   1      47.700  28.877  35.583  1.00  0.00    -0.200 F 
ATOM    102  C   UNL A   1      46.218  27.455  36.747  1.00  0.00     0.200 A 
ATOM    103  F   UNL A   1      44.698  26.048  37.882  1.00  0.00    -0.200 F 
ATOM    104  F   UNL A   1      47.251  26.843  37.344  1.00  0.00    -0.200 F 
ENDBRANCH  71  94
ENDBRANCH  45  46
ENDBRANCH  38  40
ENDBRANCH  37  38
ENDBRANCH  36  37
ENDBRANCH  35  36
ENDBRANCH  34  35
ENDBRANCH  33  34
ENDBRANCH  32  33
ENDBRANCH  31  32
ENDBRANCH   1  31
TORSDOF 24
ENDMDL
