MODEL 1
REMARK VINA RESULT:      -5.7      0.000      0.000
REMARK SMILES O=C(N[C@@H](Cc1ccc(O)cc1)C(=O)N[C@@H](Cc1c[nH]c2ccccc12)C(=O)N[C@@H](CO)C(=O)OCCOCCOCCOCCOC(=O)c1ccc(-c2c3nc(c(-c4c(F)c(F)c(F)c(F)c4F)c4ccc([nH]4)c(-c4c(F)c(F)c(F)c(F)c4F)c4nc(c(-c5c(F)c(F)c(F)c(F)c5F)c5ccc2[nH]5)C=C4)C=C3)cc1)c1ccc(F)cc1
REMARK SMILES IDX 39 1 38 2 37 3 36 4 35 5 33 6 34 7 30 8 29 9 27 10 28 11
REMARK SMILES IDX 16 13 15 14 13 15 14 16 4 18 3 19 1 20 2 21 113 23 114 24
REMARK SMILES IDX 119 25 115 26 118 27 116 28 117 29 5 30 6 31 7 32 12 33 8 34
REMARK SMILES IDX 11 35 9 36 10 37 17 39 18 40 19 41 26 42 20 43 21 44 25 45
REMARK SMILES IDX 22 47 24 48 23 49 31 50 32 51 40 53 41 54 42 55 43 56 44 57
REMARK SMILES IDX 45 58 46 59 47 60 48 61 49 62 50 63 51 64 112 65 52 66
REMARK SMILES IDX 111 67 53 68 54 69 55 70 105 71 56 72 110 73 104 74 106 75
REMARK SMILES IDX 57 76 109 77 103 78 102 79 58 81 90 82 70 83 89 84 71 85
REMARK SMILES IDX 74 86 88 87 107 88 72 89 73 90 87 92 108 93 75 94 59 95
REMARK SMILES IDX 60 96 68 97 61 98 62 99 66 100 69 101 63 102 64 103 67 104
REMARK SMILES IDX 65 105 91 106 92 107 100 108 93 109 94 110 98 111 101 112
REMARK SMILES IDX 95 113 96 114 99 115 97 116 76 117 77 118 85 119 78 120
REMARK SMILES IDX 79 121 83 122 86 123 80 124 81 125 84 126 82 127
REMARK H PARENT 29 12 15 17 3 22 10 38 20 46 32 52 106 80 74 91
REMARK Flexibility Score: inf
ROOT
ATOM      1  C   UNL A   1      39.149  32.113  32.668  1.00  0.00     0.188 C 
ENDROOT
BRANCH   1   2
ATOM      2  O   UNL A   1      40.420  32.694  32.355  1.00  0.00    -0.376 OA
BRANCH   2   3
ATOM      3  C   UNL A   1      40.665  33.940  31.663  1.00  0.00     0.202 C 
BRANCH   3   4
ATOM      4  C   UNL A   1      41.237  33.996  30.155  1.00  0.00     0.261 C 
BRANCH   4   5
ATOM      5  O   UNL A   1      42.574  34.666  29.953  1.00  0.00    -0.462 OA
BRANCH   5   6
ATOM      6  C   UNL A   1      42.908  35.111  28.687  1.00  0.00     0.331 C 
ATOM      7  O   UNL A   1      42.051  35.578  27.934  1.00  0.00    -0.250 OA
BRANCH   6   8
ATOM      8  C   UNL A   1      44.465  35.062  28.213  1.00  0.00     0.218 C 
BRANCH   8   9
ATOM      9  N   UNL A   1      45.203  33.844  27.749  1.00  0.00    -0.339 N 
ATOM     10  C   UNL A   1      45.535  32.644  28.321  1.00  0.00     0.243 C 
ATOM     11  O   UNL A   1      46.771  32.459  28.289  1.00  0.00    -0.273 OA
ATOM     12  H   UNL A   1      45.523  33.924  26.821  1.00  0.00     0.164 HD
BRANCH  10  13
ATOM     13  C   UNL A   1      44.664  31.391  28.909  1.00  0.00     0.175 C 
BRANCH  13  14
ATOM     14  N   UNL A   1      44.157  31.675  30.256  1.00  0.00    -0.342 N 
ATOM     15  C   UNL A   1      44.169  30.904  31.377  1.00  0.00     0.243 C 
ATOM     16  O   UNL A   1      43.443  31.307  32.297  1.00  0.00    -0.273 OA
ATOM     17  H   UNL A   1      43.745  32.563  30.366  1.00  0.00     0.164 HD
BRANCH  15  18
ATOM     18  C   UNL A   1      44.961  29.558  31.563  1.00  0.00     0.176 C 
BRANCH  18  19
ATOM     19  N   UNL A   1      46.129  29.323  30.703  1.00  0.00    -0.340 N 
ATOM     20  O   UNL A   1      48.159  29.689  29.807  1.00  0.00    -0.269 OA
ATOM     21  C   UNL A   1      47.381  29.885  30.735  1.00  0.00     0.251 C 
ATOM     22  H   UNL A   1      45.992  28.658  29.992  1.00  0.00     0.164 HD
BRANCH  21  23
ATOM     23  C   UNL A   1      47.772  30.768  31.846  1.00  0.00     0.040 A 
ATOM     24  C   UNL A   1      48.395  30.246  32.984  1.00  0.00     0.017 A 
ATOM     25  C   UNL A   1      47.503  32.138  31.742  1.00  0.00     0.017 A 
ATOM     26  C   UNL A   1      48.679  31.089  34.058  1.00  0.00     0.040 A 
ATOM     27  C   UNL A   1      47.800  32.978  32.816  1.00  0.00     0.040 A 
ATOM     28  C   UNL A   1      48.369  32.443  33.968  1.00  0.00     0.123 A 
ATOM     29  F   UNL A   1      48.624  33.245  35.009  1.00  0.00    -0.207 F 
ENDBRANCH  21  23
ENDBRANCH  18  19
BRANCH  18  30
ATOM     30  C   UNL A   1      45.088  28.993  33.000  1.00  0.00     0.070 C 
BRANCH  30  31
ATOM     31  C   UNL A   1      43.925  28.652  33.909  1.00  0.00    -0.045 A 
ATOM     32  C   UNL A   1      42.745  28.017  33.498  1.00  0.00     0.007 A 
ATOM     33  C   UNL A   1      43.977  29.125  35.234  1.00  0.00     0.007 A 
ATOM     34  C   UNL A   1      41.723  27.735  34.420  1.00  0.00     0.046 A 
ATOM     35  C   UNL A   1      42.958  28.857  36.150  1.00  0.00     0.046 A 
ATOM     36  C   UNL A   1      41.866  28.109  35.749  1.00  0.00     0.115 A 
BRANCH  36  37
ATOM     37  O   UNL A   1      40.965  27.741  36.699  1.00  0.00    -0.508 OA
ATOM     38  H   UNL A   1      41.242  27.624  37.587  1.00  0.00     0.293 HD
ENDBRANCH  36  37
ENDBRANCH  30  31
ENDBRANCH  18  30
ENDBRANCH  15  18
ENDBRANCH  13  14
BRANCH  13  39
ATOM     39  C   UNL A   1      43.685  30.374  28.265  1.00  0.00     0.072 C 
BRANCH  39  40
ATOM     40  C   UNL A   1      44.149  29.695  27.074  1.00  0.00    -0.020 A 
ATOM     41  C   UNL A   1      45.430  29.421  26.651  1.00  0.00     0.087 A 
ATOM     42  C   UNL A   1      43.232  29.076  26.217  1.00  0.00     0.003 A 
ATOM     43  N   UNL A   1      45.309  28.423  25.721  1.00  0.00    -0.361 N 
ATOM     44  C   UNL A   1      43.981  28.083  25.649  1.00  0.00     0.046 A 
ATOM     45  C   UNL A   1      41.824  29.035  26.209  1.00  0.00     0.010 A 
ATOM     46  H   UNL A   1      46.041  28.022  25.199  1.00  0.00     0.166 HD
ATOM     47  C   UNL A   1      43.353  26.930  25.280  1.00  0.00     0.026 A 
ATOM     48  C   UNL A   1      41.186  27.856  25.905  1.00  0.00     0.001 A 
ATOM     49  C   UNL A   1      41.967  26.800  25.515  1.00  0.00     0.002 A 
ENDBRANCH  39  40
ENDBRANCH  13  39
ENDBRANCH  10  13
ENDBRANCH   8   9
BRANCH   8  50
ATOM     50  C   UNL A   1      44.552  36.103  27.068  1.00  0.00     0.193 C 
BRANCH  50  51
ATOM     51  O   UNL A   1      44.207  35.503  25.813  1.00  0.00    -0.394 OA
ATOM     52  H   UNL A   1      44.515  34.583  25.798  1.00  0.00     0.210 HD
ENDBRANCH  50  51
ENDBRANCH   8  50
ENDBRANCH   6   8
ENDBRANCH   5   6
ENDBRANCH   4   5
ENDBRANCH   3   4
ENDBRANCH   2   3
ENDBRANCH   1   2
BRANCH   1  53
ATOM     53  C   UNL A   1      38.464  30.947  31.888  1.00  0.00     0.188 C 
BRANCH  53  54
ATOM     54  O   UNL A   1      37.770  31.259  30.704  1.00  0.00    -0.377 OA
BRANCH  54  55
ATOM     55  C   UNL A   1      38.436  31.112  29.469  1.00  0.00     0.188 C 
BRANCH  55  56
ATOM     56  C   UNL A   1      37.799  30.128  28.478  1.00  0.00     0.188 C 
BRANCH  56  57
ATOM     57  O   UNL A   1      38.308  28.798  28.420  1.00  0.00    -0.376 OA
BRANCH  57  58
ATOM     58  C   UNL A   1      38.667  28.128  29.624  1.00  0.00     0.202 C 
BRANCH  58  59
ATOM     59  C   UNL A   1      39.013  26.642  29.497  1.00  0.00     0.261 C 
BRANCH  59  60
ATOM     60  O   UNL A   1      39.942  26.434  28.419  1.00  0.00    -0.460 OA
BRANCH  60  61
ATOM     61  C   UNL A   1      40.571  25.246  28.419  1.00  0.00     0.338 C 
ATOM     62  O   UNL A   1      40.112  24.147  28.100  1.00  0.00    -0.246 OA
BRANCH  61  63
ATOM     63  C   UNL A   1      41.990  25.447  28.703  1.00  0.00     0.060 A 
ATOM     64  C   UNL A   1      42.839  24.332  28.671  1.00  0.00     0.016 A 
ATOM     65  C   UNL A   1      42.458  26.698  29.107  1.00  0.00     0.016 A 
ATOM     66  C   UNL A   1      44.158  24.454  29.090  1.00  0.00     0.010 A 
ATOM     67  C   UNL A   1      43.774  26.814  29.552  1.00  0.00     0.010 A 
ATOM     68  C   UNL A   1      44.611  25.684  29.584  1.00  0.00    -0.014 A 
BRANCH  68  69
ATOM     69  C   UNL A   1      45.884  25.742  30.329  1.00  0.00     0.031 A 
ATOM     70  C   UNL A   1      47.134  26.092  29.573  1.00  0.00     0.074 A 
ATOM     71  C   UNL A   1      45.919  25.494  31.647  1.00  0.00     0.049 A 
ATOM     72  N   UNL A   1      48.376  26.108  29.982  1.00  0.00    -0.248 NA
ATOM     73  C   UNL A   1      46.958  26.477  28.163  1.00  0.00     0.031 C 
ATOM     74  C   UNL A   1      44.755  25.207  32.483  1.00  0.00     0.029 A 
ATOM     75  N   UNL A   1      46.983  25.430  32.510  1.00  0.00    -0.354 N 
ATOM     76  C   UNL A   1      49.127  26.492  28.878  1.00  0.00     0.074 A 
ATOM     77  C   UNL A   1      48.208  26.684  27.779  1.00  0.00     0.031 C 
ATOM     78  C   UNL A   1      45.173  24.968  33.738  1.00  0.00     0.029 A 
ATOM     79  C   UNL A   1      46.631  25.049  33.779  1.00  0.00     0.049 A 
ATOM     80  H   UNL A   1      47.908  25.636  32.245  1.00  0.00     0.167 HD
ATOM     81  C   UNL A   1      50.466  26.671  28.797  1.00  0.00     0.037 A 
ATOM     82  C   UNL A   1      47.410  24.761  34.838  1.00  0.00     0.037 A 
ATOM     83  C   UNL A   1      51.368  26.467  29.897  1.00  0.00     0.049 A 
ATOM     84  C   UNL A   1      48.909  24.872  34.697  1.00  0.00     0.074 A 
ATOM     85  C   UNL A   1      52.741  26.629  29.930  1.00  0.00     0.029 A 
ATOM     86  N   UNL A   1      50.982  26.044  31.161  1.00  0.00    -0.354 N 
ATOM     87  N   UNL A   1      49.613  25.250  33.657  1.00  0.00    -0.248 NA
ATOM     88  C   UNL A   1      49.712  24.513  35.868  1.00  0.00     0.031 C 
ATOM     89  C   UNL A   1      53.192  26.253  31.201  1.00  0.00     0.029 A 
ATOM     90  C   UNL A   1      52.094  25.909  31.973  1.00  0.00     0.049 A 
ATOM     91  H   UNL A   1      50.054  25.866  31.438  1.00  0.00     0.167 HD
ATOM     92  C   UNL A   1      50.944  25.195  34.059  1.00  0.00     0.074 A 
ATOM     93  C   UNL A   1      50.943  24.762  35.439  1.00  0.00     0.031 C 
ATOM     94  C   UNL A   1      52.064  25.478  33.349  1.00  0.00     0.037 A 
BRANCH  81  95
ATOM     95  C   UNL A   1      51.031  27.071  27.467  1.00  0.00     0.064 A 
ATOM     96  C   UNL A   1      51.154  28.418  27.090  1.00  0.00     0.173 A 
ATOM     97  C   UNL A   1      51.479  26.095  26.564  1.00  0.00     0.173 A 
ATOM     98  F   UNL A   1      50.724  29.389  27.909  1.00  0.00    -0.203 F 
ATOM     99  C   UNL A   1      51.682  28.769  25.851  1.00  0.00     0.198 A 
ATOM    100  C   UNL A   1      52.032  26.450  25.337  1.00  0.00     0.198 A 
ATOM    101  F   UNL A   1      51.385  24.793  26.875  1.00  0.00    -0.203 F 
ATOM    102  F   UNL A   1      51.748  30.060  25.493  1.00  0.00    -0.200 F 
ATOM    103  C   UNL A   1      52.127  27.787  24.978  1.00  0.00     0.200 A 
ATOM    104  F   UNL A   1      52.470  25.500  24.500  1.00  0.00    -0.200 F 
ATOM    105  F   UNL A   1      52.640  28.127  23.788  1.00  0.00    -0.200 F 
ENDBRANCH  81  95
BRANCH  82 106
ATOM    106  C   UNL A   1      46.796  24.314  36.114  1.00  0.00     0.064 A 
ATOM    107  C   UNL A   1      46.590  22.958  36.383  1.00  0.00     0.173 A 
ATOM    108  C   UNL A   1      46.392  25.242  37.092  1.00  0.00     0.173 A 
ATOM    109  F   UNL A   1      46.935  22.034  35.473  1.00  0.00    -0.203 F 
ATOM    110  C   UNL A   1      45.989  22.541  37.573  1.00  0.00     0.198 A 
ATOM    111  C   UNL A   1      45.821  24.825  38.288  1.00  0.00     0.198 A 
ATOM    112  F   UNL A   1      46.567  26.555  36.881  1.00  0.00    -0.203 F 
ATOM    113  F   UNL A   1      45.765  21.237  37.784  1.00  0.00    -0.200 F 
ATOM    114  C   UNL A   1      45.612  23.471  38.525  1.00  0.00     0.200 A 
ATOM    115  F   UNL A   1      45.467  25.728  39.212  1.00  0.00    -0.200 F 
ATOM    116  F   UNL A   1      45.040  23.072  39.668  1.00  0.00    -0.200 F 
ENDBRANCH  82 106
BRANCH  94 117
ATOM    117  C   UNL A   1      53.378  25.354  34.061  1.00  0.00     0.064 A 
ATOM    118  C   UNL A   1      54.117  24.163  34.038  1.00  0.00     0.173 A 
ATOM    119  C   UNL A   1      53.930  26.459  34.729  1.00  0.00     0.173 A 
ATOM    120  F   UNL A   1      53.624  23.076  33.426  1.00  0.00    -0.203 F 
ATOM    121  C   UNL A   1      55.353  24.076  34.673  1.00  0.00     0.198 A 
ATOM    122  C   UNL A   1      55.179  26.378  35.337  1.00  0.00     0.198 A 
ATOM    123  F   UNL A   1      53.265  27.623  34.773  1.00  0.00    -0.203 F 
ATOM    124  F   UNL A   1      56.023  22.916  34.673  1.00  0.00    -0.200 F 
ATOM    125  C   UNL A   1      55.886  25.185  35.314  1.00  0.00     0.200 A 
ATOM    126  F   UNL A   1      55.698  27.453  35.943  1.00  0.00    -0.200 F 
ATOM    127  F   UNL A   1      57.080  25.103  35.915  1.00  0.00    -0.200 F 
ENDBRANCH  94 117
ENDBRANCH  68  69
ENDBRANCH  61  63
ENDBRANCH  60  61
ENDBRANCH  59  60
ENDBRANCH  58  59
ENDBRANCH  57  58
ENDBRANCH  56  57
ENDBRANCH  55  56
ENDBRANCH  54  55
ENDBRANCH  53  54
ENDBRANCH   1  53
TORSDOF 33
ENDMDL
MODEL 2
REMARK VINA RESULT:      -5.6      1.409      3.313
REMARK SMILES O=C(N[C@@H](Cc1ccc(O)cc1)C(=O)N[C@@H](Cc1c[nH]c2ccccc12)C(=O)N[C@@H](CO)C(=O)OCCOCCOCCOCCOC(=O)c1ccc(-c2c3nc(c(-c4c(F)c(F)c(F)c(F)c4F)c4ccc([nH]4)c(-c4c(F)c(F)c(F)c(F)c4F)c4nc(c(-c5c(F)c(F)c(F)c(F)c5F)c5ccc2[nH]5)C=C4)C=C3)cc1)c1ccc(F)cc1
REMARK SMILES IDX 39 1 38 2 37 3 36 4 35 5 33 6 34 7 30 8 29 9 27 10 28 11
REMARK SMILES IDX 16 13 15 14 13 15 14 16 4 18 3 19 1 20 2 21 113 23 114 24
REMARK SMILES IDX 119 25 115 26 118 27 116 28 117 29 5 30 6 31 7 32 12 33 8 34
REMARK SMILES IDX 11 35 9 36 10 37 17 39 18 40 19 41 26 42 20 43 21 44 25 45
REMARK SMILES IDX 22 47 24 48 23 49 31 50 32 51 40 53 41 54 42 55 43 56 44 57
REMARK SMILES IDX 45 58 46 59 47 60 48 61 49 62 50 63 51 64 112 65 52 66
REMARK SMILES IDX 111 67 53 68 54 69 55 70 105 71 56 72 110 73 104 74 106 75
REMARK SMILES IDX 57 76 109 77 103 78 102 79 58 81 90 82 70 83 89 84 71 85
REMARK SMILES IDX 74 86 88 87 107 88 72 89 73 90 87 92 108 93 75 94 59 95
REMARK SMILES IDX 60 96 68 97 61 98 62 99 66 100 69 101 63 102 64 103 67 104
REMARK SMILES IDX 65 105 91 106 92 107 100 108 93 109 94 110 98 111 101 112
REMARK SMILES IDX 95 113 96 114 99 115 97 116 76 117 77 118 85 119 78 120
REMARK SMILES IDX 79 121 83 122 86 123 80 124 81 125 84 126 82 127
REMARK H PARENT 29 12 15 17 3 22 10 38 20 46 32 52 106 80 74 91
REMARK Flexibility Score: inf
ROOT
ATOM      1  C   UNL A   1      38.217  32.406  32.590  1.00  0.00     0.188 C 
ENDROOT
BRANCH   1   2
ATOM      2  O   UNL A   1      39.434  33.120  32.342  1.00  0.00    -0.376 OA
BRANCH   2   3
ATOM      3  C   UNL A   1      39.601  34.309  31.536  1.00  0.00     0.202 C 
BRANCH   3   4
ATOM      4  C   UNL A   1      40.284  34.277  30.074  1.00  0.00     0.261 C 
BRANCH   4   5
ATOM      5  O   UNL A   1      41.694  34.803  29.965  1.00  0.00    -0.462 OA
BRANCH   5   6
ATOM      6  C   UNL A   1      42.114  35.327  28.756  1.00  0.00     0.331 C 
ATOM      7  O   UNL A   1      41.304  35.799  27.956  1.00  0.00    -0.250 OA
BRANCH   6   8
ATOM      8  C   UNL A   1      43.705  35.364  28.416  1.00  0.00     0.218 C 
BRANCH   8   9
ATOM      9  N   UNL A   1      44.651  34.205  28.511  1.00  0.00    -0.339 N 
ATOM     10  C   UNL A   1      44.989  33.319  29.499  1.00  0.00     0.243 C 
ATOM     11  O   UNL A   1      46.219  33.345  29.723  1.00  0.00    -0.273 OA
ATOM     12  H   UNL A   1      45.140  34.045  27.672  1.00  0.00     0.164 HD
BRANCH  10  13
ATOM     13  C   UNL A   1      44.159  32.183  30.334  1.00  0.00     0.175 C 
BRANCH  13  14
ATOM     14  N   UNL A   1      43.328  32.788  31.380  1.00  0.00    -0.342 N 
ATOM     15  C   UNL A   1      43.375  32.638  32.732  1.00  0.00     0.243 C 
ATOM     16  O   UNL A   1      42.387  33.073  33.341  1.00  0.00    -0.273 OA
ATOM     17  H   UNL A   1      42.628  33.397  31.053  1.00  0.00     0.164 HD
BRANCH  15  18
ATOM     18  C   UNL A   1      44.521  31.929  33.543  1.00  0.00     0.176 C 
BRANCH  18  19
ATOM     19  N   UNL A   1      44.493  32.035  35.008  1.00  0.00    -0.340 N 
ATOM     20  O   UNL A   1      43.798  31.633  37.109  1.00  0.00    -0.269 OA
ATOM     21  C   UNL A   1      43.845  31.263  35.940  1.00  0.00     0.251 C 
ATOM     22  H   UNL A   1      45.022  32.775  35.380  1.00  0.00     0.164 HD
BRANCH  21  23
ATOM     23  C   UNL A   1      43.155  30.028  35.534  1.00  0.00     0.040 A 
ATOM     24  C   UNL A   1      41.892  30.082  34.937  1.00  0.00     0.017 A 
ATOM     25  C   UNL A   1      43.786  28.799  35.763  1.00  0.00     0.017 A 
ATOM     26  C   UNL A   1      41.223  28.895  34.640  1.00  0.00     0.040 A 
ATOM     27  C   UNL A   1      43.115  27.616  35.453  1.00  0.00     0.040 A 
ATOM     28  C   UNL A   1      41.835  27.675  34.910  1.00  0.00     0.123 A 
ATOM     29  F   UNL A   1      41.180  26.539  34.643  1.00  0.00    -0.207 F 
ENDBRANCH  21  23
ENDBRANCH  18  19
BRANCH  18  30
ATOM     30  C   UNL A   1      45.057  30.582  32.998  1.00  0.00     0.070 C 
BRANCH  30  31
ATOM     31  C   UNL A   1      46.476  30.077  33.158  1.00  0.00    -0.045 A 
ATOM     32  C   UNL A   1      47.606  30.663  32.570  1.00  0.00     0.007 A 
ATOM     33  C   UNL A   1      46.660  28.858  33.836  1.00  0.00     0.007 A 
ATOM     34  C   UNL A   1      48.887  30.126  32.784  1.00  0.00     0.046 A 
ATOM     35  C   UNL A   1      47.930  28.315  34.041  1.00  0.00     0.046 A 
ATOM     36  C   UNL A   1      49.039  28.988  33.564  1.00  0.00     0.115 A 
BRANCH  36  37
ATOM     37  O   UNL A   1      50.266  28.512  33.906  1.00  0.00    -0.508 OA
ATOM     38  H   UNL A   1      50.896  29.081  34.304  1.00  0.00     0.293 HD
ENDBRANCH  36  37
ENDBRANCH  30  31
ENDBRANCH  18  30
ENDBRANCH  15  18
ENDBRANCH  13  14
BRANCH  13  39
ATOM     39  C   UNL A   1      43.481  30.846  29.935  1.00  0.00     0.072 C 
BRANCH  39  40
ATOM     40  C   UNL A   1      43.812  30.316  28.630  1.00  0.00    -0.020 A 
ATOM     41  C   UNL A   1      43.050  30.234  27.486  1.00  0.00     0.087 A 
ATOM     42  C   UNL A   1      45.122  29.914  28.348  1.00  0.00     0.003 A 
ATOM     43  N   UNL A   1      43.938  30.056  26.460  1.00  0.00    -0.361 N 
ATOM     44  C   UNL A   1      45.202  30.093  26.995  1.00  0.00     0.046 A 
ATOM     45  C   UNL A   1      46.276  29.821  29.150  1.00  0.00     0.010 A 
ATOM     46  H   UNL A   1      43.713  29.926  25.511  1.00  0.00     0.166 HD
ATOM     47  C   UNL A   1      46.412  30.419  26.456  1.00  0.00     0.026 A 
ATOM     48  C   UNL A   1      47.488  30.214  28.634  1.00  0.00     0.001 A 
ATOM     49  C   UNL A   1      47.523  30.577  27.314  1.00  0.00     0.002 A 
ENDBRANCH  39  40
ENDBRANCH  13  39
ENDBRANCH  10  13
ENDBRANCH   8   9
BRANCH   8  50
ATOM     50  C   UNL A   1      43.777  35.883  26.958  1.00  0.00     0.193 C 
BRANCH  50  51
ATOM     51  O   UNL A   1      43.303  34.887  26.043  1.00  0.00    -0.394 OA
ATOM     52  H   UNL A   1      42.381  35.078  25.806  1.00  0.00     0.210 HD
ENDBRANCH  50  51
ENDBRANCH   8  50
ENDBRANCH   6   8
ENDBRANCH   5   6
ENDBRANCH   4   5
ENDBRANCH   3   4
ENDBRANCH   2   3
ENDBRANCH   1   2
BRANCH   1  53
ATOM     53  C   UNL A   1      37.691  31.189  31.765  1.00  0.00     0.188 C 
BRANCH  53  54
ATOM     54  O   UNL A   1      37.269  31.419  30.442  1.00  0.00    -0.377 OA
BRANCH  54  55
ATOM     55  C   UNL A   1      38.163  31.134  29.388  1.00  0.00     0.188 C 
BRANCH  55  56
ATOM     56  C   UNL A   1      37.660  30.136  28.335  1.00  0.00     0.188 C 
BRANCH  56  57
ATOM     57  O   UNL A   1      38.166  28.804  28.365  1.00  0.00    -0.376 OA
BRANCH  57  58
ATOM     58  C   UNL A   1      38.603  28.245  29.599  1.00  0.00     0.202 C 
BRANCH  58  59
ATOM     59  C   UNL A   1      39.073  26.788  29.557  1.00  0.00     0.261 C 
BRANCH  59  60
ATOM     60  O   UNL A   1      39.815  26.537  28.350  1.00  0.00    -0.460 OA
BRANCH  60  61
ATOM     61  C   UNL A   1      40.419  25.338  28.282  1.00  0.00     0.338 C 
ATOM     62  O   UNL A   1      39.933  24.266  27.914  1.00  0.00    -0.246 OA
BRANCH  61  63
ATOM     63  C   UNL A   1      41.845  25.496  28.558  1.00  0.00     0.060 A 
ATOM     64  C   UNL A   1      42.645  24.346  28.605  1.00  0.00     0.016 A 
ATOM     65  C   UNL A   1      42.366  26.750  28.877  1.00  0.00     0.016 A 
ATOM     66  C   UNL A   1      43.967  24.439  29.021  1.00  0.00     0.010 A 
ATOM     67  C   UNL A   1      43.686  26.839  29.319  1.00  0.00     0.010 A 
ATOM     68  C   UNL A   1      44.473  25.679  29.431  1.00  0.00    -0.014 A 
BRANCH  68  69
ATOM     69  C   UNL A   1      45.746  25.733  30.176  1.00  0.00     0.031 A 
ATOM     70  C   UNL A   1      46.997  26.078  29.420  1.00  0.00     0.074 A 
ATOM     71  C   UNL A   1      45.780  25.485  31.495  1.00  0.00     0.049 A 
ATOM     72  N   UNL A   1      48.239  26.089  29.828  1.00  0.00    -0.248 NA
ATOM     73  C   UNL A   1      46.822  26.464  28.010  1.00  0.00     0.031 C 
ATOM     74  C   UNL A   1      44.616  25.201  32.331  1.00  0.00     0.029 A 
ATOM     75  N   UNL A   1      46.844  25.416  32.357  1.00  0.00    -0.354 N 
ATOM     76  C   UNL A   1      48.991  26.472  28.725  1.00  0.00     0.074 A 
ATOM     77  C   UNL A   1      48.073  26.666  27.626  1.00  0.00     0.031 C 
ATOM     78  C   UNL A   1      45.033  24.961  33.585  1.00  0.00     0.029 A 
ATOM     79  C   UNL A   1      46.492  25.036  33.626  1.00  0.00     0.049 A 
ATOM     80  H   UNL A   1      47.770  25.619  32.091  1.00  0.00     0.167 HD
ATOM     81  C   UNL A   1      50.331  26.646  28.643  1.00  0.00     0.037 A 
ATOM     82  C   UNL A   1      47.270  24.745  34.685  1.00  0.00     0.037 A 
ATOM     83  C   UNL A   1      51.233  26.439  29.743  1.00  0.00     0.049 A 
ATOM     84  C   UNL A   1      48.769  24.851  34.544  1.00  0.00     0.074 A 
ATOM     85  C   UNL A   1      52.606  26.595  29.775  1.00  0.00     0.029 A 
ATOM     86  N   UNL A   1      50.846  26.016  31.007  1.00  0.00    -0.354 N 
ATOM     87  N   UNL A   1      49.474  25.227  33.504  1.00  0.00    -0.248 NA
ATOM     88  C   UNL A   1      49.571  24.489  35.714  1.00  0.00     0.031 C 
ATOM     89  C   UNL A   1      53.056  26.218  31.047  1.00  0.00     0.029 A 
ATOM     90  C   UNL A   1      51.957  25.877  31.819  1.00  0.00     0.049 A 
ATOM     91  H   UNL A   1      49.917  25.841  31.285  1.00  0.00     0.167 HD
ATOM     92  C   UNL A   1      50.805  25.167  33.905  1.00  0.00     0.074 A 
ATOM     93  C   UNL A   1      50.803  24.733  35.285  1.00  0.00     0.031 C 
ATOM     94  C   UNL A   1      51.926  25.446  33.194  1.00  0.00     0.037 A 
BRANCH  81  95
ATOM     95  C   UNL A   1      50.897  27.044  27.313  1.00  0.00     0.064 A 
ATOM     96  C   UNL A   1      51.363  26.091  26.393  1.00  0.00     0.173 A 
ATOM     97  C   UNL A   1      50.955  28.395  26.942  1.00  0.00     0.173 A 
ATOM     98  F   UNL A   1      51.348  24.787  26.706  1.00  0.00    -0.203 F 
ATOM     99  C   UNL A   1      51.886  26.480  25.163  1.00  0.00     0.198 A 
ATOM    100  C   UNL A   1      51.452  28.779  25.700  1.00  0.00     0.198 A 
ATOM    101  F   UNL A   1      50.522  29.346  27.785  1.00  0.00    -0.203 F 
ATOM    102  F   UNL A   1      52.367  25.557  24.318  1.00  0.00    -0.200 F 
ATOM    103  C   UNL A   1      51.924  27.822  24.814  1.00  0.00     0.200 A 
ATOM    104  F   UNL A   1      51.479  30.075  25.362  1.00  0.00    -0.200 F 
ATOM    105  F   UNL A   1      52.422  28.195  23.627  1.00  0.00    -0.200 F 
ENDBRANCH  81  95
BRANCH  82 106
ATOM    106  C   UNL A   1      46.654  24.300  35.961  1.00  0.00     0.064 A 
ATOM    107  C   UNL A   1      46.082  25.217  36.847  1.00  0.00     0.173 A 
ATOM    108  C   UNL A   1      46.635  22.941  36.325  1.00  0.00     0.173 A 
ATOM    109  F   UNL A   1      46.096  26.527  36.558  1.00  0.00    -0.203 F 
ATOM    110  C   UNL A   1      45.525  24.799  38.059  1.00  0.00     0.198 A 
ATOM    111  C   UNL A   1      46.056  22.523  37.517  1.00  0.00     0.198 A 
ATOM    112  F   UNL A   1      47.174  22.022  35.509  1.00  0.00    -0.203 F 
ATOM    113  F   UNL A   1      45.022  25.706  38.907  1.00  0.00    -0.200 F 
ATOM    114  C   UNL A   1      45.506  23.456  38.388  1.00  0.00     0.200 A 
ATOM    115  F   UNL A   1      46.030  21.220  37.828  1.00  0.00    -0.200 F 
ATOM    116  F   UNL A   1      44.969  23.054  39.548  1.00  0.00    -0.200 F 
ENDBRANCH  82 106
BRANCH  94 117
ATOM    117  C   UNL A   1      53.239  25.318  33.907  1.00  0.00     0.064 A 
ATOM    118  C   UNL A   1      54.006  24.146  33.829  1.00  0.00     0.173 A 
ATOM    119  C   UNL A   1      53.764  26.401  34.630  1.00  0.00     0.173 A 
ATOM    120  F   UNL A   1      53.540  23.079  33.163  1.00  0.00    -0.203 F 
ATOM    121  C   UNL A   1      55.241  24.057  34.465  1.00  0.00     0.198 A 
ATOM    122  C   UNL A   1      55.012  26.319  35.240  1.00  0.00     0.198 A 
ATOM    123  F   UNL A   1      53.072  27.546  34.727  1.00  0.00    -0.203 F 
ATOM    124  F   UNL A   1      55.937  22.913  34.413  1.00  0.00    -0.200 F 
ATOM    125  C   UNL A   1      55.746  25.145  35.162  1.00  0.00     0.200 A 
ATOM    126  F   UNL A   1      55.504  27.375  35.899  1.00  0.00    -0.200 F 
ATOM    127  F   UNL A   1      56.939  25.060  35.764  1.00  0.00    -0.200 F 
ENDBRANCH  94 117
ENDBRANCH  68  69
ENDBRANCH  61  63
ENDBRANCH  60  61
ENDBRANCH  59  60
ENDBRANCH  58  59
ENDBRANCH  57  58
ENDBRANCH  56  57
ENDBRANCH  55  56
ENDBRANCH  54  55
ENDBRANCH  53  54
ENDBRANCH   1  53
TORSDOF 33
ENDMDL
MODEL 3
REMARK VINA RESULT:      -5.1      7.378     13.114
REMARK SMILES O=C(N[C@@H](Cc1ccc(O)cc1)C(=O)N[C@@H](Cc1c[nH]c2ccccc12)C(=O)N[C@@H](CO)C(=O)OCCOCCOCCOCCOC(=O)c1ccc(-c2c3nc(c(-c4c(F)c(F)c(F)c(F)c4F)c4ccc([nH]4)c(-c4c(F)c(F)c(F)c(F)c4F)c4nc(c(-c5c(F)c(F)c(F)c(F)c5F)c5ccc2[nH]5)C=C4)C=C3)cc1)c1ccc(F)cc1
REMARK SMILES IDX 39 1 38 2 37 3 36 4 35 5 33 6 34 7 30 8 29 9 27 10 28 11
REMARK SMILES IDX 16 13 15 14 13 15 14 16 4 18 3 19 1 20 2 21 113 23 114 24
REMARK SMILES IDX 119 25 115 26 118 27 116 28 117 29 5 30 6 31 7 32 12 33 8 34
REMARK SMILES IDX 11 35 9 36 10 37 17 39 18 40 19 41 26 42 20 43 21 44 25 45
REMARK SMILES IDX 22 47 24 48 23 49 31 50 32 51 40 53 41 54 42 55 43 56 44 57
REMARK SMILES IDX 45 58 46 59 47 60 48 61 49 62 50 63 51 64 112 65 52 66
REMARK SMILES IDX 111 67 53 68 54 69 55 70 105 71 56 72 110 73 104 74 106 75
REMARK SMILES IDX 57 76 109 77 103 78 102 79 58 81 90 82 70 83 89 84 71 85
REMARK SMILES IDX 74 86 88 87 107 88 72 89 73 90 87 92 108 93 75 94 59 95
REMARK SMILES IDX 60 96 68 97 61 98 62 99 66 100 69 101 63 102 64 103 67 104
REMARK SMILES IDX 65 105 91 106 92 107 100 108 93 109 94 110 98 111 101 112
REMARK SMILES IDX 95 113 96 114 99 115 97 116 76 117 77 118 85 119 78 120
REMARK SMILES IDX 79 121 83 122 86 123 80 124 81 125 84 126 82 127
REMARK H PARENT 29 12 15 17 3 22 10 38 20 46 32 52 106 80 74 91
REMARK Flexibility Score: inf
ROOT
ATOM      1  C   UNL A   1      40.499  29.120  31.022  1.00  0.00     0.188 C 
ENDROOT
BRANCH   1   2
ATOM      2  O   UNL A   1      40.729  28.667  29.683  1.00  0.00    -0.376 OA
BRANCH   2   3
ATOM      3  C   UNL A   1      41.058  27.325  29.259  1.00  0.00     0.202 C 
BRANCH   3   4
ATOM      4  C   UNL A   1      40.617  26.736  27.823  1.00  0.00     0.261 C 
BRANCH   4   5
ATOM      5  O   UNL A   1      39.622  25.602  27.823  1.00  0.00    -0.462 OA
BRANCH   5   6
ATOM      6  C   UNL A   1      39.885  24.489  27.045  1.00  0.00     0.331 C 
ATOM      7  O   UNL A   1      41.044  24.150  26.798  1.00  0.00    -0.250 OA
BRANCH   6   8
ATOM      8  C   UNL A   1      38.643  23.592  26.495  1.00  0.00     0.218 C 
BRANCH   8   9
ATOM      9  N   UNL A   1      37.752  23.941  25.342  1.00  0.00    -0.339 N 
ATOM     10  C   UNL A   1      36.837  23.252  24.591  1.00  0.00     0.243 C 
ATOM     11  O   UNL A   1      37.130  23.294  23.376  1.00  0.00    -0.273 OA
ATOM     12  H   UNL A   1      37.847  24.879  25.059  1.00  0.00     0.164 HD
BRANCH  10  13
ATOM     13  C   UNL A   1      35.419  22.512  24.933  1.00  0.00     0.175 C 
BRANCH  13  14
ATOM     14  N   UNL A   1      34.628  23.287  25.896  1.00  0.00    -0.342 N 
ATOM     15  C   UNL A   1      33.789  24.339  25.693  1.00  0.00     0.243 C 
ATOM     16  O   UNL A   1      33.461  24.951  26.721  1.00  0.00    -0.273 OA
ATOM     17  H   UNL A   1      34.719  23.001  26.833  1.00  0.00     0.164 HD
BRANCH  15  18
ATOM     18  C   UNL A   1      33.271  24.852  24.300  1.00  0.00     0.176 C 
BRANCH  18  19
ATOM     19  N   UNL A   1      32.227  24.070  23.625  1.00  0.00    -0.340 N 
ATOM     20  O   UNL A   1      30.186  23.591  22.809  1.00  0.00    -0.269 OA
ATOM     21  C   UNL A   1      30.984  24.446  23.182  1.00  0.00     0.251 C 
ATOM     22  H   UNL A   1      32.456  23.127  23.464  1.00  0.00     0.164 HD
BRANCH  21  23
ATOM     23  C   UNL A   1      30.581  25.862  23.208  1.00  0.00     0.040 A 
ATOM     24  C   UNL A   1      29.637  26.316  24.134  1.00  0.00     0.017 A 
ATOM     25  C   UNL A   1      31.158  26.743  22.285  1.00  0.00     0.017 A 
ATOM     26  C   UNL A   1      29.209  27.641  24.084  1.00  0.00     0.040 A 
ATOM     27  C   UNL A   1      30.733  28.071  22.247  1.00  0.00     0.040 A 
ATOM     28  C   UNL A   1      29.752  28.503  23.136  1.00  0.00     0.123 A 
ATOM     29  F   UNL A   1      29.323  29.769  23.077  1.00  0.00    -0.207 F 
ENDBRANCH  21  23
ENDBRANCH  18  19
BRANCH  18  30
ATOM     30  C   UNL A   1      33.173  26.384  24.092  1.00  0.00     0.070 C 
BRANCH  30  31
ATOM     31  C   UNL A   1      33.343  27.426  25.178  1.00  0.00    -0.045 A 
ATOM     32  C   UNL A   1      34.570  27.968  25.584  1.00  0.00     0.007 A 
ATOM     33  C   UNL A   1      32.203  27.778  25.925  1.00  0.00     0.007 A 
ATOM     34  C   UNL A   1      34.627  28.939  26.598  1.00  0.00     0.046 A 
ATOM     35  C   UNL A   1      32.257  28.733  26.942  1.00  0.00     0.046 A 
ATOM     36  C   UNL A   1      33.460  29.351  27.228  1.00  0.00     0.115 A 
BRANCH  36  37
ATOM     37  O   UNL A   1      33.450  30.378  28.119  1.00  0.00    -0.508 OA
ATOM     38  H   UNL A   1      34.103  31.049  28.068  1.00  0.00     0.293 HD
ENDBRANCH  36  37
ENDBRANCH  30  31
ENDBRANCH  18  30
ENDBRANCH  15  18
ENDBRANCH  13  14
BRANCH  13  39
ATOM     39  C   UNL A   1      34.415  21.683  24.089  1.00  0.00     0.072 C 
BRANCH  39  40
ATOM     40  C   UNL A   1      33.553  20.775  24.816  1.00  0.00    -0.020 A 
ATOM     41  C   UNL A   1      32.270  20.952  25.282  1.00  0.00     0.087 A 
ATOM     42  C   UNL A   1      33.946  19.447  25.018  1.00  0.00     0.003 A 
ATOM     43  N   UNL A   1      31.781  19.693  25.508  1.00  0.00    -0.361 N 
ATOM     44  C   UNL A   1      32.747  18.797  25.122  1.00  0.00     0.046 A 
ATOM     45  C   UNL A   1      35.136  18.757  24.720  1.00  0.00     0.010 A 
ATOM     46  H   UNL A   1      30.896  19.470  25.879  1.00  0.00     0.166 HD
ATOM     47  C   UNL A   1      32.675  17.502  24.700  1.00  0.00     0.026 A 
ATOM     48  C   UNL A   1      35.066  17.474  24.228  1.00  0.00     0.001 A 
ATOM     49  C   UNL A   1      33.828  16.894  24.159  1.00  0.00     0.002 A 
ENDBRANCH  39  40
ENDBRANCH  13  39
ENDBRANCH  10  13
ENDBRANCH   8   9
BRANCH   8  50
ATOM     50  C   UNL A   1      39.275  22.214  26.173  1.00  0.00     0.193 C 
BRANCH  50  51
ATOM     51  O   UNL A   1      39.837  21.628  27.354  1.00  0.00    -0.394 OA
ATOM     52  H   UNL A   1      39.519  20.716  27.445  1.00  0.00     0.210 HD
ENDBRANCH  50  51
ENDBRANCH   8  50
ENDBRANCH   6   8
ENDBRANCH   5   6
ENDBRANCH   4   5
ENDBRANCH   3   4
ENDBRANCH   2   3
ENDBRANCH   1   2
BRANCH   1  53
ATOM     53  C   UNL A   1      39.598  28.410  32.082  1.00  0.00     0.188 C 
BRANCH  53  54
ATOM     54  O   UNL A   1      38.548  29.149  32.660  1.00  0.00    -0.377 OA
BRANCH  54  55
ATOM     55  C   UNL A   1      38.868  30.248  33.484  1.00  0.00     0.188 C 
BRANCH  55  56
ATOM     56  C   UNL A   1      39.835  29.959  34.641  1.00  0.00     0.188 C 
BRANCH  56  57
ATOM     57  O   UNL A   1      41.236  30.014  34.385  1.00  0.00    -0.376 OA
BRANCH  57  58
ATOM     58  C   UNL A   1      42.145  30.167  35.470  1.00  0.00     0.202 C 
BRANCH  58  59
ATOM     59  C   UNL A   1      43.304  29.168  35.532  1.00  0.00     0.261 C 
BRANCH  59  60
ATOM     60  O   UNL A   1      43.475  28.684  36.876  1.00  0.00    -0.460 OA
BRANCH  60  61
ATOM     61  C   UNL A   1      44.677  28.926  37.429  1.00  0.00     0.338 C 
ATOM     62  O   UNL A   1      45.187  30.020  37.682  1.00  0.00    -0.246 OA
BRANCH  61  63
ATOM     63  C   UNL A   1      45.273  27.666  37.867  1.00  0.00     0.060 A 
ATOM     64  C   UNL A   1      45.205  27.337  39.227  1.00  0.00     0.016 A 
ATOM     65  C   UNL A   1      45.988  26.875  36.968  1.00  0.00     0.016 A 
ATOM     66  C   UNL A   1      45.897  26.231  39.707  1.00  0.00     0.010 A 
ATOM     67  C   UNL A   1      46.702  25.780  37.454  1.00  0.00     0.010 A 
ATOM     68  C   UNL A   1      46.691  25.484  38.829  1.00  0.00    -0.014 A 
BRANCH  68  69
ATOM     69  C   UNL A   1      47.675  24.528  39.375  1.00  0.00     0.031 A 
ATOM     70  C   UNL A   1      47.253  23.097  39.551  1.00  0.00     0.074 A 
ATOM     71  C   UNL A   1      48.914  24.928  39.699  1.00  0.00     0.049 A 
ATOM     72  N   UNL A   1      47.898  22.101  40.100  1.00  0.00    -0.248 NA
ATOM     73  C   UNL A   1      45.919  22.742  39.036  1.00  0.00     0.031 C 
ATOM     74  C   UNL A   1      49.440  26.278  39.509  1.00  0.00     0.029 A 
ATOM     75  N   UNL A   1      49.949  24.236  40.272  1.00  0.00    -0.354 N 
ATOM     76  C   UNL A   1      47.046  21.008  40.006  1.00  0.00     0.074 A 
ATOM     77  C   UNL A   1      45.832  21.462  39.365  1.00  0.00     0.031 C 
ATOM     78  C   UNL A   1      50.696  26.323  39.986  1.00  0.00     0.029 A 
ATOM     79  C   UNL A   1      51.041  25.018  40.546  1.00  0.00     0.049 A 
ATOM     80  H   UNL A   1      49.911  23.272  40.470  1.00  0.00     0.167 HD
ATOM     81  C   UNL A   1      47.264  19.738  40.418  1.00  0.00     0.037 A 
ATOM     82  C   UNL A   1      52.172  24.715  41.211  1.00  0.00     0.037 A 
ATOM     83  C   UNL A   1      48.474  19.303  41.063  1.00  0.00     0.049 A 
ATOM     84  C   UNL A   1      52.353  23.316  41.749  1.00  0.00     0.074 A 
ATOM     85  C   UNL A   1      48.806  18.038  41.513  1.00  0.00     0.029 A 
ATOM     86  N   UNL A   1      49.546  20.131  41.360  1.00  0.00    -0.354 N 
ATOM     87  N   UNL A   1      51.552  22.283  41.645  1.00  0.00    -0.248 NA
ATOM     88  C   UNL A   1      53.585  23.049  42.495  1.00  0.00     0.031 C 
ATOM     89  C   UNL A   1      50.061  18.113  42.129  1.00  0.00     0.029 A 
ATOM     90  C   UNL A   1      50.531  19.412  42.015  1.00  0.00     0.049 A 
ATOM     91  H   UNL A   1      49.600  21.089  41.137  1.00  0.00     0.167 HD
ATOM     92  C   UNL A   1      52.197  21.236  42.296  1.00  0.00     0.074 A 
ATOM     93  C   UNL A   1      53.457  21.759  42.775  1.00  0.00     0.031 C 
ATOM     94  C   UNL A   1      51.781  19.958  42.479  1.00  0.00     0.037 A 
BRANCH  81  95
ATOM     95  C   UNL A   1      46.159  18.744  40.216  1.00  0.00     0.064 A 
ATOM     96  C   UNL A   1      45.328  18.337  41.273  1.00  0.00     0.173 A 
ATOM     97  C   UNL A   1      45.911  18.208  38.944  1.00  0.00     0.173 A 
ATOM     98  F   UNL A   1      45.535  18.806  42.512  1.00  0.00    -0.203 F 
ATOM     99  C   UNL A   1      44.307  17.414  41.065  1.00  0.00     0.198 A 
ATOM    100  C   UNL A   1      44.872  17.306  38.734  1.00  0.00     0.198 A 
ATOM    101  F   UNL A   1      46.676  18.563  37.901  1.00  0.00    -0.203 F 
ATOM    102  F   UNL A   1      43.555  17.006  42.097  1.00  0.00    -0.200 F 
ATOM    103  C   UNL A   1      44.075  16.904  39.796  1.00  0.00     0.200 A 
ATOM    104  F   UNL A   1      44.644  16.822  37.506  1.00  0.00    -0.200 F 
ATOM    105  F   UNL A   1      43.088  16.020  39.597  1.00  0.00    -0.200 F 
ENDBRANCH  81  95
BRANCH  82 106
ATOM    106  C   UNL A   1      53.207  25.757  41.431  1.00  0.00     0.064 A 
ATOM    107  C   UNL A   1      54.259  25.933  40.529  1.00  0.00     0.173 A 
ATOM    108  C   UNL A   1      53.167  26.595  42.560  1.00  0.00     0.173 A 
ATOM    109  F   UNL A   1      54.356  25.143  39.449  1.00  0.00    -0.203 F 
ATOM    110  C   UNL A   1      55.246  26.898  40.749  1.00  0.00     0.198 A 
ATOM    111  C   UNL A   1      54.133  27.573  42.765  1.00  0.00     0.198 A 
ATOM    112  F   UNL A   1      52.178  26.465  43.457  1.00  0.00    -0.203 F 
ATOM    113  F   UNL A   1      56.266  27.014  39.890  1.00  0.00    -0.200 F 
ATOM    114  C   UNL A   1      55.179  27.718  41.861  1.00  0.00     0.200 A 
ATOM    115  F   UNL A   1      54.059  28.374  43.836  1.00  0.00    -0.200 F 
ATOM    116  F   UNL A   1      56.122  28.646  42.071  1.00  0.00    -0.200 F 
ENDBRANCH  82 106
BRANCH  94 117
ATOM    117  C   UNL A   1      52.711  19.032  43.204  1.00  0.00     0.064 A 
ATOM    118  C   UNL A   1      53.617  18.211  42.516  1.00  0.00     0.173 A 
ATOM    119  C   UNL A   1      52.736  19.007  44.608  1.00  0.00     0.173 A 
ATOM    120  F   UNL A   1      53.620  18.189  41.175  1.00  0.00    -0.203 F 
ATOM    121  C   UNL A   1      54.500  17.385  43.206  1.00  0.00     0.198 A 
ATOM    122  C   UNL A   1      53.640  18.203  45.295  1.00  0.00     0.198 A 
ATOM    123  F   UNL A   1      51.895  19.780  45.312  1.00  0.00    -0.203 F 
ATOM    124  F   UNL A   1      55.327  16.579  42.528  1.00  0.00    -0.200 F 
ATOM    125  C   UNL A   1      54.516  17.388  44.593  1.00  0.00     0.200 A 
ATOM    126  F   UNL A   1      53.665  18.217  46.633  1.00  0.00    -0.200 F 
ATOM    127  F   UNL A   1      55.375  16.601  45.255  1.00  0.00    -0.200 F 
ENDBRANCH  94 117
ENDBRANCH  68  69
ENDBRANCH  61  63
ENDBRANCH  60  61
ENDBRANCH  59  60
ENDBRANCH  58  59
ENDBRANCH  57  58
ENDBRANCH  56  57
ENDBRANCH  55  56
ENDBRANCH  54  55
ENDBRANCH  53  54
ENDBRANCH   1  53
TORSDOF 33
ENDMDL
