MODEL 1
REMARK VINA RESULT:     -11.7      0.000      0.000
REMARK SMILES COC(=O)c1ccc([C@H]2CC(=O)Nc3c(C(=O)OCCOCCOCCOCCOC(=O)c4ccc(-c5c6nc(c(-c7c(F)c(F)c(F)c(F)c7F)c7ccc([nH]7)c(-c7c(F)c(F)c(F)c(F)c7F)c7nc(c(-c8c(F)c(F)c(F)c(F)c8F)c8ccc5[nH]8)C=C7)C=C6)cc4)cn(-c4ccccc4)c32)cc1
REMARK SMILES IDX 23 1 22 2 21 3 20 4 19 5 18 6 16 7 17 8 15 9 9 10 10 11
REMARK SMILES IDX 104 12 11 13 14 14 97 15 12 16 13 17 96 18 8 20 5 21 6 22
REMARK SMILES IDX 106 23 7 24 105 25 3 26 4 27 2 28 1 29 98 30 99 31 103 32
REMARK SMILES IDX 100 33 102 34 101 35 24 36 25 37 26 38 27 39 28 40 29 41
REMARK SMILES IDX 30 42 31 43 32 44 33 45 34 46 95 47 35 48 94 49 36 50 37 51
REMARK SMILES IDX 38 52 88 53 39 54 93 55 87 56 89 57 40 58 92 59 86 60 85 61
REMARK SMILES IDX 41 63 73 64 53 65 72 66 54 67 57 68 71 69 90 70 55 71 56 72
REMARK SMILES IDX 70 74 91 75 58 76 42 77 43 78 51 79 44 80 45 81 49 82 52 83
REMARK SMILES IDX 46 84 47 85 50 86 48 87 74 88 75 89 83 90 76 91 77 92 81 93
REMARK SMILES IDX 84 94 78 95 79 96 82 97 80 98 59 99 60 100 68 101 61 102
REMARK SMILES IDX 62 103 66 104 69 105 63 106 64 107 67 108 65 109
REMARK H PARENT 13 19 89 62 57 73
REMARK Flexibility Score: inf
ROOT
ATOM      1  C   UNL A   1      41.831  19.968  26.534  1.00  0.00     0.188 C 
ENDROOT
BRANCH   1   2
ATOM      2  C   UNL A   1      40.347  20.388  26.483  1.00  0.00     0.188 C 
BRANCH   2   3
ATOM      3  O   UNL A   1      40.148  21.737  26.123  1.00  0.00    -0.376 OA
BRANCH   3   4
ATOM      4  C   UNL A   1      38.938  22.416  26.346  1.00  0.00     0.202 C 
BRANCH   4   5
ATOM      5  C   UNL A   1      37.691  22.212  25.474  1.00  0.00     0.261 C 
BRANCH   5   6
ATOM      6  O   UNL A   1      36.711  23.251  25.454  1.00  0.00    -0.460 OA
BRANCH   6   7
ATOM      7  C   UNL A   1      36.168  23.562  24.250  1.00  0.00     0.341 C 
ATOM      8  O   UNL A   1      36.615  23.191  23.167  1.00  0.00    -0.246 OA
BRANCH   7   9
ATOM      9  C   UNL A   1      34.893  24.242  24.410  1.00  0.00     0.102 A 
ATOM     10  C   UNL A   1      31.208  24.686  24.099  1.00  0.00     0.078 C 
ATOM     11  C   UNL A   1      30.947  23.664  22.980  1.00  0.00     0.115 C 
ATOM     12  C   UNL A   1      32.690  24.813  24.349  1.00  0.00     0.055 A 
ATOM     13  C   UNL A   1      31.909  22.489  22.944  1.00  0.00     0.225 C 
ATOM     14  C   UNL A   1      33.604  23.855  23.970  1.00  0.00     0.078 A 
ATOM     15  N   UNL A   1      33.381  25.793  25.043  1.00  0.00    -0.317 N 
ATOM     16  O   UNL A   1      31.570  21.395  22.491  1.00  0.00    -0.275 OA
ATOM     17  N   UNL A   1      33.205  22.712  23.323  1.00  0.00    -0.324 N 
ATOM     18  C   UNL A   1      34.727  25.494  24.986  1.00  0.00     0.109 A 
ATOM     19  H   UNL A   1      33.880  22.023  23.124  1.00  0.00     0.170 HD
BRANCH  10  20
ATOM     20  C   UNL A   1      30.415  25.959  23.803  1.00  0.00    -0.038 A 
ATOM     21  C   UNL A   1      28.918  28.196  22.941  1.00  0.00     0.060 A 
ATOM     22  C   UNL A   1      30.217  27.989  22.465  1.00  0.00     0.016 A 
ATOM     23  C   UNL A   1      28.409  27.340  23.923  1.00  0.00     0.016 A 
ATOM     24  C   UNL A   1      30.955  26.882  22.891  1.00  0.00     0.005 A 
ATOM     25  C   UNL A   1      29.168  26.251  24.376  1.00  0.00     0.005 A 
BRANCH  21  26
ATOM     26  C   UNL A   1      28.121  29.295  22.330  1.00  0.00     0.337 C 
ATOM     27  O   UNL A   1      27.039  29.658  22.766  1.00  0.00    -0.246 OA
BRANCH  26  28
ATOM     28  O   UNL A   1      28.766  29.834  21.266  1.00  0.00    -0.465 OA
ATOM     29  C   UNL A   1      28.717  31.262  21.227  1.00  0.00     0.282 C 
ENDBRANCH  26  28
ENDBRANCH  21  26
ENDBRANCH  10  20
BRANCH  15  30
ATOM     30  C   UNL A   1      32.847  26.901  25.730  1.00  0.00     0.045 A 
ATOM     31  C   UNL A   1      33.246  28.187  25.359  1.00  0.00     0.026 A 
ATOM     32  C   UNL A   1      31.993  26.696  26.820  1.00  0.00     0.026 A 
ATOM     33  C   UNL A   1      32.821  29.278  26.111  1.00  0.00     0.002 A 
ATOM     34  C   UNL A   1      31.609  27.794  27.593  1.00  0.00     0.002 A 
ATOM     35  C   UNL A   1      32.025  29.079  27.240  1.00  0.00     0.000 A 
ENDBRANCH  15  30
ENDBRANCH   7   9
ENDBRANCH   6   7
ENDBRANCH   5   6
ENDBRANCH   4   5
ENDBRANCH   3   4
ENDBRANCH   2   3
ENDBRANCH   1   2
BRANCH   1  36
ATOM     36  O   UNL A   1      42.384  19.249  25.445  1.00  0.00    -0.377 OA
BRANCH  36  37
ATOM     37  C   UNL A   1      43.571  18.476  25.602  1.00  0.00     0.188 C 
BRANCH  37  38
ATOM     38  C   UNL A   1      44.964  18.881  25.041  1.00  0.00     0.188 C 
BRANCH  38  39
ATOM     39  O   UNL A   1      45.084  20.195  24.536  1.00  0.00    -0.376 OA
BRANCH  39  40
ATOM     40  C   UNL A   1      46.004  21.161  24.994  1.00  0.00     0.202 C 
BRANCH  40  41
ATOM     41  C   UNL A   1      45.554  22.265  25.937  1.00  0.00     0.261 C 
BRANCH  41  42
ATOM     42  O   UNL A   1      44.157  22.336  26.098  1.00  0.00    -0.460 OA
BRANCH  42  43
ATOM     43  C   UNL A   1      43.598  23.407  25.514  1.00  0.00     0.338 C 
ATOM     44  O   UNL A   1      43.881  23.896  24.426  1.00  0.00    -0.246 OA
BRANCH  43  45
ATOM     45  C   UNL A   1      42.687  24.013  26.479  1.00  0.00     0.060 A 
ATOM     46  C   UNL A   1      41.752  24.894  25.941  1.00  0.00     0.016 A 
ATOM     47  C   UNL A   1      43.126  24.079  27.810  1.00  0.00     0.016 A 
ATOM     48  C   UNL A   1      41.509  26.045  26.640  1.00  0.00     0.010 A 
ATOM     49  C   UNL A   1      42.919  25.246  28.486  1.00  0.00     0.010 A 
ATOM     50  C   UNL A   1      42.198  26.246  27.843  1.00  0.00    -0.014 A 
BRANCH  50  51
ATOM     51  C   UNL A   1      42.018  27.505  28.515  1.00  0.00     0.031 A 
ATOM     52  C   UNL A   1      43.146  28.408  28.220  1.00  0.00     0.074 A 
ATOM     53  C   UNL A   1      40.909  27.790  29.221  1.00  0.00     0.049 A 
ATOM     54  N   UNL A   1      44.083  28.769  29.028  1.00  0.00    -0.248 NA
ATOM     55  C   UNL A   1      43.407  28.737  26.807  1.00  0.00     0.031 C 
ATOM     56  C   UNL A   1      39.670  27.013  29.315  1.00  0.00     0.029 A 
ATOM     57  N   UNL A   1      40.622  28.907  29.940  1.00  0.00    -0.354 N 
ATOM     58  C   UNL A   1      44.914  29.581  28.268  1.00  0.00     0.074 A 
ATOM     59  C   UNL A   1      44.605  29.313  26.893  1.00  0.00     0.031 C 
ATOM     60  C   UNL A   1      38.697  27.786  29.852  1.00  0.00     0.029 A 
ATOM     61  C   UNL A   1      39.274  29.056  30.252  1.00  0.00     0.049 A 
ATOM     62  H   UNL A   1      41.309  29.555  30.217  1.00  0.00     0.167 HD
ATOM     63  C   UNL A   1      45.495  30.664  28.845  1.00  0.00     0.037 A 
ATOM     64  C   UNL A   1      38.697  30.192  30.722  1.00  0.00     0.037 A 
ATOM     65  C   UNL A   1      45.553  30.503  30.279  1.00  0.00     0.049 A 
ATOM     66  C   UNL A   1      39.789  31.041  31.266  1.00  0.00     0.074 A 
ATOM     67  C   UNL A   1      46.132  29.589  31.138  1.00  0.00     0.029 A 
ATOM     68  N   UNL A   1      44.599  31.161  31.013  1.00  0.00    -0.354 N 
ATOM     69  N   UNL A   1      40.475  30.743  32.335  1.00  0.00    -0.248 NA
ATOM     70  C   UNL A   1      40.423  31.990  30.363  1.00  0.00     0.031 C 
ATOM     71  C   UNL A   1      45.216  29.458  32.225  1.00  0.00     0.029 A 
ATOM     72  C   UNL A   1      44.158  30.342  32.016  1.00  0.00     0.049 A 
ATOM     73  H   UNL A   1      44.281  32.077  30.843  1.00  0.00     0.167 HD
ATOM     74  C   UNL A   1      41.779  31.102  32.027  1.00  0.00     0.074 A 
ATOM     75  C   UNL A   1      41.668  31.956  30.847  1.00  0.00     0.031 C 
ATOM     76  C   UNL A   1      42.829  30.426  32.580  1.00  0.00     0.037 A 
BRANCH  63  77
ATOM     77  C   UNL A   1      45.519  32.028  28.182  1.00  0.00     0.064 A 
ATOM     78  C   UNL A   1      46.729  32.748  28.192  1.00  0.00     0.173 A 
ATOM     79  C   UNL A   1      44.372  32.783  27.835  1.00  0.00     0.173 A 
ATOM     80  F   UNL A   1      47.880  32.142  28.520  1.00  0.00    -0.203 F 
ATOM     81  C   UNL A   1      46.769  34.128  27.978  1.00  0.00     0.198 A 
ATOM     82  C   UNL A   1      44.425  34.148  27.570  1.00  0.00     0.198 A 
ATOM     83  F   UNL A   1      43.135  32.279  27.842  1.00  0.00    -0.203 F 
ATOM     84  F   UNL A   1      47.921  34.790  28.141  1.00  0.00    -0.200 F 
ATOM     85  C   UNL A   1      45.616  34.828  27.677  1.00  0.00     0.200 A 
ATOM     86  F   UNL A   1      43.290  34.809  27.301  1.00  0.00    -0.200 F 
ATOM     87  F   UNL A   1      45.641  36.160  27.540  1.00  0.00    -0.200 F 
ENDBRANCH  63  77
BRANCH  64  88
ATOM     88  C   UNL A   1      37.354  30.747  30.419  1.00  0.00     0.064 A 
ATOM     89  C   UNL A   1      36.501  31.172  31.453  1.00  0.00     0.173 A 
ATOM     90  C   UNL A   1      36.998  31.142  29.116  1.00  0.00     0.173 A 
ATOM     91  F   UNL A   1      36.792  30.881  32.729  1.00  0.00    -0.203 F 
ATOM     92  C   UNL A   1      35.379  31.968  31.200  1.00  0.00     0.198 A 
ATOM     93  C   UNL A   1      35.874  31.931  28.864  1.00  0.00     0.198 A 
ATOM     94  F   UNL A   1      37.787  30.858  28.070  1.00  0.00    -0.203 F 
ATOM     95  F   UNL A   1      34.627  32.409  32.219  1.00  0.00    -0.200 F 
ATOM     96  C   UNL A   1      35.072  32.355  29.906  1.00  0.00     0.200 A 
ATOM     97  F   UNL A   1      35.611  32.331  27.611  1.00  0.00    -0.200 F 
ATOM     98  F   UNL A   1      34.034  33.170  29.670  1.00  0.00    -0.200 F 
ENDBRANCH  64  88
BRANCH  76  99
ATOM     99  C   UNL A   1      42.539  29.544  33.763  1.00  0.00     0.064 A 
ATOM    100  C   UNL A   1      42.141  28.198  33.678  1.00  0.00     0.173 A 
ATOM    101  C   UNL A   1      42.797  30.061  35.040  1.00  0.00     0.173 A 
ATOM    102  F   UNL A   1      41.965  27.604  32.490  1.00  0.00    -0.203 F 
ATOM    103  C   UNL A   1      41.970  27.424  34.826  1.00  0.00     0.198 A 
ATOM    104  C   UNL A   1      42.663  29.276  36.179  1.00  0.00     0.198 A 
ATOM    105  F   UNL A   1      43.225  31.326  35.176  1.00  0.00    -0.203 F 
ATOM    106  F   UNL A   1      41.574  26.147  34.723  1.00  0.00    -0.200 F 
ATOM    107  C   UNL A   1      42.239  27.962  36.074  1.00  0.00     0.200 A 
ATOM    108  F   UNL A   1      42.972  29.788  37.379  1.00  0.00    -0.200 F 
ATOM    109  F   UNL A   1      42.115  27.207  37.174  1.00  0.00    -0.200 F 
ENDBRANCH  76  99
ENDBRANCH  50  51
ENDBRANCH  43  45
ENDBRANCH  42  43
ENDBRANCH  41  42
ENDBRANCH  40  41
ENDBRANCH  39  40
ENDBRANCH  38  39
ENDBRANCH  37  38
ENDBRANCH  36  37
ENDBRANCH   1  36
TORSDOF 24
ENDMDL
MODEL 2
REMARK VINA RESULT:     -11.4      1.925      3.499
REMARK SMILES COC(=O)c1ccc([C@H]2CC(=O)Nc3c(C(=O)OCCOCCOCCOCCOC(=O)c4ccc(-c5c6nc(c(-c7c(F)c(F)c(F)c(F)c7F)c7ccc([nH]7)c(-c7c(F)c(F)c(F)c(F)c7F)c7nc(c(-c8c(F)c(F)c(F)c(F)c8F)c8ccc5[nH]8)C=C7)C=C6)cc4)cn(-c4ccccc4)c32)cc1
REMARK SMILES IDX 23 1 22 2 21 3 20 4 19 5 18 6 16 7 17 8 15 9 9 10 10 11
REMARK SMILES IDX 104 12 11 13 14 14 97 15 12 16 13 17 96 18 8 20 5 21 6 22
REMARK SMILES IDX 106 23 7 24 105 25 3 26 4 27 2 28 1 29 98 30 99 31 103 32
REMARK SMILES IDX 100 33 102 34 101 35 24 36 25 37 26 38 27 39 28 40 29 41
REMARK SMILES IDX 30 42 31 43 32 44 33 45 34 46 95 47 35 48 94 49 36 50 37 51
REMARK SMILES IDX 38 52 88 53 39 54 93 55 87 56 89 57 40 58 92 59 86 60 85 61
REMARK SMILES IDX 41 63 73 64 53 65 72 66 54 67 57 68 71 69 90 70 55 71 56 72
REMARK SMILES IDX 70 74 91 75 58 76 42 77 43 78 51 79 44 80 45 81 49 82 52 83
REMARK SMILES IDX 46 84 47 85 50 86 48 87 74 88 75 89 83 90 76 91 77 92 81 93
REMARK SMILES IDX 84 94 78 95 79 96 82 97 80 98 59 99 60 100 68 101 61 102
REMARK SMILES IDX 62 103 66 104 69 105 63 106 64 107 67 108 65 109
REMARK H PARENT 13 19 89 62 57 73
REMARK Flexibility Score: inf
ROOT
ATOM      1  C   UNL A   1      34.283  23.136  27.189  1.00  0.00     0.188 C 
ENDROOT
BRANCH   1   2
ATOM      2  C   UNL A   1      34.452  21.602  27.170  1.00  0.00     0.188 C 
BRANCH   2   3
ATOM      3  O   UNL A   1      33.232  20.894  27.147  1.00  0.00    -0.376 OA
BRANCH   3   4
ATOM      4  C   UNL A   1      33.123  19.579  26.661  1.00  0.00     0.202 C 
BRANCH   4   5
ATOM      5  C   UNL A   1      33.272  19.221  25.176  1.00  0.00     0.261 C 
BRANCH   5   6
ATOM      6  O   UNL A   1      33.589  20.272  24.262  1.00  0.00    -0.460 OA
BRANCH   6   7
ATOM      7  C   UNL A   1      32.584  20.727  23.473  1.00  0.00     0.341 C 
ATOM      8  O   UNL A   1      31.862  20.012  22.781  1.00  0.00    -0.246 OA
BRANCH   7   9
ATOM      9  C   UNL A   1      32.354  22.147  23.684  1.00  0.00     0.102 A 
ATOM     10  C   UNL A   1      31.008  25.159  25.412  1.00  0.00     0.078 C 
ATOM     11  C   UNL A   1      29.902  24.478  26.235  1.00  0.00     0.115 C 
ATOM     12  C   UNL A   1      31.657  24.160  24.488  1.00  0.00     0.055 A 
ATOM     13  C   UNL A   1      30.182  23.035  26.620  1.00  0.00     0.225 C 
ATOM     14  C   UNL A   1      31.586  22.798  24.680  1.00  0.00     0.078 A 
ATOM     15  N   UNL A   1      32.477  24.381  23.394  1.00  0.00    -0.317 N 
ATOM     16  O   UNL A   1      29.696  22.536  27.635  1.00  0.00    -0.275 OA
ATOM     17  N   UNL A   1      30.899  22.267  25.743  1.00  0.00    -0.324 N 
ATOM     18  C   UNL A   1      32.810  23.158  22.850  1.00  0.00     0.109 A 
ATOM     19  H   UNL A   1      30.925  21.293  25.881  1.00  0.00     0.170 HD
BRANCH  10  20
ATOM     20  C   UNL A   1      30.452  26.448  24.806  1.00  0.00    -0.038 A 
ATOM     21  C   UNL A   1      29.712  28.848  23.511  1.00  0.00     0.060 A 
ATOM     22  C   UNL A   1      30.751  28.842  24.447  1.00  0.00     0.016 A 
ATOM     23  C   UNL A   1      28.979  27.676  23.300  1.00  0.00     0.016 A 
ATOM     24  C   UNL A   1      31.117  27.654  25.085  1.00  0.00     0.005 A 
ATOM     25  C   UNL A   1      29.325  26.494  23.971  1.00  0.00     0.005 A 
BRANCH  21  26
ATOM     26  C   UNL A   1      29.475  30.101  22.744  1.00  0.00     0.337 C 
ATOM     27  O   UNL A   1      29.628  30.184  21.535  1.00  0.00    -0.246 OA
BRANCH  26  28
ATOM     28  O   UNL A   1      29.053  31.101  23.557  1.00  0.00    -0.465 OA
ATOM     29  C   UNL A   1      27.634  31.272  23.569  1.00  0.00     0.282 C 
ENDBRANCH  26  28
ENDBRANCH  21  26
ENDBRANCH  10  20
BRANCH  15  30
ATOM     30  C   UNL A   1      32.944  25.617  22.904  1.00  0.00     0.045 A 
ATOM     31  C   UNL A   1      33.886  26.332  23.648  1.00  0.00     0.026 A 
ATOM     32  C   UNL A   1      32.401  26.147  21.727  1.00  0.00     0.026 A 
ATOM     33  C   UNL A   1      34.258  27.607  23.235  1.00  0.00     0.002 A 
ATOM     34  C   UNL A   1      32.750  27.444  21.346  1.00  0.00     0.002 A 
ATOM     35  C   UNL A   1      33.673  28.171  22.101  1.00  0.00     0.000 A 
ENDBRANCH  15  30
ENDBRANCH   7   9
ENDBRANCH   6   7
ENDBRANCH   5   6
ENDBRANCH   4   5
ENDBRANCH   3   4
ENDBRANCH   2   3
ENDBRANCH   1   2
BRANCH   1  36
ATOM     36  O   UNL A   1      35.030  23.925  26.279  1.00  0.00    -0.377 OA
BRANCH  36  37
ATOM     37  C   UNL A   1      35.425  23.408  25.011  1.00  0.00     0.188 C 
BRANCH  37  38
ATOM     38  C   UNL A   1      36.900  23.305  24.526  1.00  0.00     0.188 C 
BRANCH  38  39
ATOM     39  O   UNL A   1      37.359  22.017  24.169  1.00  0.00    -0.376 OA
BRANCH  39  40
ATOM     40  C   UNL A   1      37.680  20.988  25.078  1.00  0.00     0.202 C 
BRANCH  40  41
ATOM     41  C   UNL A   1      39.001  21.009  25.828  1.00  0.00     0.261 C 
BRANCH  41  42
ATOM     42  O   UNL A   1      39.222  22.198  26.551  1.00  0.00    -0.460 OA
BRANCH  42  43
ATOM     43  C   UNL A   1      40.343  22.183  27.289  1.00  0.00     0.338 C 
ATOM     44  O   UNL A   1      40.663  21.362  28.143  1.00  0.00    -0.246 OA
BRANCH  43  45
ATOM     45  C   UNL A   1      41.063  23.423  27.025  1.00  0.00     0.060 A 
ATOM     46  C   UNL A   1      42.208  23.620  27.794  1.00  0.00     0.016 A 
ATOM     47  C   UNL A   1      40.326  24.477  26.463  1.00  0.00     0.016 A 
ATOM     48  C   UNL A   1      42.423  24.882  28.277  1.00  0.00     0.010 A 
ATOM     49  C   UNL A   1      40.514  25.725  26.981  1.00  0.00     0.010 A 
ATOM     50  C   UNL A   1      41.495  25.880  27.954  1.00  0.00    -0.014 A 
BRANCH  50  51
ATOM     51  C   UNL A   1      41.670  27.176  28.554  1.00  0.00     0.031 A 
ATOM     52  C   UNL A   1      42.875  27.831  28.012  1.00  0.00     0.074 A 
ATOM     53  C   UNL A   1      40.775  27.698  29.411  1.00  0.00     0.049 A 
ATOM     54  N   UNL A   1      43.990  28.035  28.626  1.00  0.00    -0.248 NA
ATOM     55  C   UNL A   1      42.940  28.047  26.555  1.00  0.00     0.031 C 
ATOM     56  C   UNL A   1      39.450  27.180  29.765  1.00  0.00     0.029 A 
ATOM     57  N   UNL A   1      40.830  28.877  30.085  1.00  0.00    -0.354 N 
ATOM     58  C   UNL A   1      44.810  28.640  27.682  1.00  0.00     0.074 A 
ATOM     59  C   UNL A   1      44.220  28.382  26.400  1.00  0.00     0.031 C 
ATOM     60  C   UNL A   1      38.746  28.147  30.398  1.00  0.00     0.029 A 
ATOM     61  C   UNL A   1      39.609  29.297  30.603  1.00  0.00     0.049 A 
ATOM     62  H   UNL A   1      41.661  29.390  30.197  1.00  0.00     0.167 HD
ATOM     63  C   UNL A   1      45.673  29.613  28.075  1.00  0.00     0.037 A 
ATOM     64  C   UNL A   1      39.342  30.541  31.078  1.00  0.00     0.037 A 
ATOM     65  C   UNL A   1      45.951  29.500  29.487  1.00  0.00     0.049 A 
ATOM     66  C   UNL A   1      40.650  31.183  31.372  1.00  0.00     0.074 A 
ATOM     67  C   UNL A   1      46.494  28.526  30.303  1.00  0.00     0.029 A 
ATOM     68  N   UNL A   1      45.278  30.359  30.319  1.00  0.00    -0.354 N 
ATOM     69  N   UNL A   1      41.447  30.801  32.331  1.00  0.00    -0.248 NA
ATOM     70  C   UNL A   1      41.278  31.954  30.310  1.00  0.00     0.031 C 
ATOM     71  C   UNL A   1      45.775  28.618  31.533  1.00  0.00     0.029 A 
ATOM     72  C   UNL A   1      44.878  29.682  31.437  1.00  0.00     0.049 A 
ATOM     73  H   UNL A   1      45.109  31.313  30.138  1.00  0.00     0.167 HD
ATOM     74  C   UNL A   1      42.719  30.888  31.787  1.00  0.00     0.074 A 
ATOM     75  C   UNL A   1      42.561  31.700  30.583  1.00  0.00     0.031 C 
ATOM     76  C   UNL A   1      43.708  30.044  32.206  1.00  0.00     0.037 A 
BRANCH  63  77
ATOM     77  C   UNL A   1      45.830  30.919  27.319  1.00  0.00     0.064 A 
ATOM     78  C   UNL A   1      47.133  31.368  27.039  1.00  0.00     0.173 A 
ATOM     79  C   UNL A   1      44.809  31.885  27.148  1.00  0.00     0.173 A 
ATOM     80  F   UNL A   1      48.183  30.545  27.180  1.00  0.00    -0.203 F 
ATOM     81  C   UNL A   1      47.402  32.701  26.719  1.00  0.00     0.198 A 
ATOM     82  C   UNL A   1      45.077  33.200  26.776  1.00  0.00     0.198 A 
ATOM     83  F   UNL A   1      43.525  31.653  27.434  1.00  0.00    -0.203 F 
ATOM     84  F   UNL A   1      48.672  33.112  26.604  1.00  0.00    -0.200 F 
ATOM     85  C   UNL A   1      46.375  33.618  26.598  1.00  0.00     0.200 A 
ATOM     86  F   UNL A   1      44.065  34.075  26.686  1.00  0.00    -0.200 F 
ATOM     87  F   UNL A   1      46.635  34.909  26.359  1.00  0.00    -0.200 F 
ENDBRANCH  63  77
BRANCH  64  88
ATOM     88  C   UNL A   1      38.092  31.332  30.963  1.00  0.00     0.064 A 
ATOM     89  C   UNL A   1      37.528  31.611  29.705  1.00  0.00     0.173 A 
ATOM     90  C   UNL A   1      37.271  31.579  32.080  1.00  0.00     0.173 A 
ATOM     91  F   UNL A   1      38.223  31.359  28.585  1.00  0.00    -0.203 F 
ATOM     92  C   UNL A   1      36.217  32.078  29.573  1.00  0.00     0.198 A 
ATOM     93  C   UNL A   1      35.964  32.051  31.947  1.00  0.00     0.198 A 
ATOM     94  F   UNL A   1      37.684  31.272  33.318  1.00  0.00    -0.203 F 
ATOM     95  F   UNL A   1      35.693  32.267  28.353  1.00  0.00    -0.200 F 
ATOM     96  C   UNL A   1      35.432  32.288  30.694  1.00  0.00     0.200 A 
ATOM     97  F   UNL A   1      35.203  32.213  33.040  1.00  0.00    -0.200 F 
ATOM     98  F   UNL A   1      34.155  32.674  30.567  1.00  0.00    -0.200 F 
ENDBRANCH  64  88
BRANCH  76  99
ATOM     99  C   UNL A   1      43.473  29.283  33.482  1.00  0.00     0.064 A 
ATOM    100  C   UNL A   1      42.848  28.026  33.559  1.00  0.00     0.173 A 
ATOM    101  C   UNL A   1      44.021  29.804  34.661  1.00  0.00     0.173 A 
ATOM    102  F   UNL A   1      42.381  27.419  32.459  1.00  0.00    -0.203 F 
ATOM    103  C   UNL A   1      42.741  27.348  34.774  1.00  0.00     0.198 A 
ATOM    104  C   UNL A   1      43.948  29.108  35.863  1.00  0.00     0.198 A 
ATOM    105  F   UNL A   1      44.672  30.978  34.636  1.00  0.00    -0.203 F 
ATOM    106  F   UNL A   1      42.125  26.158  34.828  1.00  0.00    -0.200 F 
ATOM    107  C   UNL A   1      43.298  27.887  35.922  1.00  0.00     0.200 A 
ATOM    108  F   UNL A   1      44.532  29.611  36.959  1.00  0.00    -0.200 F 
ATOM    109  F   UNL A   1      43.233  27.217  37.081  1.00  0.00    -0.200 F 
ENDBRANCH  76  99
ENDBRANCH  50  51
ENDBRANCH  43  45
ENDBRANCH  42  43
ENDBRANCH  41  42
ENDBRANCH  40  41
ENDBRANCH  39  40
ENDBRANCH  38  39
ENDBRANCH  37  38
ENDBRANCH  36  37
ENDBRANCH   1  36
TORSDOF 24
ENDMDL
MODEL 3
REMARK VINA RESULT:     -10.0      3.785      7.006
REMARK SMILES COC(=O)c1ccc([C@H]2CC(=O)Nc3c(C(=O)OCCOCCOCCOCCOC(=O)c4ccc(-c5c6nc(c(-c7c(F)c(F)c(F)c(F)c7F)c7ccc([nH]7)c(-c7c(F)c(F)c(F)c(F)c7F)c7nc(c(-c8c(F)c(F)c(F)c(F)c8F)c8ccc5[nH]8)C=C7)C=C6)cc4)cn(-c4ccccc4)c32)cc1
REMARK SMILES IDX 23 1 22 2 21 3 20 4 19 5 18 6 16 7 17 8 15 9 9 10 10 11
REMARK SMILES IDX 104 12 11 13 14 14 97 15 12 16 13 17 96 18 8 20 5 21 6 22
REMARK SMILES IDX 106 23 7 24 105 25 3 26 4 27 2 28 1 29 98 30 99 31 103 32
REMARK SMILES IDX 100 33 102 34 101 35 24 36 25 37 26 38 27 39 28 40 29 41
REMARK SMILES IDX 30 42 31 43 32 44 33 45 34 46 95 47 35 48 94 49 36 50 37 51
REMARK SMILES IDX 38 52 88 53 39 54 93 55 87 56 89 57 40 58 92 59 86 60 85 61
REMARK SMILES IDX 41 63 73 64 53 65 72 66 54 67 57 68 71 69 90 70 55 71 56 72
REMARK SMILES IDX 70 74 91 75 58 76 42 77 43 78 51 79 44 80 45 81 49 82 52 83
REMARK SMILES IDX 46 84 47 85 50 86 48 87 74 88 75 89 83 90 76 91 77 92 81 93
REMARK SMILES IDX 84 94 78 95 79 96 82 97 80 98 59 99 60 100 68 101 61 102
REMARK SMILES IDX 62 103 66 104 69 105 63 106 64 107 67 108 65 109
REMARK H PARENT 13 19 89 62 57 73
REMARK Flexibility Score: inf
ROOT
ATOM      1  C   UNL A   1      39.152  28.093  28.659  1.00  0.00     0.188 C 
ENDROOT
BRANCH   1   2
ATOM      2  C   UNL A   1      39.135  29.361  27.780  1.00  0.00     0.188 C 
BRANCH   2   3
ATOM      3  O   UNL A   1      37.903  30.048  27.790  1.00  0.00    -0.376 OA
BRANCH   3   4
ATOM      4  C   UNL A   1      36.681  29.419  28.084  1.00  0.00     0.202 C 
BRANCH   4   5
ATOM      5  C   UNL A   1      35.384  29.712  27.318  1.00  0.00     0.261 C 
BRANCH   5   6
ATOM      6  O   UNL A   1      34.373  28.703  27.302  1.00  0.00    -0.460 OA
BRANCH   6   7
ATOM      7  C   UNL A   1      33.536  28.686  26.234  1.00  0.00     0.341 C 
ATOM      8  O   UNL A   1      33.039  29.687  25.722  1.00  0.00    -0.246 OA
BRANCH   7   9
ATOM      9  C   UNL A   1      33.440  27.352  25.665  1.00  0.00     0.102 A 
ATOM     10  C   UNL A   1      31.841  24.555  23.796  1.00  0.00     0.078 C 
ATOM     11  C   UNL A   1      30.382  25.037  23.865  1.00  0.00     0.115 C 
ATOM     12  C   UNL A   1      32.726  25.465  24.611  1.00  0.00     0.055 A 
ATOM     13  C   UNL A   1      30.203  26.544  23.933  1.00  0.00     0.225 C 
ATOM     14  C   UNL A   1      32.367  26.746  24.968  1.00  0.00     0.078 A 
ATOM     15  N   UNL A   1      34.021  25.259  25.056  1.00  0.00    -0.317 N 
ATOM     16  O   UNL A   1      29.189  27.090  23.499  1.00  0.00    -0.275 OA
ATOM     17  N   UNL A   1      31.154  27.271  24.596  1.00  0.00    -0.324 N 
ATOM     18  C   UNL A   1      34.408  26.365  25.783  1.00  0.00     0.109 A 
ATOM     19  H   UNL A   1      30.961  28.211  24.816  1.00  0.00     0.170 HD
BRANCH  10  20
ATOM     20  C   UNL A   1      31.882  23.055  24.089  1.00  0.00    -0.038 A 
ATOM     21  C   UNL A   1      32.289  20.300  24.569  1.00  0.00     0.060 A 
ATOM     22  C   UNL A   1      32.432  20.821  23.279  1.00  0.00     0.016 A 
ATOM     23  C   UNL A   1      31.845  21.139  25.596  1.00  0.00     0.016 A 
ATOM     24  C   UNL A   1      32.232  22.184  23.044  1.00  0.00     0.005 A 
ATOM     25  C   UNL A   1      31.608  22.499  25.348  1.00  0.00     0.005 A 
BRANCH  21  26
ATOM     26  C   UNL A   1      32.674  18.880  24.791  1.00  0.00     0.337 C 
ATOM     27  O   UNL A   1      32.266  18.215  25.731  1.00  0.00    -0.246 OA
BRANCH  26  28
ATOM     28  O   UNL A   1      33.500  18.437  23.810  1.00  0.00    -0.465 OA
ATOM     29  C   UNL A   1      34.629  17.707  24.296  1.00  0.00     0.282 C 
ENDBRANCH  26  28
ENDBRANCH  21  26
ENDBRANCH  10  20
BRANCH  15  30
ATOM     30  C   UNL A   1      34.850  24.146  24.810  1.00  0.00     0.045 A 
ATOM     31  C   UNL A   1      35.398  23.977  23.536  1.00  0.00     0.026 A 
ATOM     32  C   UNL A   1      35.046  23.189  25.813  1.00  0.00     0.026 A 
ATOM     33  C   UNL A   1      36.114  22.819  23.249  1.00  0.00     0.002 A 
ATOM     34  C   UNL A   1      35.728  22.012  25.500  1.00  0.00     0.002 A 
ATOM     35  C   UNL A   1      36.258  21.829  24.221  1.00  0.00     0.000 A 
ENDBRANCH  15  30
ENDBRANCH   7   9
ENDBRANCH   6   7
ENDBRANCH   5   6
ENDBRANCH   4   5
ENDBRANCH   3   4
ENDBRANCH   2   3
ENDBRANCH   1   2
BRANCH   1  36
ATOM     36  O   UNL A   1      38.953  26.828  28.053  1.00  0.00    -0.377 OA
BRANCH  36  37
ATOM     37  C   UNL A   1      40.034  26.127  27.443  1.00  0.00     0.188 C 
BRANCH  37  38
ATOM     38  C   UNL A   1      40.491  24.696  27.845  1.00  0.00     0.188 C 
BRANCH  38  39
ATOM     39  O   UNL A   1      40.210  23.661  26.927  1.00  0.00    -0.376 OA
BRANCH  39  40
ATOM     40  C   UNL A   1      40.173  22.286  27.237  1.00  0.00     0.202 C 
BRANCH  40  41
ATOM     41  C   UNL A   1      41.411  21.423  27.053  1.00  0.00     0.261 C 
BRANCH  41  42
ATOM     42  O   UNL A   1      42.572  22.158  26.742  1.00  0.00    -0.460 OA
BRANCH  42  43
ATOM     43  C   UNL A   1      43.211  21.723  25.646  1.00  0.00     0.338 C 
ATOM     44  O   UNL A   1      42.981  20.705  25.002  1.00  0.00    -0.246 OA
BRANCH  43  45
ATOM     45  C   UNL A   1      44.361  22.594  25.430  1.00  0.00     0.060 A 
ATOM     46  C   UNL A   1      45.420  22.409  26.317  1.00  0.00     0.016 A 
ATOM     47  C   UNL A   1      44.124  23.803  24.758  1.00  0.00     0.016 A 
ATOM     48  C   UNL A   1      46.040  23.536  26.785  1.00  0.00     0.010 A 
ATOM     49  C   UNL A   1      44.712  24.928  25.258  1.00  0.00     0.010 A 
ATOM     50  C   UNL A   1      45.583  24.780  26.332  1.00  0.00    -0.014 A 
BRANCH  50  51
ATOM     51  C   UNL A   1      46.169  25.960  26.911  1.00  0.00     0.031 A 
ATOM     52  C   UNL A   1      47.635  25.932  26.755  1.00  0.00     0.074 A 
ATOM     53  C   UNL A   1      45.423  26.955  27.422  1.00  0.00     0.049 A 
ATOM     54  N   UNL A   1      48.511  25.744  27.682  1.00  0.00    -0.248 NA
ATOM     55  C   UNL A   1      48.176  25.840  25.386  1.00  0.00     0.031 C 
ATOM     56  C   UNL A   1      43.968  27.123  27.356  1.00  0.00     0.029 A 
ATOM     57  N   UNL A   1      45.833  28.095  28.037  1.00  0.00    -0.354 N 
ATOM     58  C   UNL A   1      49.734  25.766  27.025  1.00  0.00     0.074 A 
ATOM     59  C   UNL A   1      49.456  25.565  25.632  1.00  0.00     0.031 C 
ATOM     60  C   UNL A   1      43.649  28.392  27.701  1.00  0.00     0.029 A 
ATOM     61  C   UNL A   1      44.853  29.080  28.128  1.00  0.00     0.049 A 
ATOM     62  H   UNL A   1      46.744  28.215  28.388  1.00  0.00     0.167 HD
ATOM     63  C   UNL A   1      50.808  26.329  27.636  1.00  0.00     0.037 A 
ATOM     64  C   UNL A   1      45.074  30.380  28.451  1.00  0.00     0.037 A 
ATOM     65  C   UNL A   1      50.617  26.357  29.068  1.00  0.00     0.049 A 
ATOM     66  C   UNL A   1      46.400  30.443  29.120  1.00  0.00     0.074 A 
ATOM     67  C   UNL A   1      50.412  25.404  30.046  1.00  0.00     0.029 A 
ATOM     68  N   UNL A   1      50.221  27.552  29.613  1.00  0.00    -0.354 N 
ATOM     69  N   UNL A   1      46.644  29.932  30.295  1.00  0.00    -0.248 NA
ATOM     70  C   UNL A   1      47.569  30.673  28.285  1.00  0.00     0.031 C 
ATOM     71  C   UNL A   1      49.519  26.008  30.982  1.00  0.00     0.029 A 
ATOM     72  C   UNL A   1      49.274  27.318  30.571  1.00  0.00     0.049 A 
ATOM     73  H   UNL A   1      50.565  28.438  29.356  1.00  0.00     0.167 HD
ATOM     74  C   UNL A   1      47.907  29.371  30.178  1.00  0.00     0.074 A 
ATOM     75  C   UNL A   1      48.466  29.947  28.958  1.00  0.00     0.031 C 
ATOM     76  C   UNL A   1      48.245  28.273  30.917  1.00  0.00     0.037 A 
BRANCH  63  77
ATOM     77  C   UNL A   1      51.742  27.288  26.924  1.00  0.00     0.064 A 
ATOM     78  C   UNL A   1      53.128  27.096  27.073  1.00  0.00     0.173 A 
ATOM     79  C   UNL A   1      51.363  28.542  26.386  1.00  0.00     0.173 A 
ATOM     80  F   UNL A   1      53.606  25.952  27.587  1.00  0.00    -0.203 F 
ATOM     81  C   UNL A   1      54.049  28.112  26.808  1.00  0.00     0.198 A 
ATOM     82  C   UNL A   1      52.288  29.534  26.072  1.00  0.00     0.198 A 
ATOM     83  F   UNL A   1      50.091  28.921  26.240  1.00  0.00    -0.203 F 
ATOM     84  F   UNL A   1      55.342  27.930  27.103  1.00  0.00    -0.200 F 
ATOM     85  C   UNL A   1      53.627  29.334  26.317  1.00  0.00     0.200 A 
ATOM     86  F   UNL A   1      51.852  30.717  25.617  1.00  0.00    -0.200 F 
ATOM     87  F   UNL A   1      54.498  30.332  26.127  1.00  0.00    -0.200 F 
ENDBRANCH  63  77
BRANCH  64  88
ATOM     88  C   UNL A   1      44.410  31.596  27.919  1.00  0.00     0.064 A 
ATOM     89  C   UNL A   1      43.735  32.483  28.776  1.00  0.00     0.173 A 
ATOM     90  C   UNL A   1      44.668  32.066  26.617  1.00  0.00     0.173 A 
ATOM     91  F   UNL A   1      43.491  32.135  30.048  1.00  0.00    -0.203 F 
ATOM     92  C   UNL A   1      43.370  33.769  28.366  1.00  0.00     0.198 A 
ATOM     93  C   UNL A   1      44.298  33.348  26.206  1.00  0.00     0.198 A 
ATOM     94  F   UNL A   1      45.376  31.331  25.747  1.00  0.00    -0.203 F 
ATOM     95  F   UNL A   1      42.789  34.609  29.234  1.00  0.00    -0.200 F 
ATOM     96  C   UNL A   1      43.662  34.205  27.084  1.00  0.00     0.200 A 
ATOM     97  F   UNL A   1      44.621  33.770  24.975  1.00  0.00    -0.200 F 
ATOM     98  F   UNL A   1      43.369  35.458  26.709  1.00  0.00    -0.200 F 
ENDBRANCH  64  88
BRANCH  76  99
ATOM     99  C   UNL A   1      47.357  27.921  32.079  1.00  0.00     0.064 A 
ATOM    100  C   UNL A   1      47.437  28.509  33.353  1.00  0.00     0.173 A 
ATOM    101  C   UNL A   1      46.300  27.032  31.844  1.00  0.00     0.173 A 
ATOM    102  F   UNL A   1      48.363  29.439  33.628  1.00  0.00    -0.203 F 
ATOM    103  C   UNL A   1      46.522  28.185  34.356  1.00  0.00     0.198 A 
ATOM    104  C   UNL A   1      45.366  26.740  32.833  1.00  0.00     0.198 A 
ATOM    105  F   UNL A   1      46.148  26.477  30.631  1.00  0.00    -0.203 F 
ATOM    106  F   UNL A   1      46.626  28.745  35.569  1.00  0.00    -0.200 F 
ATOM    107  C   UNL A   1      45.484  27.307  34.091  1.00  0.00     0.200 A 
ATOM    108  F   UNL A   1      44.337  25.929  32.555  1.00  0.00    -0.200 F 
ATOM    109  F   UNL A   1      44.580  27.026  35.040  1.00  0.00    -0.200 F 
ENDBRANCH  76  99
ENDBRANCH  50  51
ENDBRANCH  43  45
ENDBRANCH  42  43
ENDBRANCH  41  42
ENDBRANCH  40  41
ENDBRANCH  39  40
ENDBRANCH  38  39
ENDBRANCH  37  38
ENDBRANCH  36  37
ENDBRANCH   1  36
TORSDOF 24
ENDMDL
