MODEL 1
REMARK VINA RESULT:     -10.3      0.000      0.000
REMARK SMILES COc1ccc(OC)c([C@H](C(=O)OCCOCCOCCOCCOC(=O)c2ccc(-c3c4nc(c(-c5c(F)c(F)c(F)c(F)c5F)c5ccc([nH]5)c(-c5c(F)c(F)c(F)c(F)c5F)c5nc(c(-c6c(F)c(F)c(F)c(F)c6F)c6ccc3[nH]6)C=C5)C=C4)cc2)[NH+]2CC[NH+](Cc3nccn3C)CC2)c1
REMARK SMILES IDX 18 1 17 2 16 3 15 4 14 5 13 6 11 7 12 8 10 9 9 10 3 11 4 12
REMARK SMILES IDX 104 13 5 14 6 15 2 16 1 17 7 18 8 19 91 20 92 21 103 22
REMARK SMILES IDX 93 24 102 25 94 26 95 28 96 29 97 30 100 31 98 32 99 33
REMARK SMILES IDX 101 34 19 35 20 36 21 37 22 38 23 39 24 40 25 41 26 42 27 43
REMARK SMILES IDX 28 44 29 45 90 46 30 47 89 48 31 49 32 50 33 51 83 52 34 53
REMARK SMILES IDX 88 54 82 55 84 56 35 57 87 58 81 59 80 60 36 62 68 63 48 64
REMARK SMILES IDX 67 65 49 66 52 67 66 68 85 69 50 70 51 71 65 73 86 74 53 75
REMARK SMILES IDX 37 76 38 77 46 78 39 79 40 80 44 81 47 82 41 83 42 84 45 85
REMARK SMILES IDX 43 86 69 87 70 88 78 89 71 90 72 91 76 92 79 93 73 94 74 95
REMARK SMILES IDX 77 96 75 97 54 98 55 99 63 100 56 101 57 102 61 103 64 104
REMARK SMILES IDX 58 105 59 106 62 107 60 108
REMARK H PARENT 91 23 94 27 84 61 52 72
REMARK Flexibility Score: inf
ROOT
ATOM      1  C   UNL A   1      34.907  23.577  25.724  1.00  0.00     0.188 C 
ENDROOT
BRANCH   1   2
ATOM      2  C   UNL A   1      34.019  24.757  26.121  1.00  0.00     0.188 C 
BRANCH   2   3
ATOM      3  O   UNL A   1      34.218  25.972  25.419  1.00  0.00    -0.376 OA
BRANCH   3   4
ATOM      4  C   UNL A   1      33.595  27.151  25.925  1.00  0.00     0.202 C 
BRANCH   4   5
ATOM      5  C   UNL A   1      34.018  28.530  25.415  1.00  0.00     0.261 C 
BRANCH   5   6
ATOM      6  O   UNL A   1      32.943  29.352  24.894  1.00  0.00    -0.459 OA
BRANCH   6   7
ATOM      7  C   UNL A   1      32.395  28.957  23.711  1.00  0.00     0.370 C 
ATOM      8  O   UNL A   1      33.030  28.924  22.656  1.00  0.00    -0.245 OA
BRANCH   7   9
ATOM      9  C   UNL A   1      30.869  28.801  23.709  1.00  0.00     0.330 C 
BRANCH   9  10
ATOM     10  C   UNL A   1      29.934  29.936  23.296  1.00  0.00     0.067 A 
ATOM     11  C   UNL A   1      28.306  30.886  21.729  1.00  0.00     0.119 A 
ATOM     12  C   UNL A   1      28.028  31.923  22.609  1.00  0.00     0.050 A 
ATOM     13  C   UNL A   1      29.250  29.908  22.067  1.00  0.00     0.060 A 
ATOM     14  C   UNL A   1      28.689  31.981  23.832  1.00  0.00     0.051 A 
ATOM     15  C   UNL A   1      29.630  31.001  24.178  1.00  0.00     0.128 A 
BRANCH  11  16
ATOM     16  O   UNL A   1      27.662  30.929  20.522  1.00  0.00    -0.497 OA
ATOM     17  C   UNL A   1      27.924  32.116  19.783  1.00  0.00     0.278 C 
ENDBRANCH  11  16
BRANCH  15  18
ATOM     18  O   UNL A   1      30.310  31.263  25.343  1.00  0.00    -0.496 OA
ATOM     19  C   UNL A   1      30.653  32.630  25.550  1.00  0.00     0.278 C 
ENDBRANCH  15  18
ENDBRANCH   9  10
BRANCH   9  20
ATOM     20  N   UNL A   1      30.453  27.495  23.148  1.00  0.00    -0.310 N 
ATOM     21  C   UNL A   1      31.413  26.783  22.302  1.00  0.00     0.325 C 
ATOM     22  C   UNL A   1      29.764  26.626  24.101  1.00  0.00     0.325 C 
ATOM     23  H   UNL A   1      29.755  27.793  22.467  1.00  0.00     0.349 HD
ATOM     24  C   UNL A   1      32.228  25.636  22.939  1.00  0.00     0.324 C 
ATOM     25  C   UNL A   1      30.625  25.537  24.781  1.00  0.00     0.324 C 
ATOM     26  N   UNL A   1      31.556  24.783  23.933  1.00  0.00    -0.319 N 
ATOM     27  H   UNL A   1      32.276  24.448  24.573  1.00  0.00     0.348 HD
BRANCH  26  28
ATOM     28  C   UNL A   1      30.989  23.559  23.339  1.00  0.00     0.339 C 
BRANCH  28  29
ATOM     29  C   UNL A   1      31.524  22.280  23.905  1.00  0.00     0.164 A 
ATOM     30  N   UNL A   1      31.716  22.047  25.193  1.00  0.00    -0.236 NA
ATOM     31  N   UNL A   1      31.993  21.222  23.160  1.00  0.00    -0.333 N 
ATOM     32  C   UNL A   1      32.498  20.927  25.259  1.00  0.00     0.131 A 
ATOM     33  C   UNL A   1      32.692  20.402  24.007  1.00  0.00     0.107 A 
ATOM     34  C   UNL A   1      31.907  21.021  21.735  1.00  0.00     0.151 C 
ENDBRANCH  28  29
ENDBRANCH  26  28
ENDBRANCH   9  20
ENDBRANCH   7   9
ENDBRANCH   6   7
ENDBRANCH   5   6
ENDBRANCH   4   5
ENDBRANCH   3   4
ENDBRANCH   2   3
ENDBRANCH   1   2
BRANCH   1  35
ATOM     35  O   UNL A   1      35.194  23.454  24.340  1.00  0.00    -0.377 OA
BRANCH  35  36
ATOM     36  C   UNL A   1      36.218  22.567  23.905  1.00  0.00     0.188 C 
BRANCH  36  37
ATOM     37  C   UNL A   1      36.432  21.259  24.660  1.00  0.00     0.188 C 
BRANCH  37  38
ATOM     38  O   UNL A   1      37.774  20.899  24.995  1.00  0.00    -0.376 OA
BRANCH  38  39
ATOM     39  C   UNL A   1      38.146  19.521  24.979  1.00  0.00     0.202 C 
BRANCH  39  40
ATOM     40  C   UNL A   1      39.447  19.225  25.712  1.00  0.00     0.261 C 
BRANCH  40  41
ATOM     41  O   UNL A   1      40.185  20.431  25.955  1.00  0.00    -0.460 OA
BRANCH  41  42
ATOM     42  C   UNL A   1      40.840  20.508  27.134  1.00  0.00     0.338 C 
ATOM     43  O   UNL A   1      41.378  19.621  27.761  1.00  0.00    -0.246 OA
BRANCH  42  44
ATOM     44  C   UNL A   1      40.888  21.928  27.520  1.00  0.00     0.060 A 
ATOM     45  C   UNL A   1      39.975  22.829  26.957  1.00  0.00     0.016 A 
ATOM     46  C   UNL A   1      41.880  22.366  28.397  1.00  0.00     0.016 A 
ATOM     47  C   UNL A   1      40.090  24.193  27.230  1.00  0.00     0.010 A 
ATOM     48  C   UNL A   1      41.984  23.724  28.682  1.00  0.00     0.010 A 
ATOM     49  C   UNL A   1      41.127  24.647  28.056  1.00  0.00    -0.014 A 
BRANCH  49  50
ATOM     50  C   UNL A   1      41.527  26.073  28.077  1.00  0.00     0.031 A 
ATOM     51  C   UNL A   1      42.882  26.414  27.521  1.00  0.00     0.074 A 
ATOM     52  C   UNL A   1      40.754  27.024  28.629  1.00  0.00     0.049 A 
ATOM     53  N   UNL A   1      43.576  27.518  27.622  1.00  0.00    -0.248 NA
ATOM     54  C   UNL A   1      43.563  25.343  26.772  1.00  0.00     0.031 C 
ATOM     55  C   UNL A   1      39.408  26.826  29.156  1.00  0.00     0.029 A 
ATOM     56  N   UNL A   1      41.019  28.350  28.863  1.00  0.00    -0.354 N 
ATOM     57  C   UNL A   1      44.780  27.260  26.980  1.00  0.00     0.074 A 
ATOM     58  C   UNL A   1      44.742  25.889  26.527  1.00  0.00     0.031 C 
ATOM     59  C   UNL A   1      38.969  27.987  29.675  1.00  0.00     0.029 A 
ATOM     60  C   UNL A   1      40.026  28.993  29.559  1.00  0.00     0.049 A 
ATOM     61  H   UNL A   1      41.842  28.797  28.561  1.00  0.00     0.167 HD
ATOM     62  C   UNL A   1      45.822  28.100  26.778  1.00  0.00     0.037 A 
ATOM     63  C   UNL A   1      39.997  30.239  30.073  1.00  0.00     0.037 A 
ATOM     64  C   UNL A   1      45.843  29.466  27.221  1.00  0.00     0.049 A 
ATOM     65  C   UNL A   1      41.201  31.135  29.896  1.00  0.00     0.074 A 
ATOM     66  C   UNL A   1      46.842  30.409  27.060  1.00  0.00     0.029 A 
ATOM     67  N   UNL A   1      44.813  30.084  27.914  1.00  0.00    -0.354 N 
ATOM     68  N   UNL A   1      42.336  30.895  29.284  1.00  0.00    -0.248 NA
ATOM     69  C   UNL A   1      41.118  32.481  30.486  1.00  0.00     0.031 C 
ATOM     70  C   UNL A   1      46.437  31.583  27.702  1.00  0.00     0.029 A 
ATOM     71  C   UNL A   1      45.157  31.393  28.199  1.00  0.00     0.049 A 
ATOM     72  H   UNL A   1      43.963  29.654  28.164  1.00  0.00     0.167 HD
ATOM     73  C   UNL A   1      43.076  32.069  29.369  1.00  0.00     0.074 A 
ATOM     74  C   UNL A   1      42.263  33.021  30.095  1.00  0.00     0.031 C 
ATOM     75  C   UNL A   1      44.314  32.338  28.885  1.00  0.00     0.037 A 
BRANCH  62  76
ATOM     76  C   UNL A   1      47.026  27.556  26.065  1.00  0.00     0.064 A 
ATOM     77  C   UNL A   1      48.084  26.950  26.759  1.00  0.00     0.173 A 
ATOM     78  C   UNL A   1      47.108  27.615  24.666  1.00  0.00     0.173 A 
ATOM     79  F   UNL A   1      48.063  26.884  28.099  1.00  0.00    -0.203 F 
ATOM     80  C   UNL A   1      49.191  26.448  26.080  1.00  0.00     0.198 A 
ATOM     81  C   UNL A   1      48.200  27.079  23.989  1.00  0.00     0.198 A 
ATOM     82  F   UNL A   1      46.124  28.183  23.953  1.00  0.00    -0.203 F 
ATOM     83  F   UNL A   1      50.214  25.923  26.769  1.00  0.00    -0.200 F 
ATOM     84  C   UNL A   1      49.244  26.504  24.696  1.00  0.00     0.200 A 
ATOM     85  F   UNL A   1      48.241  27.122  22.650  1.00  0.00    -0.200 F 
ATOM     86  F   UNL A   1      50.305  26.010  24.044  1.00  0.00    -0.200 F 
ENDBRANCH  62  76
BRANCH  63  87
ATOM     87  C   UNL A   1      38.801  30.722  30.813  1.00  0.00     0.064 A 
ATOM     88  C   UNL A   1      38.714  30.586  32.206  1.00  0.00     0.173 A 
ATOM     89  C   UNL A   1      37.703  31.286  30.146  1.00  0.00     0.173 A 
ATOM     90  F   UNL A   1      39.726  30.029  32.888  1.00  0.00    -0.203 F 
ATOM     91  C   UNL A   1      37.566  30.963  32.899  1.00  0.00     0.198 A 
ATOM     92  C   UNL A   1      36.568  31.695  30.844  1.00  0.00     0.198 A 
ATOM     93  F   UNL A   1      37.731  31.440  28.815  1.00  0.00    -0.203 F 
ATOM     94  F   UNL A   1      37.487  30.760  34.222  1.00  0.00    -0.200 F 
ATOM     95  C   UNL A   1      36.495  31.521  32.218  1.00  0.00     0.200 A 
ATOM     96  F   UNL A   1      35.539  32.243  30.185  1.00  0.00    -0.200 F 
ATOM     97  F   UNL A   1      35.389  31.879  32.884  1.00  0.00    -0.200 F 
ENDBRANCH  63  87
BRANCH  75  98
ATOM     98  C   UNL A   1      44.839  33.737  29.034  1.00  0.00     0.064 A 
ATOM     99  C   UNL A   1      45.588  34.138  30.148  1.00  0.00     0.173 A 
ATOM    100  C   UNL A   1      44.655  34.666  27.997  1.00  0.00     0.173 A 
ATOM    101  F   UNL A   1      45.785  33.293  31.171  1.00  0.00    -0.203 F 
ATOM    102  C   UNL A   1      46.119  35.425  30.227  1.00  0.00     0.198 A 
ATOM    103  C   UNL A   1      45.215  35.938  28.063  1.00  0.00     0.198 A 
ATOM    104  F   UNL A   1      43.955  34.328  26.904  1.00  0.00    -0.203 F 
ATOM    105  F   UNL A   1      46.798  35.800  31.319  1.00  0.00    -0.200 F 
ATOM    106  C   UNL A   1      45.941  36.318  29.181  1.00  0.00     0.200 A 
ATOM    107  F   UNL A   1      45.060  36.791  27.042  1.00  0.00    -0.200 F 
ATOM    108  F   UNL A   1      46.470  37.547  29.250  1.00  0.00    -0.200 F 
ENDBRANCH  75  98
ENDBRANCH  49  50
ENDBRANCH  42  44
ENDBRANCH  41  42
ENDBRANCH  40  41
ENDBRANCH  39  40
ENDBRANCH  38  39
ENDBRANCH  37  38
ENDBRANCH  36  37
ENDBRANCH  35  36
ENDBRANCH   1  35
TORSDOF 26
ENDMDL
MODEL 2
REMARK VINA RESULT:     -10.2      2.994      8.128
REMARK SMILES COc1ccc(OC)c([C@H](C(=O)OCCOCCOCCOCCOC(=O)c2ccc(-c3c4nc(c(-c5c(F)c(F)c(F)c(F)c5F)c5ccc([nH]5)c(-c5c(F)c(F)c(F)c(F)c5F)c5nc(c(-c6c(F)c(F)c(F)c(F)c6F)c6ccc3[nH]6)C=C5)C=C4)cc2)[NH+]2CC[NH+](Cc3nccn3C)CC2)c1
REMARK SMILES IDX 18 1 17 2 16 3 15 4 14 5 13 6 11 7 12 8 10 9 9 10 3 11 4 12
REMARK SMILES IDX 104 13 5 14 6 15 2 16 1 17 7 18 8 19 91 20 92 21 103 22
REMARK SMILES IDX 93 24 102 25 94 26 95 28 96 29 97 30 100 31 98 32 99 33
REMARK SMILES IDX 101 34 19 35 20 36 21 37 22 38 23 39 24 40 25 41 26 42 27 43
REMARK SMILES IDX 28 44 29 45 90 46 30 47 89 48 31 49 32 50 33 51 83 52 34 53
REMARK SMILES IDX 88 54 82 55 84 56 35 57 87 58 81 59 80 60 36 62 68 63 48 64
REMARK SMILES IDX 67 65 49 66 52 67 66 68 85 69 50 70 51 71 65 73 86 74 53 75
REMARK SMILES IDX 37 76 38 77 46 78 39 79 40 80 44 81 47 82 41 83 42 84 45 85
REMARK SMILES IDX 43 86 69 87 70 88 78 89 71 90 72 91 76 92 79 93 73 94 74 95
REMARK SMILES IDX 77 96 75 97 54 98 55 99 63 100 56 101 57 102 61 103 64 104
REMARK SMILES IDX 58 105 59 106 62 107 60 108
REMARK H PARENT 91 23 94 27 84 61 52 72
REMARK Flexibility Score: inf
ROOT
ATOM      1  C   UNL A   1      34.280  32.366  28.428  1.00  0.00     0.188 C 
ENDROOT
BRANCH   1   2
ATOM      2  C   UNL A   1      34.760  30.984  27.983  1.00  0.00     0.188 C 
BRANCH   2   3
ATOM      3  O   UNL A   1      33.925  30.275  27.083  1.00  0.00    -0.376 OA
BRANCH   3   4
ATOM      4  C   UNL A   1      33.594  28.923  27.396  1.00  0.00     0.202 C 
BRANCH   4   5
ATOM      5  C   UNL A   1      32.431  28.228  26.687  1.00  0.00     0.261 C 
BRANCH   5   6
ATOM      6  O   UNL A   1      32.735  26.922  26.136  1.00  0.00    -0.459 OA
BRANCH   6   7
ATOM      7  C   UNL A   1      31.698  26.043  26.045  1.00  0.00     0.370 C 
ATOM      8  O   UNL A   1      31.413  25.247  26.941  1.00  0.00    -0.245 OA
BRANCH   7   9
ATOM      9  C   UNL A   1      31.056  25.920  24.658  1.00  0.00     0.330 C 
BRANCH   9  10
ATOM     10  C   UNL A   1      30.775  27.137  23.778  1.00  0.00     0.067 A 
ATOM     11  C   UNL A   1      29.221  28.826  22.918  1.00  0.00     0.119 A 
ATOM     12  C   UNL A   1      30.266  29.522  22.327  1.00  0.00     0.050 A 
ATOM     13  C   UNL A   1      29.472  27.646  23.630  1.00  0.00     0.060 A 
ATOM     14  C   UNL A   1      31.567  29.043  22.452  1.00  0.00     0.051 A 
ATOM     15  C   UNL A   1      31.825  27.867  23.169  1.00  0.00     0.128 A 
BRANCH  11  16
ATOM     16  O   UNL A   1      27.965  29.324  22.702  1.00  0.00    -0.497 OA
ATOM     17  C   UNL A   1      26.932  28.513  23.250  1.00  0.00     0.278 C 
ENDBRANCH  11  16
BRANCH  15  18
ATOM     18  O   UNL A   1      33.126  27.433  23.086  1.00  0.00    -0.496 OA
ATOM     19  C   UNL A   1      33.630  27.278  21.763  1.00  0.00     0.278 C 
ENDBRANCH  15  18
ENDBRANCH   9  10
BRANCH   9  20
ATOM     20  N   UNL A   1      31.624  24.788  23.890  1.00  0.00    -0.310 N 
ATOM     21  C   UNL A   1      33.022  24.431  24.141  1.00  0.00     0.325 C 
ATOM     22  C   UNL A   1      30.738  23.629  23.789  1.00  0.00     0.325 C 
ATOM     23  H   UNL A   1      31.677  25.197  22.957  1.00  0.00     0.349 HD
ATOM     24  C   UNL A   1      33.306  23.233  25.074  1.00  0.00     0.324 C 
ATOM     25  C   UNL A   1      30.999  22.478  24.788  1.00  0.00     0.324 C 
ATOM     26  N   UNL A   1      32.394  22.080  25.011  1.00  0.00    -0.319 N 
ATOM     27  H   UNL A   1      32.395  21.648  25.935  1.00  0.00     0.348 HD
BRANCH  26  28
ATOM     28  C   UNL A   1      32.879  21.021  24.108  1.00  0.00     0.339 C 
BRANCH  28  29
ATOM     29  C   UNL A   1      32.637  19.624  24.589  1.00  0.00     0.164 A 
ATOM     30  N   UNL A   1      32.620  19.256  25.859  1.00  0.00    -0.236 NA
ATOM     31  N   UNL A   1      32.514  18.519  23.776  1.00  0.00    -0.333 N 
ATOM     32  C   UNL A   1      32.694  17.890  25.855  1.00  0.00     0.131 A 
ATOM     33  C   UNL A   1      32.640  17.410  24.572  1.00  0.00     0.107 A 
ATOM     34  C   UNL A   1      32.400  18.471  22.340  1.00  0.00     0.151 C 
ENDBRANCH  28  29
ENDBRANCH  26  28
ENDBRANCH   9  20
ENDBRANCH   7   9
ENDBRANCH   6   7
ENDBRANCH   5   6
ENDBRANCH   4   5
ENDBRANCH   3   4
ENDBRANCH   2   3
ENDBRANCH   1   2
BRANCH   1  35
ATOM     35  O   UNL A   1      34.816  33.468  27.714  1.00  0.00    -0.377 OA
BRANCH  35  36
ATOM     36  C   UNL A   1      34.368  34.787  28.007  1.00  0.00     0.188 C 
BRANCH  36  37
ATOM     37  C   UNL A   1      33.439  35.004  29.196  1.00  0.00     0.188 C 
BRANCH  37  38
ATOM     38  O   UNL A   1      33.998  35.584  30.376  1.00  0.00    -0.376 OA
BRANCH  38  39
ATOM     39  C   UNL A   1      33.458  35.223  31.648  1.00  0.00     0.202 C 
BRANCH  39  40
ATOM     40  C   UNL A   1      34.405  34.395  32.507  1.00  0.00     0.261 C 
BRANCH  40  41
ATOM     41  O   UNL A   1      35.473  33.852  31.717  1.00  0.00    -0.460 OA
BRANCH  41  42
ATOM     42  C   UNL A   1      35.736  32.537  31.884  1.00  0.00     0.338 C 
ATOM     43  O   UNL A   1      34.989  31.657  32.253  1.00  0.00    -0.246 OA
BRANCH  42  44
ATOM     44  C   UNL A   1      37.118  32.303  31.432  1.00  0.00     0.060 A 
ATOM     45  C   UNL A   1      37.469  32.583  30.106  1.00  0.00     0.016 A 
ATOM     46  C   UNL A   1      38.043  31.751  32.318  1.00  0.00     0.016 A 
ATOM     47  C   UNL A   1      38.744  32.254  29.643  1.00  0.00     0.010 A 
ATOM     48  C   UNL A   1      39.319  31.438  31.861  1.00  0.00     0.010 A 
ATOM     49  C   UNL A   1      39.655  31.635  30.510  1.00  0.00    -0.014 A 
BRANCH  49  50
ATOM     50  C   UNL A   1      40.854  30.933  29.994  1.00  0.00     0.031 A 
ATOM     51  C   UNL A   1      42.098  31.755  29.797  1.00  0.00     0.074 A 
ATOM     52  C   UNL A   1      40.828  29.635  29.648  1.00  0.00     0.049 A 
ATOM     53  N   UNL A   1      43.198  31.467  29.154  1.00  0.00    -0.248 NA
ATOM     54  C   UNL A   1      42.080  33.107  30.382  1.00  0.00     0.031 C 
ATOM     55  C   UNL A   1      39.702  28.726  29.835  1.00  0.00     0.029 A 
ATOM     56  N   UNL A   1      41.785  28.868  29.031  1.00  0.00    -0.354 N 
ATOM     57  C   UNL A   1      43.984  32.610  29.231  1.00  0.00     0.074 A 
ATOM     58  C   UNL A   1      43.224  33.608  29.948  1.00  0.00     0.031 C 
ATOM     59  C   UNL A   1      40.023  27.525  29.321  1.00  0.00     0.029 A 
ATOM     60  C   UNL A   1      41.358  27.600  28.726  1.00  0.00     0.049 A 
ATOM     61  H   UNL A   1      42.690  29.196  28.826  1.00  0.00     0.167 HD
ATOM     62  C   UNL A   1      45.236  32.804  28.754  1.00  0.00     0.037 A 
ATOM     63  C   UNL A   1      41.967  26.630  28.015  1.00  0.00     0.037 A 
ATOM     64  C   UNL A   1      45.989  31.800  28.056  1.00  0.00     0.049 A 
ATOM     65  C   UNL A   1      43.335  26.894  27.431  1.00  0.00     0.074 A 
ATOM     66  C   UNL A   1      47.269  31.885  27.540  1.00  0.00     0.029 A 
ATOM     67  N   UNL A   1      45.525  30.523  27.776  1.00  0.00    -0.354 N 
ATOM     68  N   UNL A   1      44.080  27.971  27.510  1.00  0.00    -0.248 NA
ATOM     69  C   UNL A   1      43.947  25.804  26.656  1.00  0.00     0.031 C 
ATOM     70  C   UNL A   1      47.560  30.676  26.902  1.00  0.00     0.029 A 
ATOM     71  C   UNL A   1      46.489  29.814  27.083  1.00  0.00     0.049 A 
ATOM     72  H   UNL A   1      44.641  30.174  28.034  1.00  0.00     0.167 HD
ATOM     73  C   UNL A   1      45.263  27.670  26.845  1.00  0.00     0.074 A 
ATOM     74  C   UNL A   1      45.136  26.311  26.364  1.00  0.00     0.031 C 
ATOM     75  C   UNL A   1      46.359  28.446  26.653  1.00  0.00     0.037 A 
BRANCH  62  76
ATOM     76  C   UNL A   1      45.856  34.156  28.958  1.00  0.00     0.064 A 
ATOM     77  C   UNL A   1      46.650  34.444  30.077  1.00  0.00     0.173 A 
ATOM     78  C   UNL A   1      45.679  35.168  28.002  1.00  0.00     0.173 A 
ATOM     79  F   UNL A   1      46.837  33.517  31.029  1.00  0.00    -0.203 F 
ATOM     80  C   UNL A   1      47.220  35.702  30.247  1.00  0.00     0.198 A 
ATOM     81  C   UNL A   1      46.280  36.414  28.158  1.00  0.00     0.198 A 
ATOM     82  F   UNL A   1      44.930  34.947  26.912  1.00  0.00    -0.203 F 
ATOM     83  F   UNL A   1      47.929  35.970  31.352  1.00  0.00    -0.200 F 
ATOM     84  C   UNL A   1      47.043  36.683  29.283  1.00  0.00     0.200 A 
ATOM     85  F   UNL A   1      46.119  37.355  27.217  1.00  0.00    -0.200 F 
ATOM     86  F   UNL A   1      47.602  37.890  29.442  1.00  0.00    -0.200 F 
ENDBRANCH  62  76
BRANCH  63  87
ATOM     87  C   UNL A   1      41.295  25.320  27.798  1.00  0.00     0.064 A 
ATOM     88  C   UNL A   1      41.734  24.168  28.468  1.00  0.00     0.173 A 
ATOM     89  C   UNL A   1      40.236  25.179  26.890  1.00  0.00     0.173 A 
ATOM     90  F   UNL A   1      42.761  24.245  29.328  1.00  0.00    -0.203 F 
ATOM     91  C   UNL A   1      41.163  22.923  28.213  1.00  0.00     0.198 A 
ATOM     92  C   UNL A   1      39.642  23.939  26.661  1.00  0.00     0.198 A 
ATOM     93  F   UNL A   1      39.776  26.247  26.222  1.00  0.00    -0.203 F 
ATOM     94  F   UNL A   1      41.648  21.830  28.819  1.00  0.00    -0.200 F 
ATOM     95  C   UNL A   1      40.115  22.810  27.313  1.00  0.00     0.200 A 
ATOM     96  F   UNL A   1      38.623  23.834  25.799  1.00  0.00    -0.200 F 
ATOM     97  F   UNL A   1      39.570  21.611  27.064  1.00  0.00    -0.200 F 
ENDBRANCH  63  87
BRANCH  75  98
ATOM     98  C   UNL A   1      47.549  27.827  25.977  1.00  0.00     0.064 A 
ATOM     99  C   UNL A   1      47.681  27.793  24.582  1.00  0.00     0.173 A 
ATOM    100  C   UNL A   1      48.614  27.336  26.750  1.00  0.00     0.173 A 
ATOM    101  F   UNL A   1      46.689  28.241  23.798  1.00  0.00    -0.203 F 
ATOM    102  C   UNL A   1      48.828  27.272  23.985  1.00  0.00     0.198 A 
ATOM    103  C   UNL A   1      49.771  26.848  26.152  1.00  0.00     0.198 A 
ATOM    104  F   UNL A   1      48.542  27.355  28.089  1.00  0.00    -0.203 F 
ATOM    105  F   UNL A   1      48.917  27.213  22.650  1.00  0.00    -0.200 F 
ATOM    106  C   UNL A   1      49.875  26.812  24.770  1.00  0.00     0.200 A 
ATOM    107  F   UNL A   1      50.790  26.424  26.912  1.00  0.00    -0.200 F 
ATOM    108  F   UNL A   1      50.985  26.331  24.193  1.00  0.00    -0.200 F 
ENDBRANCH  75  98
ENDBRANCH  49  50
ENDBRANCH  42  44
ENDBRANCH  41  42
ENDBRANCH  40  41
ENDBRANCH  39  40
ENDBRANCH  38  39
ENDBRANCH  37  38
ENDBRANCH  36  37
ENDBRANCH  35  36
ENDBRANCH   1  35
TORSDOF 26
ENDMDL
MODEL 3
REMARK VINA RESULT:      -9.9      2.380      5.028
REMARK SMILES COc1ccc(OC)c([C@H](C(=O)OCCOCCOCCOCCOC(=O)c2ccc(-c3c4nc(c(-c5c(F)c(F)c(F)c(F)c5F)c5ccc([nH]5)c(-c5c(F)c(F)c(F)c(F)c5F)c5nc(c(-c6c(F)c(F)c(F)c(F)c6F)c6ccc3[nH]6)C=C5)C=C4)cc2)[NH+]2CC[NH+](Cc3nccn3C)CC2)c1
REMARK SMILES IDX 18 1 17 2 16 3 15 4 14 5 13 6 11 7 12 8 10 9 9 10 3 11 4 12
REMARK SMILES IDX 104 13 5 14 6 15 2 16 1 17 7 18 8 19 91 20 92 21 103 22
REMARK SMILES IDX 93 24 102 25 94 26 95 28 96 29 97 30 100 31 98 32 99 33
REMARK SMILES IDX 101 34 19 35 20 36 21 37 22 38 23 39 24 40 25 41 26 42 27 43
REMARK SMILES IDX 28 44 29 45 90 46 30 47 89 48 31 49 32 50 33 51 83 52 34 53
REMARK SMILES IDX 88 54 82 55 84 56 35 57 87 58 81 59 80 60 36 62 68 63 48 64
REMARK SMILES IDX 67 65 49 66 52 67 66 68 85 69 50 70 51 71 65 73 86 74 53 75
REMARK SMILES IDX 37 76 38 77 46 78 39 79 40 80 44 81 47 82 41 83 42 84 45 85
REMARK SMILES IDX 43 86 69 87 70 88 78 89 71 90 72 91 76 92 79 93 73 94 74 95
REMARK SMILES IDX 77 96 75 97 54 98 55 99 63 100 56 101 57 102 61 103 64 104
REMARK SMILES IDX 58 105 59 106 62 107 60 108
REMARK H PARENT 91 23 94 27 84 61 52 72
REMARK Flexibility Score: inf
ROOT
ATOM      1  C   UNL A   1      35.196  23.160  24.734  1.00  0.00     0.188 C 
ENDROOT
BRANCH   1   2
ATOM      2  C   UNL A   1      34.173  23.656  25.757  1.00  0.00     0.188 C 
BRANCH   2   3
ATOM      3  O   UNL A   1      33.015  22.859  25.944  1.00  0.00    -0.376 OA
BRANCH   3   4
ATOM      4  C   UNL A   1      31.960  23.383  26.747  1.00  0.00     0.202 C 
BRANCH   4   5
ATOM      5  C   UNL A   1      31.324  24.732  26.405  1.00  0.00     0.261 C 
BRANCH   5   6
ATOM      6  O   UNL A   1      31.764  25.846  27.223  1.00  0.00    -0.459 OA
BRANCH   6   7
ATOM      7  C   UNL A   1      31.805  27.065  26.617  1.00  0.00     0.370 C 
ATOM      8  O   UNL A   1      30.983  27.955  26.843  1.00  0.00    -0.245 OA
BRANCH   7   9
ATOM      9  C   UNL A   1      32.781  27.186  25.440  1.00  0.00     0.330 C 
BRANCH   9  10
ATOM     10  C   UNL A   1      32.364  26.888  24.001  1.00  0.00     0.067 A 
ATOM     11  C   UNL A   1      32.537  25.512  21.979  1.00  0.00     0.119 A 
ATOM     12  C   UNL A   1      31.458  26.174  21.408  1.00  0.00     0.050 A 
ATOM     13  C   UNL A   1      32.986  25.869  23.257  1.00  0.00     0.060 A 
ATOM     14  C   UNL A   1      30.823  27.189  22.116  1.00  0.00     0.051 A 
ATOM     15  C   UNL A   1      31.264  27.545  23.398  1.00  0.00     0.128 A 
BRANCH  11  16
ATOM     16  O   UNL A   1      33.147  24.568  21.200  1.00  0.00    -0.497 OA
ATOM     17  C   UNL A   1      33.241  23.293  21.825  1.00  0.00     0.278 C 
ENDBRANCH  11  16
BRANCH  15  18
ATOM     18  O   UNL A   1      30.645  28.656  23.917  1.00  0.00    -0.496 OA
ATOM     19  C   UNL A   1      29.790  29.351  23.014  1.00  0.00     0.278 C 
ENDBRANCH  15  18
ENDBRANCH   9  10
BRANCH   9  20
ATOM     20  N   UNL A   1      33.616  28.405  25.544  1.00  0.00    -0.310 N 
ATOM     21  C   UNL A   1      32.978  29.692  25.259  1.00  0.00     0.325 C 
ATOM     22  C   UNL A   1      34.486  28.436  26.719  1.00  0.00     0.325 C 
ATOM     23  H   UNL A   1      34.225  28.289  24.733  1.00  0.00     0.349 HD
ATOM     24  C   UNL A   1      32.526  30.556  26.457  1.00  0.00     0.324 C 
ATOM     25  C   UNL A   1      33.971  29.247  27.930  1.00  0.00     0.324 C 
ATOM     26  N   UNL A   1      33.372  30.559  27.661  1.00  0.00    -0.319 N 
ATOM     27  H   UNL A   1      32.757  30.731  28.457  1.00  0.00     0.348 HD
BRANCH  26  28
ATOM     28  C   UNL A   1      34.327  31.682  27.681  1.00  0.00     0.339 C 
BRANCH  28  29
ATOM     29  C   UNL A   1      33.870  32.882  28.452  1.00  0.00     0.164 A 
ATOM     30  N   UNL A   1      33.112  33.849  27.964  1.00  0.00    -0.236 NA
ATOM     31  N   UNL A   1      34.269  33.197  29.731  1.00  0.00    -0.333 N 
ATOM     32  C   UNL A   1      33.196  34.881  28.858  1.00  0.00     0.131 A 
ATOM     33  C   UNL A   1      33.919  34.502  29.961  1.00  0.00     0.107 A 
ATOM     34  C   UNL A   1      35.027  32.393  30.658  1.00  0.00     0.151 C 
ENDBRANCH  28  29
ENDBRANCH  26  28
ENDBRANCH   9  20
ENDBRANCH   7   9
ENDBRANCH   6   7
ENDBRANCH   5   6
ENDBRANCH   4   5
ENDBRANCH   3   4
ENDBRANCH   2   3
ENDBRANCH   1   2
BRANCH   1  35
ATOM     35  O   UNL A   1      36.496  23.716  24.838  1.00  0.00    -0.377 OA
BRANCH  35  36
ATOM     36  C   UNL A   1      37.566  22.927  25.347  1.00  0.00     0.188 C 
BRANCH  36  37
ATOM     37  C   UNL A   1      37.291  21.481  25.748  1.00  0.00     0.188 C 
BRANCH  37  38
ATOM     38  O   UNL A   1      37.680  20.455  24.834  1.00  0.00    -0.376 OA
BRANCH  38  39
ATOM     39  C   UNL A   1      38.718  19.549  25.211  1.00  0.00     0.202 C 
BRANCH  39  40
ATOM     40  C   UNL A   1      39.917  20.223  25.863  1.00  0.00     0.261 C 
BRANCH  40  41
ATOM     41  O   UNL A   1      40.728  19.267  26.561  1.00  0.00    -0.460 OA
BRANCH  41  42
ATOM     42  C   UNL A   1      42.015  19.166  26.164  1.00  0.00     0.338 C 
ATOM     43  O   UNL A   1      42.567  18.237  25.616  1.00  0.00    -0.246 OA
BRANCH  42  44
ATOM     44  C   UNL A   1      42.660  20.464  26.423  1.00  0.00     0.060 A 
ATOM     45  C   UNL A   1      42.633  21.003  27.715  1.00  0.00     0.016 A 
ATOM     46  C   UNL A   1      43.237  21.165  25.364  1.00  0.00     0.016 A 
ATOM     47  C   UNL A   1      43.140  22.284  27.942  1.00  0.00     0.010 A 
ATOM     48  C   UNL A   1      43.757  22.435  25.593  1.00  0.00     0.010 A 
ATOM     49  C   UNL A   1      43.659  23.021  26.868  1.00  0.00    -0.014 A 
BRANCH  49  50
ATOM     50  C   UNL A   1      43.855  24.487  26.963  1.00  0.00     0.031 A 
ATOM     51  C   UNL A   1      45.232  25.015  26.667  1.00  0.00     0.074 A 
ATOM     52  C   UNL A   1      42.875  25.314  27.363  1.00  0.00     0.049 A 
ATOM     53  N   UNL A   1      45.742  26.196  26.894  1.00  0.00    -0.248 NA
ATOM     54  C   UNL A   1      46.173  24.060  26.056  1.00  0.00     0.031 C 
ATOM     55  C   UNL A   1      41.493  24.930  27.633  1.00  0.00     0.029 A 
ATOM     56  N   UNL A   1      42.914  26.658  27.642  1.00  0.00    -0.354 N 
ATOM     57  C   UNL A   1      47.067  26.114  26.485  1.00  0.00     0.074 A 
ATOM     58  C   UNL A   1      47.295  24.761  26.033  1.00  0.00     0.031 C 
ATOM     59  C   UNL A   1      40.817  26.011  28.062  1.00  0.00     0.029 A 
ATOM     60  C   UNL A   1      41.734  27.149  28.143  1.00  0.00     0.049 A 
ATOM     61  H   UNL A   1      43.713  27.216  27.497  1.00  0.00     0.167 HD
ATOM     62  C   UNL A   1      48.008  27.087  26.480  1.00  0.00     0.037 A 
ATOM     63  C   UNL A   1      41.448  28.367  28.643  1.00  0.00     0.037 A 
ATOM     64  C   UNL A   1      47.767  28.433  26.919  1.00  0.00     0.049 A 
ATOM     65  C   UNL A   1      42.534  29.417  28.692  1.00  0.00     0.074 A 
ATOM     66  C   UNL A   1      48.644  29.502  26.945  1.00  0.00     0.029 A 
ATOM     67  N   UNL A   1      46.554  28.894  27.410  1.00  0.00    -0.354 N 
ATOM     68  N   UNL A   1      43.783  29.341  28.300  1.00  0.00    -0.248 NA
ATOM     69  C   UNL A   1      42.167  30.725  29.257  1.00  0.00     0.031 C 
ATOM     70  C   UNL A   1      47.976  30.596  27.501  1.00  0.00     0.029 A 
ATOM     71  C   UNL A   1      46.663  30.229  27.754  1.00  0.00     0.049 A 
ATOM     72  H   UNL A   1      45.737  28.351  27.499  1.00  0.00     0.167 HD
ATOM     73  C   UNL A   1      44.333  30.599  28.520  1.00  0.00     0.074 A 
ATOM     74  C   UNL A   1      43.282  31.419  29.084  1.00  0.00     0.031 C 
ATOM     75  C   UNL A   1      45.592  31.039  28.273  1.00  0.00     0.037 A 
BRANCH  62  76
ATOM     76  C   UNL A   1      49.383  26.722  26.001  1.00  0.00     0.064 A 
ATOM     77  C   UNL A   1      49.796  26.966  24.683  1.00  0.00     0.173 A 
ATOM     78  C   UNL A   1      50.311  26.148  26.883  1.00  0.00     0.173 A 
ATOM     79  F   UNL A   1      48.941  27.498  23.795  1.00  0.00    -0.203 F 
ATOM     80  C   UNL A   1      51.077  26.625  24.258  1.00  0.00     0.198 A 
ATOM     81  C   UNL A   1      51.603  25.841  26.464  1.00  0.00     0.198 A 
ATOM     82  F   UNL A   1      49.970  25.893  28.155  1.00  0.00    -0.203 F 
ATOM     83  F   UNL A   1      51.430  26.818  22.980  1.00  0.00    -0.200 F 
ATOM     84  C   UNL A   1      51.982  26.071  25.150  1.00  0.00     0.200 A 
ATOM     85  F   UNL A   1      52.480  25.320  27.333  1.00  0.00    -0.200 F 
ATOM     86  F   UNL A   1      53.219  25.754  24.743  1.00  0.00    -0.200 F 
ENDBRANCH  62  76
BRANCH  63  87
ATOM     87  C   UNL A   1      40.082  28.672  29.150  1.00  0.00     0.064 A 
ATOM     88  C   UNL A   1      39.718  28.356  30.467  1.00  0.00     0.173 A 
ATOM     89  C   UNL A   1      39.102  29.240  28.323  1.00  0.00     0.173 A 
ATOM     90  F   UNL A   1      40.611  27.787  31.290  1.00  0.00    -0.203 F 
ATOM     91  C   UNL A   1      38.419  28.566  30.927  1.00  0.00     0.198 A 
ATOM     92  C   UNL A   1      37.812  29.481  28.794  1.00  0.00     0.198 A 
ATOM     93  F   UNL A   1      39.395  29.561  27.055  1.00  0.00    -0.203 F 
ATOM     94  F   UNL A   1      38.084  28.192  32.170  1.00  0.00    -0.200 F 
ATOM     95  C   UNL A   1      37.468  29.131  30.092  1.00  0.00     0.200 A 
ATOM     96  F   UNL A   1      36.899  30.037  27.988  1.00  0.00    -0.200 F 
ATOM     97  F   UNL A   1      36.219  29.327  30.533  1.00  0.00    -0.200 F 
ENDBRANCH  63  87
BRANCH  75  98
ATOM     98  C   UNL A   1      45.890  32.491  28.517  1.00  0.00     0.064 A 
ATOM     99  C   UNL A   1      45.675  33.471  27.539  1.00  0.00     0.173 A 
ATOM    100  C   UNL A   1      46.319  32.911  29.786  1.00  0.00     0.173 A 
ATOM    101  F   UNL A   1      45.275  33.122  26.307  1.00  0.00    -0.203 F 
ATOM    102  C   UNL A   1      45.897  34.818  27.817  1.00  0.00     0.198 A 
ATOM    103  C   UNL A   1      46.506  34.260  30.071  1.00  0.00     0.198 A 
ATOM    104  F   UNL A   1      46.528  32.014  30.761  1.00  0.00    -0.203 F 
ATOM    105  F   UNL A   1      45.724  35.736  26.856  1.00  0.00    -0.200 F 
ATOM    106  C   UNL A   1      46.301  35.212  29.084  1.00  0.00     0.200 A 
ATOM    107  F   UNL A   1      46.876  34.639  31.302  1.00  0.00    -0.200 F 
ATOM    108  F   UNL A   1      46.494  36.510  29.355  1.00  0.00    -0.200 F 
ENDBRANCH  75  98
ENDBRANCH  49  50
ENDBRANCH  42  44
ENDBRANCH  41  42
ENDBRANCH  40  41
ENDBRANCH  39  40
ENDBRANCH  38  39
ENDBRANCH  37  38
ENDBRANCH  36  37
ENDBRANCH  35  36
ENDBRANCH   1  35
TORSDOF 26
ENDMDL
