MODEL 1
REMARK VINA RESULT:     -12.3      0.000      0.000
REMARK SMILES O=C(OCCOCCOCCOCCOC(=O)c1ccc(-c2c3nc(c(-c4c(F)c(F)c(F)c(F)c4F)c4ccc([nH]4)c(-c4c(F)c(F)c(F)c(F)c4F)c4nc(c(-c5c(F)c(F)c(F)c(F)c5F)c5ccc2[nH]5)C=C4)C=C3)cc1)C1=Cc2cc(Cl)cc(Cl)c2O[C@@H]1C(F)(F)F
REMARK SMILES IDX 10 1 9 2 8 3 7 4 6 5 5 6 4 7 3 8 2 9 1 10 81 11 82 12 92 13
REMARK SMILES IDX 83 14 91 15 84 16 90 17 85 18 88 19 86 20 87 21 89 22 93 23
REMARK SMILES IDX 94 24 95 25 96 26 11 27 12 28 13 29 14 30 15 31 16 32 17 33
REMARK SMILES IDX 18 34 19 35 80 36 20 37 79 38 21 39 22 40 23 41 73 42 24 43
REMARK SMILES IDX 78 44 72 45 74 46 25 47 77 48 71 49 70 50 26 52 58 53 38 54
REMARK SMILES IDX 57 55 39 56 42 57 56 58 75 59 40 60 41 61 55 63 76 64 43 65
REMARK SMILES IDX 27 66 28 67 36 68 29 69 30 70 34 71 37 72 31 73 32 74 35 75
REMARK SMILES IDX 33 76 59 77 60 78 68 79 61 80 62 81 66 82 69 83 63 84 64 85
REMARK SMILES IDX 67 86 65 87 44 88 45 89 53 90 46 91 47 92 51 93 54 94 48 95
REMARK SMILES IDX 49 96 52 97 50 98
REMARK H PARENT 74 51 42 62
REMARK Flexibility Score: inf
ROOT
ATOM      1  C   UNL A   1      32.979  35.735  29.051  1.00  0.00     0.188 C 
ENDROOT
BRANCH   1   2
ATOM      2  O   UNL A   1      34.024  34.886  28.646  1.00  0.00    -0.377 OA
BRANCH   2   3
ATOM      3  C   UNL A   1      33.548  33.708  28.038  1.00  0.00     0.188 C 
BRANCH   3   4
ATOM      4  C   UNL A   1      34.546  32.542  28.013  1.00  0.00     0.188 C 
BRANCH   4   5
ATOM      5  O   UNL A   1      34.162  31.129  28.097  1.00  0.00    -0.376 OA
BRANCH   5   6
ATOM      6  C   UNL A   1      33.104  30.186  27.257  1.00  0.00     0.202 C 
BRANCH   6   7
ATOM      7  C   UNL A   1      33.387  28.122  26.602  1.00  0.00     0.261 C 
BRANCH   7   8
ATOM      8  O   UNL A   1      32.702  27.445  25.435  1.00  0.00    -0.460 OA
BRANCH   8   9
ATOM      9  C   UNL A   1      32.802  28.153  24.304  1.00  0.00     0.338 C 
ATOM     10  O   UNL A   1      33.035  29.328  24.178  1.00  0.00    -0.246 OA
BRANCH   9  11
ATOM     11  C   UNL A   1      32.082  27.221  23.449  1.00  0.00     0.087 C 
ATOM     12  C   UNL A   1      32.772  25.938  23.240  1.00  0.00     0.027 C 
ATOM     13  C   UNL A   1      30.439  27.434  24.422  1.00  0.00     0.316 C 
ATOM     14  C   UNL A   1      32.314  24.395  24.054  1.00  0.00     0.020 A 
ATOM     15  O   UNL A   1      30.000  25.823  25.429  1.00  0.00    -0.474 OA
ATOM     16  C   UNL A   1      33.050  23.266  23.812  1.00  0.00     0.032 A 
ATOM     17  C   UNL A   1      31.032  24.315  25.222  1.00  0.00     0.146 A 
ATOM     18  C   UNL A   1      32.665  22.129  24.546  1.00  0.00     0.043 A 
ATOM     19  C   UNL A   1      30.787  23.168  25.938  1.00  0.00     0.085 A 
ATOM     20  Cl  UNL A   1      33.558  20.670  24.246  1.00  0.00    -0.084 Cl
ATOM     21  C   UNL A   1      31.611  22.080  25.549  1.00  0.00     0.045 A 
ATOM     22  Cl  UNL A   1      29.716  23.006  27.251  1.00  0.00    -0.080 Cl
BRANCH  13  23
ATOM     23  C   UNL A   1      29.682  28.206  23.152  1.00  0.00     0.430 C 
ATOM     24  F   UNL A   1      28.340  28.159  23.089  1.00  0.00    -0.167 F 
ATOM     25  F   UNL A   1      29.960  29.540  23.290  1.00  0.00    -0.167 F 
ATOM     26  F   UNL A   1      30.163  27.892  21.923  1.00  0.00    -0.167 F 
ENDBRANCH  13  23
ENDBRANCH   9  11
ENDBRANCH   8   9
ENDBRANCH   7   8
ENDBRANCH   6   7
ENDBRANCH   5   6
ENDBRANCH   4   5
ENDBRANCH   3   4
ENDBRANCH   2   3
ENDBRANCH   1   2
BRANCH   1  27
ATOM     27  C   UNL A   1      32.971  36.165  30.521  1.00  0.00     0.188 C 
BRANCH  27  28
ATOM     28  O   UNL A   1      32.581  35.309  31.578  1.00  0.00    -0.376 OA
BRANCH  28  29
ATOM     29  C   UNL A   1      33.504  34.856  32.550  1.00  0.00     0.202 C 
BRANCH  29  30
ATOM     30  C   UNL A   1      34.860  34.249  32.158  1.00  0.00     0.261 C 
BRANCH  30  31
ATOM     31  O   UNL A   1      34.937  32.818  32.150  1.00  0.00    -0.460 OA
BRANCH  31  32
ATOM     32  C   UNL A   1      35.919  32.292  32.911  1.00  0.00     0.338 C 
ATOM     33  O   UNL A   1      36.082  32.447  34.110  1.00  0.00    -0.246 OA
BRANCH  32  34
ATOM     34  C   UNL A   1      36.712  31.325  32.121  1.00  0.00     0.060 A 
ATOM     35  C   UNL A   1      37.700  30.590  32.795  1.00  0.00     0.016 A 
ATOM     36  C   UNL A   1      36.539  31.175  30.744  1.00  0.00     0.016 A 
ATOM     37  C   UNL A   1      38.574  29.772  32.092  1.00  0.00     0.010 A 
ATOM     38  C   UNL A   1      37.447  30.389  30.027  1.00  0.00     0.010 A 
ATOM     39  C   UNL A   1      38.508  29.749  30.697  1.00  0.00    -0.014 A 
BRANCH  39  40
ATOM     40  C   UNL A   1      39.726  29.348  29.955  1.00  0.00     0.031 A 
ATOM     41  C   UNL A   1      40.841  30.356  29.850  1.00  0.00     0.074 A 
ATOM     42  C   UNL A   1      39.881  28.108  29.468  1.00  0.00     0.049 A 
ATOM     43  N   UNL A   1      42.003  30.261  29.257  1.00  0.00    -0.248 NA
ATOM     44  C   UNL A   1      40.606  31.654  30.502  1.00  0.00     0.031 C 
ATOM     45  C   UNL A   1      38.904  27.027  29.577  1.00  0.00     0.029 A 
ATOM     46  N   UNL A   1      40.929  27.552  28.780  1.00  0.00    -0.354 N 
ATOM     47  C   UNL A   1      42.621  31.491  29.444  1.00  0.00     0.074 A 
ATOM     48  C   UNL A   1      41.695  32.328  30.171  1.00  0.00     0.031 C 
ATOM     49  C   UNL A   1      39.400  25.935  28.972  1.00  0.00     0.029 A 
ATOM     50  C   UNL A   1      40.709  26.253  28.402  1.00  0.00     0.049 A 
ATOM     51  H   UNL A   1      41.761  28.040  28.579  1.00  0.00     0.167 HD
ATOM     52  C   UNL A   1      43.855  31.886  29.050  1.00  0.00     0.037 A 
ATOM     53  C   UNL A   1      41.475  25.428  27.662  1.00  0.00     0.037 A 
ATOM     54  C   UNL A   1      44.767  31.045  28.322  1.00  0.00     0.049 A 
ATOM     55  C   UNL A   1      42.808  25.920  27.156  1.00  0.00     0.074 A 
ATOM     56  C   UNL A   1      46.046  31.336  27.886  1.00  0.00     0.029 A 
ATOM     57  N   UNL A   1      44.487  29.751  27.907  1.00  0.00    -0.354 N 
ATOM     58  N   UNL A   1      43.398  27.076  27.345  1.00  0.00    -0.248 NA
ATOM     59  C   UNL A   1      43.588  24.980  26.339  1.00  0.00     0.031 C 
ATOM     60  C   UNL A   1      46.504  30.252  27.131  1.00  0.00     0.029 A 
ATOM     61  C   UNL A   1      45.555  29.244  27.185  1.00  0.00     0.049 A 
ATOM     62  H   UNL A   1      43.651  29.265  28.097  1.00  0.00     0.167 HD
ATOM     63  C   UNL A   1      44.633  26.987  26.715  1.00  0.00     0.074 A 
ATOM     64  C   UNL A   1      44.709  25.658  26.143  1.00  0.00     0.031 C 
ATOM     65  C   UNL A   1      45.621  27.915  26.628  1.00  0.00     0.037 A 
BRANCH  52  66
ATOM     66  C   UNL A   1      44.253  33.307  29.342  1.00  0.00     0.064 A 
ATOM     67  C   UNL A   1      44.010  34.357  28.442  1.00  0.00     0.173 A 
ATOM     68  C   UNL A   1      44.900  33.621  30.548  1.00  0.00     0.173 A 
ATOM     69  F   UNL A   1      43.406  34.115  27.268  1.00  0.00    -0.203 F 
ATOM     70  C   UNL A   1      44.444  35.653  28.716  1.00  0.00     0.198 A 
ATOM     71  C   UNL A   1      45.291  34.925  30.838  1.00  0.00     0.198 A 
ATOM     72  F   UNL A   1      45.154  32.660  31.449  1.00  0.00    -0.203 F 
ATOM     73  F   UNL A   1      44.271  36.621  27.805  1.00  0.00    -0.200 F 
ATOM     74  C   UNL A   1      45.078  35.936  29.915  1.00  0.00     0.200 A 
ATOM     75  F   UNL A   1      45.885  35.199  32.007  1.00  0.00    -0.200 F 
ATOM     76  F   UNL A   1      45.494  37.183  30.178  1.00  0.00    -0.200 F 
ENDBRANCH  52  66
BRANCH  53  77
ATOM     77  C   UNL A   1      41.007  24.049  27.364  1.00  0.00     0.064 A 
ATOM     78  C   UNL A   1      39.923  23.826  26.503  1.00  0.00     0.173 A 
ATOM     79  C   UNL A   1      41.622  22.929  27.941  1.00  0.00     0.173 A 
ATOM     80  F   UNL A   1      39.287  24.867  25.944  1.00  0.00    -0.203 F 
ATOM     81  C   UNL A   1      39.459  22.538  26.248  1.00  0.00     0.198 A 
ATOM     82  C   UNL A   1      41.179  21.638  27.657  1.00  0.00     0.198 A 
ATOM     83  F   UNL A   1      42.663  23.084  28.772  1.00  0.00    -0.203 F 
ATOM     84  F   UNL A   1      38.389  22.358  25.462  1.00  0.00    -0.200 F 
ATOM     85  C   UNL A   1      40.092  21.444  26.818  1.00  0.00     0.200 A 
ATOM     86  F   UNL A   1      41.805  20.584  28.197  1.00  0.00    -0.200 F 
ATOM     87  F   UNL A   1      39.650  20.205  26.566  1.00  0.00    -0.200 F 
ENDBRANCH  53  77
BRANCH  65  88
ATOM     88  C   UNL A   1      46.904  27.503  25.957  1.00  0.00     0.064 A 
ATOM     89  C   UNL A   1      47.124  27.678  24.582  1.00  0.00     0.173 A 
ATOM     90  C   UNL A   1      47.944  26.942  26.716  1.00  0.00     0.173 A 
ATOM     91  F   UNL A   1      46.167  28.204  23.805  1.00  0.00    -0.203 F 
ATOM     92  C   UNL A   1      48.314  27.262  23.989  1.00  0.00     0.198 A 
ATOM     93  C   UNL A   1      49.149  26.570  26.128  1.00  0.00     0.198 A 
ATOM     94  F   UNL A   1      47.796  26.762  28.039  1.00  0.00    -0.203 F 
ATOM     95  F   UNL A   1      48.471  27.369  22.662  1.00  0.00    -0.200 F 
ATOM     96  C   UNL A   1      49.328  26.716  24.762  1.00  0.00     0.200 A 
ATOM     97  F   UNL A   1      50.135  26.068  26.884  1.00  0.00    -0.200 F 
ATOM     98  F   UNL A   1      50.472  26.320  24.189  1.00  0.00    -0.200 F 
ENDBRANCH  65  88
ENDBRANCH  39  40
ENDBRANCH  32  34
ENDBRANCH  31  32
ENDBRANCH  30  31
ENDBRANCH  29  30
ENDBRANCH  28  29
ENDBRANCH  27  28
ENDBRANCH   1  27
TORSDOF 21
ENDMDL
MODEL 2
REMARK VINA RESULT:     -12.1      4.492      8.880
REMARK SMILES O=C(OCCOCCOCCOCCOC(=O)c1ccc(-c2c3nc(c(-c4c(F)c(F)c(F)c(F)c4F)c4ccc([nH]4)c(-c4c(F)c(F)c(F)c(F)c4F)c4nc(c(-c5c(F)c(F)c(F)c(F)c5F)c5ccc2[nH]5)C=C4)C=C3)cc1)C1=Cc2cc(Cl)cc(Cl)c2O[C@@H]1C(F)(F)F
REMARK SMILES IDX 10 1 9 2 8 3 7 4 6 5 5 6 4 7 3 8 2 9 1 10 81 11 82 12 92 13
REMARK SMILES IDX 83 14 91 15 84 16 90 17 85 18 88 19 86 20 87 21 89 22 93 23
REMARK SMILES IDX 94 24 95 25 96 26 11 27 12 28 13 29 14 30 15 31 16 32 17 33
REMARK SMILES IDX 18 34 19 35 80 36 20 37 79 38 21 39 22 40 23 41 73 42 24 43
REMARK SMILES IDX 78 44 72 45 74 46 25 47 77 48 71 49 70 50 26 52 58 53 38 54
REMARK SMILES IDX 57 55 39 56 42 57 56 58 75 59 40 60 41 61 55 63 76 64 43 65
REMARK SMILES IDX 27 66 28 67 36 68 29 69 30 70 34 71 37 72 31 73 32 74 35 75
REMARK SMILES IDX 33 76 59 77 60 78 68 79 61 80 62 81 66 82 69 83 63 84 64 85
REMARK SMILES IDX 67 86 65 87 44 88 45 89 53 90 46 91 47 92 51 93 54 94 48 95
REMARK SMILES IDX 49 96 52 97 50 98
REMARK H PARENT 74 51 42 62
REMARK Flexibility Score: inf
ROOT
ATOM      1  C   UNL A   1      29.098  30.616  22.843  1.00  0.00     0.188 C 
ENDROOT
BRANCH   1   2
ATOM      2  O   UNL A   1      27.991  29.757  22.721  1.00  0.00    -0.377 OA
BRANCH   2   3
ATOM      3  C   UNL A   1      28.349  28.403  22.867  1.00  0.00     0.188 C 
BRANCH   3   4
ATOM      4  C   UNL A   1      29.851  28.146  23.051  1.00  0.00     0.188 C 
BRANCH   4   5
ATOM      5  O   UNL A   1      30.408  26.946  23.684  1.00  0.00    -0.376 OA
BRANCH   5   6
ATOM      6  C   UNL A   1      31.319  25.688  23.134  1.00  0.00     0.202 C 
BRANCH   6   7
ATOM      7  C   UNL A   1      30.799  23.567  23.126  1.00  0.00     0.261 C 
BRANCH   7   8
ATOM      8  O   UNL A   1      31.746  22.406  23.331  1.00  0.00    -0.460 OA
BRANCH   8   9
ATOM      9  C   UNL A   1      33.024  22.797  23.405  1.00  0.00     0.338 C 
ATOM     10  O   UNL A   1      33.750  23.145  22.509  1.00  0.00    -0.246 OA
BRANCH   9  11
ATOM     11  C   UNL A   1      33.316  22.200  24.699  1.00  0.00     0.087 C 
ATOM     12  C   UNL A   1      34.334  21.138  24.658  1.00  0.00     0.027 C 
ATOM     13  C   UNL A   1      33.549  23.907  25.551  1.00  0.00     0.316 C 
ATOM     14  C   UNL A   1      36.043  21.349  25.197  1.00  0.00     0.020 A 
ATOM     15  O   UNL A   1      35.418  24.218  26.011  1.00  0.00    -0.474 OA
ATOM     16  C   UNL A   1      36.916  20.300  25.081  1.00  0.00     0.032 A 
ATOM     17  C   UNL A   1      36.649  22.874  25.763  1.00  0.00     0.146 A 
ATOM     18  C   UNL A   1      38.243  20.578  25.457  1.00  0.00     0.043 A 
ATOM     19  C   UNL A   1      37.984  23.057  26.035  1.00  0.00     0.085 A 
ATOM     20  Cl  UNL A   1      39.374  19.265  25.349  1.00  0.00    -0.084 Cl
ATOM     21  C   UNL A   1      38.750  21.870  25.897  1.00  0.00     0.045 A 
ATOM     22  Cl  UNL A   1      38.749  24.535  26.388  1.00  0.00    -0.080 Cl
BRANCH  13  23
ATOM     23  C   UNL A   1      32.178  23.731  26.483  1.00  0.00     0.430 C 
ATOM     24  F   UNL A   1      31.294  22.778  26.139  1.00  0.00    -0.167 F 
ATOM     25  F   UNL A   1      32.604  23.351  27.728  1.00  0.00    -0.167 F 
ATOM     26  F   UNL A   1      31.485  24.875  26.704  1.00  0.00    -0.167 F 
ENDBRANCH  13  23
ENDBRANCH   9  11
ENDBRANCH   8   9
ENDBRANCH   7   8
ENDBRANCH   6   7
ENDBRANCH   5   6
ENDBRANCH   4   5
ENDBRANCH   3   4
ENDBRANCH   2   3
ENDBRANCH   1   2
BRANCH   1  27
ATOM     27  C   UNL A   1      29.040  31.658  23.964  1.00  0.00     0.188 C 
BRANCH  27  28
ATOM     28  O   UNL A   1      30.174  32.054  24.715  1.00  0.00    -0.376 OA
BRANCH  28  29
ATOM     29  C   UNL A   1      30.928  31.127  25.471  1.00  0.00     0.202 C 
BRANCH  29  30
ATOM     30  C   UNL A   1      31.487  31.479  26.858  1.00  0.00     0.261 C 
BRANCH  30  31
ATOM     31  O   UNL A   1      32.870  31.176  27.082  1.00  0.00    -0.460 OA
BRANCH  31  32
ATOM     32  C   UNL A   1      33.610  32.195  27.565  1.00  0.00     0.338 C 
ATOM     33  O   UNL A   1      33.220  33.313  27.855  1.00  0.00    -0.246 OA
BRANCH  32  34
ATOM     34  C   UNL A   1      34.979  31.727  27.875  1.00  0.00     0.060 A 
ATOM     35  C   UNL A   1      35.172  30.348  28.048  1.00  0.00     0.016 A 
ATOM     36  C   UNL A   1      36.043  32.614  28.050  1.00  0.00     0.016 A 
ATOM     37  C   UNL A   1      36.395  29.854  28.479  1.00  0.00     0.010 A 
ATOM     38  C   UNL A   1      37.263  32.125  28.529  1.00  0.00     0.010 A 
ATOM     39  C   UNL A   1      37.411  30.753  28.813  1.00  0.00    -0.014 A 
BRANCH  39  40
ATOM     40  C   UNL A   1      38.457  30.294  29.755  1.00  0.00     0.031 A 
ATOM     41  C   UNL A   1      39.482  29.318  29.236  1.00  0.00     0.074 A 
ATOM     42  C   UNL A   1      38.555  30.787  30.998  1.00  0.00     0.049 A 
ATOM     43  N   UNL A   1      40.493  28.760  29.850  1.00  0.00    -0.248 NA
ATOM     44  C   UNL A   1      39.338  28.913  27.828  1.00  0.00     0.031 C 
ATOM     45  C   UNL A   1      37.669  31.791  31.582  1.00  0.00     0.029 A 
ATOM     46  N   UNL A   1      39.455  30.504  31.994  1.00  0.00    -0.354 N 
ATOM     47  C   UNL A   1      41.086  27.925  28.911  1.00  0.00     0.074 A 
ATOM     48  C   UNL A   1      40.303  28.018  27.701  1.00  0.00     0.031 C 
ATOM     49  C   UNL A   1      38.069  32.038  32.842  1.00  0.00     0.029 A 
ATOM     50  C   UNL A   1      39.212  31.183  33.160  1.00  0.00     0.049 A 
ATOM     51  H   UNL A   1      40.203  29.874  31.881  1.00  0.00     0.167 HD
ATOM     52  C   UNL A   1      42.190  27.152  29.045  1.00  0.00     0.037 A 
ATOM     53  C   UNL A   1      39.836  31.101  34.351  1.00  0.00     0.037 A 
ATOM     54  C   UNL A   1      42.959  27.063  30.257  1.00  0.00     0.049 A 
ATOM     55  C   UNL A   1      41.009  30.165  34.504  1.00  0.00     0.074 A 
ATOM     56  C   UNL A   1      44.103  26.325  30.500  1.00  0.00     0.029 A 
ATOM     57  N   UNL A   1      42.651  27.723  31.438  1.00  0.00    -0.354 N 
ATOM     58  N   UNL A   1      41.577  29.387  33.614  1.00  0.00    -0.248 NA
ATOM     59  C   UNL A   1      41.634  30.107  35.833  1.00  0.00     0.031 C 
ATOM     60  C   UNL A   1      44.434  26.469  31.851  1.00  0.00     0.029 A 
ATOM     61  C   UNL A   1      43.560  27.379  32.425  1.00  0.00     0.049 A 
ATOM     62  H   UNL A   1      41.896  28.345  31.557  1.00  0.00     0.167 HD
ATOM     63  C   UNL A   1      42.653  28.786  34.258  1.00  0.00     0.074 A 
ATOM     64  C   UNL A   1      42.659  29.296  35.614  1.00  0.00     0.031 C 
ATOM     65  C   UNL A   1      43.560  27.901  33.769  1.00  0.00     0.037 A 
BRANCH  52  66
ATOM     66  C   UNL A   1      42.583  26.296  27.871  1.00  0.00     0.064 A 
ATOM     67  C   UNL A   1      43.482  26.736  26.887  1.00  0.00     0.173 A 
ATOM     68  C   UNL A   1      42.037  25.011  27.727  1.00  0.00     0.173 A 
ATOM     69  F   UNL A   1      44.025  27.961  26.965  1.00  0.00    -0.203 F 
ATOM     70  C   UNL A   1      43.779  25.942  25.780  1.00  0.00     0.198 A 
ATOM     71  C   UNL A   1      42.372  24.203  26.644  1.00  0.00     0.198 A 
ATOM     72  F   UNL A   1      41.176  24.534  28.639  1.00  0.00    -0.203 F 
ATOM     73  F   UNL A   1      44.578  26.417  24.814  1.00  0.00    -0.200 F 
ATOM     74  C   UNL A   1      43.230  24.676  25.663  1.00  0.00     0.200 A 
ATOM     75  F   UNL A   1      41.855  22.971  26.544  1.00  0.00    -0.200 F 
ATOM     76  F   UNL A   1      43.518  23.913  24.599  1.00  0.00    -0.200 F 
ENDBRANCH  52  66
BRANCH  53  77
ATOM     77  C   UNL A   1      39.372  31.935  35.491  1.00  0.00     0.064 A 
ATOM     78  C   UNL A   1      38.476  31.424  36.441  1.00  0.00     0.173 A 
ATOM     79  C   UNL A   1      39.801  33.261  35.647  1.00  0.00     0.173 A 
ATOM     80  F   UNL A   1      38.019  30.169  36.322  1.00  0.00    -0.203 F 
ATOM     81  C   UNL A   1      38.011  32.214  37.490  1.00  0.00     0.198 A 
ATOM     82  C   UNL A   1      39.363  34.039  36.717  1.00  0.00     0.198 A 
ATOM     83  F   UNL A   1      40.658  33.801  34.767  1.00  0.00    -0.203 F 
ATOM     84  F   UNL A   1      37.116  31.716  38.354  1.00  0.00    -0.200 F 
ATOM     85  C   UNL A   1      38.461  33.518  37.632  1.00  0.00     0.200 A 
ATOM     86  F   UNL A   1      39.814  35.292  36.860  1.00  0.00    -0.200 F 
ATOM     87  F   UNL A   1      38.020  34.274  38.646  1.00  0.00    -0.200 F 
ENDBRANCH  53  77
BRANCH  65  88
ATOM     88  C   UNL A   1      44.686  27.487  34.679  1.00  0.00     0.064 A 
ATOM     89  C   UNL A   1      45.890  28.203  34.759  1.00  0.00     0.173 A 
ATOM     90  C   UNL A   1      44.542  26.360  35.505  1.00  0.00     0.173 A 
ATOM     91  F   UNL A   1      46.088  29.284  33.990  1.00  0.00    -0.203 F 
ATOM     92  C   UNL A   1      46.923  27.776  35.592  1.00  0.00     0.198 A 
ATOM     93  C   UNL A   1      45.557  25.965  36.370  1.00  0.00     0.198 A 
ATOM     94  F   UNL A   1      43.407  25.644  35.481  1.00  0.00    -0.203 F 
ATOM     95  F   UNL A   1      48.092  28.431  35.594  1.00  0.00    -0.200 F 
ATOM     96  C   UNL A   1      46.753  26.664  36.402  1.00  0.00     0.200 A 
ATOM     97  F   UNL A   1      45.379  24.904  37.170  1.00  0.00    -0.200 F 
ATOM     98  F   UNL A   1      47.745  26.259  37.206  1.00  0.00    -0.200 F 
ENDBRANCH  65  88
ENDBRANCH  39  40
ENDBRANCH  32  34
ENDBRANCH  31  32
ENDBRANCH  30  31
ENDBRANCH  29  30
ENDBRANCH  28  29
ENDBRANCH  27  28
ENDBRANCH   1  27
TORSDOF 21
ENDMDL
MODEL 3
REMARK VINA RESULT:     -12.1      4.398      8.839
REMARK SMILES O=C(OCCOCCOCCOCCOC(=O)c1ccc(-c2c3nc(c(-c4c(F)c(F)c(F)c(F)c4F)c4ccc([nH]4)c(-c4c(F)c(F)c(F)c(F)c4F)c4nc(c(-c5c(F)c(F)c(F)c(F)c5F)c5ccc2[nH]5)C=C4)C=C3)cc1)C1=Cc2cc(Cl)cc(Cl)c2O[C@@H]1C(F)(F)F
REMARK SMILES IDX 10 1 9 2 8 3 7 4 6 5 5 6 4 7 3 8 2 9 1 10 81 11 82 12 92 13
REMARK SMILES IDX 83 14 91 15 84 16 90 17 85 18 88 19 86 20 87 21 89 22 93 23
REMARK SMILES IDX 94 24 95 25 96 26 11 27 12 28 13 29 14 30 15 31 16 32 17 33
REMARK SMILES IDX 18 34 19 35 80 36 20 37 79 38 21 39 22 40 23 41 73 42 24 43
REMARK SMILES IDX 78 44 72 45 74 46 25 47 77 48 71 49 70 50 26 52 58 53 38 54
REMARK SMILES IDX 57 55 39 56 42 57 56 58 75 59 40 60 41 61 55 63 76 64 43 65
REMARK SMILES IDX 27 66 28 67 36 68 29 69 30 70 34 71 37 72 31 73 32 74 35 75
REMARK SMILES IDX 33 76 59 77 60 78 68 79 61 80 62 81 66 82 69 83 63 84 64 85
REMARK SMILES IDX 67 86 65 87 44 88 45 89 53 90 46 91 47 92 51 93 54 94 48 95
REMARK SMILES IDX 49 96 52 97 50 98
REMARK H PARENT 74 51 42 62
REMARK Flexibility Score: inf
ROOT
ATOM      1  C   UNL A   1      29.091  30.580  22.789  1.00  0.00     0.188 C 
ENDROOT
BRANCH   1   2
ATOM      2  O   UNL A   1      28.248  29.455  22.819  1.00  0.00    -0.377 OA
BRANCH   2   3
ATOM      3  C   UNL A   1      28.967  28.255  22.978  1.00  0.00     0.188 C 
BRANCH   3   4
ATOM      4  C   UNL A   1      30.491  28.416  23.047  1.00  0.00     0.188 C 
BRANCH   4   5
ATOM      5  O   UNL A   1      31.377  27.536  23.816  1.00  0.00    -0.376 OA
BRANCH   5   6
ATOM      6  C   UNL A   1      31.214  26.019  24.437  1.00  0.00     0.202 C 
BRANCH   6   7
ATOM      7  C   UNL A   1      31.634  25.359  26.476  1.00  0.00     0.261 C 
BRANCH   7   8
ATOM      8  O   UNL A   1      32.172  24.008  26.893  1.00  0.00    -0.460 OA
BRANCH   8   9
ATOM      9  C   UNL A   1      31.702  23.014  26.130  1.00  0.00     0.338 C 
ATOM     10  O   UNL A   1      30.569  22.619  26.035  1.00  0.00    -0.246 OA
BRANCH   9  11
ATOM     11  C   UNL A   1      32.974  22.339  25.918  1.00  0.00     0.087 C 
ATOM     12  C   UNL A   1      33.007  20.948  26.395  1.00  0.00     0.027 C 
ATOM     13  C   UNL A   1      33.065  22.866  24.072  1.00  0.00     0.316 C 
ATOM     14  C   UNL A   1      32.903  19.503  25.320  1.00  0.00     0.020 A 
ATOM     15  O   UNL A   1      32.809  21.337  22.888  1.00  0.00    -0.474 OA
ATOM     16  C   UNL A   1      32.907  18.252  25.876  1.00  0.00     0.032 A 
ATOM     17  C   UNL A   1      32.692  19.646  23.603  1.00  0.00     0.146 A 
ATOM     18  C   UNL A   1      32.749  17.190  24.968  1.00  0.00     0.043 A 
ATOM     19  C   UNL A   1      32.473  18.542  22.814  1.00  0.00     0.085 A 
ATOM     20  Cl  UNL A   1      32.776  15.586  25.633  1.00  0.00    -0.084 Cl
ATOM     21  C   UNL A   1      32.537  17.321  23.533  1.00  0.00     0.045 A 
ATOM     22  Cl  UNL A   1      32.041  18.546  21.168  1.00  0.00    -0.080 Cl
BRANCH  13  23
ATOM     23  C   UNL A   1      34.362  23.880  24.330  1.00  0.00     0.430 C 
ATOM     24  F   UNL A   1      34.680  24.195  25.598  1.00  0.00    -0.167 F 
ATOM     25  F   UNL A   1      35.468  23.219  23.866  1.00  0.00    -0.167 F 
ATOM     26  F   UNL A   1      34.340  25.032  23.614  1.00  0.00    -0.167 F 
ENDBRANCH  13  23
ENDBRANCH   9  11
ENDBRANCH   8   9
ENDBRANCH   7   8
ENDBRANCH   6   7
ENDBRANCH   5   6
ENDBRANCH   4   5
ENDBRANCH   3   4
ENDBRANCH   2   3
ENDBRANCH   1   2
BRANCH   1  27
ATOM     27  C   UNL A   1      28.876  31.632  23.882  1.00  0.00     0.188 C 
BRANCH  27  28
ATOM     28  O   UNL A   1      29.929  32.167  24.662  1.00  0.00    -0.376 OA
BRANCH  28  29
ATOM     29  C   UNL A   1      30.757  31.345  25.463  1.00  0.00     0.202 C 
BRANCH  29  30
ATOM     30  C   UNL A   1      31.379  31.855  26.772  1.00  0.00     0.261 C 
BRANCH  30  31
ATOM     31  O   UNL A   1      32.747  31.497  27.007  1.00  0.00    -0.460 OA
BRANCH  31  32
ATOM     32  C   UNL A   1      33.502  32.458  27.578  1.00  0.00     0.338 C 
ATOM     33  O   UNL A   1      33.133  33.562  27.943  1.00  0.00    -0.246 OA
BRANCH  32  34
ATOM     34  C   UNL A   1      34.852  31.932  27.879  1.00  0.00     0.060 A 
ATOM     35  C   UNL A   1      34.976  30.555  28.116  1.00  0.00     0.016 A 
ATOM     36  C   UNL A   1      35.965  32.768  27.985  1.00  0.00     0.016 A 
ATOM     37  C   UNL A   1      36.183  30.017  28.542  1.00  0.00     0.010 A 
ATOM     38  C   UNL A   1      37.170  32.238  28.459  1.00  0.00     0.010 A 
ATOM     39  C   UNL A   1      37.252  30.876  28.807  1.00  0.00    -0.014 A 
BRANCH  39  40
ATOM     40  C   UNL A   1      38.298  30.407  29.746  1.00  0.00     0.031 A 
ATOM     41  C   UNL A   1      39.321  29.435  29.219  1.00  0.00     0.074 A 
ATOM     42  C   UNL A   1      38.395  30.889  30.994  1.00  0.00     0.049 A 
ATOM     43  N   UNL A   1      40.332  28.871  29.829  1.00  0.00    -0.248 NA
ATOM     44  C   UNL A   1      39.179  29.043  27.808  1.00  0.00     0.031 C 
ATOM     45  C   UNL A   1      37.509  31.888  31.586  1.00  0.00     0.029 A 
ATOM     46  N   UNL A   1      39.293  30.596  31.988  1.00  0.00    -0.354 N 
ATOM     47  C   UNL A   1      40.925  28.043  28.884  1.00  0.00     0.074 A 
ATOM     48  C   UNL A   1      40.143  28.148  27.673  1.00  0.00     0.031 C 
ATOM     49  C   UNL A   1      37.908  32.124  32.848  1.00  0.00     0.029 A 
ATOM     50  C   UNL A   1      39.050  31.264  33.160  1.00  0.00     0.049 A 
ATOM     51  H   UNL A   1      40.041  29.967  31.870  1.00  0.00     0.167 HD
ATOM     52  C   UNL A   1      42.028  27.268  29.012  1.00  0.00     0.037 A 
ATOM     53  C   UNL A   1      39.672  31.172  34.350  1.00  0.00     0.037 A 
ATOM     54  C   UNL A   1      42.796  27.168  30.224  1.00  0.00     0.049 A 
ATOM     55  C   UNL A   1      40.844  30.234  34.497  1.00  0.00     0.074 A 
ATOM     56  C   UNL A   1      43.939  26.427  30.461  1.00  0.00     0.029 A 
ATOM     57  N   UNL A   1      42.487  27.817  31.410  1.00  0.00    -0.354 N 
ATOM     58  N   UNL A   1      41.413  29.463  33.600  1.00  0.00    -0.248 NA
ATOM     59  C   UNL A   1      41.468  30.163  35.825  1.00  0.00     0.031 C 
ATOM     60  C   UNL A   1      44.268  26.558  31.814  1.00  0.00     0.029 A 
ATOM     61  C   UNL A   1      43.395  27.463  32.395  1.00  0.00     0.049 A 
ATOM     62  H   UNL A   1      41.732  28.439  31.534  1.00  0.00     0.167 HD
ATOM     63  C   UNL A   1      42.487  28.855  34.239  1.00  0.00     0.074 A 
ATOM     64  C   UNL A   1      42.492  29.353  35.600  1.00  0.00     0.031 C 
ATOM     65  C   UNL A   1      43.394  27.974  33.744  1.00  0.00     0.037 A 
BRANCH  52  66
ATOM     66  C   UNL A   1      42.421  26.422  27.831  1.00  0.00     0.064 A 
ATOM     67  C   UNL A   1      43.393  26.830  26.904  1.00  0.00     0.173 A 
ATOM     68  C   UNL A   1      41.801  25.180  27.620  1.00  0.00     0.173 A 
ATOM     69  F   UNL A   1      44.010  28.014  27.046  1.00  0.00    -0.203 F 
ATOM     70  C   UNL A   1      43.692  26.051  25.787  1.00  0.00     0.198 A 
ATOM     71  C   UNL A   1      42.136  24.384  26.529  1.00  0.00     0.198 A 
ATOM     72  F   UNL A   1      40.868  24.735  28.475  1.00  0.00    -0.203 F 
ATOM     73  F   UNL A   1      44.566  26.500  24.875  1.00  0.00    -0.200 F 
ATOM     74  C   UNL A   1      43.069  24.827  25.604  1.00  0.00     0.200 A 
ATOM     75  F   UNL A   1      41.546  23.192  26.366  1.00  0.00    -0.200 F 
ATOM     76  F   UNL A   1      43.358  24.078  24.531  1.00  0.00    -0.200 F 
ENDBRANCH  52  66
BRANCH  53  77
ATOM     77  C   UNL A   1      39.208  31.996  35.497  1.00  0.00     0.064 A 
ATOM     78  C   UNL A   1      39.618  33.330  35.639  1.00  0.00     0.173 A 
ATOM     79  C   UNL A   1      38.358  31.468  36.479  1.00  0.00     0.173 A 
ATOM     80  F   UNL A   1      40.449  33.874  34.738  1.00  0.00    -0.203 F 
ATOM     81  C   UNL A   1      39.214  34.095  36.731  1.00  0.00     0.198 A 
ATOM     82  C   UNL A   1      37.925  32.245  37.552  1.00  0.00     0.198 A 
ATOM     83  F   UNL A   1      37.935  30.198  36.392  1.00  0.00    -0.203 F 
ATOM     84  F   UNL A   1      39.663  35.350  36.869  1.00  0.00    -0.200 F 
ATOM     85  C   UNL A   1      38.361  33.555  37.682  1.00  0.00     0.200 A 
ATOM     86  F   UNL A   1      37.088  31.725  38.459  1.00  0.00    -0.200 F 
ATOM     87  F   UNL A   1      37.966  34.294  38.727  1.00  0.00    -0.200 F 
ENDBRANCH  53  77
BRANCH  65  88
ATOM     88  C   UNL A   1      44.519  27.551  34.651  1.00  0.00     0.064 A 
ATOM     89  C   UNL A   1      44.434  26.420  35.477  1.00  0.00     0.173 A 
ATOM     90  C   UNL A   1      45.716  28.284  34.671  1.00  0.00     0.173 A 
ATOM     91  F   UNL A   1      43.314  25.684  35.504  1.00  0.00    -0.203 F 
ATOM     92  C   UNL A   1      45.484  26.071  36.324  1.00  0.00     0.198 A 
ATOM     93  C   UNL A   1      46.781  27.905  35.484  1.00  0.00     0.198 A 
ATOM     94  F   UNL A   1      45.861  29.368  33.892  1.00  0.00    -0.203 F 
ATOM     95  F   UNL A   1      45.351  25.032  37.160  1.00  0.00    -0.200 F 
ATOM     96  C   UNL A   1      46.659  26.809  36.321  1.00  0.00     0.200 A 
ATOM     97  F   UNL A   1      47.924  28.606  35.458  1.00  0.00    -0.200 F 
ATOM     98  F   UNL A   1      47.669  26.468  37.132  1.00  0.00    -0.200 F 
ENDBRANCH  65  88
ENDBRANCH  39  40
ENDBRANCH  32  34
ENDBRANCH  31  32
ENDBRANCH  30  31
ENDBRANCH  29  30
ENDBRANCH  28  29
ENDBRANCH  27  28
ENDBRANCH   1  27
TORSDOF 21
ENDMDL
