MODEL 1
REMARK VINA RESULT:     -11.2      0.000      0.000
REMARK SMILES Cc1cccc(N2C(=O)/C(=C/c3ccc(C(=O)OCCOCCOCCOCCOC(=O)c4ccc(-c5c6nc(c(-c7c(F)c(F)c(F)c(F)c7F)c7ccc([nH]7)c(-c7c(F)c(F)c(F)c(F)c7F)c7nc(c(-c8c(F)c(F)c(F)c(F)c8F)c8ccc5[nH]8)C=C7)C=C6)cc4)cc3)c3ccccc3C2=O)c1
REMARK SMILES IDX 24 1 23 2 22 3 21 4 20 5 19 6 18 7 16 8 17 9 15 10 12 11
REMARK SMILES IDX 13 12 97 13 14 14 96 15 11 16 7 17 8 18 104 19 9 20 10 21
REMARK SMILES IDX 103 22 105 23 98 24 102 25 99 26 101 27 100 28 6 29 1 30
REMARK SMILES IDX 2 31 3 32 106 33 4 34 5 35 25 36 26 37 27 38 28 39 29 40
REMARK SMILES IDX 30 41 31 42 32 43 33 44 34 45 95 46 35 47 94 48 36 49 37 50
REMARK SMILES IDX 38 51 88 52 39 53 93 54 87 55 89 56 40 57 92 58 86 59 85 60
REMARK SMILES IDX 41 62 73 63 53 64 72 65 54 66 57 67 71 68 90 69 55 70 56 71
REMARK SMILES IDX 70 73 91 74 58 75 42 76 43 77 51 78 44 79 45 80 49 81 52 82
REMARK SMILES IDX 46 83 47 84 50 85 48 86 74 87 75 88 83 89 76 90 77 91 81 92
REMARK SMILES IDX 84 93 78 94 79 95 82 96 80 97 59 98 60 99 68 100 61 101
REMARK SMILES IDX 62 102 66 103 69 104 63 105 64 106 67 107 65 108
REMARK H PARENT 89 61 57 72
REMARK Flexibility Score: inf
ROOT
ATOM      1  O   UNL A   1      35.735  35.051  33.244  1.00  0.00    -0.377 OA
ENDROOT
BRANCH   1   2
ATOM      2  C   UNL A   1      36.385  34.427  32.136  1.00  0.00     0.188 C 
BRANCH   2   3
ATOM      3  C   UNL A   1      35.555  34.360  30.857  1.00  0.00     0.188 C 
BRANCH   3   4
ATOM      4  O   UNL A   1      34.137  34.368  30.967  1.00  0.00    -0.376 OA
BRANCH   4   5
ATOM      5  C   UNL A   1      33.469  35.172  29.999  1.00  0.00     0.202 C 
BRANCH   5   6
ATOM      6  C   UNL A   1      33.278  34.528  28.629  1.00  0.00     0.261 C 
BRANCH   6   7
ATOM      7  O   UNL A   1      33.466  33.117  28.671  1.00  0.00    -0.460 OA
BRANCH   7   8
ATOM      8  C   UNL A   1      34.469  32.654  27.894  1.00  0.00     0.338 C 
ATOM      9  O   UNL A   1      35.524  33.192  27.627  1.00  0.00    -0.246 OA
BRANCH   8  10
ATOM     10  C   UNL A   1      34.205  31.214  27.756  1.00  0.00     0.060 A 
ATOM     11  C   UNL A   1      33.543  28.635  26.956  1.00  0.00    -0.025 A 
ATOM     12  C   UNL A   1      32.548  29.609  27.116  1.00  0.00     0.009 A 
ATOM     13  C   UNL A   1      34.879  28.960  27.225  1.00  0.00     0.009 A 
ATOM     14  C   UNL A   1      32.869  30.888  27.537  1.00  0.00     0.016 A 
ATOM     15  C   UNL A   1      35.220  30.264  27.597  1.00  0.00     0.016 A 
BRANCH  11  16
ATOM     16  C   UNL A   1      33.050  27.302  26.611  1.00  0.00     0.022 C 
ATOM     17  N   UNL A   1      32.444  24.773  24.404  1.00  0.00    -0.242 N 
ATOM     18  C   UNL A   1      32.134  25.362  25.639  1.00  0.00     0.265 C 
ATOM     19  C   UNL A   1      32.336  25.544  23.219  1.00  0.00     0.265 C 
ATOM     20  O   UNL A   1      31.790  24.832  26.693  1.00  0.00    -0.268 OA
ATOM     21  C   UNL A   1      32.249  26.848  25.632  1.00  0.00     0.049 C 
ATOM     22  C   UNL A   1      31.645  26.866  23.313  1.00  0.00     0.048 A 
ATOM     23  O   UNL A   1      32.732  25.248  22.094  1.00  0.00    -0.268 OA
ATOM     24  C   UNL A   1      31.594  27.531  24.537  1.00  0.00    -0.000 A 
ATOM     25  C   UNL A   1      31.051  27.440  22.181  1.00  0.00     0.014 A 
ATOM     26  C   UNL A   1      30.881  28.730  24.653  1.00  0.00     0.010 A 
ATOM     27  C   UNL A   1      30.370  28.653  22.291  1.00  0.00     0.001 A 
ATOM     28  C   UNL A   1      30.275  29.292  23.528  1.00  0.00     0.001 A 
BRANCH  17  29
ATOM     29  C   UNL A   1      32.846  23.362  24.362  1.00  0.00     0.053 A 
ATOM     30  C   UNL A   1      35.844  21.188  25.395  1.00  0.00     0.044 C 
ATOM     31  C   UNL A   1      34.508  21.578  24.829  1.00  0.00    -0.049 A 
ATOM     32  C   UNL A   1      33.640  20.613  24.334  1.00  0.00     0.003 A 
ATOM     33  C   UNL A   1      34.105  22.926  24.829  1.00  0.00     0.030 A 
ATOM     34  C   UNL A   1      32.405  21.000  23.835  1.00  0.00     0.002 A 
ATOM     35  C   UNL A   1      32.019  22.351  23.847  1.00  0.00     0.027 A 
ENDBRANCH  17  29
ENDBRANCH  11  16
ENDBRANCH   8  10
ENDBRANCH   7   8
ENDBRANCH   6   7
ENDBRANCH   5   6
ENDBRANCH   4   5
ENDBRANCH   3   4
ENDBRANCH   2   3
ENDBRANCH   1   2
BRANCH   1  36
ATOM     36  C   UNL A   1      35.782  34.202  34.389  1.00  0.00     0.188 C 
BRANCH  36  37
ATOM     37  C   UNL A   1      35.875  32.726  34.005  1.00  0.00     0.188 C 
BRANCH  37  38
ATOM     38  O   UNL A   1      37.071  32.070  34.402  1.00  0.00    -0.376 OA
BRANCH  38  39
ATOM     39  C   UNL A   1      37.707  32.462  35.615  1.00  0.00     0.202 C 
BRANCH  39  40
ATOM     40  C   UNL A   1      39.215  32.747  35.519  1.00  0.00     0.261 C 
BRANCH  40  41
ATOM     41  O   UNL A   1      39.611  32.840  34.137  1.00  0.00    -0.460 OA
BRANCH  41  42
ATOM     42  C   UNL A   1      39.747  34.100  33.642  1.00  0.00     0.338 C 
ATOM     43  O   UNL A   1      39.201  35.097  34.084  1.00  0.00    -0.246 OA
BRANCH  42  44
ATOM     44  C   UNL A   1      40.373  34.033  32.285  1.00  0.00     0.060 A 
ATOM     45  C   UNL A   1      39.725  33.333  31.251  1.00  0.00     0.016 A 
ATOM     46  C   UNL A   1      41.732  34.297  32.178  1.00  0.00     0.016 A 
ATOM     47  C   UNL A   1      40.476  32.716  30.231  1.00  0.00     0.010 A 
ATOM     48  C   UNL A   1      42.465  33.606  31.230  1.00  0.00     0.010 A 
ATOM     49  C   UNL A   1      41.868  32.757  30.281  1.00  0.00    -0.014 A 
BRANCH  49  50
ATOM     50  C   UNL A   1      42.799  31.839  29.573  1.00  0.00     0.031 A 
ATOM     51  C   UNL A   1      42.667  30.353  29.794  1.00  0.00     0.074 A 
ATOM     52  C   UNL A   1      43.452  32.311  28.473  1.00  0.00     0.049 A 
ATOM     53  N   UNL A   1      43.311  29.434  29.153  1.00  0.00    -0.248 NA
ATOM     54  C   UNL A   1      41.767  29.763  30.792  1.00  0.00     0.031 C 
ATOM     55  C   UNL A   1      43.776  31.569  27.249  1.00  0.00     0.029 A 
ATOM     56  N   UNL A   1      43.915  33.608  28.176  1.00  0.00    -0.354 N 
ATOM     57  C   UNL A   1      42.664  28.221  29.357  1.00  0.00     0.074 A 
ATOM     58  C   UNL A   1      41.793  28.464  30.473  1.00  0.00     0.031 C 
ATOM     59  C   UNL A   1      44.439  32.344  26.380  1.00  0.00     0.029 A 
ATOM     60  C   UNL A   1      44.872  33.485  27.133  1.00  0.00     0.049 A 
ATOM     61  H   UNL A   1      43.628  34.444  28.610  1.00  0.00     0.167 HD
ATOM     62  C   UNL A   1      42.827  27.210  28.443  1.00  0.00     0.037 A 
ATOM     63  C   UNL A   1      46.200  33.732  27.354  1.00  0.00     0.037 A 
ATOM     64  C   UNL A   1      43.906  27.521  27.488  1.00  0.00     0.049 A 
ATOM     65  C   UNL A   1      47.053  32.468  27.287  1.00  0.00     0.074 A 
ATOM     66  C   UNL A   1      44.028  27.498  26.111  1.00  0.00     0.029 A 
ATOM     67  N   UNL A   1      45.089  28.093  27.956  1.00  0.00    -0.354 N 
ATOM     68  N   UNL A   1      46.551  31.263  27.439  1.00  0.00    -0.248 NA
ATOM     69  C   UNL A   1      48.471  32.415  26.938  1.00  0.00     0.031 C 
ATOM     70  C   UNL A   1      45.198  28.226  25.755  1.00  0.00     0.029 A 
ATOM     71  C   UNL A   1      45.873  28.546  26.923  1.00  0.00     0.049 A 
ATOM     72  H   UNL A   1      45.332  28.163  28.908  1.00  0.00     0.167 HD
ATOM     73  C   UNL A   1      47.497  30.314  27.173  1.00  0.00     0.074 A 
ATOM     74  C   UNL A   1      48.692  31.085  26.889  1.00  0.00     0.031 C 
ATOM     75  C   UNL A   1      47.238  28.971  27.179  1.00  0.00     0.037 A 
BRANCH  62  76
ATOM     76  C   UNL A   1      41.878  26.018  28.231  1.00  0.00     0.064 A 
ATOM     77  C   UNL A   1      42.320  24.695  28.485  1.00  0.00     0.173 A 
ATOM     78  C   UNL A   1      40.587  26.085  27.659  1.00  0.00     0.173 A 
ATOM     79  F   UNL A   1      43.505  24.463  29.069  1.00  0.00    -0.203 F 
ATOM     80  C   UNL A   1      41.567  23.556  28.159  1.00  0.00     0.198 A 
ATOM     81  C   UNL A   1      39.806  24.947  27.397  1.00  0.00     0.198 A 
ATOM     82  F   UNL A   1      40.040  27.243  27.278  1.00  0.00    -0.203 F 
ATOM     83  F   UNL A   1      42.078  22.333  28.366  1.00  0.00    -0.200 F 
ATOM     84  C   UNL A   1      40.303  23.681  27.625  1.00  0.00     0.200 A 
ATOM     85  F   UNL A   1      38.567  25.091  26.901  1.00  0.00    -0.200 F 
ATOM     86  F   UNL A   1      39.569  22.598  27.335  1.00  0.00    -0.200 F 
ENDBRANCH  62  76
BRANCH  63  87
ATOM     87  C   UNL A   1      46.369  35.029  28.084  1.00  0.00     0.064 A 
ATOM     88  C   UNL A   1      46.056  36.146  27.270  1.00  0.00     0.173 A 
ATOM     89  C   UNL A   1      46.006  35.107  29.437  1.00  0.00     0.173 A 
ATOM     90  F   UNL A   1      46.424  36.149  25.978  1.00  0.00    -0.203 F 
ATOM     91  C   UNL A   1      45.124  37.094  27.688  1.00  0.00     0.198 A 
ATOM     92  C   UNL A   1      45.119  36.101  29.870  1.00  0.00     0.198 A 
ATOM     93  F   UNL A   1      46.328  34.115  30.279  1.00  0.00    -0.203 F 
ATOM     94  F   UNL A   1      44.603  37.953  26.799  1.00  0.00    -0.200 F 
ATOM     95  C   UNL A   1      44.614  37.036  28.974  1.00  0.00     0.200 A 
ATOM     96  F   UNL A   1      44.629  36.063  31.118  1.00  0.00    -0.200 F 
ATOM     97  F   UNL A   1      43.583  37.819  29.321  1.00  0.00    -0.200 F 
ENDBRANCH  63  87
BRANCH  75  98
ATOM     98  C   UNL A   1      48.253  27.868  27.410  1.00  0.00     0.064 A 
ATOM     99  C   UNL A   1      48.370  27.183  28.628  1.00  0.00     0.173 A 
ATOM    100  C   UNL A   1      48.967  27.293  26.322  1.00  0.00     0.173 A 
ATOM    101  F   UNL A   1      47.668  27.551  29.707  1.00  0.00    -0.203 F 
ATOM    102  C   UNL A   1      49.162  26.040  28.758  1.00  0.00     0.198 A 
ATOM    103  C   UNL A   1      49.703  26.117  26.443  1.00  0.00     0.198 A 
ATOM    104  F   UNL A   1      48.946  27.821  25.091  1.00  0.00    -0.203 F 
ATOM    105  F   UNL A   1      49.259  25.439  29.952  1.00  0.00    -0.200 F 
ATOM    106  C   UNL A   1      49.811  25.496  27.665  1.00  0.00     0.200 A 
ATOM    107  F   UNL A   1      50.276  25.576  25.357  1.00  0.00    -0.200 F 
ATOM    108  F   UNL A   1      50.518  24.366  27.786  1.00  0.00    -0.200 F 
ENDBRANCH  75  98
ENDBRANCH  49  50
ENDBRANCH  42  44
ENDBRANCH  41  42
ENDBRANCH  40  41
ENDBRANCH  39  40
ENDBRANCH  38  39
ENDBRANCH  37  38
ENDBRANCH  36  37
ENDBRANCH   1  36
TORSDOF 22
ENDMDL
MODEL 2
REMARK VINA RESULT:     -11.0      3.669      6.415
REMARK SMILES Cc1cccc(N2C(=O)/C(=C/c3ccc(C(=O)OCCOCCOCCOCCOC(=O)c4ccc(-c5c6nc(c(-c7c(F)c(F)c(F)c(F)c7F)c7ccc([nH]7)c(-c7c(F)c(F)c(F)c(F)c7F)c7nc(c(-c8c(F)c(F)c(F)c(F)c8F)c8ccc5[nH]8)C=C7)C=C6)cc4)cc3)c3ccccc3C2=O)c1
REMARK SMILES IDX 24 1 23 2 22 3 21 4 20 5 19 6 18 7 16 8 17 9 15 10 12 11
REMARK SMILES IDX 13 12 97 13 14 14 96 15 11 16 7 17 8 18 104 19 9 20 10 21
REMARK SMILES IDX 103 22 105 23 98 24 102 25 99 26 101 27 100 28 6 29 1 30
REMARK SMILES IDX 2 31 3 32 106 33 4 34 5 35 25 36 26 37 27 38 28 39 29 40
REMARK SMILES IDX 30 41 31 42 32 43 33 44 34 45 95 46 35 47 94 48 36 49 37 50
REMARK SMILES IDX 38 51 88 52 39 53 93 54 87 55 89 56 40 57 92 58 86 59 85 60
REMARK SMILES IDX 41 62 73 63 53 64 72 65 54 66 57 67 71 68 90 69 55 70 56 71
REMARK SMILES IDX 70 73 91 74 58 75 42 76 43 77 51 78 44 79 45 80 49 81 52 82
REMARK SMILES IDX 46 83 47 84 50 85 48 86 74 87 75 88 83 89 76 90 77 91 81 92
REMARK SMILES IDX 84 93 78 94 79 95 82 96 80 97 59 98 60 99 68 100 61 101
REMARK SMILES IDX 62 102 66 103 69 104 63 105 64 106 67 107 65 108
REMARK H PARENT 89 61 57 72
REMARK Flexibility Score: inf
ROOT
ATOM      1  O   UNL A   1      36.724  32.836  33.886  1.00  0.00    -0.377 OA
ENDROOT
BRANCH   1   2
ATOM      2  C   UNL A   1      35.751  33.880  33.940  1.00  0.00     0.188 C 
BRANCH   2   3
ATOM      3  C   UNL A   1      34.325  33.449  33.611  1.00  0.00     0.188 C 
BRANCH   3   4
ATOM      4  O   UNL A   1      34.030  33.037  32.282  1.00  0.00    -0.376 OA
BRANCH   4   5
ATOM      5  C   UNL A   1      34.125  34.068  31.304  1.00  0.00     0.202 C 
BRANCH   5   6
ATOM      6  C   UNL A   1      34.951  33.726  30.066  1.00  0.00     0.261 C 
BRANCH   6   7
ATOM      7  O   UNL A   1      34.406  32.623  29.349  1.00  0.00    -0.460 OA
BRANCH   7   8
ATOM      8  C   UNL A   1      34.740  32.574  28.041  1.00  0.00     0.338 C 
ATOM      9  O   UNL A   1      35.602  33.202  27.460  1.00  0.00    -0.246 OA
BRANCH   8  10
ATOM     10  C   UNL A   1      34.127  31.335  27.541  1.00  0.00     0.060 A 
ATOM     11  C   UNL A   1      33.037  28.807  27.143  1.00  0.00    -0.025 A 
ATOM     12  C   UNL A   1      34.405  28.960  27.414  1.00  0.00     0.009 A 
ATOM     13  C   UNL A   1      32.220  29.941  27.050  1.00  0.00     0.009 A 
ATOM     14  C   UNL A   1      34.956  30.217  27.590  1.00  0.00     0.016 A 
ATOM     15  C   UNL A   1      32.758  31.211  27.280  1.00  0.00     0.016 A 
BRANCH  11  16
ATOM     16  C   UNL A   1      32.612  27.435  26.875  1.00  0.00     0.022 C 
ATOM     17  N   UNL A   1      32.277  24.706  24.857  1.00  0.00    -0.242 N 
ATOM     18  C   UNL A   1      31.838  25.388  26.001  1.00  0.00     0.265 C 
ATOM     19  C   UNL A   1      32.260  25.367  23.603  1.00  0.00     0.265 C 
ATOM     20  O   UNL A   1      31.411  24.941  27.062  1.00  0.00    -0.268 OA
ATOM     21  C   UNL A   1      31.917  26.872  25.872  1.00  0.00     0.049 C 
ATOM     22  C   UNL A   1      31.530  26.669  23.516  1.00  0.00     0.048 A 
ATOM     23  O   UNL A   1      32.766  24.988  22.549  1.00  0.00    -0.268 OA
ATOM     24  C   UNL A   1      31.350  27.436  24.665  1.00  0.00    -0.000 A 
ATOM     25  C   UNL A   1      31.030  27.123  22.288  1.00  0.00     0.014 A 
ATOM     26  C   UNL A   1      30.599  28.615  24.610  1.00  0.00     0.010 A 
ATOM     27  C   UNL A   1      30.312  28.318  22.228  1.00  0.00     0.001 A 
ATOM     28  C   UNL A   1      30.087  29.058  23.389  1.00  0.00     0.001 A 
BRANCH  17  29
ATOM     29  C   UNL A   1      32.715  23.310  24.977  1.00  0.00     0.053 A 
ATOM     30  C   UNL A   1      35.958  21.359  25.650  1.00  0.00     0.044 C 
ATOM     31  C   UNL A   1      34.513  21.640  25.353  1.00  0.00    -0.049 A 
ATOM     32  C   UNL A   1      33.595  20.602  25.260  1.00  0.00     0.003 A 
ATOM     33  C   UNL A   1      34.065  22.965  25.205  1.00  0.00     0.030 A 
ATOM     34  C   UNL A   1      32.262  20.893  25.004  1.00  0.00     0.002 A 
ATOM     35  C   UNL A   1      31.834  22.223  24.863  1.00  0.00     0.027 A 
ENDBRANCH  17  29
ENDBRANCH  11  16
ENDBRANCH   8  10
ENDBRANCH   7   8
ENDBRANCH   6   7
ENDBRANCH   5   6
ENDBRANCH   4   5
ENDBRANCH   3   4
ENDBRANCH   2   3
ENDBRANCH   1   2
BRANCH   1  36
ATOM     36  C   UNL A   1      37.556  32.873  35.044  1.00  0.00     0.188 C 
BRANCH  36  37
ATOM     37  C   UNL A   1      38.855  33.637  34.792  1.00  0.00     0.188 C 
BRANCH  37  38
ATOM     38  O   UNL A   1      38.829  35.012  35.149  1.00  0.00    -0.376 OA
BRANCH  38  39
ATOM     39  C   UNL A   1      39.868  35.535  35.971  1.00  0.00     0.202 C 
BRANCH  39  40
ATOM     40  C   UNL A   1      39.887  35.036  37.425  1.00  0.00     0.261 C 
BRANCH  40  41
ATOM     41  O   UNL A   1      41.240  34.747  37.829  1.00  0.00    -0.460 OA
BRANCH  41  42
ATOM     42  C   UNL A   1      41.451  33.509  38.353  1.00  0.00     0.338 C 
ATOM     43  O   UNL A   1      40.979  33.092  39.397  1.00  0.00    -0.246 OA
BRANCH  42  44
ATOM     44  C   UNL A   1      42.607  32.867  37.652  1.00  0.00     0.060 A 
ATOM     45  C   UNL A   1      43.022  33.355  36.400  1.00  0.00     0.016 A 
ATOM     46  C   UNL A   1      42.974  31.584  38.037  1.00  0.00     0.016 A 
ATOM     47  C   UNL A   1      43.610  32.488  35.459  1.00  0.00     0.010 A 
ATOM     48  C   UNL A   1      43.461  30.721  37.072  1.00  0.00     0.010 A 
ATOM     49  C   UNL A   1      43.730  31.132  35.754  1.00  0.00    -0.014 A 
BRANCH  49  50
ATOM     50  C   UNL A   1      43.913  30.032  34.769  1.00  0.00     0.031 A 
ATOM     51  C   UNL A   1      45.299  29.490  34.531  1.00  0.00     0.074 A 
ATOM     52  C   UNL A   1      42.820  29.293  34.423  1.00  0.00     0.049 A 
ATOM     53  N   UNL A   1      45.593  28.458  33.811  1.00  0.00    -0.248 NA
ATOM     54  C   UNL A   1      46.510  30.090  35.104  1.00  0.00     0.031 C 
ATOM     55  C   UNL A   1      42.778  27.852  34.144  1.00  0.00     0.029 A 
ATOM     56  N   UNL A   1      41.466  29.665  34.314  1.00  0.00    -0.354 N 
ATOM     57  C   UNL A   1      46.883  28.051  34.131  1.00  0.00     0.074 A 
ATOM     58  C   UNL A   1      47.443  29.167  34.842  1.00  0.00     0.031 C 
ATOM     59  C   UNL A   1      41.538  27.463  33.819  1.00  0.00     0.029 A 
ATOM     60  C   UNL A   1      40.818  28.670  33.534  1.00  0.00     0.049 A 
ATOM     61  H   UNL A   1      41.048  30.466  34.705  1.00  0.00     0.167 HD
ATOM     62  C   UNL A   1      47.257  26.752  33.897  1.00  0.00     0.037 A 
ATOM     63  C   UNL A   1      40.352  28.943  32.276  1.00  0.00     0.037 A 
ATOM     64  C   UNL A   1      46.252  26.045  33.082  1.00  0.00     0.049 A 
ATOM     65  C   UNL A   1      41.149  28.230  31.187  1.00  0.00     0.074 A 
ATOM     66  C   UNL A   1      45.589  24.835  33.183  1.00  0.00     0.029 A 
ATOM     67  N   UNL A   1      45.670  26.698  31.996  1.00  0.00    -0.354 N 
ATOM     68  N   UNL A   1      42.368  27.779  31.378  1.00  0.00    -0.248 NA
ATOM     69  C   UNL A   1      40.642  27.858  29.867  1.00  0.00     0.031 C 
ATOM     70  C   UNL A   1      44.492  24.852  32.276  1.00  0.00     0.029 A 
ATOM     71  C   UNL A   1      44.589  26.003  31.510  1.00  0.00     0.049 A 
ATOM     72  H   UNL A   1      45.993  27.551  31.625  1.00  0.00     0.167 HD
ATOM     73  C   UNL A   1      42.781  27.047  30.300  1.00  0.00     0.074 A 
ATOM     74  C   UNL A   1      41.675  27.147  29.368  1.00  0.00     0.031 C 
ATOM     75  C   UNL A   1      43.981  26.393  30.250  1.00  0.00     0.037 A 
BRANCH  62  76
ATOM     76  C   UNL A   1      48.415  26.005  34.579  1.00  0.00     0.064 A 
ATOM     77  C   UNL A   1      48.217  25.357  35.825  1.00  0.00     0.173 A 
ATOM     78  C   UNL A   1      49.761  25.998  34.144  1.00  0.00     0.173 A 
ATOM     79  F   UNL A   1      46.991  25.237  36.353  1.00  0.00    -0.203 F 
ATOM     80  C   UNL A   1      49.264  24.801  36.578  1.00  0.00     0.198 A 
ATOM     81  C   UNL A   1      50.796  25.380  34.865  1.00  0.00     0.198 A 
ATOM     82  F   UNL A   1      50.149  26.630  33.033  1.00  0.00    -0.203 F 
ATOM     83  F   UNL A   1      49.011  24.264  37.781  1.00  0.00    -0.200 F 
ATOM     84  C   UNL A   1      50.553  24.801  36.092  1.00  0.00     0.200 A 
ATOM     85  F   UNL A   1      52.041  25.369  34.363  1.00  0.00    -0.200 F 
ATOM     86  F   UNL A   1      51.552  24.249  36.796  1.00  0.00    -0.200 F 
ENDBRANCH  62  76
BRANCH  63  87
ATOM     87  C   UNL A   1      39.561  30.215  32.284  1.00  0.00     0.064 A 
ATOM     88  C   UNL A   1      40.262  31.286  31.675  1.00  0.00     0.173 A 
ATOM     89  C   UNL A   1      38.175  30.162  32.074  1.00  0.00     0.173 A 
ATOM     90  F   UNL A   1      41.584  31.416  31.881  1.00  0.00    -0.203 F 
ATOM     91  C   UNL A   1      39.686  32.016  30.637  1.00  0.00     0.198 A 
ATOM     92  C   UNL A   1      37.585  30.946  31.074  1.00  0.00     0.198 A 
ATOM     93  F   UNL A   1      37.439  29.216  32.673  1.00  0.00    -0.203 F 
ATOM     94  F   UNL A   1      40.456  32.797  29.864  1.00  0.00    -0.200 F 
ATOM     95  C   UNL A   1      38.359  31.804  30.303  1.00  0.00     0.200 A 
ATOM     96  F   UNL A   1      36.297  30.760  30.751  1.00  0.00    -0.200 F 
ATOM     97  F   UNL A   1      37.854  32.357  29.191  1.00  0.00    -0.200 F 
ENDBRANCH  63  87
BRANCH  75  98
ATOM     98  C   UNL A   1      44.739  26.015  28.992  1.00  0.00     0.064 A 
ATOM     99  C   UNL A   1      45.641  26.879  28.356  1.00  0.00     0.173 A 
ATOM    100  C   UNL A   1      44.769  24.667  28.536  1.00  0.00     0.173 A 
ATOM    101  F   UNL A   1      45.794  28.148  28.757  1.00  0.00    -0.203 F 
ATOM    102  C   UNL A   1      46.478  26.444  27.326  1.00  0.00     0.198 A 
ATOM    103  C   UNL A   1      45.651  24.225  27.553  1.00  0.00     0.198 A 
ATOM    104  F   UNL A   1      43.979  23.717  29.052  1.00  0.00    -0.203 F 
ATOM    105  F   UNL A   1      47.302  27.320  26.735  1.00  0.00    -0.200 F 
ATOM    106  C   UNL A   1      46.499  25.118  26.939  1.00  0.00     0.200 A 
ATOM    107  F   UNL A   1      45.695  22.923  27.235  1.00  0.00    -0.200 F 
ATOM    108  F   UNL A   1      47.348  24.698  25.993  1.00  0.00    -0.200 F 
ENDBRANCH  75  98
ENDBRANCH  49  50
ENDBRANCH  42  44
ENDBRANCH  41  42
ENDBRANCH  40  41
ENDBRANCH  39  40
ENDBRANCH  38  39
ENDBRANCH  37  38
ENDBRANCH  36  37
ENDBRANCH   1  36
TORSDOF 22
ENDMDL
MODEL 3
REMARK VINA RESULT:     -10.9      2.586      6.454
REMARK SMILES Cc1cccc(N2C(=O)/C(=C/c3ccc(C(=O)OCCOCCOCCOCCOC(=O)c4ccc(-c5c6nc(c(-c7c(F)c(F)c(F)c(F)c7F)c7ccc([nH]7)c(-c7c(F)c(F)c(F)c(F)c7F)c7nc(c(-c8c(F)c(F)c(F)c(F)c8F)c8ccc5[nH]8)C=C7)C=C6)cc4)cc3)c3ccccc3C2=O)c1
REMARK SMILES IDX 24 1 23 2 22 3 21 4 20 5 19 6 18 7 16 8 17 9 15 10 12 11
REMARK SMILES IDX 13 12 97 13 14 14 96 15 11 16 7 17 8 18 104 19 9 20 10 21
REMARK SMILES IDX 103 22 105 23 98 24 102 25 99 26 101 27 100 28 6 29 1 30
REMARK SMILES IDX 2 31 3 32 106 33 4 34 5 35 25 36 26 37 27 38 28 39 29 40
REMARK SMILES IDX 30 41 31 42 32 43 33 44 34 45 95 46 35 47 94 48 36 49 37 50
REMARK SMILES IDX 38 51 88 52 39 53 93 54 87 55 89 56 40 57 92 58 86 59 85 60
REMARK SMILES IDX 41 62 73 63 53 64 72 65 54 66 57 67 71 68 90 69 55 70 56 71
REMARK SMILES IDX 70 73 91 74 58 75 42 76 43 77 51 78 44 79 45 80 49 81 52 82
REMARK SMILES IDX 46 83 47 84 50 85 48 86 74 87 75 88 83 89 76 90 77 91 81 92
REMARK SMILES IDX 84 93 78 94 79 95 82 96 80 97 59 98 60 99 68 100 61 101
REMARK SMILES IDX 62 102 66 103 69 104 63 105 64 106 67 107 65 108
REMARK H PARENT 89 61 57 72
REMARK Flexibility Score: inf
ROOT
ATOM      1  O   UNL A   1      38.535  33.663  30.742  1.00  0.00    -0.377 OA
ENDROOT
BRANCH   1   2
ATOM      2  C   UNL A   1      37.233  34.119  31.111  1.00  0.00     0.188 C 
BRANCH   2   3
ATOM      3  C   UNL A   1      36.757  33.666  32.488  1.00  0.00     0.188 C 
BRANCH   3   4
ATOM      4  O   UNL A   1      35.513  32.982  32.584  1.00  0.00    -0.376 OA
BRANCH   4   5
ATOM      5  C   UNL A   1      35.245  32.080  31.514  1.00  0.00     0.202 C 
BRANCH   5   6
ATOM      6  C   UNL A   1      34.454  32.663  30.346  1.00  0.00     0.261 C 
BRANCH   6   7
ATOM      7  O   UNL A   1      34.967  32.235  29.088  1.00  0.00    -0.460 OA
BRANCH   7   8
ATOM      8  C   UNL A   1      34.201  32.557  28.022  1.00  0.00     0.338 C 
ATOM      9  O   UNL A   1      34.186  33.596  27.393  1.00  0.00    -0.246 OA
BRANCH   8  10
ATOM     10  C   UNL A   1      33.678  31.274  27.533  1.00  0.00     0.060 A 
ATOM     11  C   UNL A   1      32.806  28.662  27.145  1.00  0.00    -0.025 A 
ATOM     12  C   UNL A   1      34.168  28.938  27.339  1.00  0.00     0.009 A 
ATOM     13  C   UNL A   1      31.883  29.715  27.123  1.00  0.00     0.009 A 
ATOM     14  C   UNL A   1      34.609  30.239  27.509  1.00  0.00     0.016 A 
ATOM     15  C   UNL A   1      32.313  31.026  27.349  1.00  0.00     0.016 A 
BRANCH  11  16
ATOM     16  C   UNL A   1      32.495  27.260  26.873  1.00  0.00     0.022 C 
ATOM     17  N   UNL A   1      32.548  24.469  24.912  1.00  0.00    -0.242 N 
ATOM     18  C   UNL A   1      31.946  25.150  25.980  1.00  0.00     0.265 C 
ATOM     19  C   UNL A   1      32.632  25.100  23.645  1.00  0.00     0.265 C 
ATOM     20  O   UNL A   1      31.430  24.701  27.001  1.00  0.00    -0.268 OA
ATOM     21  C   UNL A   1      31.950  26.632  25.817  1.00  0.00     0.049 C 
ATOM     22  C   UNL A   1      31.841  26.351  23.440  1.00  0.00     0.048 A 
ATOM     23  O   UNL A   1      33.273  24.728  22.665  1.00  0.00    -0.268 OA
ATOM     24  C   UNL A   1      31.489  27.131  24.539  1.00  0.00    -0.000 A 
ATOM     25  C   UNL A   1      31.454  26.745  22.152  1.00  0.00     0.014 A 
ATOM     26  C   UNL A   1      30.680  28.261  24.367  1.00  0.00     0.010 A 
ATOM     27  C   UNL A   1      30.678  27.891  21.977  1.00  0.00     0.001 A 
ATOM     28  C   UNL A   1      30.282  28.643  23.084  1.00  0.00     0.001 A 
BRANCH  17  29
ATOM     29  C   UNL A   1      33.052  23.107  25.120  1.00  0.00     0.053 A 
ATOM     30  C   UNL A   1      32.467  19.575  23.720  1.00  0.00     0.044 C 
ATOM     31  C   UNL A   1      33.024  20.689  24.560  1.00  0.00    -0.049 A 
ATOM     32  C   UNL A   1      34.045  20.446  25.470  1.00  0.00     0.003 A 
ATOM     33  C   UNL A   1      32.543  22.001  24.405  1.00  0.00     0.030 A 
ATOM     34  C   UNL A   1      34.554  21.498  26.219  1.00  0.00     0.002 A 
ATOM     35  C   UNL A   1      34.062  22.802  26.047  1.00  0.00     0.027 A 
ENDBRANCH  17  29
ENDBRANCH  11  16
ENDBRANCH   8  10
ENDBRANCH   7   8
ENDBRANCH   6   7
ENDBRANCH   5   6
ENDBRANCH   4   5
ENDBRANCH   3   4
ENDBRANCH   2   3
ENDBRANCH   1   2
BRANCH   1  36
ATOM     36  C   UNL A   1      39.514  34.655  31.047  1.00  0.00     0.188 C 
BRANCH  36  37
ATOM     37  C   UNL A   1      40.258  34.345  32.345  1.00  0.00     0.188 C 
BRANCH  37  38
ATOM     38  O   UNL A   1      41.176  33.262  32.274  1.00  0.00    -0.376 OA
BRANCH  38  39
ATOM     39  C   UNL A   1      42.011  33.135  31.127  1.00  0.00     0.202 C 
BRANCH  39  40
ATOM     40  C   UNL A   1      43.513  33.366  31.364  1.00  0.00     0.261 C 
BRANCH  40  41
ATOM     41  O   UNL A   1      43.788  34.778  31.439  1.00  0.00    -0.460 OA
BRANCH  41  42
ATOM     42  C   UNL A   1      44.221  35.361  30.288  1.00  0.00     0.338 C 
ATOM     43  O   UNL A   1      43.897  36.467  29.889  1.00  0.00    -0.246 OA
BRANCH  42  44
ATOM     44  C   UNL A   1      44.865  34.324  29.422  1.00  0.00     0.060 A 
ATOM     45  C   UNL A   1      44.253  33.946  28.213  1.00  0.00     0.016 A 
ATOM     46  C   UNL A   1      45.804  33.481  30.001  1.00  0.00     0.016 A 
ATOM     47  C   UNL A   1      44.420  32.641  27.710  1.00  0.00     0.010 A 
ATOM     48  C   UNL A   1      45.881  32.175  29.552  1.00  0.00     0.010 A 
ATOM     49  C   UNL A   1      45.151  31.709  28.444  1.00  0.00    -0.014 A 
BRANCH  49  50
ATOM     50  C   UNL A   1      45.079  30.231  28.305  1.00  0.00     0.031 A 
ATOM     51  C   UNL A   1      46.159  29.517  27.532  1.00  0.00     0.074 A 
ATOM     52  C   UNL A   1      44.299  29.541  29.186  1.00  0.00     0.049 A 
ATOM     53  N   UNL A   1      46.300  28.236  27.438  1.00  0.00    -0.248 NA
ATOM     54  C   UNL A   1      47.203  30.215  26.773  1.00  0.00     0.031 C 
ATOM     55  C   UNL A   1      44.574  28.221  29.767  1.00  0.00     0.029 A 
ATOM     56  N   UNL A   1      43.099  29.911  29.823  1.00  0.00    -0.354 N 
ATOM     57  C   UNL A   1      47.585  27.967  26.981  1.00  0.00     0.074 A 
ATOM     58  C   UNL A   1      48.053  29.226  26.471  1.00  0.00     0.031 C 
ATOM     59  C   UNL A   1      43.582  27.841  30.583  1.00  0.00     0.029 A 
ATOM     60  C   UNL A   1      42.486  28.719  30.292  1.00  0.00     0.049 A 
ATOM     61  H   UNL A   1      42.750  30.826  29.924  1.00  0.00     0.167 HD
ATOM     62  C   UNL A   1      48.152  26.747  27.247  1.00  0.00     0.037 A 
ATOM     63  C   UNL A   1      41.324  28.250  29.740  1.00  0.00     0.037 A 
ATOM     64  C   UNL A   1      47.158  25.801  27.786  1.00  0.00     0.049 A 
ATOM     65  C   UNL A   1      41.527  26.961  28.949  1.00  0.00     0.074 A 
ATOM     66  C   UNL A   1      47.111  24.950  28.875  1.00  0.00     0.029 A 
ATOM     67  N   UNL A   1      45.884  25.751  27.220  1.00  0.00    -0.354 N 
ATOM     68  N   UNL A   1      42.699  26.589  28.485  1.00  0.00    -0.248 NA
ATOM     69  C   UNL A   1      40.508  25.941  28.707  1.00  0.00     0.031 C 
ATOM     70  C   UNL A   1      45.759  24.543  29.064  1.00  0.00     0.029 A 
ATOM     71  C   UNL A   1      45.019  25.014  27.991  1.00  0.00     0.049 A 
ATOM     72  H   UNL A   1      45.637  26.190  26.374  1.00  0.00     0.167 HD
ATOM     73  C   UNL A   1      42.627  25.329  27.961  1.00  0.00     0.074 A 
ATOM     74  C   UNL A   1      41.227  24.975  28.099  1.00  0.00     0.031 C 
ATOM     75  C   UNL A   1      43.711  24.654  27.472  1.00  0.00     0.037 A 
BRANCH  62  76
ATOM     76  C   UNL A   1      49.657  26.428  27.251  1.00  0.00     0.064 A 
ATOM     77  C   UNL A   1      50.448  26.718  28.391  1.00  0.00     0.173 A 
ATOM     78  C   UNL A   1      50.406  25.972  26.142  1.00  0.00     0.173 A 
ATOM     79  F   UNL A   1      49.884  27.116  29.540  1.00  0.00    -0.203 F 
ATOM     80  C   UNL A   1      51.848  26.606  28.405  1.00  0.00     0.198 A 
ATOM     81  C   UNL A   1      51.799  25.795  26.179  1.00  0.00     0.198 A 
ATOM     82  F   UNL A   1      49.838  25.727  24.957  1.00  0.00    -0.203 F 
ATOM     83  F   UNL A   1      52.538  26.963  29.498  1.00  0.00    -0.200 F 
ATOM     84  C   UNL A   1      52.524  26.132  27.301  1.00  0.00     0.200 A 
ATOM     85  F   UNL A   1      52.435  25.307  25.102  1.00  0.00    -0.200 F 
ATOM     86  F   UNL A   1      53.858  26.000  27.318  1.00  0.00    -0.200 F 
ENDBRANCH  62  76
BRANCH  63  87
ATOM     87  C   UNL A   1      40.322  29.359  29.631  1.00  0.00     0.064 A 
ATOM     88  C   UNL A   1      39.504  29.230  28.481  1.00  0.00     0.173 A 
ATOM     89  C   UNL A   1      39.710  29.847  30.795  1.00  0.00     0.173 A 
ATOM     90  F   UNL A   1      40.047  28.815  27.324  1.00  0.00    -0.203 F 
ATOM     91  C   UNL A   1      38.115  29.228  28.592  1.00  0.00     0.198 A 
ATOM     92  C   UNL A   1      38.313  29.907  30.882  1.00  0.00     0.198 A 
ATOM     93  F   UNL A   1      40.437  30.056  31.902  1.00  0.00    -0.203 F 
ATOM     94  F   UNL A   1      37.366  28.791  27.568  1.00  0.00    -0.200 F 
ATOM     95  C   UNL A   1      37.522  29.513  29.810  1.00  0.00     0.200 A 
ATOM     96  F   UNL A   1      37.727  30.196  32.053  1.00  0.00    -0.200 F 
ATOM     97  F   UNL A   1      36.204  29.326  29.972  1.00  0.00    -0.200 F 
ENDBRANCH  63  87
BRANCH  75  98
ATOM     98  C   UNL A   1      43.679  23.540  26.444  1.00  0.00     0.064 A 
ATOM     99  C   UNL A   1      44.241  23.665  25.166  1.00  0.00     0.173 A 
ATOM    100  C   UNL A   1      43.304  22.217  26.812  1.00  0.00     0.173 A 
ATOM    101  F   UNL A   1      44.735  24.831  24.731  1.00  0.00    -0.203 F 
ATOM    102  C   UNL A   1      44.384  22.569  24.312  1.00  0.00     0.198 A 
ATOM    103  C   UNL A   1      43.509  21.118  25.982  1.00  0.00     0.198 A 
ATOM    104  F   UNL A   1      42.766  21.930  28.005  1.00  0.00    -0.203 F 
ATOM    105  F   UNL A   1      44.904  22.751  23.090  1.00  0.00    -0.200 F 
ATOM    106  C   UNL A   1      44.039  21.296  24.725  1.00  0.00     0.200 A 
ATOM    107  F   UNL A   1      43.220  19.886  26.425  1.00  0.00    -0.200 F 
ATOM    108  F   UNL A   1      44.236  20.243  23.923  1.00  0.00    -0.200 F 
ENDBRANCH  75  98
ENDBRANCH  49  50
ENDBRANCH  42  44
ENDBRANCH  41  42
ENDBRANCH  40  41
ENDBRANCH  39  40
ENDBRANCH  38  39
ENDBRANCH  37  38
ENDBRANCH  36  37
ENDBRANCH   1  36
TORSDOF 22
ENDMDL
