MODEL 1
REMARK VINA RESULT:     -10.4      0.000      0.000
REMARK SMILES Cc1c(C(=O)Nc2ccc(C(=O)Nc3ccccc3C(=O)OCCOCCOCCOCCOC(=O)c3ccc(-c4c5nc(c(-c6c(F)c(F)c(F)c(F)c6F)c6ccc([nH]6)c(-c6c(F)c(F)c(F)c(F)c6F)c6nc(c(-c7c(F)c(F)c(F)c(F)c7F)c7ccc4[nH]7)C=C6)C=C5)cc3)cc2)cccc1[N+](=O)[O-]
REMARK SMILES IDX 26 1 25 2 24 3 23 4 22 5 20 6 21 7 19 8 14 9 15 10 16 11
REMARK SMILES IDX 18 12 17 13 13 14 11 15 12 16 10 18 7 19 8 20 101 21 9 22
REMARK SMILES IDX 100 23 6 24 4 25 5 26 3 28 1 29 2 30 105 31 102 32 104 33
REMARK SMILES IDX 103 34 106 35 107 36 108 37 27 38 28 39 29 40 30 41 31 42
REMARK SMILES IDX 32 43 33 44 34 45 35 46 36 47 37 48 38 49 99 50 39 51 98 52
REMARK SMILES IDX 40 53 41 54 42 55 92 56 43 57 97 58 91 59 93 60 44 61 96 62
REMARK SMILES IDX 90 63 89 64 45 66 77 67 57 68 76 69 58 70 61 71 75 72 94 73
REMARK SMILES IDX 59 74 60 75 74 77 95 78 62 79 46 80 47 81 55 82 48 83 49 84
REMARK SMILES IDX 53 85 56 86 50 87 51 88 54 89 52 90 78 91 79 92 87 93 80 94
REMARK SMILES IDX 81 95 85 96 88 97 82 98 83 99 86 100 84 101 63 102 64 103
REMARK SMILES IDX 72 104 65 105 66 106 70 107 73 108 67 109 68 110 71 111
REMARK SMILES IDX 69 112
REMARK H PARENT 13 17 6 27 93 65 61 76
REMARK Flexibility Score: inf
ROOT
ATOM      1  C   UNL A   1      39.980  20.141  25.799  1.00  0.00     0.188 C 
ENDROOT
BRANCH   1   2
ATOM      2  O   UNL A   1      38.850  19.391  25.394  1.00  0.00    -0.376 OA
BRANCH   2   3
ATOM      3  C   UNL A   1      37.835  20.113  24.743  1.00  0.00     0.202 C 
BRANCH   3   4
ATOM      4  C   UNL A   1      36.408  19.537  24.647  1.00  0.00     0.261 C 
BRANCH   4   5
ATOM      5  O   UNL A   1      35.466  19.870  25.658  1.00  0.00    -0.460 OA
BRANCH   5   6
ATOM      6  C   UNL A   1      34.283  20.209  25.107  1.00  0.00     0.340 C 
ATOM      7  O   UNL A   1      33.636  19.595  24.255  1.00  0.00    -0.246 OA
BRANCH   6   8
ATOM      8  C   UNL A   1      33.748  21.396  25.746  1.00  0.00     0.083 A 
ATOM      9  C   UNL A   1      34.437  22.594  25.547  1.00  0.00     0.056 A 
ATOM     10  C   UNL A   1      34.000  23.766  26.155  1.00  0.00     0.027 A 
ATOM     11  C   UNL A   1      32.808  23.756  26.878  1.00  0.00     0.002 A 
ATOM     12  C   UNL A   1      32.522  21.388  26.418  1.00  0.00     0.018 A 
ATOM     13  C   UNL A   1      32.048  22.582  26.972  1.00  0.00     0.001 A 
BRANCH   9  14
ATOM     14  N   UNL A   1      35.406  22.680  24.548  1.00  0.00    -0.321 N 
ATOM     15  C   UNL A   1      35.450  23.630  23.547  1.00  0.00     0.255 C 
ATOM     16  O   UNL A   1      36.482  23.709  22.875  1.00  0.00    -0.269 OA
ATOM     17  H   UNL A   1      36.122  22.004  24.559  1.00  0.00     0.170 HD
BRANCH  15  18
ATOM     18  C   UNL A   1      34.226  24.412  23.087  1.00  0.00     0.040 A 
ATOM     19  C   UNL A   1      32.222  26.144  22.063  1.00  0.00     0.041 A 
ATOM     20  C   UNL A   1      32.139  24.795  21.813  1.00  0.00     0.027 A 
ATOM     21  C   UNL A   1      33.333  26.645  22.736  1.00  0.00     0.027 A 
ATOM     22  C   UNL A   1      33.125  23.950  22.344  1.00  0.00     0.016 A 
ATOM     23  C   UNL A   1      34.310  25.795  23.257  1.00  0.00     0.016 A 
BRANCH  19  24
ATOM     24  N   UNL A   1      31.223  27.022  21.628  1.00  0.00    -0.322 N 
ATOM     25  C   UNL A   1      30.695  28.057  22.382  1.00  0.00     0.256 C 
ATOM     26  O   UNL A   1      30.236  29.065  21.860  1.00  0.00    -0.269 OA
ATOM     27  H   UNL A   1      30.870  26.896  20.718  1.00  0.00     0.170 HD
BRANCH  25  28
ATOM     28  C   UNL A   1      30.372  27.708  23.802  1.00  0.00     0.049 A 
ATOM     29  C   UNL A   1      31.395  29.693  24.973  1.00  0.00     0.053 C 
ATOM     30  C   UNL A   1      31.094  28.221  24.893  1.00  0.00     0.039 A 
ATOM     31  C   UNL A   1      31.367  27.320  25.936  1.00  0.00     0.273 A 
ATOM     32  C   UNL A   1      29.635  26.520  23.918  1.00  0.00     0.014 A 
ATOM     33  C   UNL A   1      30.664  26.108  26.041  1.00  0.00     0.086 A 
ATOM     34  C   UNL A   1      29.730  25.754  25.072  1.00  0.00     0.008 A 
BRANCH  31  35
ATOM     35  N   UNL A   1      32.542  27.487  26.807  1.00  0.00     0.063 N 
ATOM     36  O   UNL A   1      32.328  27.884  27.964  1.00  0.00    -0.258 OA
ATOM     37  O   UNL A   1      33.659  27.199  26.365  1.00  0.00    -0.258 OA
ENDBRANCH  31  35
ENDBRANCH  25  28
ENDBRANCH  19  24
ENDBRANCH  15  18
ENDBRANCH   9  14
ENDBRANCH   6   8
ENDBRANCH   5   6
ENDBRANCH   4   5
ENDBRANCH   3   4
ENDBRANCH   2   3
ENDBRANCH   1   2
BRANCH   1  38
ATOM     38  C   UNL A   1      41.289  19.440  26.176  1.00  0.00     0.188 C 
BRANCH  38  39
ATOM     39  O   UNL A   1      42.286  19.433  25.162  1.00  0.00    -0.377 OA
BRANCH  39  40
ATOM     40  C   UNL A   1      43.668  19.568  25.498  1.00  0.00     0.188 C 
BRANCH  40  41
ATOM     41  C   UNL A   1      44.488  20.713  24.877  1.00  0.00     0.188 C 
BRANCH  41  42
ATOM     42  O   UNL A   1      43.705  21.883  24.743  1.00  0.00    -0.376 OA
BRANCH  42  43
ATOM     43  C   UNL A   1      44.361  23.048  24.270  1.00  0.00     0.202 C 
BRANCH  43  44
ATOM     44  C   UNL A   1      44.089  24.281  25.131  1.00  0.00     0.261 C 
BRANCH  44  45
ATOM     45  O   UNL A   1      44.154  23.887  26.518  1.00  0.00    -0.460 OA
BRANCH  45  46
ATOM     46  C   UNL A   1      45.265  24.293  27.187  1.00  0.00     0.338 C 
ATOM     47  O   UNL A   1      46.415  23.993  26.885  1.00  0.00    -0.246 OA
BRANCH  46  48
ATOM     48  C   UNL A   1      44.895  24.884  28.513  1.00  0.00     0.060 A 
ATOM     49  C   UNL A   1      43.654  24.566  29.095  1.00  0.00     0.016 A 
ATOM     50  C   UNL A   1      45.609  25.964  29.016  1.00  0.00     0.016 A 
ATOM     51  C   UNL A   1      43.080  25.390  30.089  1.00  0.00     0.010 A 
ATOM     52  C   UNL A   1      45.007  26.803  29.952  1.00  0.00     0.010 A 
ATOM     53  C   UNL A   1      43.721  26.571  30.483  1.00  0.00    -0.014 A 
BRANCH  53  54
ATOM     54  C   UNL A   1      43.060  27.710  31.207  1.00  0.00     0.031 A 
ATOM     55  C   UNL A   1      42.141  28.693  30.462  1.00  0.00     0.074 A 
ATOM     56  C   UNL A   1      42.918  27.605  32.558  1.00  0.00     0.049 A 
ATOM     57  N   UNL A   1      41.397  29.641  30.974  1.00  0.00    -0.248 NA
ATOM     58  C   UNL A   1      42.072  28.710  28.992  1.00  0.00     0.031 C 
ATOM     59  C   UNL A   1      41.621  27.463  33.196  1.00  0.00     0.029 A 
ATOM     60  N   UNL A   1      43.753  27.216  33.603  1.00  0.00    -0.354 N 
ATOM     61  C   UNL A   1      40.565  30.143  29.956  1.00  0.00     0.074 A 
ATOM     62  C   UNL A   1      41.108  29.599  28.741  1.00  0.00     0.031 C 
ATOM     63  C   UNL A   1      41.694  27.336  34.517  1.00  0.00     0.029 A 
ATOM     64  C   UNL A   1      43.075  27.403  34.834  1.00  0.00     0.049 A 
ATOM     65  H   UNL A   1      44.669  26.867  33.504  1.00  0.00     0.167 HD
ATOM     66  C   UNL A   1      39.408  30.843  30.212  1.00  0.00     0.037 A 
ATOM     67  C   UNL A   1      43.531  28.194  35.832  1.00  0.00     0.037 A 
ATOM     68  C   UNL A   1      39.270  31.273  31.618  1.00  0.00     0.049 A 
ATOM     69  C   UNL A   1      42.854  29.546  35.962  1.00  0.00     0.074 A 
ATOM     70  C   UNL A   1      38.195  31.418  32.483  1.00  0.00     0.029 A 
ATOM     71  N   UNL A   1      40.399  31.550  32.390  1.00  0.00    -0.354 N 
ATOM     72  N   UNL A   1      41.909  30.011  35.169  1.00  0.00    -0.248 NA
ATOM     73  C   UNL A   1      43.248  30.514  36.983  1.00  0.00     0.031 C 
ATOM     74  C   UNL A   1      38.694  31.610  33.798  1.00  0.00     0.029 A 
ATOM     75  C   UNL A   1      40.068  31.732  33.714  1.00  0.00     0.049 A 
ATOM     76  H   UNL A   1      41.315  31.607  32.034  1.00  0.00     0.167 HD
ATOM     77  C   UNL A   1      41.731  31.356  35.440  1.00  0.00     0.074 A 
ATOM     78  C   UNL A   1      42.528  31.590  36.628  1.00  0.00     0.031 C 
ATOM     79  C   UNL A   1      41.039  32.242  34.656  1.00  0.00     0.037 A 
BRANCH  66  80
ATOM     80  C   UNL A   1      38.187  30.938  29.238  1.00  0.00     0.064 A 
ATOM     81  C   UNL A   1      37.613  32.197  28.917  1.00  0.00     0.173 A 
ATOM     82  C   UNL A   1      37.420  29.844  28.768  1.00  0.00     0.173 A 
ATOM     83  F   UNL A   1      38.256  33.340  29.192  1.00  0.00    -0.203 F 
ATOM     84  C   UNL A   1      36.356  32.344  28.301  1.00  0.00     0.198 A 
ATOM     85  C   UNL A   1      36.215  29.995  28.055  1.00  0.00     0.198 A 
ATOM     86  F   UNL A   1      37.768  28.577  29.014  1.00  0.00    -0.203 F 
ATOM     87  F   UNL A   1      35.823  33.565  28.148  1.00  0.00    -0.200 F 
ATOM     88  C   UNL A   1      35.662  31.241  27.858  1.00  0.00     0.200 A 
ATOM     89  F   UNL A   1      35.580  28.910  27.583  1.00  0.00    -0.200 F 
ATOM     90  F   UNL A   1      34.478  31.376  27.242  1.00  0.00    -0.200 F 
ENDBRANCH  66  80
BRANCH  67  91
ATOM     91  C   UNL A   1      44.778  27.591  36.400  1.00  0.00     0.064 A 
ATOM     92  C   UNL A   1      45.891  28.457  36.253  1.00  0.00     0.173 A 
ATOM     93  C   UNL A   1      44.645  26.937  37.636  1.00  0.00     0.173 A 
ATOM     94  F   UNL A   1      46.103  29.070  35.076  1.00  0.00    -0.203 F 
ATOM     95  C   UNL A   1      46.579  28.928  37.372  1.00  0.00     0.198 A 
ATOM     96  C   UNL A   1      45.332  27.418  38.758  1.00  0.00     0.198 A 
ATOM     97  F   UNL A   1      43.638  26.071  37.822  1.00  0.00    -0.203 F 
ATOM     98  F   UNL A   1      47.432  29.957  37.248  1.00  0.00    -0.200 F 
ATOM     99  C   UNL A   1      46.248  28.456  38.631  1.00  0.00     0.200 A 
ATOM    100  F   UNL A   1      44.967  27.013  39.983  1.00  0.00    -0.200 F 
ATOM    101  F   UNL A   1      46.732  29.064  39.724  1.00  0.00    -0.200 F 
ENDBRANCH  67  91
BRANCH  79 102
ATOM    102  C   UNL A   1      41.205  33.758  34.664  1.00  0.00     0.064 A 
ATOM    103  C   UNL A   1      40.563  34.583  35.599  1.00  0.00     0.173 A 
ATOM    104  C   UNL A   1      42.215  34.396  33.893  1.00  0.00     0.173 A 
ATOM    105  F   UNL A   1      39.669  34.090  36.467  1.00  0.00    -0.203 F 
ATOM    106  C   UNL A   1      40.874  35.941  35.726  1.00  0.00     0.198 A 
ATOM    107  C   UNL A   1      42.569  35.732  34.072  1.00  0.00     0.198 A 
ATOM    108  F   UNL A   1      42.919  33.746  32.958  1.00  0.00    -0.203 F 
ATOM    109  F   UNL A   1      40.204  36.689  36.612  1.00  0.00    -0.200 F 
ATOM    110  C   UNL A   1      41.889  36.509  34.980  1.00  0.00     0.200 A 
ATOM    111  F   UNL A   1      43.592  36.249  33.374  1.00  0.00    -0.200 F 
ATOM    112  F   UNL A   1      42.221  37.795  35.149  1.00  0.00    -0.200 F 
ENDBRANCH  79 102
ENDBRANCH  53  54
ENDBRANCH  46  48
ENDBRANCH  45  46
ENDBRANCH  44  45
ENDBRANCH  43  44
ENDBRANCH  42  43
ENDBRANCH  41  42
ENDBRANCH  40  41
ENDBRANCH  39  40
ENDBRANCH  38  39
ENDBRANCH   1  38
TORSDOF 25
ENDMDL
MODEL 2
REMARK VINA RESULT:     -10.2      3.832      9.279
REMARK SMILES Cc1c(C(=O)Nc2ccc(C(=O)Nc3ccccc3C(=O)OCCOCCOCCOCCOC(=O)c3ccc(-c4c5nc(c(-c6c(F)c(F)c(F)c(F)c6F)c6ccc([nH]6)c(-c6c(F)c(F)c(F)c(F)c6F)c6nc(c(-c7c(F)c(F)c(F)c(F)c7F)c7ccc4[nH]7)C=C6)C=C5)cc3)cc2)cccc1[N+](=O)[O-]
REMARK SMILES IDX 26 1 25 2 24 3 23 4 22 5 20 6 21 7 19 8 14 9 15 10 16 11
REMARK SMILES IDX 18 12 17 13 13 14 11 15 12 16 10 18 7 19 8 20 101 21 9 22
REMARK SMILES IDX 100 23 6 24 4 25 5 26 3 28 1 29 2 30 105 31 102 32 104 33
REMARK SMILES IDX 103 34 106 35 107 36 108 37 27 38 28 39 29 40 30 41 31 42
REMARK SMILES IDX 32 43 33 44 34 45 35 46 36 47 37 48 38 49 99 50 39 51 98 52
REMARK SMILES IDX 40 53 41 54 42 55 92 56 43 57 97 58 91 59 93 60 44 61 96 62
REMARK SMILES IDX 90 63 89 64 45 66 77 67 57 68 76 69 58 70 61 71 75 72 94 73
REMARK SMILES IDX 59 74 60 75 74 77 95 78 62 79 46 80 47 81 55 82 48 83 49 84
REMARK SMILES IDX 53 85 56 86 50 87 51 88 54 89 52 90 78 91 79 92 87 93 80 94
REMARK SMILES IDX 81 95 85 96 88 97 82 98 83 99 86 100 84 101 63 102 64 103
REMARK SMILES IDX 72 104 65 105 66 106 70 107 73 108 67 109 68 110 71 111
REMARK SMILES IDX 69 112
REMARK H PARENT 13 17 6 27 93 65 61 76
REMARK Flexibility Score: inf
ROOT
ATOM      1  C   UNL A   1      34.624  31.493  28.540  1.00  0.00     0.188 C 
ENDROOT
BRANCH   1   2
ATOM      2  O   UNL A   1      33.930  31.338  27.316  1.00  0.00    -0.376 OA
BRANCH   2   3
ATOM      3  C   UNL A   1      33.378  30.068  27.080  1.00  0.00     0.202 C 
BRANCH   3   4
ATOM      4  C   UNL A   1      31.874  29.916  26.774  1.00  0.00     0.261 C 
BRANCH   4   5
ATOM      5  O   UNL A   1      31.452  28.858  25.923  1.00  0.00    -0.460 OA
BRANCH   5   6
ATOM      6  C   UNL A   1      31.219  29.319  24.678  1.00  0.00     0.340 C 
ATOM      7  O   UNL A   1      30.449  30.216  24.329  1.00  0.00    -0.246 OA
BRANCH   6   8
ATOM      8  C   UNL A   1      32.116  28.687  23.729  1.00  0.00     0.083 A 
ATOM      9  C   UNL A   1      31.635  27.571  23.041  1.00  0.00     0.056 A 
ATOM     10  C   UNL A   1      32.451  26.896  22.140  1.00  0.00     0.027 A 
ATOM     11  C   UNL A   1      33.715  27.406  21.848  1.00  0.00     0.002 A 
ATOM     12  C   UNL A   1      33.357  29.240  23.399  1.00  0.00     0.018 A 
ATOM     13  C   UNL A   1      34.149  28.599  22.442  1.00  0.00     0.001 A 
BRANCH   9  14
ATOM     14  N   UNL A   1      30.272  27.277  23.060  1.00  0.00    -0.321 N 
ATOM     15  C   UNL A   1      29.665  26.317  23.845  1.00  0.00     0.255 C 
ATOM     16  O   UNL A   1      28.433  26.326  23.913  1.00  0.00    -0.269 OA
ATOM     17  H   UNL A   1      29.692  27.802  22.462  1.00  0.00     0.170 HD
BRANCH  15  18
ATOM     18  C   UNL A   1      30.414  25.127  24.432  1.00  0.00     0.040 A 
ATOM     19  C   UNL A   1      31.516  22.917  25.834  1.00  0.00     0.041 A 
ATOM     20  C   UNL A   1      31.295  22.814  24.481  1.00  0.00     0.027 A 
ATOM     21  C   UNL A   1      31.111  24.067  26.505  1.00  0.00     0.027 A 
ATOM     22  C   UNL A   1      30.771  23.923  23.799  1.00  0.00     0.016 A 
ATOM     23  C   UNL A   1      30.587  25.162  25.817  1.00  0.00     0.016 A 
BRANCH  19  24
ATOM     24  N   UNL A   1      32.112  21.872  26.549  1.00  0.00    -0.322 N 
ATOM     25  C   UNL A   1      33.430  21.857  26.976  1.00  0.00     0.256 C 
ATOM     26  O   UNL A   1      33.777  21.232  27.971  1.00  0.00    -0.269 OA
ATOM     27  H   UNL A   1      31.555  21.090  26.765  1.00  0.00     0.170 HD
BRANCH  25  28
ATOM     28  C   UNL A   1      34.433  22.312  25.962  1.00  0.00     0.049 A 
ATOM     29  C   UNL A   1      34.956  20.105  24.859  1.00  0.00     0.053 C 
ATOM     30  C   UNL A   1      35.381  21.447  25.391  1.00  0.00     0.039 A 
ATOM     31  C   UNL A   1      36.675  21.969  25.220  1.00  0.00     0.273 A 
ATOM     32  C   UNL A   1      34.642  23.699  25.984  1.00  0.00     0.014 A 
ATOM     33  C   UNL A   1      36.905  23.354  25.280  1.00  0.00     0.086 A 
ATOM     34  C   UNL A   1      35.859  24.225  25.575  1.00  0.00     0.008 A 
BRANCH  31  35
ATOM     35  N   UNL A   1      37.860  21.096  25.212  1.00  0.00     0.063 N 
ATOM     36  O   UNL A   1      37.797  20.074  24.512  1.00  0.00    -0.258 OA
ATOM     37  O   UNL A   1      38.854  21.434  25.865  1.00  0.00    -0.258 OA
ENDBRANCH  31  35
ENDBRANCH  25  28
ENDBRANCH  19  24
ENDBRANCH  15  18
ENDBRANCH   9  14
ENDBRANCH   6   8
ENDBRANCH   5   6
ENDBRANCH   4   5
ENDBRANCH   3   4
ENDBRANCH   2   3
ENDBRANCH   1   2
BRANCH   1  38
ATOM     38  C   UNL A   1      35.825  32.440  28.643  1.00  0.00     0.188 C 
BRANCH  38  39
ATOM     39  O   UNL A   1      36.856  32.015  29.525  1.00  0.00    -0.377 OA
BRANCH  39  40
ATOM     40  C   UNL A   1      37.702  32.968  30.171  1.00  0.00     0.188 C 
BRANCH  40  41
ATOM     41  C   UNL A   1      37.069  34.130  30.956  1.00  0.00     0.188 C 
BRANCH  41  42
ATOM     42  O   UNL A   1      36.758  33.737  32.279  1.00  0.00    -0.376 OA
BRANCH  42  43
ATOM     43  C   UNL A   1      35.944  34.616  33.038  1.00  0.00     0.202 C 
BRANCH  43  44
ATOM     44  C   UNL A   1      35.682  34.116  34.459  1.00  0.00     0.261 C 
BRANCH  44  45
ATOM     45  O   UNL A   1      36.439  32.903  34.657  1.00  0.00    -0.460 OA
BRANCH  45  46
ATOM     46  C   UNL A   1      37.139  32.837  35.820  1.00  0.00     0.338 C 
ATOM     47  O   UNL A   1      36.894  33.493  36.825  1.00  0.00    -0.246 OA
BRANCH  46  48
ATOM     48  C   UNL A   1      38.428  32.102  35.617  1.00  0.00     0.060 A 
ATOM     49  C   UNL A   1      39.640  32.818  35.586  1.00  0.00     0.016 A 
ATOM     50  C   UNL A   1      38.418  30.791  35.157  1.00  0.00     0.016 A 
ATOM     51  C   UNL A   1      40.798  32.268  34.990  1.00  0.00     0.010 A 
ATOM     52  C   UNL A   1      39.547  30.284  34.518  1.00  0.00     0.010 A 
ATOM     53  C   UNL A   1      40.748  31.011  34.378  1.00  0.00    -0.014 A 
BRANCH  53  54
ATOM     54  C   UNL A   1      41.754  30.493  33.389  1.00  0.00     0.031 A 
ATOM     55  C   UNL A   1      41.909  31.145  32.004  1.00  0.00     0.074 A 
ATOM     56  C   UNL A   1      42.801  29.767  33.870  1.00  0.00     0.049 A 
ATOM     57  N   UNL A   1      42.820  30.898  31.098  1.00  0.00    -0.248 NA
ATOM     58  C   UNL A   1      40.926  32.120  31.505  1.00  0.00     0.031 C 
ATOM     59  C   UNL A   1      44.169  30.255  33.836  1.00  0.00     0.029 A 
ATOM     60  N   UNL A   1      42.931  28.726  34.788  1.00  0.00    -0.354 N 
ATOM     61  C   UNL A   1      42.710  31.870  30.088  1.00  0.00     0.074 A 
ATOM     62  C   UNL A   1      41.458  32.526  30.349  1.00  0.00     0.031 C 
ATOM     63  C   UNL A   1      45.041  29.418  34.390  1.00  0.00     0.029 A 
ATOM     64  C   UNL A   1      44.282  28.298  34.817  1.00  0.00     0.049 A 
ATOM     65  H   UNL A   1      42.201  28.347  35.330  1.00  0.00     0.167 HD
ATOM     66  C   UNL A   1      43.730  32.156  29.209  1.00  0.00     0.037 A 
ATOM     67  C   UNL A   1      44.677  27.034  34.543  1.00  0.00     0.037 A 
ATOM     68  C   UNL A   1      44.825  31.166  29.225  1.00  0.00     0.049 A 
ATOM     69  C   UNL A   1      45.283  26.816  33.169  1.00  0.00     0.074 A 
ATOM     70  C   UNL A   1      46.201  31.245  29.064  1.00  0.00     0.029 A 
ATOM     71  N   UNL A   1      44.571  29.830  29.535  1.00  0.00    -0.354 N 
ATOM     72  N   UNL A   1      45.410  27.734  32.231  1.00  0.00    -0.248 NA
ATOM     73  C   UNL A   1      45.742  25.502  32.725  1.00  0.00     0.031 C 
ATOM     74  C   UNL A   1      46.774  30.003  29.446  1.00  0.00     0.029 A 
ATOM     75  C   UNL A   1      45.740  29.121  29.695  1.00  0.00     0.049 A 
ATOM     76  H   UNL A   1      43.670  29.444  29.628  1.00  0.00     0.167 HD
ATOM     77  C   UNL A   1      45.758  27.108  31.048  1.00  0.00     0.074 A 
ATOM     78  C   UNL A   1      46.031  25.738  31.436  1.00  0.00     0.031 C 
ATOM     79  C   UNL A   1      45.723  27.680  29.803  1.00  0.00     0.037 A 
BRANCH  66  80
ATOM     80  C   UNL A   1      43.918  33.524  28.472  1.00  0.00     0.064 A 
ATOM     81  C   UNL A   1      44.156  33.566  27.072  1.00  0.00     0.173 A 
ATOM     82  C   UNL A   1      44.083  34.783  29.099  1.00  0.00     0.173 A 
ATOM     83  F   UNL A   1      43.944  32.490  26.302  1.00  0.00    -0.203 F 
ATOM     84  C   UNL A   1      44.623  34.709  26.397  1.00  0.00     0.198 A 
ATOM     85  C   UNL A   1      44.446  35.952  28.401  1.00  0.00     0.198 A 
ATOM     86  F   UNL A   1      43.952  34.939  30.420  1.00  0.00    -0.203 F 
ATOM     87  F   UNL A   1      44.949  34.635  25.098  1.00  0.00    -0.200 F 
ATOM     88  C   UNL A   1      44.756  35.907  27.061  1.00  0.00     0.200 A 
ATOM     89  F   UNL A   1      44.517  37.123  29.056  1.00  0.00    -0.200 F 
ATOM     90  F   UNL A   1      45.171  37.008  26.416  1.00  0.00    -0.200 F 
ENDBRANCH  66  80
BRANCH  67  91
ATOM     91  C   UNL A   1      44.173  26.123  35.620  1.00  0.00     0.064 A 
ATOM     92  C   UNL A   1      43.127  25.290  35.151  1.00  0.00     0.173 A 
ATOM     93  C   UNL A   1      45.150  25.518  36.429  1.00  0.00     0.173 A 
ATOM     94  F   UNL A   1      42.134  25.821  34.418  1.00  0.00    -0.203 F 
ATOM     95  C   UNL A   1      43.264  23.901  35.164  1.00  0.00     0.198 A 
ATOM     96  C   UNL A   1      45.288  24.124  36.433  1.00  0.00     0.198 A 
ATOM     97  F   UNL A   1      46.142  26.263  36.940  1.00  0.00    -0.203 F 
ATOM     98  F   UNL A   1      42.408  23.138  34.465  1.00  0.00    -0.200 F 
ATOM     99  C   UNL A   1      44.381  23.325  35.746  1.00  0.00     0.200 A 
ATOM    100  F   UNL A   1      46.401  23.569  36.934  1.00  0.00    -0.200 F 
ATOM    101  F   UNL A   1      44.638  22.023  35.560  1.00  0.00    -0.200 F 
ENDBRANCH  67  91
BRANCH  79 102
ATOM    102  C   UNL A   1      45.647  26.928  28.479  1.00  0.00     0.064 A 
ATOM    103  C   UNL A   1      46.788  26.487  27.794  1.00  0.00     0.173 A 
ATOM    104  C   UNL A   1      44.416  26.406  27.994  1.00  0.00     0.173 A 
ATOM    105  F   UNL A   1      48.020  26.811  28.210  1.00  0.00    -0.203 F 
ATOM    106  C   UNL A   1      46.707  25.631  26.691  1.00  0.00     0.198 A 
ATOM    107  C   UNL A   1      44.345  25.498  26.939  1.00  0.00     0.198 A 
ATOM    108  F   UNL A   1      43.237  26.730  28.539  1.00  0.00    -0.203 F 
ATOM    109  F   UNL A   1      47.828  25.270  26.053  1.00  0.00    -0.200 F 
ATOM    110  C   UNL A   1      45.490  25.120  26.278  1.00  0.00     0.200 A 
ATOM    111  F   UNL A   1      43.160  24.975  26.588  1.00  0.00    -0.200 F 
ATOM    112  F   UNL A   1      45.426  24.254  25.258  1.00  0.00    -0.200 F 
ENDBRANCH  79 102
ENDBRANCH  53  54
ENDBRANCH  46  48
ENDBRANCH  45  46
ENDBRANCH  44  45
ENDBRANCH  43  44
ENDBRANCH  42  43
ENDBRANCH  41  42
ENDBRANCH  40  41
ENDBRANCH  39  40
ENDBRANCH  38  39
ENDBRANCH   1  38
TORSDOF 25
ENDMDL
MODEL 3
REMARK VINA RESULT:      -9.9      1.428      2.540
REMARK SMILES Cc1c(C(=O)Nc2ccc(C(=O)Nc3ccccc3C(=O)OCCOCCOCCOCCOC(=O)c3ccc(-c4c5nc(c(-c6c(F)c(F)c(F)c(F)c6F)c6ccc([nH]6)c(-c6c(F)c(F)c(F)c(F)c6F)c6nc(c(-c7c(F)c(F)c(F)c(F)c7F)c7ccc4[nH]7)C=C6)C=C5)cc3)cc2)cccc1[N+](=O)[O-]
REMARK SMILES IDX 26 1 25 2 24 3 23 4 22 5 20 6 21 7 19 8 14 9 15 10 16 11
REMARK SMILES IDX 18 12 17 13 13 14 11 15 12 16 10 18 7 19 8 20 101 21 9 22
REMARK SMILES IDX 100 23 6 24 4 25 5 26 3 28 1 29 2 30 105 31 102 32 104 33
REMARK SMILES IDX 103 34 106 35 107 36 108 37 27 38 28 39 29 40 30 41 31 42
REMARK SMILES IDX 32 43 33 44 34 45 35 46 36 47 37 48 38 49 99 50 39 51 98 52
REMARK SMILES IDX 40 53 41 54 42 55 92 56 43 57 97 58 91 59 93 60 44 61 96 62
REMARK SMILES IDX 90 63 89 64 45 66 77 67 57 68 76 69 58 70 61 71 75 72 94 73
REMARK SMILES IDX 59 74 60 75 74 77 95 78 62 79 46 80 47 81 55 82 48 83 49 84
REMARK SMILES IDX 53 85 56 86 50 87 51 88 54 89 52 90 78 91 79 92 87 93 80 94
REMARK SMILES IDX 81 95 85 96 88 97 82 98 83 99 86 100 84 101 63 102 64 103
REMARK SMILES IDX 72 104 65 105 66 106 70 107 73 108 67 109 68 110 71 111
REMARK SMILES IDX 69 112
REMARK H PARENT 13 17 6 27 93 65 61 76
REMARK Flexibility Score: inf
ROOT
ATOM      1  C   UNL A   1      40.288  20.030  26.048  1.00  0.00     0.188 C 
ENDROOT
BRANCH   1   2
ATOM      2  O   UNL A   1      39.116  19.314  25.702  1.00  0.00    -0.376 OA
BRANCH   2   3
ATOM      3  C   UNL A   1      38.289  19.918  24.741  1.00  0.00     0.202 C 
BRANCH   3   4
ATOM      4  C   UNL A   1      36.774  19.633  24.725  1.00  0.00     0.261 C 
BRANCH   4   5
ATOM      5  O   UNL A   1      35.959  20.206  25.738  1.00  0.00    -0.460 OA
BRANCH   5   6
ATOM      6  C   UNL A   1      34.677  20.280  25.326  1.00  0.00     0.340 C 
ATOM      7  O   UNL A   1      34.044  19.459  24.658  1.00  0.00    -0.246 OA
BRANCH   6   8
ATOM      8  C   UNL A   1      34.032  21.452  25.886  1.00  0.00     0.083 A 
ATOM      9  C   UNL A   1      34.596  22.695  25.590  1.00  0.00     0.056 A 
ATOM     10  C   UNL A   1      34.049  23.859  26.118  1.00  0.00     0.027 A 
ATOM     11  C   UNL A   1      32.870  23.784  26.858  1.00  0.00     0.002 A 
ATOM     12  C   UNL A   1      32.818  21.373  26.575  1.00  0.00     0.018 A 
ATOM     13  C   UNL A   1      32.232  22.551  27.048  1.00  0.00     0.001 A 
BRANCH   9  14
ATOM     14  N   UNL A   1      35.544  22.802  24.572  1.00  0.00    -0.321 N 
ATOM     15  C   UNL A   1      35.539  23.743  23.561  1.00  0.00     0.255 C 
ATOM     16  O   UNL A   1      36.555  23.848  22.870  1.00  0.00    -0.269 OA
ATOM     17  H   UNL A   1      36.282  22.150  24.576  1.00  0.00     0.170 HD
BRANCH  15  18
ATOM     18  C   UNL A   1      34.282  24.479  23.117  1.00  0.00     0.040 A 
ATOM     19  C   UNL A   1      32.203  26.116  22.084  1.00  0.00     0.041 A 
ATOM     20  C   UNL A   1      32.119  24.750  21.944  1.00  0.00     0.027 A 
ATOM     21  C   UNL A   1      33.347  26.673  22.647  1.00  0.00     0.027 A 
ATOM     22  C   UNL A   1      33.143  23.955  22.480  1.00  0.00     0.016 A 
ATOM     23  C   UNL A   1      34.361  25.872  23.173  1.00  0.00     0.016 A 
BRANCH  19  24
ATOM     24  N   UNL A   1      31.171  26.952  21.642  1.00  0.00    -0.322 N 
ATOM     25  C   UNL A   1      30.632  27.997  22.374  1.00  0.00     0.256 C 
ATOM     26  O   UNL A   1      30.134  28.974  21.828  1.00  0.00    -0.269 OA
ATOM     27  H   UNL A   1      30.801  26.785  20.745  1.00  0.00     0.170 HD
BRANCH  25  28
ATOM     28  C   UNL A   1      30.350  27.689  23.811  1.00  0.00     0.049 A 
ATOM     29  C   UNL A   1      31.388  29.715  24.895  1.00  0.00     0.053 C 
ATOM     30  C   UNL A   1      31.096  28.239  24.866  1.00  0.00     0.039 A 
ATOM     31  C   UNL A   1      31.405  27.372  25.928  1.00  0.00     0.273 A 
ATOM     32  C   UNL A   1      29.626  26.499  23.983  1.00  0.00     0.014 A 
ATOM     33  C   UNL A   1      30.715  26.158  26.088  1.00  0.00     0.086 A 
ATOM     34  C   UNL A   1      29.758  25.768  25.155  1.00  0.00     0.008 A 
BRANCH  31  35
ATOM     35  N   UNL A   1      32.601  27.573  26.762  1.00  0.00     0.063 N 
ATOM     36  O   UNL A   1      32.423  28.077  27.882  1.00  0.00    -0.258 OA
ATOM     37  O   UNL A   1      33.699  27.209  26.328  1.00  0.00    -0.258 OA
ENDBRANCH  31  35
ENDBRANCH  25  28
ENDBRANCH  19  24
ENDBRANCH  15  18
ENDBRANCH   9  14
ENDBRANCH   6   8
ENDBRANCH   5   6
ENDBRANCH   4   5
ENDBRANCH   3   4
ENDBRANCH   2   3
ENDBRANCH   1   2
BRANCH   1  38
ATOM     38  C   UNL A   1      41.591  19.288  26.367  1.00  0.00     0.188 C 
BRANCH  38  39
ATOM     39  O   UNL A   1      42.486  19.140  25.272  1.00  0.00    -0.377 OA
BRANCH  39  40
ATOM     40  C   UNL A   1      43.874  19.446  25.418  1.00  0.00     0.188 C 
BRANCH  40  41
ATOM     41  C   UNL A   1      44.690  19.860  24.181  1.00  0.00     0.188 C 
BRANCH  41  42
ATOM     42  O   UNL A   1      44.778  21.268  24.079  1.00  0.00    -0.376 OA
BRANCH  42  43
ATOM     43  C   UNL A   1      45.935  21.883  24.621  1.00  0.00     0.202 C 
BRANCH  43  44
ATOM     44  C   UNL A   1      45.665  22.617  25.935  1.00  0.00     0.261 C 
BRANCH  44  45
ATOM     45  O   UNL A   1      44.871  23.786  25.644  1.00  0.00    -0.460 OA
BRANCH  45  46
ATOM     46  C   UNL A   1      43.612  23.776  26.156  1.00  0.00     0.338 C 
ATOM     47  O   UNL A   1      42.596  23.524  25.518  1.00  0.00    -0.246 OA
BRANCH  46  48
ATOM     48  C   UNL A   1      43.588  24.418  27.509  1.00  0.00     0.060 A 
ATOM     49  C   UNL A   1      42.422  24.345  28.294  1.00  0.00     0.016 A 
ATOM     50  C   UNL A   1      44.573  25.332  27.863  1.00  0.00     0.016 A 
ATOM     51  C   UNL A   1      42.193  25.258  29.348  1.00  0.00     0.010 A 
ATOM     52  C   UNL A   1      44.309  26.265  28.864  1.00  0.00     0.010 A 
ATOM     53  C   UNL A   1      43.108  26.286  29.603  1.00  0.00    -0.014 A 
BRANCH  53  54
ATOM     54  C   UNL A   1      42.811  27.527  30.398  1.00  0.00     0.031 A 
ATOM     55  C   UNL A   1      41.854  28.603  29.856  1.00  0.00     0.074 A 
ATOM     56  C   UNL A   1      43.025  27.485  31.742  1.00  0.00     0.049 A 
ATOM     57  N   UNL A   1      41.398  29.659  30.480  1.00  0.00    -0.248 NA
ATOM     58  C   UNL A   1      41.397  28.583  28.457  1.00  0.00     0.031 C 
ATOM     59  C   UNL A   1      41.939  27.541  32.706  1.00  0.00     0.029 A 
ATOM     60  N   UNL A   1      44.055  27.018  32.556  1.00  0.00    -0.354 N 
ATOM     61  C   UNL A   1      40.392  30.238  29.685  1.00  0.00     0.074 A 
ATOM     62  C   UNL A   1      40.518  29.587  28.409  1.00  0.00     0.031 C 
ATOM     63  C   UNL A   1      42.348  27.446  33.967  1.00  0.00     0.029 A 
ATOM     64  C   UNL A   1      43.760  27.334  33.906  1.00  0.00     0.049 A 
ATOM     65  H   UNL A   1      44.860  26.544  32.244  1.00  0.00     0.167 HD
ATOM     66  C   UNL A   1      39.442  31.097  30.187  1.00  0.00     0.037 A 
ATOM     67  C   UNL A   1      44.561  28.086  34.695  1.00  0.00     0.037 A 
ATOM     68  C   UNL A   1      39.740  31.585  31.548  1.00  0.00     0.049 A 
ATOM     69  C   UNL A   1      44.116  29.521  34.908  1.00  0.00     0.074 A 
ATOM     70  C   UNL A   1      38.963  31.903  32.652  1.00  0.00     0.029 A 
ATOM     71  N   UNL A   1      41.059  31.729  31.978  1.00  0.00    -0.354 N 
ATOM     72  N   UNL A   1      43.057  30.086  34.361  1.00  0.00    -0.248 NA
ATOM     73  C   UNL A   1      44.886  30.458  35.724  1.00  0.00     0.031 C 
ATOM     74  C   UNL A   1      39.816  32.066  33.776  1.00  0.00     0.029 A 
ATOM     75  C   UNL A   1      41.121  31.996  33.327  1.00  0.00     0.049 A 
ATOM     76  H   UNL A   1      41.846  31.649  31.392  1.00  0.00     0.167 HD
ATOM     77  C   UNL A   1      43.126  31.451  34.578  1.00  0.00     0.074 A 
ATOM     78  C   UNL A   1      44.236  31.610  35.499  1.00  0.00     0.031 C 
ATOM     79  C   UNL A   1      42.364  32.398  33.946  1.00  0.00     0.037 A 
BRANCH  66  80
ATOM     80  C   UNL A   1      38.025  31.328  29.563  1.00  0.00     0.064 A 
ATOM     81  C   UNL A   1      37.133  30.240  29.367  1.00  0.00     0.173 A 
ATOM     82  C   UNL A   1      37.578  32.527  28.956  1.00  0.00     0.173 A 
ATOM     83  F   UNL A   1      37.345  29.057  29.960  1.00  0.00    -0.203 F 
ATOM     84  C   UNL A   1      35.985  30.313  28.556  1.00  0.00     0.198 A 
ATOM     85  C   UNL A   1      36.371  32.624  28.235  1.00  0.00     0.198 A 
ATOM     86  F   UNL A   1      38.303  33.650  28.985  1.00  0.00    -0.203 F 
ATOM     87  F   UNL A   1      35.264  29.208  28.315  1.00  0.00    -0.200 F 
ATOM     88  C   UNL A   1      35.597  31.510  28.000  1.00  0.00     0.200 A 
ATOM     89  F   UNL A   1      35.982  33.813  27.746  1.00  0.00    -0.200 F 
ATOM     90  F   UNL A   1      34.486  31.592  27.252  1.00  0.00    -0.200 F 
ENDBRANCH  66  80
BRANCH  67  91
ATOM     91  C   UNL A   1      45.831  27.336  34.956  1.00  0.00     0.064 A 
ATOM     92  C   UNL A   1      45.596  26.159  35.709  1.00  0.00     0.173 A 
ATOM     93  C   UNL A   1      46.721  27.229  33.873  1.00  0.00     0.173 A 
ATOM     94  F   UNL A   1      44.797  26.210  36.788  1.00  0.00    -0.203 F 
ATOM     95  C   UNL A   1      45.915  24.904  35.186  1.00  0.00     0.198 A 
ATOM     96  C   UNL A   1      47.032  25.968  33.348  1.00  0.00     0.198 A 
ATOM     97  F   UNL A   1      47.018  28.318  33.149  1.00  0.00    -0.203 F 
ATOM     98  F   UNL A   1      45.435  23.795  35.770  1.00  0.00    -0.200 F 
ATOM     99  C   UNL A   1      46.573  24.813  33.970  1.00  0.00     0.200 A 
ATOM    100  F   UNL A   1      47.607  25.877  32.140  1.00  0.00    -0.200 F 
ATOM    101  F   UNL A   1      46.675  23.629  33.351  1.00  0.00    -0.200 F 
ENDBRANCH  67  91
BRANCH  79 102
ATOM    102  C   UNL A   1      42.712  33.876  33.810  1.00  0.00     0.064 A 
ATOM    103  C   UNL A   1      43.340  34.403  32.673  1.00  0.00     0.173 A 
ATOM    104  C   UNL A   1      42.191  34.845  34.712  1.00  0.00     0.173 A 
ATOM    105  F   UNL A   1      43.779  33.609  31.687  1.00  0.00    -0.203 F 
ATOM    106  C   UNL A   1      43.475  35.781  32.471  1.00  0.00     0.198 A 
ATOM    107  C   UNL A   1      42.267  36.216  34.473  1.00  0.00     0.198 A 
ATOM    108  F   UNL A   1      41.565  34.504  35.845  1.00  0.00    -0.203 F 
ATOM    109  F   UNL A   1      44.116  36.228  31.383  1.00  0.00    -0.200 F 
ATOM    110  C   UNL A   1      42.921  36.685  33.358  1.00  0.00     0.200 A 
ATOM    111  F   UNL A   1      41.677  37.073  35.320  1.00  0.00    -0.200 F 
ATOM    112  F   UNL A   1      43.003  38.002  33.128  1.00  0.00    -0.200 F 
ENDBRANCH  79 102
ENDBRANCH  53  54
ENDBRANCH  46  48
ENDBRANCH  45  46
ENDBRANCH  44  45
ENDBRANCH  43  44
ENDBRANCH  42  43
ENDBRANCH  41  42
ENDBRANCH  40  41
ENDBRANCH  39  40
ENDBRANCH  38  39
ENDBRANCH   1  38
TORSDOF 25
ENDMDL
