MODEL 1
REMARK VINA RESULT:      -9.1      0.000      0.000
REMARK SMILES CCCc1cc(OCC(=O)OCCOCCOCCOCCOC(=O)c2ccc(-c3c4nc(c(-c5c(F)c(F)c(F)c(F)c5F)c5ccc([nH]5)c(-c5c(F)c(F)c(F)c(F)c5F)c5nc(c(-c6c(F)c(F)c(F)c(F)c6F)c6ccc3[nH]6)C=C5)C=C4)cc2)nc(Nc2ccc(C#N)cc2)n1
REMARK SMILES IDX 15 1 14 2 13 3 12 4 11 5 9 6 10 7 8 8 7 9 6 10 4 11 5 12
REMARK SMILES IDX 100 13 90 14 89 15 3 16 2 17 1 18 91 19 92 21 93 22 99 23
REMARK SMILES IDX 94 24 98 25 95 26 96 27 97 28 16 29 17 30 18 31 19 32 20 33
REMARK SMILES IDX 21 34 22 35 23 36 24 37 25 38 26 39 27 40 88 41 28 42 87 43
REMARK SMILES IDX 29 44 30 45 31 46 81 47 32 48 86 49 80 50 82 51 33 52 85 53
REMARK SMILES IDX 79 54 78 55 34 57 66 58 46 59 65 60 47 61 50 62 64 63 83 64
REMARK SMILES IDX 48 65 49 66 63 68 84 69 51 70 35 71 36 72 44 73 37 74 38 75
REMARK SMILES IDX 42 76 45 77 39 78 40 79 43 80 41 81 67 82 68 83 76 84 69 85
REMARK SMILES IDX 70 86 74 87 77 88 71 89 72 90 75 91 73 92 52 93 53 94 61 95
REMARK SMILES IDX 54 96 55 97 59 98 62 99 56 100 57 101 60 102 58 103
REMARK H PARENT 91 20 82 56 50 67
REMARK Flexibility Score: inf
ROOT
ATOM      1  C   UNL A   1      35.070  34.950  33.615  1.00  0.00     0.188 C 
ENDROOT
BRANCH   1   2
ATOM      2  O   UNL A   1      34.915  36.266  33.137  1.00  0.00    -0.376 OA
BRANCH   2   3
ATOM      3  C   UNL A   1      33.614  36.814  33.146  1.00  0.00     0.202 C 
BRANCH   3   4
ATOM      4  C   UNL A   1      32.602  36.398  32.051  1.00  0.00     0.261 C 
BRANCH   4   5
ATOM      5  O   UNL A   1      32.770  36.986  30.732  1.00  0.00    -0.461 OA
BRANCH   5   6
ATOM      6  C   UNL A   1      32.934  36.144  29.673  1.00  0.00     0.344 C 
ATOM      7  O   UNL A   1      32.154  36.086  28.729  1.00  0.00    -0.248 OA
BRANCH   6   8
ATOM      8  C   UNL A   1      34.239  35.267  29.731  1.00  0.00     0.353 C 
BRANCH   8   9
ATOM      9  O   UNL A   1      34.341  33.882  30.051  1.00  0.00    -0.466 OA
BRANCH   9  10
ATOM     10  C   UNL A   1      34.962  32.929  29.276  1.00  0.00     0.218 A 
ATOM     11  C   UNL A   1      36.532  31.219  28.890  1.00  0.00     0.050 A 
ATOM     12  C   UNL A   1      36.240  32.445  29.474  1.00  0.00     0.092 A 
ATOM     13  N   UNL A   1      35.675  30.635  28.006  1.00  0.00    -0.218 NA
ATOM     14  C   UNL A   1      34.498  31.233  27.741  1.00  0.00     0.230 A 
ATOM     15  N   UNL A   1      34.107  32.342  28.399  1.00  0.00    -0.177 NA
BRANCH  11  16
ATOM     16  C   UNL A   1      37.821  30.449  29.167  1.00  0.00     0.056 C 
BRANCH  16  17
ATOM     17  C   UNL A   1      38.565  29.653  28.058  1.00  0.00     0.003 C 
ATOM     18  C   UNL A   1      38.900  28.181  28.321  1.00  0.00     0.004 C 
ENDBRANCH  16  17
ENDBRANCH  11  16
BRANCH  14  19
ATOM     19  N   UNL A   1      33.582  30.682  26.818  1.00  0.00    -0.324 N 
ATOM     20  H   UNL A   1      33.141  31.341  26.235  1.00  0.00     0.170 HD
BRANCH  19  21
ATOM     21  C   UNL A   1      33.195  29.350  26.590  1.00  0.00     0.041 A 
ATOM     22  C   UNL A   1      32.129  28.762  27.273  1.00  0.00     0.027 A 
ATOM     23  C   UNL A   1      33.967  28.493  25.799  1.00  0.00     0.027 A 
ATOM     24  C   UNL A   1      31.716  27.446  26.985  1.00  0.00     0.021 A 
ATOM     25  C   UNL A   1      33.524  27.216  25.428  1.00  0.00     0.021 A 
ATOM     26  C   UNL A   1      32.367  26.698  26.000  1.00  0.00     0.052 A 
BRANCH  26  27
ATOM     27  C   UNL A   1      31.859  25.426  25.578  1.00  0.00     0.099 C 
ATOM     28  N   UNL A   1      31.424  24.403  25.228  1.00  0.00    -0.192 NA
ENDBRANCH  26  27
ENDBRANCH  19  21
ENDBRANCH  14  19
ENDBRANCH   9  10
ENDBRANCH   8   9
ENDBRANCH   6   8
ENDBRANCH   5   6
ENDBRANCH   4   5
ENDBRANCH   3   4
ENDBRANCH   2   3
ENDBRANCH   1   2
BRANCH   1  29
ATOM     29  C   UNL A   1      36.143  33.994  33.063  1.00  0.00     0.188 C 
BRANCH  29  30
ATOM     30  O   UNL A   1      36.980  34.582  32.097  1.00  0.00    -0.377 OA
BRANCH  30  31
ATOM     31  C   UNL A   1      38.352  34.465  32.421  1.00  0.00     0.188 C 
BRANCH  31  32
ATOM     32  C   UNL A   1      39.098  33.389  31.616  1.00  0.00     0.188 C 
BRANCH  32  33
ATOM     33  O   UNL A   1      39.478  33.484  30.248  1.00  0.00    -0.376 OA
BRANCH  33  34
ATOM     34  C   UNL A   1      39.419  34.639  29.453  1.00  0.00     0.202 C 
BRANCH  34  35
ATOM     35  C   UNL A   1      40.706  35.345  29.121  1.00  0.00     0.261 C 
BRANCH  35  36
ATOM     36  O   UNL A   1      40.867  35.674  27.761  1.00  0.00    -0.460 OA
BRANCH  36  37
ATOM     37  C   UNL A   1      41.815  36.595  27.504  1.00  0.00     0.338 C 
ATOM     38  O   UNL A   1      41.754  37.802  27.579  1.00  0.00    -0.246 OA
BRANCH  37  39
ATOM     39  C   UNL A   1      43.010  35.782  27.292  1.00  0.00     0.060 A 
ATOM     40  C   UNL A   1      43.159  35.154  26.054  1.00  0.00     0.016 A 
ATOM     41  C   UNL A   1      44.032  35.793  28.252  1.00  0.00     0.016 A 
ATOM     42  C   UNL A   1      44.355  34.527  25.761  1.00  0.00     0.010 A 
ATOM     43  C   UNL A   1      45.212  35.129  27.979  1.00  0.00     0.010 A 
ATOM     44  C   UNL A   1      45.346  34.467  26.747  1.00  0.00    -0.014 A 
BRANCH  44  45
ATOM     45  C   UNL A   1      46.372  33.431  26.617  1.00  0.00     0.031 A 
ATOM     46  C   UNL A   1      45.911  32.019  26.800  1.00  0.00     0.074 A 
ATOM     47  C   UNL A   1      47.631  33.758  26.307  1.00  0.00     0.049 A 
ATOM     48  N   UNL A   1      46.601  30.914  26.791  1.00  0.00    -0.248 NA
ATOM     49  C   UNL A   1      44.466  31.826  27.034  1.00  0.00     0.031 C 
ATOM     50  C   UNL A   1      48.118  35.116  26.063  1.00  0.00     0.029 A 
ATOM     51  N   UNL A   1      48.730  32.964  26.153  1.00  0.00    -0.354 N 
ATOM     52  C   UNL A   1      45.679  29.904  27.026  1.00  0.00     0.074 A 
ATOM     53  C   UNL A   1      44.389  30.520  27.214  1.00  0.00     0.031 C 
ATOM     54  C   UNL A   1      49.435  35.059  25.802  1.00  0.00     0.029 A 
ATOM     55  C   UNL A   1      49.877  33.671  25.904  1.00  0.00     0.049 A 
ATOM     56  H   UNL A   1      48.702  31.981  26.215  1.00  0.00     0.167 HD
ATOM     57  C   UNL A   1      45.904  28.574  27.069  1.00  0.00     0.037 A 
ATOM     58  C   UNL A   1      51.141  33.222  25.806  1.00  0.00     0.037 A 
ATOM     59  C   UNL A   1      47.209  28.003  26.890  1.00  0.00     0.049 A 
ATOM     60  C   UNL A   1      51.378  31.740  25.948  1.00  0.00     0.074 A 
ATOM     61  C   UNL A   1      47.580  26.674  26.910  1.00  0.00     0.029 A 
ATOM     62  N   UNL A   1      48.364  28.745  26.670  1.00  0.00    -0.354 N 
ATOM     63  N   UNL A   1      50.510  30.776  26.156  1.00  0.00    -0.248 NA
ATOM     64  C   UNL A   1      52.766  31.281  25.835  1.00  0.00     0.031 C 
ATOM     65  C   UNL A   1      48.969  26.616  26.778  1.00  0.00     0.029 A 
ATOM     66  C   UNL A   1      49.456  27.902  26.584  1.00  0.00     0.049 A 
ATOM     67  H   UNL A   1      48.398  29.726  26.586  1.00  0.00     0.167 HD
ATOM     68  C   UNL A   1      51.239  29.595  26.160  1.00  0.00     0.074 A 
ATOM     69  C   UNL A   1      52.620  29.967  25.924  1.00  0.00     0.031 C 
ATOM     70  C   UNL A   1      50.814  28.318  26.335  1.00  0.00     0.037 A 
BRANCH  57  71
ATOM     71  C   UNL A   1      44.737  27.680  27.367  1.00  0.00     0.064 A 
ATOM     72  C   UNL A   1      43.959  27.104  26.350  1.00  0.00     0.173 A 
ATOM     73  C   UNL A   1      44.392  27.396  28.696  1.00  0.00     0.173 A 
ATOM     74  F   UNL A   1      44.227  27.366  25.062  1.00  0.00    -0.203 F 
ATOM     75  C   UNL A   1      42.863  26.299  26.655  1.00  0.00     0.198 A 
ATOM     76  C   UNL A   1      43.320  26.560  28.996  1.00  0.00     0.198 A 
ATOM     77  F   UNL A   1      45.093  27.931  29.707  1.00  0.00    -0.203 F 
ATOM     78  F   UNL A   1      42.099  25.810  25.669  1.00  0.00    -0.200 F 
ATOM     79  C   UNL A   1      42.552  26.019  27.976  1.00  0.00     0.200 A 
ATOM     80  F   UNL A   1      43.028  26.284  30.275  1.00  0.00    -0.200 F 
ATOM     81  F   UNL A   1      41.505  25.235  28.269  1.00  0.00    -0.200 F 
ENDBRANCH  57  71
BRANCH  58  82
ATOM     82  C   UNL A   1      52.254  34.177  25.580  1.00  0.00     0.064 A 
ATOM     83  C   UNL A   1      52.702  34.474  24.287  1.00  0.00     0.173 A 
ATOM     84  C   UNL A   1      52.898  34.812  26.654  1.00  0.00     0.173 A 
ATOM     85  F   UNL A   1      52.127  33.886  23.228  1.00  0.00    -0.203 F 
ATOM     86  C   UNL A   1      53.768  35.346  24.076  1.00  0.00     0.198 A 
ATOM     87  C   UNL A   1      53.940  35.711  26.441  1.00  0.00     0.198 A 
ATOM     88  F   UNL A   1      52.504  34.571  27.913  1.00  0.00    -0.203 F 
ATOM     89  F   UNL A   1      54.210  35.571  22.832  1.00  0.00    -0.200 F 
ATOM     90  C   UNL A   1      54.383  35.968  25.153  1.00  0.00     0.200 A 
ATOM     91  F   UNL A   1      54.516  36.324  27.484  1.00  0.00    -0.200 F 
ATOM     92  F   UNL A   1      55.406  36.810  24.950  1.00  0.00    -0.200 F 
ENDBRANCH  58  82
BRANCH  70  93
ATOM     93  C   UNL A   1      51.842  27.231  26.216  1.00  0.00     0.064 A 
ATOM     94  C   UNL A   1      52.114  26.596  24.997  1.00  0.00     0.173 A 
ATOM     95  C   UNL A   1      52.607  26.866  27.336  1.00  0.00     0.173 A 
ATOM     96  F   UNL A   1      51.405  26.903  23.901  1.00  0.00    -0.203 F 
ATOM     97  C   UNL A   1      53.092  25.609  24.911  1.00  0.00     0.198 A 
ATOM     98  C   UNL A   1      53.612  25.911  27.236  1.00  0.00     0.198 A 
ATOM     99  F   UNL A   1      52.392  27.454  28.522  1.00  0.00    -0.203 F 
ATOM    100  F   UNL A   1      53.296  24.972  23.750  1.00  0.00    -0.200 F 
ATOM    101  C   UNL A   1      53.846  25.276  26.027  1.00  0.00     0.200 A 
ATOM    102  F   UNL A   1      54.355  25.610  28.309  1.00  0.00    -0.200 F 
ATOM    103  F   UNL A   1      54.798  24.337  25.938  1.00  0.00    -0.200 F 
ENDBRANCH  70  93
ENDBRANCH  44  45
ENDBRANCH  37  39
ENDBRANCH  36  37
ENDBRANCH  35  36
ENDBRANCH  34  35
ENDBRANCH  33  34
ENDBRANCH  32  33
ENDBRANCH  31  32
ENDBRANCH  30  31
ENDBRANCH  29  30
ENDBRANCH   1  29
TORSDOF 27
ENDMDL
MODEL 2
REMARK VINA RESULT:      -8.7      0.807      6.992
REMARK SMILES CCCc1cc(OCC(=O)OCCOCCOCCOCCOC(=O)c2ccc(-c3c4nc(c(-c5c(F)c(F)c(F)c(F)c5F)c5ccc([nH]5)c(-c5c(F)c(F)c(F)c(F)c5F)c5nc(c(-c6c(F)c(F)c(F)c(F)c6F)c6ccc3[nH]6)C=C5)C=C4)cc2)nc(Nc2ccc(C#N)cc2)n1
REMARK SMILES IDX 15 1 14 2 13 3 12 4 11 5 9 6 10 7 8 8 7 9 6 10 4 11 5 12
REMARK SMILES IDX 100 13 90 14 89 15 3 16 2 17 1 18 91 19 92 21 93 22 99 23
REMARK SMILES IDX 94 24 98 25 95 26 96 27 97 28 16 29 17 30 18 31 19 32 20 33
REMARK SMILES IDX 21 34 22 35 23 36 24 37 25 38 26 39 27 40 88 41 28 42 87 43
REMARK SMILES IDX 29 44 30 45 31 46 81 47 32 48 86 49 80 50 82 51 33 52 85 53
REMARK SMILES IDX 79 54 78 55 34 57 66 58 46 59 65 60 47 61 50 62 64 63 83 64
REMARK SMILES IDX 48 65 49 66 63 68 84 69 51 70 35 71 36 72 44 73 37 74 38 75
REMARK SMILES IDX 42 76 45 77 39 78 40 79 43 80 41 81 67 82 68 83 76 84 69 85
REMARK SMILES IDX 70 86 74 87 77 88 71 89 72 90 75 91 73 92 52 93 53 94 61 95
REMARK SMILES IDX 54 96 55 97 59 98 62 99 56 100 57 101 60 102 58 103
REMARK H PARENT 91 20 82 56 50 67
REMARK Flexibility Score: inf
ROOT
ATOM      1  C   UNL A   1      35.418  34.915  33.629  1.00  0.00     0.188 C 
ENDROOT
BRANCH   1   2
ATOM      2  O   UNL A   1      35.144  36.111  32.936  1.00  0.00    -0.376 OA
BRANCH   2   3
ATOM      3  C   UNL A   1      33.790  36.422  32.681  1.00  0.00     0.202 C 
BRANCH   3   4
ATOM      4  C   UNL A   1      33.013  35.624  31.606  1.00  0.00     0.261 C 
BRANCH   4   5
ATOM      5  O   UNL A   1      33.190  36.027  30.221  1.00  0.00    -0.461 OA
BRANCH   5   6
ATOM      6  C   UNL A   1      33.386  35.050  29.291  1.00  0.00     0.344 C 
ATOM      7  O   UNL A   1      32.499  34.627  28.557  1.00  0.00    -0.248 OA
BRANCH   6   8
ATOM      8  C   UNL A   1      34.866  34.523  29.198  1.00  0.00     0.353 C 
BRANCH   8   9
ATOM      9  O   UNL A   1      35.466  33.480  29.960  1.00  0.00    -0.466 OA
BRANCH   9  10
ATOM     10  C   UNL A   1      35.926  32.286  29.453  1.00  0.00     0.218 A 
ATOM     11  C   UNL A   1      36.915  30.159  29.635  1.00  0.00     0.050 A 
ATOM     12  C   UNL A   1      36.891  31.488  30.035  1.00  0.00     0.092 A 
ATOM     13  N   UNL A   1      36.168  29.724  28.582  1.00  0.00    -0.218 NA
ATOM     14  C   UNL A   1      35.348  30.590  27.958  1.00  0.00     0.230 A 
ATOM     15  N   UNL A   1      35.177  31.848  28.407  1.00  0.00    -0.177 NA
BRANCH  11  16
ATOM     16  C   UNL A   1      37.780  29.098  30.314  1.00  0.00     0.056 C 
BRANCH  16  17
ATOM     17  C   UNL A   1      38.859  28.290  29.540  1.00  0.00     0.003 C 
ATOM     18  C   UNL A   1      38.891  26.767  29.715  1.00  0.00     0.004 C 
ENDBRANCH  16  17
ENDBRANCH  11  16
BRANCH  14  19
ATOM     19  N   UNL A   1      34.568  30.197  26.847  1.00  0.00    -0.324 N 
ATOM     20  H   UNL A   1      34.644  30.787  26.064  1.00  0.00     0.170 HD
BRANCH  19  21
ATOM     21  C   UNL A   1      33.701  29.105  26.674  1.00  0.00     0.041 A 
ATOM     22  C   UNL A   1      33.971  28.083  25.763  1.00  0.00     0.027 A 
ATOM     23  C   UNL A   1      32.437  29.075  27.275  1.00  0.00     0.027 A 
ATOM     24  C   UNL A   1      33.122  26.964  25.649  1.00  0.00     0.021 A 
ATOM     25  C   UNL A   1      31.623  27.935  27.248  1.00  0.00     0.021 A 
ATOM     26  C   UNL A   1      31.985  26.852  26.454  1.00  0.00     0.052 A 
BRANCH  26  27
ATOM     27  C   UNL A   1      31.203  25.651  26.471  1.00  0.00     0.099 C 
ATOM     28  N   UNL A   1      30.577  24.668  26.461  1.00  0.00    -0.192 NA
ENDBRANCH  26  27
ENDBRANCH  19  21
ENDBRANCH  14  19
ENDBRANCH   9  10
ENDBRANCH   8   9
ENDBRANCH   6   8
ENDBRANCH   5   6
ENDBRANCH   4   5
ENDBRANCH   3   4
ENDBRANCH   2   3
ENDBRANCH   1   2
BRANCH   1  29
ATOM     29  C   UNL A   1      36.592  33.994  33.250  1.00  0.00     0.188 C 
BRANCH  29  30
ATOM     30  O   UNL A   1      37.409  34.512  32.229  1.00  0.00    -0.377 OA
BRANCH  30  31
ATOM     31  C   UNL A   1      38.789  34.395  32.522  1.00  0.00     0.188 C 
BRANCH  31  32
ATOM     32  C   UNL A   1      39.535  33.386  31.634  1.00  0.00     0.188 C 
BRANCH  32  33
ATOM     33  O   UNL A   1      39.870  33.568  30.264  1.00  0.00    -0.376 OA
BRANCH  33  34
ATOM     34  C   UNL A   1      39.669  34.737  29.512  1.00  0.00     0.202 C 
BRANCH  34  35
ATOM     35  C   UNL A   1      40.876  35.468  28.990  1.00  0.00     0.261 C 
BRANCH  35  36
ATOM     36  O   UNL A   1      41.000  35.478  27.587  1.00  0.00    -0.460 OA
BRANCH  36  37
ATOM     37  C   UNL A   1      41.956  36.294  27.104  1.00  0.00     0.338 C 
ATOM     38  O   UNL A   1      41.929  37.492  26.928  1.00  0.00    -0.246 OA
BRANCH  37  39
ATOM     39  C   UNL A   1      43.119  35.414  27.013  1.00  0.00     0.060 A 
ATOM     40  C   UNL A   1      43.304  34.698  25.829  1.00  0.00     0.016 A 
ATOM     41  C   UNL A   1      44.087  35.444  28.027  1.00  0.00     0.016 A 
ATOM     42  C   UNL A   1      44.481  33.999  25.646  1.00  0.00     0.010 A 
ATOM     43  C   UNL A   1      45.246  34.709  27.865  1.00  0.00     0.010 A 
ATOM     44  C   UNL A   1      45.413  33.960  26.689  1.00  0.00    -0.014 A 
BRANCH  44  45
ATOM     45  C   UNL A   1      46.391  32.872  26.685  1.00  0.00     0.031 A 
ATOM     46  C   UNL A   1      47.820  33.268  26.484  1.00  0.00     0.074 A 
ATOM     47  C   UNL A   1      46.002  31.609  26.895  1.00  0.00     0.049 A 
ATOM     48  N   UNL A   1      48.883  32.520  26.386  1.00  0.00    -0.248 NA
ATOM     49  C   UNL A   1      48.089  34.715  26.371  1.00  0.00     0.031 C 
ATOM     50  C   UNL A   1      44.628  31.178  27.152  1.00  0.00     0.029 A 
ATOM     51  N   UNL A   1      46.735  30.459  26.918  1.00  0.00    -0.354 N 
ATOM     52  C   UNL A   1      49.936  33.402  26.191  1.00  0.00     0.074 A 
ATOM     53  C   UNL A   1      49.390  34.736  26.143  1.00  0.00     0.031 C 
ATOM     54  C   UNL A   1      44.617  29.842  27.293  1.00  0.00     0.029 A 
ATOM     55  C   UNL A   1      45.972  29.334  27.094  1.00  0.00     0.049 A 
ATOM     56  H   UNL A   1      47.715  30.438  26.818  1.00  0.00     0.167 HD
ATOM     57  C   UNL A   1      51.247  33.108  26.073  1.00  0.00     0.037 A 
ATOM     58  C   UNL A   1      46.348  28.044  27.060  1.00  0.00     0.037 A 
ATOM     59  C   UNL A   1      51.747  31.762  26.111  1.00  0.00     0.049 A 
ATOM     60  C   UNL A   1      47.808  27.739  26.837  1.00  0.00     0.074 A 
ATOM     61  C   UNL A   1      53.050  31.322  26.003  1.00  0.00     0.029 A 
ATOM     62  N   UNL A   1      50.947  30.636  26.259  1.00  0.00    -0.354 N 
ATOM     63  N   UNL A   1      48.813  28.567  26.666  1.00  0.00    -0.248 NA
ATOM     64  C   UNL A   1      48.188  26.323  26.806  1.00  0.00     0.031 C 
ATOM     65  C   UNL A   1      53.031  29.925  26.009  1.00  0.00     0.029 A 
ATOM     66  C   UNL A   1      51.726  29.495  26.212  1.00  0.00     0.049 A 
ATOM     67  H   UNL A   1      49.969  30.649  26.380  1.00  0.00     0.167 HD
ATOM     68  C   UNL A   1      49.948  27.778  26.548  1.00  0.00     0.074 A 
ATOM     69  C   UNL A   1      49.504  26.403  26.676  1.00  0.00     0.031 C 
ATOM     70  C   UNL A   1      51.240  28.146  26.358  1.00  0.00     0.037 A 
BRANCH  57  71
ATOM     71  C   UNL A   1      52.197  34.246  25.842  1.00  0.00     0.064 A 
ATOM     72  C   UNL A   1      52.541  34.681  24.552  1.00  0.00     0.173 A 
ATOM     73  C   UNL A   1      52.773  34.912  26.933  1.00  0.00     0.173 A 
ATOM     74  F   UNL A   1      52.041  34.061  23.472  1.00  0.00    -0.203 F 
ATOM     75  C   UNL A   1      53.447  35.723  24.365  1.00  0.00     0.198 A 
ATOM     76  C   UNL A   1      53.648  35.978  26.742  1.00  0.00     0.198 A 
ATOM     77  F   UNL A   1      52.491  34.529  28.187  1.00  0.00    -0.203 F 
ATOM     78  F   UNL A   1      53.806  36.082  23.125  1.00  0.00    -0.200 F 
ATOM     79  C   UNL A   1      53.991  36.378  25.459  1.00  0.00     0.200 A 
ATOM     80  F   UNL A   1      54.164  36.615  27.803  1.00  0.00    -0.200 F 
ATOM     81  F   UNL A   1      54.852  37.387  25.279  1.00  0.00    -0.200 F 
ENDBRANCH  57  71
BRANCH  58  82
ATOM     82  C   UNL A   1      45.339  26.969  27.227  1.00  0.00     0.064 A 
ATOM     83  C   UNL A   1      44.637  26.458  26.128  1.00  0.00     0.173 A 
ATOM     84  C   UNL A   1      45.052  26.430  28.491  1.00  0.00     0.173 A 
ATOM     85  F   UNL A   1      44.868  26.947  24.900  1.00  0.00    -0.203 F 
ATOM     86  C   UNL A   1      43.667  25.470  26.288  1.00  0.00     0.198 A 
ATOM     87  C   UNL A   1      44.107  25.418  28.646  1.00  0.00     0.198 A 
ATOM     88  F   UNL A   1      45.700  26.876  29.577  1.00  0.00    -0.203 F 
ATOM     89  F   UNL A   1      42.974  25.038  25.227  1.00  0.00    -0.200 F 
ATOM     90  C   UNL A   1      43.407  24.948  27.547  1.00  0.00     0.200 A 
ATOM     91  F   UNL A   1      43.875  24.902  29.861  1.00  0.00    -0.200 F 
ATOM     92  F   UNL A   1      42.477  23.996  27.700  1.00  0.00    -0.200 F 
ENDBRANCH  58  82
BRANCH  70  93
ATOM     93  C   UNL A   1      52.268  27.052  26.339  1.00  0.00     0.064 A 
ATOM     94  C   UNL A   1      53.053  26.751  27.461  1.00  0.00     0.173 A 
ATOM     95  C   UNL A   1      52.423  26.256  25.193  1.00  0.00     0.173 A 
ATOM     96  F   UNL A   1      52.949  27.488  28.577  1.00  0.00    -0.203 F 
ATOM     97  C   UNL A   1      53.981  25.714  27.423  1.00  0.00     0.198 A 
ATOM     98  C   UNL A   1      53.319  25.194  25.174  1.00  0.00     0.198 A 
ATOM     99  F   UNL A   1      51.685  26.497  24.098  1.00  0.00    -0.203 F 
ATOM    100  F   UNL A   1      54.764  25.481  28.486  1.00  0.00    -0.200 F 
ATOM    101  C   UNL A   1      54.105  24.931  26.285  1.00  0.00     0.200 A 
ATOM    102  F   UNL A   1      53.418  24.424  24.082  1.00  0.00    -0.200 F 
ATOM    103  F   UNL A   1      54.987  23.923  26.257  1.00  0.00    -0.200 F 
ENDBRANCH  70  93
ENDBRANCH  44  45
ENDBRANCH  37  39
ENDBRANCH  36  37
ENDBRANCH  35  36
ENDBRANCH  34  35
ENDBRANCH  33  34
ENDBRANCH  32  33
ENDBRANCH  31  32
ENDBRANCH  30  31
ENDBRANCH  29  30
ENDBRANCH   1  29
TORSDOF 27
ENDMDL
MODEL 3
REMARK VINA RESULT:      -8.4      7.569     12.227
REMARK SMILES CCCc1cc(OCC(=O)OCCOCCOCCOCCOC(=O)c2ccc(-c3c4nc(c(-c5c(F)c(F)c(F)c(F)c5F)c5ccc([nH]5)c(-c5c(F)c(F)c(F)c(F)c5F)c5nc(c(-c6c(F)c(F)c(F)c(F)c6F)c6ccc3[nH]6)C=C5)C=C4)cc2)nc(Nc2ccc(C#N)cc2)n1
REMARK SMILES IDX 15 1 14 2 13 3 12 4 11 5 9 6 10 7 8 8 7 9 6 10 4 11 5 12
REMARK SMILES IDX 100 13 90 14 89 15 3 16 2 17 1 18 91 19 92 21 93 22 99 23
REMARK SMILES IDX 94 24 98 25 95 26 96 27 97 28 16 29 17 30 18 31 19 32 20 33
REMARK SMILES IDX 21 34 22 35 23 36 24 37 25 38 26 39 27 40 88 41 28 42 87 43
REMARK SMILES IDX 29 44 30 45 31 46 81 47 32 48 86 49 80 50 82 51 33 52 85 53
REMARK SMILES IDX 79 54 78 55 34 57 66 58 46 59 65 60 47 61 50 62 64 63 83 64
REMARK SMILES IDX 48 65 49 66 63 68 84 69 51 70 35 71 36 72 44 73 37 74 38 75
REMARK SMILES IDX 42 76 45 77 39 78 40 79 43 80 41 81 67 82 68 83 76 84 69 85
REMARK SMILES IDX 70 86 74 87 77 88 71 89 72 90 75 91 73 92 52 93 53 94 61 95
REMARK SMILES IDX 54 96 55 97 59 98 62 99 56 100 57 101 60 102 58 103
REMARK H PARENT 91 20 82 56 50 67
REMARK Flexibility Score: inf
ROOT
ATOM      1  C   UNL A   1      35.018  33.813  28.490  1.00  0.00     0.188 C 
ENDROOT
BRANCH   1   2
ATOM      2  O   UNL A   1      35.284  32.793  27.556  1.00  0.00    -0.376 OA
BRANCH   2   3
ATOM      3  C   UNL A   1      34.898  31.479  27.896  1.00  0.00     0.202 C 
BRANCH   3   4
ATOM      4  C   UNL A   1      35.861  30.301  27.610  1.00  0.00     0.261 C 
BRANCH   4   5
ATOM      5  O   UNL A   1      36.232  29.457  28.735  1.00  0.00    -0.461 OA
BRANCH   5   6
ATOM      6  C   UNL A   1      37.206  29.906  29.575  1.00  0.00     0.344 C 
ATOM      7  O   UNL A   1      37.875  30.911  29.360  1.00  0.00    -0.248 OA
BRANCH   6   8
ATOM      8  C   UNL A   1      37.387  29.050  30.884  1.00  0.00     0.353 C 
BRANCH   8   9
ATOM      9  O   UNL A   1      38.448  28.152  31.194  1.00  0.00    -0.466 OA
BRANCH   9  10
ATOM     10  C   UNL A   1      39.474  27.807  30.344  1.00  0.00     0.218 A 
ATOM     11  C   UNL A   1      40.352  27.035  28.303  1.00  0.00     0.050 A 
ATOM     12  C   UNL A   1      39.373  26.932  29.281  1.00  0.00     0.092 A 
ATOM     13  N   UNL A   1      41.458  27.810  28.487  1.00  0.00    -0.218 NA
ATOM     14  C   UNL A   1      41.570  28.534  29.617  1.00  0.00     0.230 A 
ATOM     15  N   UNL A   1      40.574  28.584  30.524  1.00  0.00    -0.177 NA
BRANCH  11  16
ATOM     16  C   UNL A   1      40.286  26.287  26.972  1.00  0.00     0.056 C 
BRANCH  16  17
ATOM     17  C   UNL A   1      39.475  24.971  26.803  1.00  0.00     0.003 C 
ATOM     18  C   UNL A   1      40.143  23.650  27.201  1.00  0.00     0.004 C 
ENDBRANCH  16  17
ENDBRANCH  11  16
BRANCH  14  19
ATOM     19  N   UNL A   1      42.704  29.338  29.869  1.00  0.00    -0.324 N 
ATOM     20  H   UNL A   1      43.483  29.135  29.303  1.00  0.00     0.170 HD
BRANCH  19  21
ATOM     21  C   UNL A   1      42.906  30.378  30.792  1.00  0.00     0.041 A 
ATOM     22  C   UNL A   1      42.384  31.657  30.591  1.00  0.00     0.027 A 
ATOM     23  C   UNL A   1      43.788  30.234  31.869  1.00  0.00     0.027 A 
ATOM     24  C   UNL A   1      42.545  32.669  31.559  1.00  0.00     0.021 A 
ATOM     25  C   UNL A   1      43.886  31.193  32.887  1.00  0.00     0.021 A 
ATOM     26  C   UNL A   1      43.230  32.411  32.749  1.00  0.00     0.052 A 
BRANCH  26  27
ATOM     27  C   UNL A   1      43.260  33.372  33.811  1.00  0.00     0.099 C 
ATOM     28  N   UNL A   1      43.291  34.135  34.692  1.00  0.00    -0.192 NA
ENDBRANCH  26  27
ENDBRANCH  19  21
ENDBRANCH  14  19
ENDBRANCH   9  10
ENDBRANCH   8   9
ENDBRANCH   6   8
ENDBRANCH   5   6
ENDBRANCH   4   5
ENDBRANCH   3   4
ENDBRANCH   2   3
ENDBRANCH   1   2
BRANCH   1  29
ATOM     29  C   UNL A   1      34.408  35.166  28.081  1.00  0.00     0.188 C 
BRANCH  29  30
ATOM     30  O   UNL A   1      33.139  35.405  28.640  1.00  0.00    -0.377 OA
BRANCH  30  31
ATOM     31  C   UNL A   1      33.091  35.123  30.026  1.00  0.00     0.188 C 
BRANCH  31  32
ATOM     32  C   UNL A   1      33.112  36.372  30.921  1.00  0.00     0.188 C 
BRANCH  32  33
ATOM     33  O   UNL A   1      33.832  36.513  32.139  1.00  0.00    -0.376 OA
BRANCH  33  34
ATOM     34  C   UNL A   1      34.259  35.467  32.973  1.00  0.00     0.202 C 
BRANCH  34  35
ATOM     35  C   UNL A   1      35.713  35.080  32.946  1.00  0.00     0.261 C 
BRANCH  35  36
ATOM     36  O   UNL A   1      36.087  34.261  31.864  1.00  0.00    -0.460 OA
BRANCH  36  37
ATOM     37  C   UNL A   1      35.870  32.944  32.042  1.00  0.00     0.338 C 
ATOM     38  O   UNL A   1      35.010  32.235  31.567  1.00  0.00    -0.246 OA
BRANCH  37  39
ATOM     39  C   UNL A   1      37.043  32.520  32.803  1.00  0.00     0.060 A 
ATOM     40  C   UNL A   1      36.835  31.717  33.926  1.00  0.00     0.016 A 
ATOM     41  C   UNL A   1      38.325  32.783  32.301  1.00  0.00     0.016 A 
ATOM     42  C   UNL A   1      37.926  31.157  34.560  1.00  0.00     0.010 A 
ATOM     43  C   UNL A   1      39.421  32.261  32.961  1.00  0.00     0.010 A 
ATOM     44  C   UNL A   1      39.210  31.483  34.110  1.00  0.00    -0.014 A 
BRANCH  44  45
ATOM     45  C   UNL A   1      40.325  31.291  35.040  1.00  0.00     0.031 A 
ATOM     46  C   UNL A   1      41.144  30.055  34.843  1.00  0.00     0.074 A 
ATOM     47  C   UNL A   1      40.594  32.210  35.974  1.00  0.00     0.049 A 
ATOM     48  N   UNL A   1      42.149  29.606  35.541  1.00  0.00    -0.248 NA
ATOM     49  C   UNL A   1      40.774  29.198  33.699  1.00  0.00     0.031 C 
ATOM     50  C   UNL A   1      39.859  33.459  36.170  1.00  0.00     0.029 A 
ATOM     51  N   UNL A   1      41.561  32.223  36.936  1.00  0.00    -0.354 N 
ATOM     52  C   UNL A   1      42.520  28.418  34.928  1.00  0.00     0.074 A 
ATOM     53  C   UNL A   1      41.614  28.187  33.829  1.00  0.00     0.031 C 
ATOM     54  C   UNL A   1      40.400  34.117  37.210  1.00  0.00     0.029 A 
ATOM     55  C   UNL A   1      41.483  33.310  37.767  1.00  0.00     0.049 A 
ATOM     56  H   UNL A   1      42.248  31.522  37.025  1.00  0.00     0.167 HD
ATOM     57  C   UNL A   1      43.540  27.600  35.261  1.00  0.00     0.037 A 
ATOM     58  C   UNL A   1      42.201  33.583  38.870  1.00  0.00     0.037 A 
ATOM     59  C   UNL A   1      44.409  27.860  36.374  1.00  0.00     0.049 A 
ATOM     60  C   UNL A   1      43.277  32.608  39.273  1.00  0.00     0.074 A 
ATOM     61  C   UNL A   1      45.481  27.116  36.824  1.00  0.00     0.029 A 
ATOM     62  N   UNL A   1      44.289  28.955  37.221  1.00  0.00    -0.354 N 
ATOM     63  N   UNL A   1      43.644  31.489  38.691  1.00  0.00    -0.248 NA
ATOM     64  C   UNL A   1      44.043  32.933  40.481  1.00  0.00     0.031 C 
ATOM     65  C   UNL A   1      45.961  27.720  37.988  1.00  0.00     0.029 A 
ATOM     66  C   UNL A   1      45.248  28.890  38.214  1.00  0.00     0.049 A 
ATOM     67  H   UNL A   1      43.619  29.671  37.127  1.00  0.00     0.167 HD
ATOM     68  C   UNL A   1      44.707  30.997  39.436  1.00  0.00     0.074 A 
ATOM     69  C   UNL A   1      44.929  31.948  40.507  1.00  0.00     0.031 C 
ATOM     70  C   UNL A   1      45.440  29.870  39.255  1.00  0.00     0.037 A 
BRANCH  57  71
ATOM     71  C   UNL A   1      43.723  26.350  34.452  1.00  0.00     0.064 A 
ATOM     72  C   UNL A   1      44.481  26.329  33.271  1.00  0.00     0.173 A 
ATOM     73  C   UNL A   1      43.126  25.151  34.869  1.00  0.00     0.173 A 
ATOM     74  F   UNL A   1      45.049  27.454  32.811  1.00  0.00    -0.203 F 
ATOM     75  C   UNL A   1      44.612  25.160  32.524  1.00  0.00     0.198 A 
ATOM     76  C   UNL A   1      43.292  23.977  34.140  1.00  0.00     0.198 A 
ATOM     77  F   UNL A   1      42.380  25.117  35.983  1.00  0.00    -0.203 F 
ATOM     78  F   UNL A   1      45.290  25.179  31.368  1.00  0.00    -0.200 F 
ATOM     79  C   UNL A   1      44.027  23.984  32.964  1.00  0.00     0.200 A 
ATOM     80  F   UNL A   1      42.733  22.838  34.574  1.00  0.00    -0.200 F 
ATOM     81  F   UNL A   1      44.163  22.857  32.252  1.00  0.00    -0.200 F 
ENDBRANCH  57  71
BRANCH  58  82
ATOM     82  C   UNL A   1      41.915  34.806  39.661  1.00  0.00     0.064 A 
ATOM     83  C   UNL A   1      40.983  34.792  40.706  1.00  0.00     0.173 A 
ATOM     84  C   UNL A   1      42.567  36.019  39.386  1.00  0.00     0.173 A 
ATOM     85  F   UNL A   1      40.326  33.661  41.002  1.00  0.00    -0.203 F 
ATOM     86  C   UNL A   1      40.692  35.948  41.428  1.00  0.00     0.198 A 
ATOM     87  C   UNL A   1      42.302  37.166  40.131  1.00  0.00     0.198 A 
ATOM     88  F   UNL A   1      43.475  36.087  38.402  1.00  0.00    -0.203 F 
ATOM     89  F   UNL A   1      39.758  35.918  42.387  1.00  0.00    -0.200 F 
ATOM     90  C   UNL A   1      41.356  37.132  41.143  1.00  0.00     0.200 A 
ATOM     91  F   UNL A   1      42.961  38.302  39.865  1.00  0.00    -0.200 F 
ATOM     92  F   UNL A   1      41.078  38.243  41.840  1.00  0.00    -0.200 F 
ENDBRANCH  58  82
BRANCH  70  93
ATOM     93  C   UNL A   1      46.585  29.638  40.197  1.00  0.00     0.064 A 
ATOM     94  C   UNL A   1      47.821  30.277  40.035  1.00  0.00     0.173 A 
ATOM     95  C   UNL A   1      46.414  28.805  41.315  1.00  0.00     0.173 A 
ATOM     96  F   UNL A   1      48.037  31.075  38.978  1.00  0.00    -0.203 F 
ATOM     97  C   UNL A   1      48.858  30.064  40.939  1.00  0.00     0.198 A 
ATOM     98  C   UNL A   1      47.437  28.629  42.239  1.00  0.00     0.198 A 
ATOM     99  F   UNL A   1      45.245  28.181  41.521  1.00  0.00    -0.203 F 
ATOM    100  F   UNL A   1      50.052  30.637  40.734  1.00  0.00    -0.200 F 
ATOM    101  C   UNL A   1      48.661  29.250  42.045  1.00  0.00     0.200 A 
ATOM    102  F   UNL A   1      47.235  27.863  43.320  1.00  0.00    -0.200 F 
ATOM    103  F   UNL A   1      49.655  29.058  42.924  1.00  0.00    -0.200 F 
ENDBRANCH  70  93
ENDBRANCH  44  45
ENDBRANCH  37  39
ENDBRANCH  36  37
ENDBRANCH  35  36
ENDBRANCH  34  35
ENDBRANCH  33  34
ENDBRANCH  32  33
ENDBRANCH  31  32
ENDBRANCH  30  31
ENDBRANCH  29  30
ENDBRANCH   1  29
TORSDOF 27
ENDMDL
