MODEL 1
REMARK VINA RESULT:     -11.4      0.000      0.000
REMARK SMILES Cc1cccc(NC(=O)C[C@@H]2CCCCO2)c1C(=O)OCCOCCOCCOCCOC(=O)c1ccc(-c2c3nc(c(-c4c(F)c(F)c(F)c(F)c4F)c4ccc([nH]4)c(-c4c(F)c(F)c(F)c(F)c4F)c4nc(c(-c5c(F)c(F)c(F)c(F)c5F)c5ccc2[nH]5)C=C4)C=C3)cc1
REMARK SMILES IDX 25 1 24 2 23 3 22 4 21 5 20 6 18 7 19 8 17 9 1 10 2 11 3 12
REMARK SMILES IDX 4 13 6 14 5 15 7 16 8 17 9 19 10 20 11 21 12 22 16 23 13 24
REMARK SMILES IDX 15 25 14 26 26 27 27 28 28 29 29 30 30 31 31 32 32 33 33 34
REMARK SMILES IDX 34 35 35 36 36 37 97 38 37 39 96 40 38 41 39 42 40 43 90 44
REMARK SMILES IDX 41 45 95 46 89 47 91 48 42 49 94 50 88 51 87 52 43 54 75 55
REMARK SMILES IDX 55 56 74 57 56 58 59 59 73 60 92 61 57 62 58 63 72 65 93 66
REMARK SMILES IDX 60 67 44 68 45 69 53 70 46 71 47 72 51 73 54 74 48 75 49 76
REMARK SMILES IDX 52 77 50 78 76 79 77 80 85 81 78 82 79 83 83 84 86 85 80 86
REMARK SMILES IDX 81 87 84 88 82 89 61 90 62 91 70 92 63 93 64 94 68 95 71 96
REMARK SMILES IDX 65 97 66 98 69 99 67 100
REMARK H PARENT 7 18 91 53 59 64
REMARK Flexibility Score: inf
ROOT
ATOM      1  C   UNL A   1      36.171  32.697  28.259  1.00  0.00     0.188 C 
ENDROOT
BRANCH   1   2
ATOM      2  C   UNL A   1      35.721  31.225  28.265  1.00  0.00     0.188 C 
BRANCH   2   3
ATOM      3  O   UNL A   1      34.338  30.956  28.417  1.00  0.00    -0.376 OA
BRANCH   3   4
ATOM      4  C   UNL A   1      33.684  30.598  27.219  1.00  0.00     0.202 C 
BRANCH   4   5
ATOM      5  C   UNL A   1      33.431  29.141  27.008  1.00  0.00     0.261 C 
BRANCH   5   6
ATOM      6  O   UNL A   1      32.261  29.051  26.217  1.00  0.00    -0.460 OA
BRANCH   6   7
ATOM      7  C   UNL A   1      32.364  28.072  25.329  1.00  0.00     0.340 C 
ATOM      8  O   UNL A   1      33.397  27.513  25.021  1.00  0.00    -0.246 OA
BRANCH   7   9
ATOM      9  C   UNL A   1      31.040  27.642  24.832  1.00  0.00     0.086 A 
ATOM     10  C   UNL A   1      30.113  29.831  23.733  1.00  0.00     0.045 C 
ATOM     11  C   UNL A   1      30.169  28.342  23.964  1.00  0.00    -0.034 A 
ATOM     12  C   UNL A   1      29.128  27.614  23.367  1.00  0.00     0.004 A 
ATOM     13  C   UNL A   1      28.920  26.271  23.679  1.00  0.00     0.002 A 
ATOM     14  C   UNL A   1      30.680  26.362  25.313  1.00  0.00     0.056 A 
ATOM     15  C   UNL A   1      29.664  25.658  24.686  1.00  0.00     0.027 A 
BRANCH  14  16
ATOM     16  N   UNL A   1      31.338  25.816  26.464  1.00  0.00    -0.325 N 
ATOM     17  C   UNL A   1      31.637  24.458  26.516  1.00  0.00     0.227 C 
ATOM     18  H   UNL A   1      31.579  26.402  27.218  1.00  0.00     0.169 HD
ATOM     19  O   UNL A   1      31.142  23.725  27.369  1.00  0.00    -0.275 OA
BRANCH  17  20
ATOM     20  C   UNL A   1      32.751  24.014  25.623  1.00  0.00     0.132 C 
BRANCH  20  21
ATOM     21  C   UNL A   1      33.376  22.629  25.832  1.00  0.00     0.127 C 
ATOM     22  C   UNL A   1      34.492  22.733  26.875  1.00  0.00     0.033 C 
ATOM     23  O   UNL A   1      33.846  21.914  24.697  1.00  0.00    -0.378 OA
ATOM     24  C   UNL A   1      35.704  23.452  26.292  1.00  0.00     0.005 C 
ATOM     25  C   UNL A   1      35.082  22.304  24.130  1.00  0.00     0.160 C 
ATOM     26  C   UNL A   1      36.197  22.712  25.071  1.00  0.00     0.029 C 
ENDBRANCH  20  21
ENDBRANCH  17  20
ENDBRANCH  14  16
ENDBRANCH   7   9
ENDBRANCH   6   7
ENDBRANCH   5   6
ENDBRANCH   4   5
ENDBRANCH   3   4
ENDBRANCH   2   3
ENDBRANCH   1   2
BRANCH   1  27
ATOM     27  O   UNL A   1      35.499  33.663  27.463  1.00  0.00    -0.377 OA
BRANCH  27  28
ATOM     28  C   UNL A   1      34.706  34.648  28.114  1.00  0.00     0.188 C 
BRANCH  28  29
ATOM     29  C   UNL A   1      33.573  34.195  29.012  1.00  0.00     0.188 C 
BRANCH  29  30
ATOM     30  O   UNL A   1      32.552  35.184  28.939  1.00  0.00    -0.376 OA
BRANCH  30  31
ATOM     31  C   UNL A   1      32.793  36.367  29.692  1.00  0.00     0.202 C 
BRANCH  31  32
ATOM     32  C   UNL A   1      32.726  36.120  31.202  1.00  0.00     0.261 C 
BRANCH  32  33
ATOM     33  O   UNL A   1      33.960  36.565  31.806  1.00  0.00    -0.460 OA
BRANCH  33  34
ATOM     34  C   UNL A   1      34.336  35.897  32.933  1.00  0.00     0.338 C 
ATOM     35  O   UNL A   1      34.387  36.382  34.052  1.00  0.00    -0.246 OA
BRANCH  34  36
ATOM     36  C   UNL A   1      34.946  34.583  32.572  1.00  0.00     0.060 A 
ATOM     37  C   UNL A   1      34.650  33.424  33.309  1.00  0.00     0.016 A 
ATOM     38  C   UNL A   1      36.024  34.567  31.705  1.00  0.00     0.016 A 
ATOM     39  C   UNL A   1      35.544  32.334  33.319  1.00  0.00     0.010 A 
ATOM     40  C   UNL A   1      36.923  33.521  31.778  1.00  0.00     0.010 A 
ATOM     41  C   UNL A   1      36.753  32.418  32.635  1.00  0.00    -0.014 A 
BRANCH  41  42
ATOM     42  C   UNL A   1      37.937  31.536  32.867  1.00  0.00     0.031 A 
ATOM     43  C   UNL A   1      38.073  30.266  32.045  1.00  0.00     0.074 A 
ATOM     44  C   UNL A   1      39.028  32.082  33.482  1.00  0.00     0.049 A 
ATOM     45  N   UNL A   1      39.115  29.504  31.978  1.00  0.00    -0.248 NA
ATOM     46  C   UNL A   1      37.025  29.781  31.144  1.00  0.00     0.031 C 
ATOM     47  C   UNL A   1      40.432  31.727  33.269  1.00  0.00     0.029 A 
ATOM     48  N   UNL A   1      39.150  33.168  34.350  1.00  0.00    -0.354 N 
ATOM     49  C   UNL A   1      39.047  28.752  30.807  1.00  0.00     0.074 A 
ATOM     50  C   UNL A   1      37.675  28.881  30.396  1.00  0.00     0.031 C 
ATOM     51  C   UNL A   1      41.265  32.541  33.931  1.00  0.00     0.029 A 
ATOM     52  C   UNL A   1      40.445  33.202  34.901  1.00  0.00     0.049 A 
ATOM     53  H   UNL A   1      38.435  33.816  34.547  1.00  0.00     0.167 HD
ATOM     54  C   UNL A   1      40.198  28.234  30.259  1.00  0.00     0.037 A 
ATOM     55  C   UNL A   1      40.623  32.917  36.228  1.00  0.00     0.037 A 
ATOM     56  C   UNL A   1      41.360  28.466  31.150  1.00  0.00     0.049 A 
ATOM     57  C   UNL A   1      41.247  31.516  36.379  1.00  0.00     0.074 A 
ATOM     58  C   UNL A   1      42.638  28.966  30.983  1.00  0.00     0.029 A 
ATOM     59  N   UNL A   1      41.216  28.298  32.530  1.00  0.00    -0.354 N 
ATOM     60  N   UNL A   1      40.989  30.507  35.565  1.00  0.00    -0.248 NA
ATOM     61  C   UNL A   1      42.445  31.268  37.187  1.00  0.00     0.031 C 
ATOM     62  C   UNL A   1      43.159  29.303  32.271  1.00  0.00     0.029 A 
ATOM     63  C   UNL A   1      42.254  28.877  33.236  1.00  0.00     0.049 A 
ATOM     64  H   UNL A   1      40.463  27.822  32.951  1.00  0.00     0.167 HD
ATOM     65  C   UNL A   1      42.039  29.617  35.594  1.00  0.00     0.074 A 
ATOM     66  C   UNL A   1      42.894  30.111  36.666  1.00  0.00     0.031 C 
ATOM     67  C   UNL A   1      42.373  28.657  34.669  1.00  0.00     0.037 A 
BRANCH  54  68
ATOM     68  C   UNL A   1      40.375  27.656  28.832  1.00  0.00     0.064 A 
ATOM     69  C   UNL A   1      39.853  26.377  28.501  1.00  0.00     0.173 A 
ATOM     70  C   UNL A   1      41.097  28.249  27.770  1.00  0.00     0.173 A 
ATOM     71  F   UNL A   1      39.100  25.690  29.370  1.00  0.00    -0.203 F 
ATOM     72  C   UNL A   1      40.056  25.752  27.257  1.00  0.00     0.198 A 
ATOM     73  C   UNL A   1      41.248  27.650  26.504  1.00  0.00     0.198 A 
ATOM     74  F   UNL A   1      41.721  29.423  27.906  1.00  0.00    -0.203 F 
ATOM     75  F   UNL A   1      39.567  24.521  27.039  1.00  0.00    -0.200 F 
ATOM     76  C   UNL A   1      40.742  26.394  26.252  1.00  0.00     0.200 A 
ATOM     77  F   UNL A   1      41.897  28.306  25.529  1.00  0.00    -0.200 F 
ATOM     78  F   UNL A   1      40.906  25.816  25.053  1.00  0.00    -0.200 F 
ENDBRANCH  54  68
BRANCH  55  79
ATOM     79  C   UNL A   1      39.691  33.772  37.041  1.00  0.00     0.064 A 
ATOM     80  C   UNL A   1      38.726  32.998  37.740  1.00  0.00     0.173 A 
ATOM     81  C   UNL A   1      40.188  34.901  37.716  1.00  0.00     0.173 A 
ATOM     82  F   UNL A   1      38.166  31.937  37.136  1.00  0.00    -0.203 F 
ATOM     83  C   UNL A   1      38.550  33.131  39.121  1.00  0.00     0.198 A 
ATOM     84  C   UNL A   1      39.959  35.064  39.093  1.00  0.00     0.198 A 
ATOM     85  F   UNL A   1      41.082  35.703  37.120  1.00  0.00    -0.203 F 
ATOM     86  F   UNL A   1      37.863  32.202  39.802  1.00  0.00    -0.200 F 
ATOM     87  C   UNL A   1      39.217  34.131  39.805  1.00  0.00     0.200 A 
ATOM     88  F   UNL A   1      40.588  36.039  39.767  1.00  0.00    -0.200 F 
ATOM     89  F   UNL A   1      39.218  34.141  41.146  1.00  0.00    -0.200 F 
ENDBRANCH  55  79
BRANCH  67  90
ATOM     90  C   UNL A   1      42.811  27.271  35.104  1.00  0.00     0.064 A 
ATOM     91  C   UNL A   1      41.928  26.182  35.131  1.00  0.00     0.173 A 
ATOM     92  C   UNL A   1      44.185  26.948  35.276  1.00  0.00     0.173 A 
ATOM     93  F   UNL A   1      40.618  26.335  34.896  1.00  0.00    -0.203 F 
ATOM     94  C   UNL A   1      42.374  24.880  35.347  1.00  0.00     0.198 A 
ATOM     95  C   UNL A   1      44.630  25.639  35.432  1.00  0.00     0.198 A 
ATOM     96  F   UNL A   1      45.152  27.876  35.256  1.00  0.00    -0.203 F 
ATOM     97  F   UNL A   1      41.483  23.882  35.391  1.00  0.00    -0.200 F 
ATOM     98  C   UNL A   1      43.722  24.607  35.481  1.00  0.00     0.200 A 
ATOM     99  F   UNL A   1      45.945  25.389  35.504  1.00  0.00    -0.200 F 
ATOM    100  F   UNL A   1      44.145  23.347  35.644  1.00  0.00    -0.200 F 
ENDBRANCH  67  90
ENDBRANCH  41  42
ENDBRANCH  34  36
ENDBRANCH  33  34
ENDBRANCH  32  33
ENDBRANCH  31  32
ENDBRANCH  30  31
ENDBRANCH  29  30
ENDBRANCH  28  29
ENDBRANCH  27  28
ENDBRANCH   1  27
TORSDOF 23
ENDMDL
MODEL 2
REMARK VINA RESULT:     -11.1      5.943     11.967
REMARK SMILES Cc1cccc(NC(=O)C[C@@H]2CCCCO2)c1C(=O)OCCOCCOCCOCCOC(=O)c1ccc(-c2c3nc(c(-c4c(F)c(F)c(F)c(F)c4F)c4ccc([nH]4)c(-c4c(F)c(F)c(F)c(F)c4F)c4nc(c(-c5c(F)c(F)c(F)c(F)c5F)c5ccc2[nH]5)C=C4)C=C3)cc1
REMARK SMILES IDX 25 1 24 2 23 3 22 4 21 5 20 6 18 7 19 8 17 9 1 10 2 11 3 12
REMARK SMILES IDX 4 13 6 14 5 15 7 16 8 17 9 19 10 20 11 21 12 22 16 23 13 24
REMARK SMILES IDX 15 25 14 26 26 27 27 28 28 29 29 30 30 31 31 32 32 33 33 34
REMARK SMILES IDX 34 35 35 36 36 37 97 38 37 39 96 40 38 41 39 42 40 43 90 44
REMARK SMILES IDX 41 45 95 46 89 47 91 48 42 49 94 50 88 51 87 52 43 54 75 55
REMARK SMILES IDX 55 56 74 57 56 58 59 59 73 60 92 61 57 62 58 63 72 65 93 66
REMARK SMILES IDX 60 67 44 68 45 69 53 70 46 71 47 72 51 73 54 74 48 75 49 76
REMARK SMILES IDX 52 77 50 78 76 79 77 80 85 81 78 82 79 83 83 84 86 85 80 86
REMARK SMILES IDX 81 87 84 88 82 89 61 90 62 91 70 92 63 93 64 94 68 95 71 96
REMARK SMILES IDX 65 97 66 98 69 99 67 100
REMARK H PARENT 7 18 91 53 59 64
REMARK Flexibility Score: inf
ROOT
ATOM      1  C   UNL A   1      38.641  22.208  26.050  1.00  0.00     0.188 C 
ENDROOT
BRANCH   1   2
ATOM      2  C   UNL A   1      38.157  21.131  25.061  1.00  0.00     0.188 C 
BRANCH   2   3
ATOM      3  O   UNL A   1      36.889  21.311  24.455  1.00  0.00    -0.376 OA
BRANCH   3   4
ATOM      4  C   UNL A   1      35.822  20.715  25.161  1.00  0.00     0.202 C 
BRANCH   4   5
ATOM      5  C   UNL A   1      34.488  21.376  25.033  1.00  0.00     0.261 C 
BRANCH   5   6
ATOM      6  O   UNL A   1      34.533  22.134  23.840  1.00  0.00    -0.460 OA
BRANCH   6   7
ATOM      7  C   UNL A   1      33.340  22.638  23.553  1.00  0.00     0.340 C 
ATOM      8  O   UNL A   1      32.638  22.290  22.625  1.00  0.00    -0.246 OA
BRANCH   7   9
ATOM      9  C   UNL A   1      32.892  23.603  24.579  1.00  0.00     0.086 A 
ATOM     10  C   UNL A   1      30.824  22.387  25.631  1.00  0.00     0.045 C 
ATOM     11  C   UNL A   1      31.943  23.398  25.608  1.00  0.00    -0.034 A 
ATOM     12  C   UNL A   1      31.916  24.329  26.658  1.00  0.00     0.004 A 
ATOM     13  C   UNL A   1      32.743  25.452  26.644  1.00  0.00     0.002 A 
ATOM     14  C   UNL A   1      33.548  24.850  24.460  1.00  0.00     0.056 A 
ATOM     15  C   UNL A   1      33.523  25.738  25.524  1.00  0.00     0.027 A 
BRANCH  14  16
ATOM     16  N   UNL A   1      34.201  25.204  23.234  1.00  0.00    -0.325 N 
ATOM     17  C   UNL A   1      33.486  25.839  22.223  1.00  0.00     0.227 C 
ATOM     18  H   UNL A   1      35.156  24.998  23.107  1.00  0.00     0.169 HD
ATOM     19  O   UNL A   1      33.326  25.313  21.124  1.00  0.00    -0.275 OA
BRANCH  17  20
ATOM     20  C   UNL A   1      33.133  27.267  22.489  1.00  0.00     0.132 C 
BRANCH  20  21
ATOM     21  C   UNL A   1      31.686  27.734  22.291  1.00  0.00     0.127 C 
ATOM     22  C   UNL A   1      31.376  28.850  23.293  1.00  0.00     0.033 C 
ATOM     23  O   UNL A   1      30.646  26.766  22.316  1.00  0.00    -0.378 OA
ATOM     24  C   UNL A   1      31.249  28.283  24.702  1.00  0.00     0.005 C 
ATOM     25  C   UNL A   1      30.233  26.265  23.573  1.00  0.00     0.160 C 
ATOM     26  C   UNL A   1      30.160  27.235  24.733  1.00  0.00     0.029 C 
ENDBRANCH  20  21
ENDBRANCH  17  20
ENDBRANCH  14  16
ENDBRANCH   7   9
ENDBRANCH   6   7
ENDBRANCH   5   6
ENDBRANCH   4   5
ENDBRANCH   3   4
ENDBRANCH   2   3
ENDBRANCH   1   2
BRANCH   1  27
ATOM     27  O   UNL A   1      39.766  21.979  26.887  1.00  0.00    -0.377 OA
BRANCH  27  28
ATOM     28  C   UNL A   1      40.964  21.491  26.296  1.00  0.00     0.188 C 
BRANCH  28  29
ATOM     29  C   UNL A   1      41.458  20.111  26.683  1.00  0.00     0.188 C 
BRANCH  29  30
ATOM     30  O   UNL A   1      41.928  19.482  25.496  1.00  0.00    -0.376 OA
BRANCH  30  31
ATOM     31  C   UNL A   1      42.987  18.549  25.677  1.00  0.00     0.202 C 
BRANCH  31  32
ATOM     32  C   UNL A   1      44.196  18.860  24.791  1.00  0.00     0.261 C 
BRANCH  32  33
ATOM     33  O   UNL A   1      45.196  19.538  25.581  1.00  0.00    -0.460 OA
BRANCH  33  34
ATOM     34  C   UNL A   1      45.750  20.642  25.007  1.00  0.00     0.338 C 
ATOM     35  O   UNL A   1      46.883  20.708  24.559  1.00  0.00    -0.246 OA
BRANCH  34  36
ATOM     36  C   UNL A   1      44.888  21.836  25.254  1.00  0.00     0.060 A 
ATOM     37  C   UNL A   1      44.618  22.756  24.226  1.00  0.00     0.016 A 
ATOM     38  C   UNL A   1      44.604  22.192  26.560  1.00  0.00     0.016 A 
ATOM     39  C   UNL A   1      44.254  24.083  24.530  1.00  0.00     0.010 A 
ATOM     40  C   UNL A   1      44.314  23.512  26.845  1.00  0.00     0.010 A 
ATOM     41  C   UNL A   1      44.206  24.506  25.856  1.00  0.00    -0.014 A 
BRANCH  41  42
ATOM     42  C   UNL A   1      44.224  25.931  26.306  1.00  0.00     0.031 A 
ATOM     43  C   UNL A   1      42.903  26.670  26.443  1.00  0.00     0.074 A 
ATOM     44  C   UNL A   1      45.338  26.381  26.956  1.00  0.00     0.049 A 
ATOM     45  N   UNL A   1      42.724  27.823  26.998  1.00  0.00    -0.248 NA
ATOM     46  C   UNL A   1      41.623  26.106  26.008  1.00  0.00     0.031 C 
ATOM     47  C   UNL A   1      45.398  27.400  28.005  1.00  0.00     0.029 A 
ATOM     48  N   UNL A   1      46.664  25.945  26.923  1.00  0.00    -0.354 N 
ATOM     49  C   UNL A   1      41.384  27.944  27.359  1.00  0.00     0.074 A 
ATOM     50  C   UNL A   1      40.732  26.901  26.613  1.00  0.00     0.031 C 
ATOM     51  C   UNL A   1      46.626  27.516  28.527  1.00  0.00     0.029 A 
ATOM     52  C   UNL A   1      47.492  26.870  27.587  1.00  0.00     0.049 A 
ATOM     53  H   UNL A   1      46.974  25.113  26.498  1.00  0.00     0.167 HD
ATOM     54  C   UNL A   1      41.020  28.822  28.355  1.00  0.00     0.037 A 
ATOM     55  C   UNL A   1      48.374  27.628  26.866  1.00  0.00     0.037 A 
ATOM     56  C   UNL A   1      42.178  29.635  28.793  1.00  0.00     0.049 A 
ATOM     57  C   UNL A   1      47.857  29.075  26.767  1.00  0.00     0.074 A 
ATOM     58  C   UNL A   1      42.736  29.968  30.014  1.00  0.00     0.029 A 
ATOM     59  N   UNL A   1      43.071  30.135  27.840  1.00  0.00    -0.354 N 
ATOM     60  N   UNL A   1      46.575  29.392  26.694  1.00  0.00    -0.248 NA
ATOM     61  C   UNL A   1      48.682  30.235  27.116  1.00  0.00     0.031 C 
ATOM     62  C   UNL A   1      44.059  30.459  29.783  1.00  0.00     0.029 A 
ATOM     63  C   UNL A   1      44.257  30.559  28.410  1.00  0.00     0.049 A 
ATOM     64  H   UNL A   1      42.878  30.180  26.876  1.00  0.00     0.167 HD
ATOM     65  C   UNL A   1      46.394  30.676  27.158  1.00  0.00     0.074 A 
ATOM     66  C   UNL A   1      47.749  31.177  27.353  1.00  0.00     0.031 C 
ATOM     67  C   UNL A   1      45.239  31.269  27.606  1.00  0.00     0.037 A 
BRANCH  54  68
ATOM     68  C   UNL A   1      39.663  28.874  29.104  1.00  0.00     0.064 A 
ATOM     69  C   UNL A   1      38.522  29.458  28.491  1.00  0.00     0.173 A 
ATOM     70  C   UNL A   1      39.422  28.450  30.431  1.00  0.00     0.173 A 
ATOM     71  F   UNL A   1      38.555  29.872  27.217  1.00  0.00    -0.203 F 
ATOM     72  C   UNL A   1      37.288  29.623  29.145  1.00  0.00     0.198 A 
ATOM     73  C   UNL A   1      38.168  28.559  31.065  1.00  0.00     0.198 A 
ATOM     74  F   UNL A   1      40.388  27.935  31.198  1.00  0.00    -0.203 F 
ATOM     75  F   UNL A   1      36.270  30.227  28.511  1.00  0.00    -0.200 F 
ATOM     76  C   UNL A   1      37.105  29.161  30.428  1.00  0.00     0.200 A 
ATOM     77  F   UNL A   1      38.004  28.077  32.307  1.00  0.00    -0.200 F 
ATOM     78  F   UNL A   1      35.918  29.285  31.042  1.00  0.00    -0.200 F 
ENDBRANCH  54  68
BRANCH  55  79
ATOM     79  C   UNL A   1      49.202  26.720  25.998  1.00  0.00     0.064 A 
ATOM     80  C   UNL A   1      48.987  26.960  24.614  1.00  0.00     0.173 A 
ATOM     81  C   UNL A   1      50.518  26.401  26.376  1.00  0.00     0.173 A 
ATOM     82  F   UNL A   1      47.746  27.216  24.172  1.00  0.00    -0.203 F 
ATOM     83  C   UNL A   1      50.054  27.218  23.748  1.00  0.00     0.198 A 
ATOM     84  C   UNL A   1      51.583  26.605  25.482  1.00  0.00     0.198 A 
ATOM     85  F   UNL A   1      50.805  26.133  27.657  1.00  0.00    -0.203 F 
ATOM     86  F   UNL A   1      49.821  27.729  22.530  1.00  0.00    -0.200 F 
ATOM     87  C   UNL A   1      51.354  27.097  24.204  1.00  0.00     0.200 A 
ATOM     88  F   UNL A   1      52.850  26.476  25.907  1.00  0.00    -0.200 F 
ATOM     89  F   UNL A   1      52.374  27.536  23.452  1.00  0.00    -0.200 F 
ENDBRANCH  55  79
BRANCH  67  90
ATOM     90  C   UNL A   1      44.886  32.691  27.212  1.00  0.00     0.064 A 
ATOM     91  C   UNL A   1      44.172  32.986  26.041  1.00  0.00     0.173 A 
ATOM     92  C   UNL A   1      45.047  33.774  28.119  1.00  0.00     0.173 A 
ATOM     93  F   UNL A   1      43.875  32.038  25.143  1.00  0.00    -0.203 F 
ATOM     94  C   UNL A   1      43.688  34.267  25.780  1.00  0.00     0.198 A 
ATOM     95  C   UNL A   1      44.509  35.034  27.880  1.00  0.00     0.198 A 
ATOM     96  F   UNL A   1      45.689  33.645  29.289  1.00  0.00    -0.203 F 
ATOM     97  F   UNL A   1      43.039  34.499  24.633  1.00  0.00    -0.200 F 
ATOM     98  C   UNL A   1      43.842  35.283  26.703  1.00  0.00     0.200 A 
ATOM     99  F   UNL A   1      44.620  35.992  28.811  1.00  0.00    -0.200 F 
ATOM    100  F   UNL A   1      43.335  36.499  26.462  1.00  0.00    -0.200 F 
ENDBRANCH  67  90
ENDBRANCH  41  42
ENDBRANCH  34  36
ENDBRANCH  33  34
ENDBRANCH  32  33
ENDBRANCH  31  32
ENDBRANCH  30  31
ENDBRANCH  29  30
ENDBRANCH  28  29
ENDBRANCH  27  28
ENDBRANCH   1  27
TORSDOF 23
ENDMDL
MODEL 3
REMARK VINA RESULT:     -11.0      1.174      3.143
REMARK SMILES Cc1cccc(NC(=O)C[C@@H]2CCCCO2)c1C(=O)OCCOCCOCCOCCOC(=O)c1ccc(-c2c3nc(c(-c4c(F)c(F)c(F)c(F)c4F)c4ccc([nH]4)c(-c4c(F)c(F)c(F)c(F)c4F)c4nc(c(-c5c(F)c(F)c(F)c(F)c5F)c5ccc2[nH]5)C=C4)C=C3)cc1
REMARK SMILES IDX 25 1 24 2 23 3 22 4 21 5 20 6 18 7 19 8 17 9 1 10 2 11 3 12
REMARK SMILES IDX 4 13 6 14 5 15 7 16 8 17 9 19 10 20 11 21 12 22 16 23 13 24
REMARK SMILES IDX 15 25 14 26 26 27 27 28 28 29 29 30 30 31 31 32 32 33 33 34
REMARK SMILES IDX 34 35 35 36 36 37 97 38 37 39 96 40 38 41 39 42 40 43 90 44
REMARK SMILES IDX 41 45 95 46 89 47 91 48 42 49 94 50 88 51 87 52 43 54 75 55
REMARK SMILES IDX 55 56 74 57 56 58 59 59 73 60 92 61 57 62 58 63 72 65 93 66
REMARK SMILES IDX 60 67 44 68 45 69 53 70 46 71 47 72 51 73 54 74 48 75 49 76
REMARK SMILES IDX 52 77 50 78 76 79 77 80 85 81 78 82 79 83 83 84 86 85 80 86
REMARK SMILES IDX 81 87 84 88 82 89 61 90 62 91 70 92 63 93 64 94 68 95 71 96
REMARK SMILES IDX 65 97 66 98 69 99 67 100
REMARK H PARENT 7 18 91 53 59 64
REMARK Flexibility Score: inf
ROOT
ATOM      1  C   UNL A   1      35.837  32.723  28.078  1.00  0.00     0.188 C 
ENDROOT
BRANCH   1   2
ATOM      2  C   UNL A   1      35.071  31.605  28.810  1.00  0.00     0.188 C 
BRANCH   2   3
ATOM      3  O   UNL A   1      33.906  31.087  28.193  1.00  0.00    -0.376 OA
BRANCH   3   4
ATOM      4  C   UNL A   1      34.146  30.431  26.966  1.00  0.00     0.202 C 
BRANCH   4   5
ATOM      5  C   UNL A   1      34.715  29.052  27.049  1.00  0.00     0.261 C 
BRANCH   5   6
ATOM      6  O   UNL A   1      33.624  28.163  26.905  1.00  0.00    -0.460 OA
BRANCH   6   7
ATOM      7  C   UNL A   1      33.573  27.672  25.674  1.00  0.00     0.340 C 
ATOM      8  O   UNL A   1      34.409  27.856  24.812  1.00  0.00    -0.246 OA
BRANCH   7   9
ATOM      9  C   UNL A   1      32.426  26.755  25.497  1.00  0.00     0.086 A 
ATOM     10  C   UNL A   1      33.546  24.400  25.747  1.00  0.00     0.045 C 
ATOM     11  C   UNL A   1      32.385  25.362  25.739  1.00  0.00    -0.034 A 
ATOM     12  C   UNL A   1      31.121  24.757  25.822  1.00  0.00     0.004 A 
ATOM     13  C   UNL A   1      29.957  25.493  25.598  1.00  0.00     0.002 A 
ATOM     14  C   UNL A   1      31.269  27.429  25.046  1.00  0.00     0.056 A 
ATOM     15  C   UNL A   1      30.032  26.815  25.164  1.00  0.00     0.027 A 
BRANCH  14  16
ATOM     16  N   UNL A   1      31.382  28.723  24.438  1.00  0.00    -0.325 N 
ATOM     17  C   UNL A   1      31.288  28.853  23.056  1.00  0.00     0.227 C 
ATOM     18  H   UNL A   1      31.527  29.520  24.999  1.00  0.00     0.169 HD
ATOM     19  O   UNL A   1      32.229  29.273  22.386  1.00  0.00    -0.275 OA
BRANCH  17  20
ATOM     20  C   UNL A   1      29.918  28.667  22.488  1.00  0.00     0.132 C 
BRANCH  20  21
ATOM     21  C   UNL A   1      28.733  29.403  23.123  1.00  0.00     0.127 C 
ATOM     22  C   UNL A   1      27.650  29.624  22.063  1.00  0.00     0.033 C 
ATOM     23  O   UNL A   1      28.976  30.619  23.818  1.00  0.00    -0.378 OA
ATOM     24  C   UNL A   1      28.085  30.694  21.068  1.00  0.00     0.005 C 
ATOM     25  C   UNL A   1      29.197  31.790  23.054  1.00  0.00     0.160 C 
ATOM     26  C   UNL A   1      28.369  31.984  21.801  1.00  0.00     0.029 C 
ENDBRANCH  20  21
ENDBRANCH  17  20
ENDBRANCH  14  16
ENDBRANCH   7   9
ENDBRANCH   6   7
ENDBRANCH   5   6
ENDBRANCH   4   5
ENDBRANCH   3   4
ENDBRANCH   2   3
ENDBRANCH   1   2
BRANCH   1  27
ATOM     27  O   UNL A   1      35.146  33.806  27.472  1.00  0.00    -0.377 OA
BRANCH  27  28
ATOM     28  C   UNL A   1      34.633  34.838  28.306  1.00  0.00     0.188 C 
BRANCH  28  29
ATOM     29  C   UNL A   1      33.291  34.631  28.980  1.00  0.00     0.188 C 
BRANCH  29  30
ATOM     30  O   UNL A   1      32.529  35.816  28.780  1.00  0.00    -0.376 OA
BRANCH  30  31
ATOM     31  C   UNL A   1      32.594  36.769  29.834  1.00  0.00     0.202 C 
BRANCH  31  32
ATOM     32  C   UNL A   1      32.749  36.110  31.207  1.00  0.00     0.261 C 
BRANCH  32  33
ATOM     33  O   UNL A   1      33.998  36.534  31.795  1.00  0.00    -0.460 OA
BRANCH  33  34
ATOM     34  C   UNL A   1      34.381  35.856  32.913  1.00  0.00     0.338 C 
ATOM     35  O   UNL A   1      34.435  36.328  34.037  1.00  0.00    -0.246 OA
BRANCH  34  36
ATOM     36  C   UNL A   1      34.995  34.548  32.535  1.00  0.00     0.060 A 
ATOM     37  C   UNL A   1      34.695  33.378  33.252  1.00  0.00     0.016 A 
ATOM     38  C   UNL A   1      36.079  34.547  31.676  1.00  0.00     0.016 A 
ATOM     39  C   UNL A   1      35.590  32.288  33.250  1.00  0.00     0.010 A 
ATOM     40  C   UNL A   1      36.979  33.502  31.738  1.00  0.00     0.010 A 
ATOM     41  C   UNL A   1      36.804  32.385  32.576  1.00  0.00    -0.014 A 
BRANCH  41  42
ATOM     42  C   UNL A   1      37.988  31.501  32.802  1.00  0.00     0.031 A 
ATOM     43  C   UNL A   1      38.127  30.240  31.966  1.00  0.00     0.074 A 
ATOM     44  C   UNL A   1      39.077  32.040  33.426  1.00  0.00     0.049 A 
ATOM     45  N   UNL A   1      39.169  29.479  31.894  1.00  0.00    -0.248 NA
ATOM     46  C   UNL A   1      37.082  29.764  31.056  1.00  0.00     0.031 C 
ATOM     47  C   UNL A   1      40.481  31.688  33.213  1.00  0.00     0.029 A 
ATOM     48  N   UNL A   1      39.196  33.116  34.306  1.00  0.00    -0.354 N 
ATOM     49  C   UNL A   1      39.105  28.740  30.714  1.00  0.00     0.074 A 
ATOM     50  C   UNL A   1      37.734  28.873  30.300  1.00  0.00     0.031 C 
ATOM     51  C   UNL A   1      41.312  32.494  33.888  1.00  0.00     0.029 A 
ATOM     52  C   UNL A   1      40.489  33.144  34.862  1.00  0.00     0.049 A 
ATOM     53  H   UNL A   1      38.480  33.762  34.509  1.00  0.00     0.167 HD
ATOM     54  C   UNL A   1      40.258  28.229  30.164  1.00  0.00     0.037 A 
ATOM     55  C   UNL A   1      40.663  32.844  36.186  1.00  0.00     0.037 A 
ATOM     56  C   UNL A   1      41.417  28.451  31.061  1.00  0.00     0.049 A 
ATOM     57  C   UNL A   1      41.287  31.442  36.324  1.00  0.00     0.074 A 
ATOM     58  C   UNL A   1      42.696  28.953  30.904  1.00  0.00     0.029 A 
ATOM     59  N   UNL A   1      41.269  28.267  32.439  1.00  0.00    -0.354 N 
ATOM     60  N   UNL A   1      41.032  30.442  35.497  1.00  0.00    -0.248 NA
ATOM     61  C   UNL A   1      42.482  31.185  37.132  1.00  0.00     0.031 C 
ATOM     62  C   UNL A   1      43.212  29.275  32.197  1.00  0.00     0.029 A 
ATOM     63  C   UNL A   1      42.304  28.838  33.154  1.00  0.00     0.049 A 
ATOM     64  H   UNL A   1      40.515  27.787  32.852  1.00  0.00     0.167 HD
ATOM     65  C   UNL A   1      42.082  29.552  35.519  1.00  0.00     0.074 A 
ATOM     66  C   UNL A   1      42.934  30.034  36.600  1.00  0.00     0.031 C 
ATOM     67  C   UNL A   1      42.419  28.602  34.585  1.00  0.00     0.037 A 
BRANCH  54  68
ATOM     68  C   UNL A   1      40.440  27.667  28.731  1.00  0.00     0.064 A 
ATOM     69  C   UNL A   1      39.965  26.369  28.398  1.00  0.00     0.173 A 
ATOM     70  C   UNL A   1      41.123  28.295  27.664  1.00  0.00     0.173 A 
ATOM     71  F   UNL A   1      39.252  25.647  29.273  1.00  0.00    -0.203 F 
ATOM     72  C   UNL A   1      40.177  25.760  27.148  1.00  0.00     0.198 A 
ATOM     73  C   UNL A   1      41.282  27.710  26.392  1.00  0.00     0.198 A 
ATOM     74  F   UNL A   1      41.701  29.492  27.800  1.00  0.00    -0.203 F 
ATOM     75  F   UNL A   1      39.736  24.512  26.928  1.00  0.00    -0.200 F 
ATOM     76  C   UNL A   1      40.824  26.436  26.139  1.00  0.00     0.200 A 
ATOM     77  F   UNL A   1      41.891  28.397  25.413  1.00  0.00    -0.200 F 
ATOM     78  F   UNL A   1      40.996  25.872  24.933  1.00  0.00    -0.200 F 
ENDBRANCH  54  68
BRANCH  55  79
ATOM     79  C   UNL A   1      39.728  33.690  37.005  1.00  0.00     0.064 A 
ATOM     80  C   UNL A   1      38.758  32.908  37.688  1.00  0.00     0.173 A 
ATOM     81  C   UNL A   1      40.224  34.809  37.699  1.00  0.00     0.173 A 
ATOM     82  F   UNL A   1      38.199  31.858  37.067  1.00  0.00    -0.203 F 
ATOM     83  C   UNL A   1      38.574  33.023  39.070  1.00  0.00     0.198 A 
ATOM     84  C   UNL A   1      39.987  34.953  39.077  1.00  0.00     0.198 A 
ATOM     85  F   UNL A   1      41.123  35.616  37.120  1.00  0.00    -0.203 F 
ATOM     86  F   UNL A   1      37.881  32.086  39.734  1.00  0.00    -0.200 F 
ATOM     87  C   UNL A   1      39.239  34.011  39.771  1.00  0.00     0.200 A 
ATOM     88  F   UNL A   1      40.614  35.917  39.768  1.00  0.00    -0.200 F 
ATOM     89  F   UNL A   1      39.233  34.003  41.113  1.00  0.00    -0.200 F 
ENDBRANCH  55  79
BRANCH  67  90
ATOM     90  C   UNL A   1      42.856  27.212  35.006  1.00  0.00     0.064 A 
ATOM     91  C   UNL A   1      41.954  26.142  35.101  1.00  0.00     0.173 A 
ATOM     92  C   UNL A   1      44.231  26.862  35.092  1.00  0.00     0.173 A 
ATOM     93  F   UNL A   1      40.635  26.321  34.950  1.00  0.00    -0.203 F 
ATOM     94  C   UNL A   1      42.387  24.833  35.303  1.00  0.00     0.198 A 
ATOM     95  C   UNL A   1      44.659  25.546  35.233  1.00  0.00     0.198 A 
ATOM     96  F   UNL A   1      45.213  27.769  35.000  1.00  0.00    -0.203 F 
ATOM     97  F   UNL A   1      41.481  23.854  35.415  1.00  0.00    -0.200 F 
ATOM     98  C   UNL A   1      43.735  24.533  35.352  1.00  0.00     0.200 A 
ATOM     99  F   UNL A   1      45.970  25.268  35.223  1.00  0.00    -0.200 F 
ATOM    100  F   UNL A   1      44.142  23.266  35.501  1.00  0.00    -0.200 F 
ENDBRANCH  67  90
ENDBRANCH  41  42
ENDBRANCH  34  36
ENDBRANCH  33  34
ENDBRANCH  32  33
ENDBRANCH  31  32
ENDBRANCH  30  31
ENDBRANCH  29  30
ENDBRANCH  28  29
ENDBRANCH  27  28
ENDBRANCH   1  27
TORSDOF 23
ENDMDL
