MODEL 1
REMARK VINA RESULT:      -8.2      0.000      0.000
REMARK SMILES CC(C)C[C@H](NC(=O)CNC(=O)[C@@H](NC(=O)OCc1ccccc1)C(C)C)C(=O)OCCOCCOCCOCCOC(=O)c1ccc(-c2c3nc(c(-c4c(F)c(F)c(F)c(F)c4F)c4ccc([nH]4)c(-c4c(F)c(F)c(F)c(F)c4F)c4nc(c(-c5c(F)c(F)c(F)c(F)c5F)c5ccc2[nH]5)C=C4)C=C3)cc1
REMARK SMILES IDX 33 1 32 2 31 3 30 4 28 5 29 6 5 7 4 8 2 9 1 10 3 11 6 12
REMARK SMILES IDX 7 13 8 15 9 16 10 17 11 18 12 20 13 21 14 22 15 23 16 25
REMARK SMILES IDX 17 26 18 27 19 28 20 29 24 30 21 31 23 32 22 33 25 34 26 35
REMARK SMILES IDX 27 36 34 37 35 38 36 39 37 40 38 41 39 42 40 43 41 44 42 45
REMARK SMILES IDX 43 46 44 47 45 48 46 49 107 50 47 51 106 52 48 53 49 54
REMARK SMILES IDX 50 55 100 56 51 57 105 58 99 59 101 60 52 61 104 62 98 63
REMARK SMILES IDX 97 64 53 66 85 67 65 68 84 69 66 70 69 71 83 72 102 73 67 74
REMARK SMILES IDX 68 75 82 77 103 78 70 79 54 80 55 81 63 82 56 83 57 84 61 85
REMARK SMILES IDX 64 86 58 87 59 88 62 89 60 90 86 91 87 92 95 93 88 94 89 95
REMARK SMILES IDX 93 96 96 97 90 98 91 99 94 100 92 101 71 102 72 103 80 104
REMARK SMILES IDX 73 105 74 106 78 107 81 108 75 109 76 110 79 111 77 112
REMARK H PARENT 6 14 10 19 14 24 101 65 69 76
REMARK Flexibility Score: inf
ROOT
ATOM      1  O   UNL A   1      36.790  29.536  28.622  1.00  0.00    -0.376 OA
ENDROOT
BRANCH   1   2
ATOM      2  C   UNL A   1      36.028  30.057  27.550  1.00  0.00     0.202 C 
BRANCH   2   3
ATOM      3  C   UNL A   1      34.493  30.008  27.495  1.00  0.00     0.261 C 
BRANCH   3   4
ATOM      4  O   UNL A   1      33.950  28.884  26.772  1.00  0.00    -0.462 OA
BRANCH   4   5
ATOM      5  C   UNL A   1      32.603  28.600  26.871  1.00  0.00     0.328 C 
ATOM      6  O   UNL A   1      31.866  29.228  27.622  1.00  0.00    -0.250 OA
BRANCH   5   7
ATOM      7  C   UNL A   1      32.132  27.378  25.905  1.00  0.00     0.192 C 
BRANCH   7   8
ATOM      8  C   UNL A   1      31.405  27.552  24.525  1.00  0.00     0.040 C 
BRANCH   8   9
ATOM      9  C   UNL A   1      29.871  27.376  24.177  1.00  0.00    -0.015 C 
ATOM     10  C   UNL A   1      29.285  28.306  23.084  1.00  0.00     0.007 C 
ATOM     11  C   UNL A   1      29.661  25.974  23.589  1.00  0.00     0.007 C 
ENDBRANCH   8   9
ENDBRANCH   7   8
BRANCH   7  12
ATOM     12  N   UNL A   1      31.413  26.371  26.601  1.00  0.00    -0.341 N 
ATOM     13  C   UNL A   1      31.725  25.063  26.461  1.00  0.00     0.240 C 
ATOM     14  H   UNL A   1      30.672  26.630  27.197  1.00  0.00     0.164 HD
ATOM     15  O   UNL A   1      31.222  24.260  27.247  1.00  0.00    -0.273 OA
BRANCH  13  16
ATOM     16  C   UNL A   1      32.718  24.609  25.329  1.00  0.00     0.216 C 
BRANCH  16  17
ATOM     17  N   UNL A   1      33.228  23.287  24.706  1.00  0.00    -0.345 N 
ATOM     18  C   UNL A   1      33.999  22.185  24.532  1.00  0.00     0.243 C 
ATOM     19  H   UNL A   1      32.584  23.175  23.969  1.00  0.00     0.164 HD
ATOM     20  O   UNL A   1      33.341  21.400  23.804  1.00  0.00    -0.273 OA
BRANCH  18  21
ATOM     21  C   UNL A   1      35.496  21.593  24.956  1.00  0.00     0.177 C 
BRANCH  21  22
ATOM     22  N   UNL A   1      35.713  20.117  25.099  1.00  0.00    -0.309 N 
ATOM     23  C   UNL A   1      36.766  19.242  24.970  1.00  0.00     0.408 C 
ATOM     24  H   UNL A   1      34.883  19.650  25.352  1.00  0.00     0.167 HD
ATOM     25  O   UNL A   1      36.549  18.041  24.859  1.00  0.00    -0.225 OA
BRANCH  23  26
ATOM     26  O   UNL A   1      38.000  19.799  24.858  1.00  0.00    -0.445 OA
BRANCH  26  27
ATOM     27  C   UNL A   1      39.057  19.231  25.669  1.00  0.00     0.270 C 
BRANCH  27  28
ATOM     28  C   UNL A   1      40.214  20.126  26.037  1.00  0.00    -0.011 A 
ATOM     29  C   UNL A   1      41.530  19.662  26.044  1.00  0.00     0.007 A 
ATOM     30  C   UNL A   1      39.983  21.499  26.252  1.00  0.00     0.007 A 
ATOM     31  C   UNL A   1      42.590  20.537  26.283  1.00  0.00     0.000 A 
ATOM     32  C   UNL A   1      41.043  22.373  26.496  1.00  0.00     0.000 A 
ATOM     33  C   UNL A   1      42.348  21.889  26.512  1.00  0.00     0.000 A 
ENDBRANCH  27  28
ENDBRANCH  26  27
ENDBRANCH  23  26
ENDBRANCH  21  22
BRANCH  21  34
ATOM     34  C   UNL A   1      36.741  22.421  24.532  1.00  0.00     0.015 C 
ATOM     35  C   UNL A   1      36.591  22.937  23.094  1.00  0.00     0.010 C 
ATOM     36  C   UNL A   1      36.991  23.669  25.408  1.00  0.00     0.010 C 
ENDBRANCH  21  34
ENDBRANCH  18  21
ENDBRANCH  16  17
ENDBRANCH  13  16
ENDBRANCH   7  12
ENDBRANCH   5   7
ENDBRANCH   4   5
ENDBRANCH   3   4
ENDBRANCH   2   3
ENDBRANCH   1   2
BRANCH   1  37
ATOM     37  C   UNL A   1      37.917  28.699  28.454  1.00  0.00     0.188 C 
BRANCH  37  38
ATOM     38  C   UNL A   1      39.111  29.171  27.609  1.00  0.00     0.188 C 
BRANCH  38  39
ATOM     39  O   UNL A   1      40.358  28.520  27.511  1.00  0.00    -0.377 OA
BRANCH  39  40
ATOM     40  C   UNL A   1      40.417  27.293  26.814  1.00  0.00     0.188 C 
BRANCH  40  41
ATOM     41  C   UNL A   1      41.866  26.869  26.568  1.00  0.00     0.188 C 
BRANCH  41  42
ATOM     42  O   UNL A   1      41.994  25.903  25.541  1.00  0.00    -0.376 OA
BRANCH  42  43
ATOM     43  C   UNL A   1      43.255  25.299  25.273  1.00  0.00     0.202 C 
BRANCH  43  44
ATOM     44  C   UNL A   1      44.598  25.608  25.985  1.00  0.00     0.261 C 
BRANCH  44  45
ATOM     45  O   UNL A   1      44.758  25.292  27.373  1.00  0.00    -0.460 OA
BRANCH  45  46
ATOM     46  C   UNL A   1      45.705  25.922  28.087  1.00  0.00     0.338 C 
ATOM     47  O   UNL A   1      46.896  26.000  27.836  1.00  0.00    -0.246 OA
BRANCH  46  48
ATOM     48  C   UNL A   1      44.998  26.677  29.148  1.00  0.00     0.060 A 
ATOM     49  C   UNL A   1      45.299  28.033  29.335  1.00  0.00     0.016 A 
ATOM     50  C   UNL A   1      44.001  26.067  29.913  1.00  0.00     0.016 A 
ATOM     51  C   UNL A   1      44.603  28.783  30.285  1.00  0.00     0.010 A 
ATOM     52  C   UNL A   1      43.333  26.808  30.893  1.00  0.00     0.010 A 
ATOM     53  C   UNL A   1      43.641  28.165  31.093  1.00  0.00    -0.014 A 
BRANCH  53  54
ATOM     54  C   UNL A   1      43.081  28.883  32.264  1.00  0.00     0.031 A 
ATOM     55  C   UNL A   1      41.838  29.701  32.066  1.00  0.00     0.074 A 
ATOM     56  C   UNL A   1      43.672  28.825  33.472  1.00  0.00     0.049 A 
ATOM     57  N   UNL A   1      41.233  30.512  32.895  1.00  0.00    -0.248 NA
ATOM     58  C   UNL A   1      41.185  29.589  30.750  1.00  0.00     0.031 C 
ATOM     59  C   UNL A   1      44.849  28.025  33.801  1.00  0.00     0.029 A 
ATOM     60  N   UNL A   1      43.370  29.478  34.644  1.00  0.00    -0.354 N 
ATOM     61  C   UNL A   1      40.147  31.022  32.195  1.00  0.00     0.074 A 
ATOM     62  C   UNL A   1      40.172  30.433  30.876  1.00  0.00     0.031 C 
ATOM     63  C   UNL A   1      45.193  28.261  35.079  1.00  0.00     0.029 A 
ATOM     64  C   UNL A   1      44.290  29.266  35.642  1.00  0.00     0.049 A 
ATOM     65  H   UNL A   1      42.573  30.044  34.756  1.00  0.00     0.167 HD
ATOM     66  C   UNL A   1      39.220  31.910  32.620  1.00  0.00     0.037 A 
ATOM     67  C   UNL A   1      44.414  29.856  36.849  1.00  0.00     0.037 A 
ATOM     68  C   UNL A   1      39.196  32.487  33.937  1.00  0.00     0.049 A 
ATOM     69  C   UNL A   1      43.410  30.907  37.263  1.00  0.00     0.074 A 
ATOM     70  C   UNL A   1      38.265  33.355  34.478  1.00  0.00     0.029 A 
ATOM     71  N   UNL A   1      40.156  32.267  34.911  1.00  0.00    -0.354 N 
ATOM     72  N   UNL A   1      42.356  31.349  36.618  1.00  0.00    -0.248 NA
ATOM     73  C   UNL A   1      43.618  31.551  38.569  1.00  0.00     0.031 C 
ATOM     74  C   UNL A   1      38.702  33.719  35.754  1.00  0.00     0.029 A 
ATOM     75  C   UNL A   1      39.867  33.025  36.034  1.00  0.00     0.049 A 
ATOM     76  H   UNL A   1      40.929  31.663  34.819  1.00  0.00     0.167 HD
ATOM     77  C   UNL A   1      41.768  32.296  37.446  1.00  0.00     0.074 A 
ATOM     78  C   UNL A   1      42.566  32.351  38.652  1.00  0.00     0.031 C 
ATOM     79  C   UNL A   1      40.669  33.060  37.229  1.00  0.00     0.037 A 
BRANCH  66  80
ATOM     80  C   UNL A   1      38.169  32.354  31.647  1.00  0.00     0.064 A 
ATOM     81  C   UNL A   1      36.879  31.807  31.648  1.00  0.00     0.173 A 
ATOM     82  C   UNL A   1      38.438  33.406  30.758  1.00  0.00     0.173 A 
ATOM     83  F   UNL A   1      36.576  30.790  32.469  1.00  0.00    -0.203 F 
ATOM     84  C   UNL A   1      35.895  32.296  30.791  1.00  0.00     0.198 A 
ATOM     85  C   UNL A   1      37.447  33.910  29.923  1.00  0.00     0.198 A 
ATOM     86  F   UNL A   1      39.658  33.963  30.721  1.00  0.00    -0.203 F 
ATOM     87  F   UNL A   1      34.674  31.744  30.790  1.00  0.00    -0.200 F 
ATOM     88  C   UNL A   1      36.177  33.354  29.939  1.00  0.00     0.200 A 
ATOM     89  F   UNL A   1      37.717  34.942  29.112  1.00  0.00    -0.200 F 
ATOM     90  F   UNL A   1      35.222  33.840  29.133  1.00  0.00    -0.200 F 
ENDBRANCH  66  80
BRANCH  67  91
ATOM     91  C   UNL A   1      45.564  29.529  37.737  1.00  0.00     0.064 A 
ATOM     92  C   UNL A   1      46.725  30.317  37.747  1.00  0.00     0.173 A 
ATOM     93  C   UNL A   1      45.557  28.378  38.541  1.00  0.00     0.173 A 
ATOM     94  F   UNL A   1      46.797  31.412  36.977  1.00  0.00    -0.203 F 
ATOM     95  C   UNL A   1      47.842  29.947  38.496  1.00  0.00     0.198 A 
ATOM     96  C   UNL A   1      46.660  28.030  39.318  1.00  0.00     0.198 A 
ATOM     97  F   UNL A   1      44.477  27.583  38.568  1.00  0.00    -0.203 F 
ATOM     98  F   UNL A   1      48.962  30.680  38.428  1.00  0.00    -0.200 F 
ATOM     99  C   UNL A   1      47.807  28.807  39.283  1.00  0.00     0.200 A 
ATOM    100  F   UNL A   1      46.615  26.935  40.089  1.00  0.00    -0.200 F 
ATOM    101  F   UNL A   1      48.884  28.447  39.995  1.00  0.00    -0.200 F 
ENDBRANCH  67  91
BRANCH  79 102
ATOM    102  C   UNL A   1      40.244  34.001  38.321  1.00  0.00     0.064 A 
ATOM    103  C   UNL A   1      40.748  35.307  38.402  1.00  0.00     0.173 A 
ATOM    104  C   UNL A   1      39.273  33.612  39.257  1.00  0.00     0.173 A 
ATOM    105  F   UNL A   1      41.688  35.723  37.540  1.00  0.00    -0.203 F 
ATOM    106  C   UNL A   1      40.310  36.183  39.392  1.00  0.00     0.198 A 
ATOM    107  C   UNL A   1      38.813  34.501  40.224  1.00  0.00     0.198 A 
ATOM    108  F   UNL A   1      38.751  32.378  39.218  1.00  0.00    -0.203 F 
ATOM    109  F   UNL A   1      40.838  37.411  39.478  1.00  0.00    -0.200 F 
ATOM    110  C   UNL A   1      39.336  35.783  40.295  1.00  0.00     0.200 A 
ATOM    111  F   UNL A   1      37.859  34.120  41.083  1.00  0.00    -0.200 F 
ATOM    112  F   UNL A   1      38.905  36.634  41.237  1.00  0.00    -0.200 F 
ENDBRANCH  79 102
ENDBRANCH  53  54
ENDBRANCH  46  48
ENDBRANCH  45  46
ENDBRANCH  44  45
ENDBRANCH  43  44
ENDBRANCH  42  43
ENDBRANCH  41  42
ENDBRANCH  40  41
ENDBRANCH  39  40
ENDBRANCH  38  39
ENDBRANCH  37  38
ENDBRANCH   1  37
TORSDOF 31
ENDMDL
MODEL 2
REMARK VINA RESULT:      -6.8      1.870      2.880
REMARK SMILES CC(C)C[C@H](NC(=O)CNC(=O)[C@@H](NC(=O)OCc1ccccc1)C(C)C)C(=O)OCCOCCOCCOCCOC(=O)c1ccc(-c2c3nc(c(-c4c(F)c(F)c(F)c(F)c4F)c4ccc([nH]4)c(-c4c(F)c(F)c(F)c(F)c4F)c4nc(c(-c5c(F)c(F)c(F)c(F)c5F)c5ccc2[nH]5)C=C4)C=C3)cc1
REMARK SMILES IDX 33 1 32 2 31 3 30 4 28 5 29 6 5 7 4 8 2 9 1 10 3 11 6 12
REMARK SMILES IDX 7 13 8 15 9 16 10 17 11 18 12 20 13 21 14 22 15 23 16 25
REMARK SMILES IDX 17 26 18 27 19 28 20 29 24 30 21 31 23 32 22 33 25 34 26 35
REMARK SMILES IDX 27 36 34 37 35 38 36 39 37 40 38 41 39 42 40 43 41 44 42 45
REMARK SMILES IDX 43 46 44 47 45 48 46 49 107 50 47 51 106 52 48 53 49 54
REMARK SMILES IDX 50 55 100 56 51 57 105 58 99 59 101 60 52 61 104 62 98 63
REMARK SMILES IDX 97 64 53 66 85 67 65 68 84 69 66 70 69 71 83 72 102 73 67 74
REMARK SMILES IDX 68 75 82 77 103 78 70 79 54 80 55 81 63 82 56 83 57 84 61 85
REMARK SMILES IDX 64 86 58 87 59 88 62 89 60 90 86 91 87 92 95 93 88 94 89 95
REMARK SMILES IDX 93 96 96 97 90 98 91 99 94 100 92 101 71 102 72 103 80 104
REMARK SMILES IDX 73 105 74 106 78 107 81 108 75 109 76 110 79 111 77 112
REMARK H PARENT 6 14 10 19 14 24 101 65 69 76
REMARK Flexibility Score: inf
ROOT
ATOM      1  O   UNL A   1      37.621  29.231  28.745  1.00  0.00    -0.376 OA
ENDROOT
BRANCH   1   2
ATOM      2  C   UNL A   1      36.943  29.817  27.649  1.00  0.00     0.202 C 
BRANCH   2   3
ATOM      3  C   UNL A   1      35.416  29.964  27.574  1.00  0.00     0.261 C 
BRANCH   3   4
ATOM      4  O   UNL A   1      34.758  29.009  26.716  1.00  0.00    -0.462 OA
BRANCH   4   5
ATOM      5  C   UNL A   1      33.546  28.473  27.101  1.00  0.00     0.328 C 
ATOM      6  O   UNL A   1      33.118  28.602  28.241  1.00  0.00    -0.250 OA
BRANCH   5   7
ATOM      7  C   UNL A   1      32.785  27.680  25.899  1.00  0.00     0.192 C 
BRANCH   7   8
ATOM      8  C   UNL A   1      32.160  28.359  24.630  1.00  0.00     0.040 C 
BRANCH   8   9
ATOM      9  C   UNL A   1      30.720  28.165  24.002  1.00  0.00    -0.015 C 
ATOM     10  C   UNL A   1      29.985  29.440  23.515  1.00  0.00     0.007 C 
ATOM     11  C   UNL A   1      30.854  27.331  22.720  1.00  0.00     0.007 C 
ENDBRANCH   8   9
ENDBRANCH   7   8
BRANCH   7  12
ATOM     12  N   UNL A   1      31.807  26.767  26.375  1.00  0.00    -0.341 N 
ATOM     13  C   UNL A   1      31.843  25.461  26.028  1.00  0.00     0.240 C 
ATOM     14  H   UNL A   1      31.091  27.091  26.968  1.00  0.00     0.164 HD
ATOM     15  O   UNL A   1      31.112  24.679  26.638  1.00  0.00    -0.273 OA
BRANCH  13  16
ATOM     16  C   UNL A   1      32.810  24.975  24.886  1.00  0.00     0.216 C 
BRANCH  16  17
ATOM     17  N   UNL A   1      33.362  23.639  24.335  1.00  0.00    -0.345 N 
ATOM     18  C   UNL A   1      34.069  22.483  24.294  1.00  0.00     0.243 C 
ATOM     19  H   UNL A   1      32.919  23.611  23.455  1.00  0.00     0.164 HD
ATOM     20  O   UNL A   1      33.561  21.785  23.381  1.00  0.00    -0.273 OA
BRANCH  18  21
ATOM     21  C   UNL A   1      35.363  21.748  25.043  1.00  0.00     0.177 C 
BRANCH  21  22
ATOM     22  N   UNL A   1      35.430  20.255  25.143  1.00  0.00    -0.309 N 
ATOM     23  C   UNL A   1      36.372  19.279  24.921  1.00  0.00     0.408 C 
ATOM     24  H   UNL A   1      34.576  19.872  25.448  1.00  0.00     0.167 HD
ATOM     25  O   UNL A   1      36.021  18.109  24.805  1.00  0.00    -0.225 OA
BRANCH  23  26
ATOM     26  O   UNL A   1      37.647  19.705  24.729  1.00  0.00    -0.445 OA
BRANCH  26  27
ATOM     27  C   UNL A   1      38.662  19.176  25.617  1.00  0.00     0.270 C 
BRANCH  27  28
ATOM     28  C   UNL A   1      39.934  19.972  25.778  1.00  0.00    -0.011 A 
ATOM     29  C   UNL A   1      39.917  21.349  26.005  1.00  0.00     0.007 A 
ATOM     30  C   UNL A   1      41.168  19.296  25.834  1.00  0.00     0.007 A 
ATOM     31  C   UNL A   1      41.101  22.042  26.257  1.00  0.00     0.000 A 
ATOM     32  C   UNL A   1      42.354  19.989  26.081  1.00  0.00     0.000 A 
ATOM     33  C   UNL A   1      42.318  21.365  26.292  1.00  0.00     0.000 A 
ENDBRANCH  27  28
ENDBRANCH  26  27
ENDBRANCH  23  26
ENDBRANCH  21  22
BRANCH  21  34
ATOM     34  C   UNL A   1      36.729  22.486  24.998  1.00  0.00     0.015 C 
ATOM     35  C   UNL A   1      36.943  23.161  23.636  1.00  0.00     0.010 C 
ATOM     36  C   UNL A   1      36.873  23.605  26.054  1.00  0.00     0.010 C 
ENDBRANCH  21  34
ENDBRANCH  18  21
ENDBRANCH  16  17
ENDBRANCH  13  16
ENDBRANCH   7  12
ENDBRANCH   5   7
ENDBRANCH   4   5
ENDBRANCH   3   4
ENDBRANCH   2   3
ENDBRANCH   1   2
BRANCH   1  37
ATOM     37  C   UNL A   1      38.392  28.050  28.654  1.00  0.00     0.188 C 
BRANCH  37  38
ATOM     38  C   UNL A   1      39.585  27.978  27.687  1.00  0.00     0.188 C 
BRANCH  38  39
ATOM     39  O   UNL A   1      40.799  27.303  27.926  1.00  0.00    -0.377 OA
BRANCH  39  40
ATOM     40  C   UNL A   1      40.748  25.918  28.206  1.00  0.00     0.188 C 
BRANCH  40  41
ATOM     41  C   UNL A   1      42.066  25.431  28.810  1.00  0.00     0.188 C 
BRANCH  41  42
ATOM     42  O   UNL A   1      42.260  24.036  28.665  1.00  0.00    -0.376 OA
BRANCH  42  43
ATOM     43  C   UNL A   1      43.449  23.419  29.147  1.00  0.00     0.202 C 
BRANCH  43  44
ATOM     44  C   UNL A   1      44.687  24.139  29.743  1.00  0.00     0.261 C 
BRANCH  44  45
ATOM     45  O   UNL A   1      44.546  24.939  30.924  1.00  0.00    -0.460 OA
BRANCH  45  46
ATOM     46  C   UNL A   1      45.525  25.794  31.261  1.00  0.00     0.338 C 
ATOM     47  O   UNL A   1      46.635  25.888  30.763  1.00  0.00    -0.246 OA
BRANCH  46  48
ATOM     48  C   UNL A   1      44.936  26.745  32.232  1.00  0.00     0.060 A 
ATOM     49  C   UNL A   1      45.326  28.091  32.191  1.00  0.00     0.016 A 
ATOM     50  C   UNL A   1      43.959  26.325  33.138  1.00  0.00     0.016 A 
ATOM     51  C   UNL A   1      44.740  29.019  33.054  1.00  0.00     0.010 A 
ATOM     52  C   UNL A   1      43.402  27.247  34.029  1.00  0.00     0.010 A 
ATOM     53  C   UNL A   1      43.800  28.595  34.001  1.00  0.00    -0.014 A 
BRANCH  53  54
ATOM     54  C   UNL A   1      43.363  29.515  35.079  1.00  0.00     0.031 A 
ATOM     55  C   UNL A   1      42.207  30.433  34.800  1.00  0.00     0.074 A 
ATOM     56  C   UNL A   1      43.986  29.550  36.270  1.00  0.00     0.049 A 
ATOM     57  N   UNL A   1      41.722  31.406  35.527  1.00  0.00    -0.248 NA
ATOM     58  C   UNL A   1      41.499  30.224  33.525  1.00  0.00     0.031 C 
ATOM     59  C   UNL A   1      45.083  28.673  36.677  1.00  0.00     0.029 A 
ATOM     60  N   UNL A   1      43.798  30.378  37.351  1.00  0.00    -0.354 N 
ATOM     61  C   UNL A   1      40.672  31.938  34.790  1.00  0.00     0.074 A 
ATOM     62  C   UNL A   1      40.587  31.184  33.560  1.00  0.00     0.031 C 
ATOM     63  C   UNL A   1      45.496  29.034  37.905  1.00  0.00     0.029 A 
ATOM     64  C   UNL A   1      44.725  30.196  38.349  1.00  0.00     0.049 A 
ATOM     65  H   UNL A   1      43.070  31.038  37.405  1.00  0.00     0.167 HD
ATOM     66  C   UNL A   1      39.860  32.970  35.113  1.00  0.00     0.037 A 
ATOM     67  C   UNL A   1      44.955  30.920  39.464  1.00  0.00     0.037 A 
ATOM     68  C   UNL A   1      39.945  33.711  36.342  1.00  0.00     0.049 A 
ATOM     69  C   UNL A   1      44.084  32.121  39.756  1.00  0.00     0.074 A 
ATOM     70  C   UNL A   1      39.133  34.740  36.783  1.00  0.00     0.029 A 
ATOM     71  N   UNL A   1      40.911  33.515  37.316  1.00  0.00    -0.354 N 
ATOM     72  N   UNL A   1      43.061  32.589  39.082  1.00  0.00    -0.248 NA
ATOM     73  C   UNL A   1      44.406  32.901  40.961  1.00  0.00     0.031 C 
ATOM     74  C   UNL A   1      39.651  35.215  37.991  1.00  0.00     0.029 A 
ATOM     75  C   UNL A   1      40.745  34.439  38.334  1.00  0.00     0.049 A 
ATOM     76  H   UNL A   1      41.611  32.823  37.288  1.00  0.00     0.167 HD
ATOM     77  C   UNL A   1      42.607  33.695  39.790  1.00  0.00     0.074 A 
ATOM     78  C   UNL A   1      43.449  33.817  40.959  1.00  0.00     0.031 C 
ATOM     79  C   UNL A   1      41.588  34.540  39.497  1.00  0.00     0.037 A 
BRANCH  66  80
ATOM     80  C   UNL A   1      38.829  33.397  34.113  1.00  0.00     0.064 A 
ATOM     81  C   UNL A   1      39.168  34.121  32.961  1.00  0.00     0.173 A 
ATOM     82  C   UNL A   1      37.493  32.997  34.270  1.00  0.00     0.173 A 
ATOM     83  F   UNL A   1      40.428  34.539  32.772  1.00  0.00    -0.203 F 
ATOM     84  C   UNL A   1      38.204  34.433  32.005  1.00  0.00     0.198 A 
ATOM     85  C   UNL A   1      36.539  33.286  33.301  1.00  0.00     0.198 A 
ATOM     86  F   UNL A   1      37.120  32.301  35.355  1.00  0.00    -0.203 F 
ATOM     87  F   UNL A   1      38.542  35.146  30.922  1.00  0.00    -0.200 F 
ATOM     88  C   UNL A   1      36.894  34.004  32.170  1.00  0.00     0.200 A 
ATOM     89  F   UNL A   1      35.278  32.858  33.455  1.00  0.00    -0.200 F 
ATOM     90  F   UNL A   1      35.974  34.284  31.236  1.00  0.00    -0.200 F 
ENDBRANCH  66  80
BRANCH  67  91
ATOM     91  C   UNL A   1      46.095  30.586  40.362  1.00  0.00     0.064 A 
ATOM     92  C   UNL A   1      45.932  29.726  41.459  1.00  0.00     0.173 A 
ATOM     93  C   UNL A   1      47.355  31.179  40.186  1.00  0.00     0.173 A 
ATOM     94  F   UNL A   1      44.742  29.155  41.691  1.00  0.00    -0.203 F 
ATOM     95  C   UNL A   1      46.972  29.503  42.361  1.00  0.00     0.198 A 
ATOM     96  C   UNL A   1      48.405  30.925  41.067  1.00  0.00     0.198 A 
ATOM     97  F   UNL A   1      47.569  32.013  39.159  1.00  0.00    -0.203 F 
ATOM     98  F   UNL A   1      46.765  28.736  43.440  1.00  0.00    -0.200 F 
ATOM     99  C   UNL A   1      48.207  30.099  42.163  1.00  0.00     0.200 A 
ATOM    100  F   UNL A   1      49.602  31.491  40.861  1.00  0.00    -0.200 F 
ATOM    101  F   UNL A   1      49.204  29.891  43.035  1.00  0.00    -0.200 F 
ENDBRANCH  67  91
BRANCH  79 102
ATOM    102  C   UNL A   1      41.305  35.655  40.463  1.00  0.00     0.064 A 
ATOM    103  C   UNL A   1      41.870  36.929  40.300  1.00  0.00     0.173 A 
ATOM    104  C   UNL A   1      40.409  35.465  41.526  1.00  0.00     0.173 A 
ATOM    105  F   UNL A   1      42.743  37.159  39.308  1.00  0.00    -0.203 F 
ATOM    106  C   UNL A   1      41.562  37.965  41.178  1.00  0.00     0.198 A 
ATOM    107  C   UNL A   1      40.078  36.513  42.381  1.00  0.00     0.198 A 
ATOM    108  F   UNL A   1      39.834  34.269  41.722  1.00  0.00    -0.203 F 
ATOM    109  F   UNL A   1      42.146  39.162  41.029  1.00  0.00    -0.200 F 
ATOM    110  C   UNL A   1      40.659  37.760  42.210  1.00  0.00     0.200 A 
ATOM    111  F   UNL A   1      39.191  36.317  43.366  1.00  0.00    -0.200 F 
ATOM    112  F   UNL A   1      40.352  38.764  43.043  1.00  0.00    -0.200 F 
ENDBRANCH  79 102
ENDBRANCH  53  54
ENDBRANCH  46  48
ENDBRANCH  45  46
ENDBRANCH  44  45
ENDBRANCH  43  44
ENDBRANCH  42  43
ENDBRANCH  41  42
ENDBRANCH  40  41
ENDBRANCH  39  40
ENDBRANCH  38  39
ENDBRANCH  37  38
ENDBRANCH   1  37
TORSDOF 31
ENDMDL
MODEL 3
REMARK VINA RESULT:      -6.6      5.341      9.832
REMARK SMILES CC(C)C[C@H](NC(=O)CNC(=O)[C@@H](NC(=O)OCc1ccccc1)C(C)C)C(=O)OCCOCCOCCOCCOC(=O)c1ccc(-c2c3nc(c(-c4c(F)c(F)c(F)c(F)c4F)c4ccc([nH]4)c(-c4c(F)c(F)c(F)c(F)c4F)c4nc(c(-c5c(F)c(F)c(F)c(F)c5F)c5ccc2[nH]5)C=C4)C=C3)cc1
REMARK SMILES IDX 33 1 32 2 31 3 30 4 28 5 29 6 5 7 4 8 2 9 1 10 3 11 6 12
REMARK SMILES IDX 7 13 8 15 9 16 10 17 11 18 12 20 13 21 14 22 15 23 16 25
REMARK SMILES IDX 17 26 18 27 19 28 20 29 24 30 21 31 23 32 22 33 25 34 26 35
REMARK SMILES IDX 27 36 34 37 35 38 36 39 37 40 38 41 39 42 40 43 41 44 42 45
REMARK SMILES IDX 43 46 44 47 45 48 46 49 107 50 47 51 106 52 48 53 49 54
REMARK SMILES IDX 50 55 100 56 51 57 105 58 99 59 101 60 52 61 104 62 98 63
REMARK SMILES IDX 97 64 53 66 85 67 65 68 84 69 66 70 69 71 83 72 102 73 67 74
REMARK SMILES IDX 68 75 82 77 103 78 70 79 54 80 55 81 63 82 56 83 57 84 61 85
REMARK SMILES IDX 64 86 58 87 59 88 62 89 60 90 86 91 87 92 95 93 88 94 89 95
REMARK SMILES IDX 93 96 96 97 90 98 91 99 94 100 92 101 71 102 72 103 80 104
REMARK SMILES IDX 73 105 74 106 78 107 81 108 75 109 76 110 79 111 77 112
REMARK H PARENT 6 14 10 19 14 24 101 65 69 76
REMARK Flexibility Score: inf
ROOT
ATOM      1  O   UNL A   1      45.908  32.013  28.862  1.00  0.00    -0.376 OA
ENDROOT
BRANCH   1   2
ATOM      2  C   UNL A   1      44.623  32.593  28.990  1.00  0.00     0.202 C 
BRANCH   2   3
ATOM      3  C   UNL A   1      43.414  31.855  29.584  1.00  0.00     0.261 C 
BRANCH   3   4
ATOM      4  O   UNL A   1      42.690  32.593  30.590  1.00  0.00    -0.462 OA
BRANCH   4   5
ATOM      5  C   UNL A   1      41.622  33.384  30.214  1.00  0.00     0.328 C 
ATOM      6  O   UNL A   1      41.777  34.537  29.831  1.00  0.00    -0.250 OA
BRANCH   5   7
ATOM      7  C   UNL A   1      40.188  32.623  30.337  1.00  0.00     0.192 C 
BRANCH   7   8
ATOM      8  C   UNL A   1      38.811  33.336  30.579  1.00  0.00     0.040 C 
BRANCH   8   9
ATOM      9  C   UNL A   1      37.374  32.939  30.047  1.00  0.00    -0.015 C 
ATOM     10  C   UNL A   1      36.518  34.068  29.419  1.00  0.00     0.007 C 
ATOM     11  C   UNL A   1      37.538  31.944  28.891  1.00  0.00     0.007 C 
ENDBRANCH   8   9
ENDBRANCH   7   8
BRANCH   7  12
ATOM     12  N   UNL A   1      40.222  31.525  31.236  1.00  0.00    -0.341 N 
ATOM     13  C   UNL A   1      40.401  30.261  30.791  1.00  0.00     0.240 C 
ATOM     14  H   UNL A   1      40.113  31.687  32.202  1.00  0.00     0.164 HD
ATOM     15  O   UNL A   1      40.643  29.383  31.620  1.00  0.00    -0.273 OA
BRANCH  13  16
ATOM     16  C   UNL A   1      40.314  29.950  29.251  1.00  0.00     0.216 C 
BRANCH  16  17
ATOM     17  N   UNL A   1      40.943  28.963  28.239  1.00  0.00    -0.345 N 
ATOM     18  C   UNL A   1      41.334  27.783  27.698  1.00  0.00     0.243 C 
ATOM     19  H   UNL A   1      41.261  29.591  27.549  1.00  0.00     0.164 HD
ATOM     20  O   UNL A   1      41.558  28.002  26.482  1.00  0.00    -0.273 OA
BRANCH  18  21
ATOM     21  C   UNL A   1      41.615  26.203  28.145  1.00  0.00     0.177 C 
BRANCH  21  22
ATOM     22  N   UNL A   1      42.734  25.870  29.083  1.00  0.00    -0.309 N 
ATOM     23  C   UNL A   1      43.713  24.908  29.172  1.00  0.00     0.408 C 
ATOM     24  H   UNL A   1      42.782  26.507  29.833  1.00  0.00     0.167 HD
ATOM     25  O   UNL A   1      44.297  24.731  30.236  1.00  0.00    -0.225 OA
BRANCH  23  26
ATOM     26  O   UNL A   1      43.889  24.125  28.077  1.00  0.00    -0.445 OA
BRANCH  26  27
ATOM     27  C   UNL A   1      44.743  24.640  27.027  1.00  0.00     0.270 C 
BRANCH  27  28
ATOM     28  C   UNL A   1      45.292  23.655  26.025  1.00  0.00    -0.011 A 
ATOM     29  C   UNL A   1      46.122  24.057  24.977  1.00  0.00     0.007 A 
ATOM     30  C   UNL A   1      45.074  22.277  26.221  1.00  0.00     0.007 A 
ATOM     31  C   UNL A   1      46.702  23.112  24.129  1.00  0.00     0.000 A 
ATOM     32  C   UNL A   1      45.650  21.333  25.370  1.00  0.00     0.000 A 
ATOM     33  C   UNL A   1      46.465  21.754  24.322  1.00  0.00     0.000 A 
ENDBRANCH  27  28
ENDBRANCH  26  27
ENDBRANCH  23  26
ENDBRANCH  21  22
BRANCH  21  34
ATOM     34  C   UNL A   1      40.395  25.241  28.178  1.00  0.00     0.015 C 
ATOM     35  C   UNL A   1      39.098  25.989  27.839  1.00  0.00     0.010 C 
ATOM     36  C   UNL A   1      40.489  24.074  27.169  1.00  0.00     0.010 C 
ENDBRANCH  21  34
ENDBRANCH  18  21
ENDBRANCH  16  17
ENDBRANCH  13  16
ENDBRANCH   7  12
ENDBRANCH   5   7
ENDBRANCH   4   5
ENDBRANCH   3   4
ENDBRANCH   2   3
ENDBRANCH   1   2
BRANCH   1  37
ATOM     37  C   UNL A   1      46.461  31.586  27.633  1.00  0.00     0.188 C 
BRANCH  37  38
ATOM     38  C   UNL A   1      46.995  32.616  26.626  1.00  0.00     0.188 C 
BRANCH  38  39
ATOM     39  O   UNL A   1      46.209  33.492  25.849  1.00  0.00    -0.377 OA
BRANCH  39  40
ATOM     40  C   UNL A   1      45.923  34.773  26.372  1.00  0.00     0.188 C 
BRANCH  40  41
ATOM     41  C   UNL A   1      44.451  35.134  26.165  1.00  0.00     0.188 C 
BRANCH  41  42
ATOM     42  O   UNL A   1      43.788  35.469  27.372  1.00  0.00    -0.376 OA
BRANCH  42  43
ATOM     43  C   UNL A   1      44.001  36.736  27.983  1.00  0.00     0.202 C 
BRANCH  43  44
ATOM     44  C   UNL A   1      45.335  37.268  28.568  1.00  0.00     0.261 C 
BRANCH  44  45
ATOM     45  O   UNL A   1      45.317  38.166  29.684  1.00  0.00    -0.460 OA
BRANCH  45  46
ATOM     46  C   UNL A   1      46.145  37.948  30.718  1.00  0.00     0.338 C 
ATOM     47  O   UNL A   1      47.347  38.157  30.766  1.00  0.00    -0.246 OA
BRANCH  46  48
ATOM     48  C   UNL A   1      45.290  37.584  31.872  1.00  0.00     0.060 A 
ATOM     49  C   UNL A   1      45.623  36.459  32.639  1.00  0.00     0.016 A 
ATOM     50  C   UNL A   1      44.200  38.380  32.231  1.00  0.00     0.016 A 
ATOM     51  C   UNL A   1      44.869  36.130  33.767  1.00  0.00     0.010 A 
ATOM     52  C   UNL A   1      43.421  38.027  33.337  1.00  0.00     0.010 A 
ATOM     53  C   UNL A   1      43.743  36.892  34.101  1.00  0.00    -0.014 A 
BRANCH  53  54
ATOM     54  C   UNL A   1      42.799  36.409  35.138  1.00  0.00     0.031 A 
ATOM     55  C   UNL A   1      43.076  36.766  36.571  1.00  0.00     0.074 A 
ATOM     56  C   UNL A   1      41.731  35.656  34.820  1.00  0.00     0.049 A 
ATOM     57  N   UNL A   1      42.476  36.363  37.660  1.00  0.00    -0.248 NA
ATOM     58  C   UNL A   1      44.183  37.709  36.806  1.00  0.00     0.031 C 
ATOM     59  C   UNL A   1      41.328  35.289  33.464  1.00  0.00     0.029 A 
ATOM     60  N   UNL A   1      40.800  35.043  35.625  1.00  0.00    -0.354 N 
ATOM     61  C   UNL A   1      43.146  36.983  38.708  1.00  0.00     0.074 A 
ATOM     62  C   UNL A   1      44.196  37.788  38.128  1.00  0.00     0.031 C 
ATOM     63  C   UNL A   1      40.253  34.483  33.532  1.00  0.00     0.029 A 
ATOM     64  C   UNL A   1      39.924  34.239  34.937  1.00  0.00     0.049 A 
ATOM     65  H   UNL A   1      40.767  35.166  36.601  1.00  0.00     0.167 HD
ATOM     66  C   UNL A   1      42.905  36.878  40.034  1.00  0.00     0.037 A 
ATOM     67  C   UNL A   1      38.999  33.370  35.395  1.00  0.00     0.037 A 
ATOM     68  C   UNL A   1      41.852  36.081  40.604  1.00  0.00     0.049 A 
ATOM     69  C   UNL A   1      38.811  33.211  36.886  1.00  0.00     0.074 A 
ATOM     70  C   UNL A   1      41.496  35.953  41.935  1.00  0.00     0.029 A 
ATOM     71  N   UNL A   1      41.002  35.264  39.879  1.00  0.00    -0.354 N 
ATOM     72  N   UNL A   1      39.411  33.837  37.871  1.00  0.00    -0.248 NA
ATOM     73  C   UNL A   1      37.822  32.218  37.332  1.00  0.00     0.031 C 
ATOM     74  C   UNL A   1      40.477  35.002  42.021  1.00  0.00     0.029 A 
ATOM     75  C   UNL A   1      40.153  34.588  40.740  1.00  0.00     0.049 A 
ATOM     76  H   UNL A   1      41.001  35.176  38.898  1.00  0.00     0.167 HD
ATOM     77  C   UNL A   1      38.858  33.333  39.041  1.00  0.00     0.074 A 
ATOM     78  C   UNL A   1      37.856  32.366  38.647  1.00  0.00     0.031 C 
ATOM     79  C   UNL A   1      39.155  33.635  40.329  1.00  0.00     0.037 A 
BRANCH  66  80
ATOM     80  C   UNL A   1      43.814  37.608  40.977  1.00  0.00     0.064 A 
ATOM     81  C   UNL A   1      45.059  37.087  41.358  1.00  0.00     0.173 A 
ATOM     82  C   UNL A   1      43.467  38.888  41.435  1.00  0.00     0.173 A 
ATOM     83  F   UNL A   1      45.430  35.862  40.958  1.00  0.00    -0.203 F 
ATOM     84  C   UNL A   1      45.922  37.822  42.168  1.00  0.00     0.198 A 
ATOM     85  C   UNL A   1      44.342  39.630  42.220  1.00  0.00     0.198 A 
ATOM     86  F   UNL A   1      42.287  39.428  41.096  1.00  0.00    -0.203 F 
ATOM     87  F   UNL A   1      47.098  37.298  42.541  1.00  0.00    -0.200 F 
ATOM     88  C   UNL A   1      45.568  39.097  42.587  1.00  0.00     0.200 A 
ATOM     89  F   UNL A   1      44.005  40.866  42.612  1.00  0.00    -0.200 F 
ATOM     90  F   UNL A   1      46.411  39.812  43.345  1.00  0.00    -0.200 F 
ENDBRANCH  66  80
BRANCH  67  91
ATOM     91  C   UNL A   1      38.221  32.524  34.448  1.00  0.00     0.064 A 
ATOM     92  C   UNL A   1      37.051  32.999  33.836  1.00  0.00     0.173 A 
ATOM     93  C   UNL A   1      38.590  31.194  34.191  1.00  0.00     0.173 A 
ATOM     94  F   UNL A   1      36.636  34.253  34.069  1.00  0.00    -0.203 F 
ATOM     95  C   UNL A   1      36.265  32.169  33.038  1.00  0.00     0.198 A 
ATOM     96  C   UNL A   1      37.825  30.377  33.362  1.00  0.00     0.198 A 
ATOM     97  F   UNL A   1      39.696  30.682  34.751  1.00  0.00    -0.203 F 
ATOM     98  F   UNL A   1      35.115  32.629  32.528  1.00  0.00    -0.200 F 
ATOM     99  C   UNL A   1      36.654  30.861  32.798  1.00  0.00     0.200 A 
ATOM    100  F   UNL A   1      38.214  29.117  33.121  1.00  0.00    -0.200 F 
ATOM    101  F   UNL A   1      35.894  30.060  32.038  1.00  0.00    -0.200 F 
ENDBRANCH  67  91
BRANCH  79 102
ATOM    102  C   UNL A   1      38.375  32.939  41.408  1.00  0.00     0.064 A 
ATOM    103  C   UNL A   1      37.103  33.383  41.798  1.00  0.00     0.173 A 
ATOM    104  C   UNL A   1      38.879  31.777  42.013  1.00  0.00     0.173 A 
ATOM    105  F   UNL A   1      36.582  34.496  41.260  1.00  0.00    -0.203 F 
ATOM    106  C   UNL A   1      36.373  32.700  42.767  1.00  0.00     0.198 A 
ATOM    107  C   UNL A   1      38.132  31.078  42.957  1.00  0.00     0.198 A 
ATOM    108  F   UNL A   1      40.087  31.305  41.671  1.00  0.00    -0.203 F 
ATOM    109  F   UNL A   1      35.179  33.167  43.156  1.00  0.00    -0.200 F 
ATOM    110  C   UNL A   1      36.883  31.543  43.337  1.00  0.00     0.200 A 
ATOM    111  F   UNL A   1      38.619  29.951  43.493  1.00  0.00    -0.200 F 
ATOM    112  F   UNL A   1      36.171  30.879  44.258  1.00  0.00    -0.200 F 
ENDBRANCH  79 102
ENDBRANCH  53  54
ENDBRANCH  46  48
ENDBRANCH  45  46
ENDBRANCH  44  45
ENDBRANCH  43  44
ENDBRANCH  42  43
ENDBRANCH  41  42
ENDBRANCH  40  41
ENDBRANCH  39  40
ENDBRANCH  38  39
ENDBRANCH  37  38
ENDBRANCH   1  37
TORSDOF 31
ENDMDL
