MODEL 1
REMARK VINA RESULT:     -11.9      0.000      0.000
REMARK SMILES O=C1O[C@@H](c2ccc(O)c(O)c2)[C@H](C(=O)OCCOCCOCCOCCOC(=O)c2ccc(-c3c4nc(c(-c5c(F)c(F)c(F)c(F)c5F)c5ccc([nH]5)c(-c5c(F)c(F)c(F)c(F)c5F)c5nc(c(-c6c(F)c(F)c(F)c(F)c6F)c6ccc3[nH]6)C=C5)C=C4)cc2)/C1=C\c1ccc(O)c(O)c1
REMARK SMILES IDX 22 1 21 2 20 3 19 4 18 5 17 6 16 7 14 8 15 9 13 10 1 11 2 12
REMARK SMILES IDX 3 13 94 14 4 15 95 16 5 17 6 18 12 19 7 20 10 21 8 22 11 23
REMARK SMILES IDX 9 25 96 27 97 28 103 29 98 30 101 31 99 32 102 33 100 35
REMARK SMILES IDX 23 37 24 38 25 39 26 40 27 41 28 42 29 43 30 44 31 45 32 46
REMARK SMILES IDX 93 47 33 48 92 49 34 50 35 51 36 52 86 53 37 54 91 55 85 56
REMARK SMILES IDX 87 57 38 58 90 59 84 60 83 61 39 63 71 64 51 65 70 66 52 67
REMARK SMILES IDX 55 68 69 69 88 70 53 71 54 72 68 74 89 75 56 76 40 77 41 78
REMARK SMILES IDX 49 79 42 80 43 81 47 82 50 83 44 84 45 85 48 86 46 87 72 88
REMARK SMILES IDX 73 89 81 90 74 91 75 92 79 93 82 94 76 95 77 96 80 97 78 98
REMARK SMILES IDX 57 99 58 100 66 101 59 102 60 103 64 104 67 105 61 106
REMARK SMILES IDX 62 107 65 108 63 109
REMARK H PARENT 11 24 9 26 102 34 100 36 87 62 55 73
REMARK Flexibility Score: inf
ROOT
ATOM      1  O   UNL A   1      32.929  26.415  23.371  1.00  0.00    -0.377 OA
ENDROOT
BRANCH   1   2
ATOM      2  C   UNL A   1      31.726  26.148  22.672  1.00  0.00     0.188 C 
BRANCH   2   3
ATOM      3  C   UNL A   1      30.515  25.698  23.516  1.00  0.00     0.188 C 
BRANCH   3   4
ATOM      4  O   UNL A   1      30.676  25.977  24.899  1.00  0.00    -0.376 OA
BRANCH   4   5
ATOM      5  C   UNL A   1      30.165  25.060  25.845  1.00  0.00     0.202 C 
BRANCH   5   6
ATOM      6  C   UNL A   1      31.161  24.403  26.811  1.00  0.00     0.261 C 
BRANCH   6   7
ATOM      7  O   UNL A   1      31.900  23.297  26.271  1.00  0.00    -0.463 OA
BRANCH   7   8
ATOM      8  C   UNL A   1      33.120  23.572  25.734  1.00  0.00     0.317 C 
ATOM      9  O   UNL A   1      33.734  24.614  25.907  1.00  0.00    -0.251 OA
BRANCH   8  10
ATOM     10  C   UNL A   1      33.597  22.362  24.945  1.00  0.00     0.182 C 
ATOM     11  O   UNL A   1      33.597  23.469  21.592  1.00  0.00    -0.247 OA
ATOM     12  C   UNL A   1      33.400  22.926  22.668  1.00  0.00     0.335 C 
ATOM     13  O   UNL A   1      32.229  22.350  23.061  1.00  0.00    -0.453 OA
ATOM     14  C   UNL A   1      34.390  22.753  23.753  1.00  0.00     0.056 C 
ATOM     15  C   UNL A   1      32.382  21.699  24.336  1.00  0.00     0.226 C 
ATOM     16  C   UNL A   1      35.707  22.879  23.505  1.00  0.00     0.020 C 
BRANCH  15  17
ATOM     17  C   UNL A   1      32.500  20.182  24.204  1.00  0.00    -0.002 A 
ATOM     18  C   UNL A   1      32.341  19.548  22.951  1.00  0.00     0.012 A 
ATOM     19  C   UNL A   1      32.834  19.389  25.312  1.00  0.00     0.057 A 
ATOM     20  C   UNL A   1      32.479  18.158  22.817  1.00  0.00     0.050 A 
ATOM     21  C   UNL A   1      32.977  18.015  25.169  1.00  0.00     0.157 A 
ATOM     22  C   UNL A   1      32.800  17.400  23.935  1.00  0.00     0.157 A 
BRANCH  21  23
ATOM     23  O   UNL A   1      33.311  17.269  26.262  1.00  0.00    -0.504 OA
ATOM     24  H   UNL A   1      34.155  17.368  26.656  1.00  0.00     0.293 HD
ENDBRANCH  21  23
BRANCH  22  25
ATOM     25  O   UNL A   1      32.967  16.045  23.871  1.00  0.00    -0.504 OA
ATOM     26  H   UNL A   1      33.064  15.547  24.658  1.00  0.00     0.293 HD
ENDBRANCH  22  25
ENDBRANCH  15  17
BRANCH  16  27
ATOM     27  C   UNL A   1      36.851  22.632  24.397  1.00  0.00    -0.021 A 
ATOM     28  C   UNL A   1      37.361  23.644  25.230  1.00  0.00     0.012 A 
ATOM     29  C   UNL A   1      37.381  21.339  24.509  1.00  0.00     0.058 A 
ATOM     30  C   UNL A   1      38.395  23.377  26.143  1.00  0.00     0.051 A 
ATOM     31  C   UNL A   1      38.416  21.086  25.407  1.00  0.00     0.157 A 
ATOM     32  C   UNL A   1      38.921  22.095  26.222  1.00  0.00     0.157 A 
BRANCH  31  33
ATOM     33  O   UNL A   1      38.945  19.828  25.477  1.00  0.00    -0.504 OA
ATOM     34  H   UNL A   1      39.428  19.563  26.235  1.00  0.00     0.293 HD
ENDBRANCH  31  33
BRANCH  32  35
ATOM     35  O   UNL A   1      39.937  21.775  27.081  1.00  0.00    -0.504 OA
ATOM     36  H   UNL A   1      39.985  22.186  27.922  1.00  0.00     0.293 HD
ENDBRANCH  32  35
ENDBRANCH  16  27
ENDBRANCH   8  10
ENDBRANCH   7   8
ENDBRANCH   6   7
ENDBRANCH   5   6
ENDBRANCH   4   5
ENDBRANCH   3   4
ENDBRANCH   2   3
ENDBRANCH   1   2
BRANCH   1  37
ATOM     37  C   UNL A   1      33.268  27.781  23.611  1.00  0.00     0.188 C 
BRANCH  37  38
ATOM     38  C   UNL A   1      32.443  28.969  23.035  1.00  0.00     0.188 C 
BRANCH  38  39
ATOM     39  O   UNL A   1      31.394  29.460  23.850  1.00  0.00    -0.376 OA
BRANCH  39  40
ATOM     40  C   UNL A   1      31.441  29.224  25.245  1.00  0.00     0.202 C 
BRANCH  40  41
ATOM     41  C   UNL A   1      31.802  30.427  26.128  1.00  0.00     0.261 C 
BRANCH  41  42
ATOM     42  O   UNL A   1      33.197  30.568  26.424  1.00  0.00    -0.460 OA
BRANCH  42  43
ATOM     43  C   UNL A   1      33.542  31.609  27.215  1.00  0.00     0.338 C 
ATOM     44  O   UNL A   1      32.854  32.560  27.532  1.00  0.00    -0.246 OA
BRANCH  43  45
ATOM     45  C   UNL A   1      34.853  31.284  27.807  1.00  0.00     0.060 A 
ATOM     46  C   UNL A   1      35.149  29.948  28.118  1.00  0.00     0.016 A 
ATOM     47  C   UNL A   1      35.798  32.291  28.006  1.00  0.00     0.016 A 
ATOM     48  C   UNL A   1      36.396  29.615  28.640  1.00  0.00     0.010 A 
ATOM     49  C   UNL A   1      37.030  31.963  28.568  1.00  0.00     0.010 A 
ATOM     50  C   UNL A   1      37.320  30.630  28.912  1.00  0.00    -0.014 A 
BRANCH  50  51
ATOM     51  C   UNL A   1      38.484  30.346  29.776  1.00  0.00     0.031 A 
ATOM     52  C   UNL A   1      39.542  29.428  29.233  1.00  0.00     0.074 A 
ATOM     53  C   UNL A   1      38.594  30.875  31.005  1.00  0.00     0.049 A 
ATOM     54  N   UNL A   1      40.588  28.919  29.828  1.00  0.00    -0.248 NA
ATOM     55  C   UNL A   1      39.390  29.025  27.825  1.00  0.00     0.031 C 
ATOM     56  C   UNL A   1      37.660  31.823  31.605  1.00  0.00     0.029 A 
ATOM     57  N   UNL A   1      39.541  30.668  31.976  1.00  0.00    -0.354 N 
ATOM     58  C   UNL A   1      41.207  28.125  28.872  1.00  0.00     0.074 A 
ATOM     59  C   UNL A   1      40.410  28.197  27.669  1.00  0.00     0.031 C 
ATOM     60  C   UNL A   1      38.066  32.097  32.857  1.00  0.00     0.029 A 
ATOM     61  C   UNL A   1      39.262  31.310  33.157  1.00  0.00     0.049 A 
ATOM     62  H   UNL A   1      40.342  30.113  31.840  1.00  0.00     0.167 HD
ATOM     63  C   UNL A   1      42.343  27.401  28.993  1.00  0.00     0.037 A 
ATOM     64  C   UNL A   1      39.885  31.232  34.349  1.00  0.00     0.037 A 
ATOM     65  C   UNL A   1      43.122  27.333  30.198  1.00  0.00     0.049 A 
ATOM     66  C   UNL A   1      41.098  30.344  34.487  1.00  0.00     0.074 A 
ATOM     67  C   UNL A   1      44.297  26.641  30.428  1.00  0.00     0.029 A 
ATOM     68  N   UNL A   1      42.796  27.976  31.384  1.00  0.00    -0.354 N 
ATOM     69  N   UNL A   1      41.691  29.604  33.581  1.00  0.00    -0.248 NA
ATOM     70  C   UNL A   1      41.726  30.276  35.815  1.00  0.00     0.031 C 
ATOM     71  C   UNL A   1      44.645  26.809  31.771  1.00  0.00     0.029 A 
ATOM     72  C   UNL A   1      43.730  27.669  32.359  1.00  0.00     0.049 A 
ATOM     73  H   UNL A   1      42.016  28.564  31.512  1.00  0.00     0.167 HD
ATOM     74  C   UNL A   1      42.780  29.017  34.216  1.00  0.00     0.074 A 
ATOM     75  C   UNL A   1      42.767  29.490  35.584  1.00  0.00     0.031 C 
ATOM     76  C   UNL A   1      43.710  28.168  33.711  1.00  0.00     0.037 A 
BRANCH  63  77
ATOM     77  C   UNL A   1      42.781  26.593  27.806  1.00  0.00     0.064 A 
ATOM     78  C   UNL A   1      42.313  25.290  27.582  1.00  0.00     0.173 A 
ATOM     79  C   UNL A   1      43.666  27.143  26.867  1.00  0.00     0.173 A 
ATOM     80  F   UNL A   1      41.482  24.709  28.462  1.00  0.00    -0.203 F 
ATOM     81  C   UNL A   1      42.737  24.557  26.476  1.00  0.00     0.198 A 
ATOM     82  C   UNL A   1      44.059  26.421  25.743  1.00  0.00     0.198 A 
ATOM     83  F   UNL A   1      44.145  28.385  27.034  1.00  0.00    -0.203 F 
ATOM     84  F   UNL A   1      42.319  23.294  26.312  1.00  0.00    -0.200 F 
ATOM     85  C   UNL A   1      43.601  25.126  25.553  1.00  0.00     0.200 A 
ATOM     86  F   UNL A   1      44.885  26.978  24.847  1.00  0.00    -0.200 F 
ATOM     87  F   UNL A   1      44.000  24.425  24.484  1.00  0.00    -0.200 F 
ENDBRANCH  63  77
BRANCH  64  88
ATOM     88  C   UNL A   1      39.362  31.993  35.516  1.00  0.00     0.064 A 
ATOM     89  C   UNL A   1      39.771  33.311  35.763  1.00  0.00     0.173 A 
ATOM     90  C   UNL A   1      38.462  31.411  36.421  1.00  0.00     0.173 A 
ATOM     91  F   UNL A   1      40.649  33.904  34.940  1.00  0.00    -0.203 F 
ATOM     92  C   UNL A   1      39.317  34.009  36.881  1.00  0.00     0.198 A 
ATOM     93  C   UNL A   1      37.984  32.121  37.521  1.00  0.00     0.198 A 
ATOM     94  F   UNL A   1      38.040  30.152  36.235  1.00  0.00    -0.203 F 
ATOM     95  F   UNL A   1      39.766  35.249  37.120  1.00  0.00    -0.200 F 
ATOM     96  C   UNL A   1      38.420  33.417  37.755  1.00  0.00     0.200 A 
ATOM     97  F   UNL A   1      37.106  31.548  38.356  1.00  0.00    -0.200 F 
ATOM     98  F   UNL A   1      37.982  34.089  38.828  1.00  0.00    -0.200 F 
ENDBRANCH  64  88
BRANCH  76  99
ATOM     99  C   UNL A   1      44.826  27.734  34.617  1.00  0.00     0.064 A 
ATOM    100  C   UNL A   1      46.002  28.483  34.756  1.00  0.00     0.173 A 
ATOM    101  C   UNL A   1      44.676  26.590  35.419  1.00  0.00     0.173 A 
ATOM    102  F   UNL A   1      46.200  29.577  34.006  1.00  0.00    -0.203 F 
ATOM    103  C   UNL A   1      46.995  28.095  35.654  1.00  0.00     0.198 A 
ATOM    104  C   UNL A   1      45.654  26.225  36.338  1.00  0.00     0.198 A 
ATOM    105  F   UNL A   1      43.565  25.843  35.331  1.00  0.00    -0.203 F 
ATOM    106  F   UNL A   1      48.128  28.805  35.743  1.00  0.00    -0.200 F 
ATOM    107  C   UNL A   1      46.815  26.975  36.452  1.00  0.00     0.200 A 
ATOM    108  F   UNL A   1      45.468  25.154  37.122  1.00  0.00    -0.200 F 
ATOM    109  F   UNL A   1      47.761  26.615  37.329  1.00  0.00    -0.200 F 
ENDBRANCH  76  99
ENDBRANCH  50  51
ENDBRANCH  43  45
ENDBRANCH  42  43
ENDBRANCH  41  42
ENDBRANCH  40  41
ENDBRANCH  39  40
ENDBRANCH  38  39
ENDBRANCH  37  38
ENDBRANCH   1  37
TORSDOF 26
ENDMDL
MODEL 2
REMARK VINA RESULT:     -11.7      0.839      6.962
REMARK SMILES O=C1O[C@@H](c2ccc(O)c(O)c2)[C@H](C(=O)OCCOCCOCCOCCOC(=O)c2ccc(-c3c4nc(c(-c5c(F)c(F)c(F)c(F)c5F)c5ccc([nH]5)c(-c5c(F)c(F)c(F)c(F)c5F)c5nc(c(-c6c(F)c(F)c(F)c(F)c6F)c6ccc3[nH]6)C=C5)C=C4)cc2)/C1=C\c1ccc(O)c(O)c1
REMARK SMILES IDX 22 1 21 2 20 3 19 4 18 5 17 6 16 7 14 8 15 9 13 10 1 11 2 12
REMARK SMILES IDX 3 13 94 14 4 15 95 16 5 17 6 18 12 19 7 20 10 21 8 22 11 23
REMARK SMILES IDX 9 25 96 27 97 28 103 29 98 30 101 31 99 32 102 33 100 35
REMARK SMILES IDX 23 37 24 38 25 39 26 40 27 41 28 42 29 43 30 44 31 45 32 46
REMARK SMILES IDX 93 47 33 48 92 49 34 50 35 51 36 52 86 53 37 54 91 55 85 56
REMARK SMILES IDX 87 57 38 58 90 59 84 60 83 61 39 63 71 64 51 65 70 66 52 67
REMARK SMILES IDX 55 68 69 69 88 70 53 71 54 72 68 74 89 75 56 76 40 77 41 78
REMARK SMILES IDX 49 79 42 80 43 81 47 82 50 83 44 84 45 85 48 86 46 87 72 88
REMARK SMILES IDX 73 89 81 90 74 91 75 92 79 93 82 94 76 95 77 96 80 97 78 98
REMARK SMILES IDX 57 99 58 100 66 101 59 102 60 103 64 104 67 105 61 106
REMARK SMILES IDX 62 107 65 108 63 109
REMARK H PARENT 11 24 9 26 102 34 100 36 87 62 55 73
REMARK Flexibility Score: inf
ROOT
ATOM      1  O   UNL A   1      33.493  28.156  24.645  1.00  0.00    -0.377 OA
ENDROOT
BRANCH   1   2
ATOM      2  C   UNL A   1      32.850  27.805  23.432  1.00  0.00     0.188 C 
BRANCH   2   3
ATOM      3  C   UNL A   1      31.993  26.522  23.444  1.00  0.00     0.188 C 
BRANCH   3   4
ATOM      4  O   UNL A   1      31.028  26.517  24.485  1.00  0.00    -0.376 OA
BRANCH   4   5
ATOM      5  C   UNL A   1      30.403  25.298  24.831  1.00  0.00     0.202 C 
BRANCH   5   6
ATOM      6  C   UNL A   1      30.822  24.630  26.149  1.00  0.00     0.261 C 
BRANCH   6   7
ATOM      7  O   UNL A   1      31.649  23.466  26.010  1.00  0.00    -0.463 OA
BRANCH   7   8
ATOM      8  C   UNL A   1      32.953  23.671  25.677  1.00  0.00     0.317 C 
ATOM      9  O   UNL A   1      33.604  24.653  25.998  1.00  0.00    -0.251 OA
BRANCH   8  10
ATOM     10  C   UNL A   1      33.460  22.464  24.900  1.00  0.00     0.182 C 
ATOM     11  O   UNL A   1      33.533  23.570  21.548  1.00  0.00    -0.247 OA
ATOM     12  C   UNL A   1      33.314  23.026  22.619  1.00  0.00     0.335 C 
ATOM     13  O   UNL A   1      32.139  22.439  22.983  1.00  0.00    -0.453 OA
ATOM     14  C   UNL A   1      34.279  22.862  23.729  1.00  0.00     0.056 C 
ATOM     15  C   UNL A   1      32.266  21.790  24.262  1.00  0.00     0.226 C 
ATOM     16  C   UNL A   1      35.601  22.999  23.513  1.00  0.00     0.020 C 
BRANCH  15  17
ATOM     17  C   UNL A   1      32.401  20.275  24.134  1.00  0.00    -0.002 A 
ATOM     18  C   UNL A   1      32.273  19.638  22.879  1.00  0.00     0.012 A 
ATOM     19  C   UNL A   1      32.720  19.486  25.249  1.00  0.00     0.057 A 
ATOM     20  C   UNL A   1      32.427  18.250  22.749  1.00  0.00     0.050 A 
ATOM     21  C   UNL A   1      32.879  18.113  25.110  1.00  0.00     0.157 A 
ATOM     22  C   UNL A   1      32.732  17.495  23.873  1.00  0.00     0.157 A 
BRANCH  21  23
ATOM     23  O   UNL A   1      33.197  17.371  26.211  1.00  0.00    -0.504 OA
ATOM     24  H   UNL A   1      32.533  16.879  26.651  1.00  0.00     0.293 HD
ENDBRANCH  21  23
BRANCH  22  25
ATOM     25  O   UNL A   1      32.913  16.142  23.814  1.00  0.00    -0.504 OA
ATOM     26  H   UNL A   1      33.673  15.754  24.199  1.00  0.00     0.293 HD
ENDBRANCH  22  25
ENDBRANCH  15  17
BRANCH  16  27
ATOM     27  C   UNL A   1      36.725  22.763  24.434  1.00  0.00    -0.021 A 
ATOM     28  C   UNL A   1      37.175  23.766  25.310  1.00  0.00     0.012 A 
ATOM     29  C   UNL A   1      37.292  21.484  24.525  1.00  0.00     0.058 A 
ATOM     30  C   UNL A   1      38.189  23.505  26.248  1.00  0.00     0.051 A 
ATOM     31  C   UNL A   1      38.307  21.238  25.448  1.00  0.00     0.157 A 
ATOM     32  C   UNL A   1      38.754  22.238  26.306  1.00  0.00     0.157 A 
BRANCH  31  33
ATOM     33  O   UNL A   1      38.875  19.996  25.499  1.00  0.00    -0.504 OA
ATOM     34  H   UNL A   1      38.332  19.233  25.529  1.00  0.00     0.293 HD
ENDBRANCH  31  33
BRANCH  32  35
ATOM     35  O   UNL A   1      39.753  21.926  27.188  1.00  0.00    -0.504 OA
ATOM     36  H   UNL A   1      40.360  21.242  26.985  1.00  0.00     0.293 HD
ENDBRANCH  32  35
ENDBRANCH  16  27
ENDBRANCH   8  10
ENDBRANCH   7   8
ENDBRANCH   6   7
ENDBRANCH   5   6
ENDBRANCH   4   5
ENDBRANCH   3   4
ENDBRANCH   2   3
ENDBRANCH   1   2
BRANCH   1  37
ATOM     37  C   UNL A   1      33.030  29.321  25.329  1.00  0.00     0.188 C 
BRANCH  37  38
ATOM     38  C   UNL A   1      31.563  29.830  25.230  1.00  0.00     0.188 C 
BRANCH  38  39
ATOM     39  O   UNL A   1      31.313  31.130  25.736  1.00  0.00    -0.376 OA
BRANCH  39  40
ATOM     40  C   UNL A   1      31.965  31.542  26.922  1.00  0.00     0.202 C 
BRANCH  40  41
ATOM     41  C   UNL A   1      32.083  33.056  27.144  1.00  0.00     0.261 C 
BRANCH  41  42
ATOM     42  O   UNL A   1      33.419  33.574  27.107  1.00  0.00    -0.460 OA
BRANCH  42  43
ATOM     43  C   UNL A   1      33.902  34.078  28.265  1.00  0.00     0.338 C 
ATOM     44  O   UNL A   1      33.423  34.964  28.947  1.00  0.00    -0.246 OA
BRANCH  43  45
ATOM     45  C   UNL A   1      35.022  33.211  28.678  1.00  0.00     0.060 A 
ATOM     46  C   UNL A   1      34.753  31.897  29.088  1.00  0.00     0.016 A 
ATOM     47  C   UNL A   1      36.333  33.686  28.611  1.00  0.00     0.016 A 
ATOM     48  C   UNL A   1      35.800  31.051  29.442  1.00  0.00     0.010 A 
ATOM     49  C   UNL A   1      37.376  32.852  29.007  1.00  0.00     0.010 A 
ATOM     50  C   UNL A   1      37.109  31.543  29.449  1.00  0.00    -0.014 A 
BRANCH  50  51
ATOM     51  C   UNL A   1      38.170  30.789  30.148  1.00  0.00     0.031 A 
ATOM     52  C   UNL A   1      38.400  31.102  31.599  1.00  0.00     0.074 A 
ATOM     53  C   UNL A   1      38.913  29.868  29.515  1.00  0.00     0.049 A 
ATOM     54  N   UNL A   1      39.342  30.683  32.402  1.00  0.00    -0.248 NA
ATOM     55  C   UNL A   1      37.435  32.021  32.226  1.00  0.00     0.031 C 
ATOM     56  C   UNL A   1      38.735  29.444  28.129  1.00  0.00     0.029 A 
ATOM     57  N   UNL A   1      39.984  29.135  29.961  1.00  0.00    -0.354 N 
ATOM     58  C   UNL A   1      39.091  31.301  33.620  1.00  0.00     0.074 A 
ATOM     59  C   UNL A   1      37.928  32.140  33.447  1.00  0.00     0.031 C 
ATOM     60  C   UNL A   1      39.685  28.541  27.827  1.00  0.00     0.029 A 
ATOM     61  C   UNL A   1      40.560  28.360  28.985  1.00  0.00     0.049 A 
ATOM     62  H   UNL A   1      40.308  29.163  30.889  1.00  0.00     0.167 HD
ATOM     63  C   UNL A   1      39.774  31.172  34.781  1.00  0.00     0.037 A 
ATOM     64  C   UNL A   1      41.688  27.624  29.023  1.00  0.00     0.037 A 
ATOM     65  C   UNL A   1      40.934  30.339  34.937  1.00  0.00     0.049 A 
ATOM     66  C   UNL A   1      42.488  27.570  30.302  1.00  0.00     0.074 A 
ATOM     67  C   UNL A   1      41.696  30.125  36.070  1.00  0.00     0.029 A 
ATOM     68  N   UNL A   1      41.506  29.587  33.919  1.00  0.00    -0.354 N 
ATOM     69  N   UNL A   1      42.244  28.142  31.457  1.00  0.00    -0.248 NA
ATOM     70  C   UNL A   1      43.723  26.773  30.281  1.00  0.00     0.031 C 
ATOM     71  C   UNL A   1      42.768  29.299  35.723  1.00  0.00     0.029 A 
ATOM     72  C   UNL A   1      42.632  28.935  34.392  1.00  0.00     0.049 A 
ATOM     73  H   UNL A   1      41.161  29.527  32.999  1.00  0.00     0.167 HD
ATOM     74  C   UNL A   1      43.268  27.743  32.308  1.00  0.00     0.074 A 
ATOM     75  C   UNL A   1      44.135  26.877  31.537  1.00  0.00     0.031 C 
ATOM     76  C   UNL A   1      43.470  28.060  33.612  1.00  0.00     0.037 A 
BRANCH  63  77
ATOM     77  C   UNL A   1      39.310  31.986  35.953  1.00  0.00     0.064 A 
ATOM     78  C   UNL A   1      39.808  33.273  36.207  1.00  0.00     0.173 A 
ATOM     79  C   UNL A   1      38.334  31.477  36.823  1.00  0.00     0.173 A 
ATOM     80  F   UNL A   1      40.758  33.799  35.417  1.00  0.00    -0.203 F 
ATOM     81  C   UNL A   1      39.365  34.009  37.303  1.00  0.00     0.198 A 
ATOM     82  C   UNL A   1      37.868  32.229  37.898  1.00  0.00     0.198 A 
ATOM     83  F   UNL A   1      37.827  30.251  36.627  1.00  0.00    -0.203 F 
ATOM     84  F   UNL A   1      39.894  35.214  37.557  1.00  0.00    -0.200 F 
ATOM     85  C   UNL A   1      38.390  33.491  38.141  1.00  0.00     0.200 A 
ATOM     86  F   UNL A   1      36.917  31.731  38.699  1.00  0.00    -0.200 F 
ATOM     87  F   UNL A   1      37.957  34.203  39.190  1.00  0.00    -0.200 F 
ENDBRANCH  63  77
BRANCH  64  88
ATOM     88  C   UNL A   1      42.147  26.899  27.807  1.00  0.00     0.064 A 
ATOM     89  C   UNL A   1      41.774  25.568  27.574  1.00  0.00     0.173 A 
ATOM     90  C   UNL A   1      42.987  27.513  26.866  1.00  0.00     0.173 A 
ATOM     91  F   UNL A   1      40.993  24.928  28.456  1.00  0.00    -0.203 F 
ATOM     92  C   UNL A   1      42.241  24.874  26.459  1.00  0.00     0.198 A 
ATOM     93  C   UNL A   1      43.426  26.828  25.734  1.00  0.00     0.198 A 
ATOM     94  F   UNL A   1      43.376  28.785  27.040  1.00  0.00    -0.203 F 
ATOM     95  F   UNL A   1      41.911  23.586  26.290  1.00  0.00    -0.200 F 
ATOM     96  C   UNL A   1      43.061  25.505  25.538  1.00  0.00     0.200 A 
ATOM     97  F   UNL A   1      44.207  27.449  24.840  1.00  0.00    -0.200 F 
ATOM     98  F   UNL A   1      43.507  24.838  24.465  1.00  0.00    -0.200 F 
ENDBRANCH  64  88
BRANCH  76  99
ATOM     99  C   UNL A   1      44.639  27.428  34.312  1.00  0.00     0.064 A 
ATOM    100  C   UNL A   1      45.883  28.067  34.403  1.00  0.00     0.173 A 
ATOM    101  C   UNL A   1      44.481  26.198  34.973  1.00  0.00     0.173 A 
ATOM    102  F   UNL A   1      46.089  29.237  33.781  1.00  0.00    -0.203 F 
ATOM    103  C   UNL A   1      46.932  27.491  35.117  1.00  0.00     0.198 A 
ATOM    104  C   UNL A   1      45.520  25.643  35.713  1.00  0.00     0.198 A 
ATOM    105  F   UNL A   1      43.307  25.550  34.925  1.00  0.00    -0.203 F 
ATOM    106  F   UNL A   1      48.124  28.100  35.159  1.00  0.00    -0.200 F 
ATOM    107  C   UNL A   1      46.746  26.287  35.780  1.00  0.00     0.200 A 
ATOM    108  F   UNL A   1      45.331  24.490  36.369  1.00  0.00    -0.200 F 
ATOM    109  F   UNL A   1      47.749  25.745  36.483  1.00  0.00    -0.200 F 
ENDBRANCH  76  99
ENDBRANCH  50  51
ENDBRANCH  43  45
ENDBRANCH  42  43
ENDBRANCH  41  42
ENDBRANCH  40  41
ENDBRANCH  39  40
ENDBRANCH  38  39
ENDBRANCH  37  38
ENDBRANCH   1  37
TORSDOF 26
ENDMDL
MODEL 3
REMARK VINA RESULT:     -11.6      0.620      6.763
REMARK SMILES O=C1O[C@@H](c2ccc(O)c(O)c2)[C@H](C(=O)OCCOCCOCCOCCOC(=O)c2ccc(-c3c4nc(c(-c5c(F)c(F)c(F)c(F)c5F)c5ccc([nH]5)c(-c5c(F)c(F)c(F)c(F)c5F)c5nc(c(-c6c(F)c(F)c(F)c(F)c6F)c6ccc3[nH]6)C=C5)C=C4)cc2)/C1=C\c1ccc(O)c(O)c1
REMARK SMILES IDX 22 1 21 2 20 3 19 4 18 5 17 6 16 7 14 8 15 9 13 10 1 11 2 12
REMARK SMILES IDX 3 13 94 14 4 15 95 16 5 17 6 18 12 19 7 20 10 21 8 22 11 23
REMARK SMILES IDX 9 25 96 27 97 28 103 29 98 30 101 31 99 32 102 33 100 35
REMARK SMILES IDX 23 37 24 38 25 39 26 40 27 41 28 42 29 43 30 44 31 45 32 46
REMARK SMILES IDX 93 47 33 48 92 49 34 50 35 51 36 52 86 53 37 54 91 55 85 56
REMARK SMILES IDX 87 57 38 58 90 59 84 60 83 61 39 63 71 64 51 65 70 66 52 67
REMARK SMILES IDX 55 68 69 69 88 70 53 71 54 72 68 74 89 75 56 76 40 77 41 78
REMARK SMILES IDX 49 79 42 80 43 81 47 82 50 83 44 84 45 85 48 86 46 87 72 88
REMARK SMILES IDX 73 89 81 90 74 91 75 92 79 93 82 94 76 95 77 96 80 97 78 98
REMARK SMILES IDX 57 99 58 100 66 101 59 102 60 103 64 104 67 105 61 106
REMARK SMILES IDX 62 107 65 108 63 109
REMARK H PARENT 11 24 9 26 102 34 100 36 87 62 55 73
REMARK Flexibility Score: inf
ROOT
ATOM      1  O   UNL A   1      32.070  27.674  22.821  1.00  0.00    -0.377 OA
ENDROOT
BRANCH   1   2
ATOM      2  C   UNL A   1      30.669  27.605  22.618  1.00  0.00     0.188 C 
BRANCH   2   3
ATOM      3  C   UNL A   1      29.795  27.366  23.867  1.00  0.00     0.188 C 
BRANCH   3   4
ATOM      4  O   UNL A   1      29.538  25.990  24.103  1.00  0.00    -0.376 OA
BRANCH   4   5
ATOM      5  C   UNL A   1      30.628  25.123  24.343  1.00  0.00     0.202 C 
BRANCH   5   6
ATOM      6  C   UNL A   1      30.767  24.525  25.750  1.00  0.00     0.261 C 
BRANCH   6   7
ATOM      7  O   UNL A   1      31.564  23.335  25.835  1.00  0.00    -0.463 OA
BRANCH   7   8
ATOM      8  C   UNL A   1      32.911  23.483  25.698  1.00  0.00     0.317 C 
ATOM      9  O   UNL A   1      33.558  24.404  26.171  1.00  0.00    -0.251 OA
BRANCH   8  10
ATOM     10  C   UNL A   1      33.461  22.298  24.918  1.00  0.00     0.182 C 
ATOM     11  O   UNL A   1      33.455  23.399  21.564  1.00  0.00    -0.247 OA
ATOM     12  C   UNL A   1      33.270  22.848  22.638  1.00  0.00     0.335 C 
ATOM     13  O   UNL A   1      32.124  22.213  23.014  1.00  0.00    -0.453 OA
ATOM     14  C   UNL A   1      34.251  22.727  23.738  1.00  0.00     0.056 C 
ATOM     15  C   UNL A   1      32.291  21.572  24.293  1.00  0.00     0.226 C 
ATOM     16  C   UNL A   1      35.564  22.921  23.509  1.00  0.00     0.020 C 
BRANCH  15  17
ATOM     17  C   UNL A   1      32.489  20.063  24.165  1.00  0.00    -0.002 A 
ATOM     18  C   UNL A   1      32.355  19.416  22.916  1.00  0.00     0.012 A 
ATOM     19  C   UNL A   1      32.874  19.294  25.274  1.00  0.00     0.057 A 
ATOM     20  C   UNL A   1      32.566  18.035  22.787  1.00  0.00     0.050 A 
ATOM     21  C   UNL A   1      33.089  17.929  25.135  1.00  0.00     0.157 A 
ATOM     22  C   UNL A   1      32.936  17.300  23.904  1.00  0.00     0.157 A 
BRANCH  21  23
ATOM     23  O   UNL A   1      33.471  17.207  26.228  1.00  0.00    -0.504 OA
ATOM     24  H   UNL A   1      33.824  17.644  26.978  1.00  0.00     0.293 HD
ENDBRANCH  21  23
BRANCH  22  25
ATOM     25  O   UNL A   1      33.175  15.956  23.844  1.00  0.00    -0.504 OA
ATOM     26  H   UNL A   1      33.686  15.541  24.510  1.00  0.00     0.293 HD
ENDBRANCH  22  25
ENDBRANCH  15  17
BRANCH  16  27
ATOM     27  C   UNL A   1      36.706  22.734  24.419  1.00  0.00    -0.021 A 
ATOM     28  C   UNL A   1      37.133  23.764  25.276  1.00  0.00     0.012 A 
ATOM     29  C   UNL A   1      37.316  21.477  24.521  1.00  0.00     0.058 A 
ATOM     30  C   UNL A   1      38.166  23.550  26.205  1.00  0.00     0.051 A 
ATOM     31  C   UNL A   1      38.350  21.277  25.435  1.00  0.00     0.157 A 
ATOM     32  C   UNL A   1      38.773  22.303  26.274  1.00  0.00     0.157 A 
BRANCH  31  33
ATOM     33  O   UNL A   1      38.958  20.055  25.496  1.00  0.00    -0.504 OA
ATOM     34  H   UNL A   1      38.589  19.373  26.021  1.00  0.00     0.293 HD
ENDBRANCH  31  33
BRANCH  32  35
ATOM     35  O   UNL A   1      39.792  22.036  27.147  1.00  0.00    -0.504 OA
ATOM     36  H   UNL A   1      39.644  21.472  27.880  1.00  0.00     0.293 HD
ENDBRANCH  32  35
ENDBRANCH  16  27
ENDBRANCH   8  10
ENDBRANCH   7   8
ENDBRANCH   6   7
ENDBRANCH   5   6
ENDBRANCH   4   5
ENDBRANCH   3   4
ENDBRANCH   2   3
ENDBRANCH   1   2
BRANCH   1  37
ATOM     37  C   UNL A   1      32.622  28.929  23.219  1.00  0.00     0.188 C 
BRANCH  37  38
ATOM     38  C   UNL A   1      32.805  29.335  24.711  1.00  0.00     0.188 C 
BRANCH  38  39
ATOM     39  O   UNL A   1      31.681  29.916  25.347  1.00  0.00    -0.376 OA
BRANCH  39  40
ATOM     40  C   UNL A   1      31.804  30.368  26.682  1.00  0.00     0.202 C 
BRANCH  40  41
ATOM     41  C   UNL A   1      31.985  31.879  26.877  1.00  0.00     0.261 C 
BRANCH  41  42
ATOM     42  O   UNL A   1      33.336  32.348  26.783  1.00  0.00    -0.460 OA
BRANCH  42  43
ATOM     43  C   UNL A   1      33.816  33.020  27.854  1.00  0.00     0.338 C 
ATOM     44  O   UNL A   1      33.291  33.942  28.448  1.00  0.00    -0.246 OA
BRANCH  43  45
ATOM     45  C   UNL A   1      35.014  32.294  28.316  1.00  0.00     0.060 A 
ATOM     46  C   UNL A   1      34.901  30.937  28.654  1.00  0.00     0.016 A 
ATOM     47  C   UNL A   1      36.247  32.944  28.367  1.00  0.00     0.016 A 
ATOM     48  C   UNL A   1      36.028  30.224  29.053  1.00  0.00     0.010 A 
ATOM     49  C   UNL A   1      37.366  32.240  28.808  1.00  0.00     0.010 A 
ATOM     50  C   UNL A   1      37.253  30.888  29.178  1.00  0.00    -0.014 A 
BRANCH  50  51
ATOM     51  C   UNL A   1      38.358  30.252  29.925  1.00  0.00     0.031 A 
ATOM     52  C   UNL A   1      38.562  30.675  31.352  1.00  0.00     0.074 A 
ATOM     53  C   UNL A   1      39.160  29.339  29.355  1.00  0.00     0.049 A 
ATOM     54  N   UNL A   1      39.525  30.372  32.180  1.00  0.00    -0.248 NA
ATOM     55  C   UNL A   1      37.538  31.571  31.916  1.00  0.00     0.031 C 
ATOM     56  C   UNL A   1      39.014  28.812  28.001  1.00  0.00     0.029 A 
ATOM     57  N   UNL A   1      40.273  28.707  29.848  1.00  0.00    -0.354 N 
ATOM     58  C   UNL A   1      39.232  31.053  33.354  1.00  0.00     0.074 A 
ATOM     59  C   UNL A   1      38.018  31.803  33.126  1.00  0.00     0.031 C 
ATOM     60  C   UNL A   1      40.020  27.953  27.760  1.00  0.00     0.029 A 
ATOM     61  C   UNL A   1      40.901  27.906  28.926  1.00  0.00     0.049 A 
ATOM     62  H   UNL A   1      40.591  28.818  30.773  1.00  0.00     0.167 HD
ATOM     63  C   UNL A   1      39.918  31.046  34.520  1.00  0.00     0.037 A 
ATOM     64  C   UNL A   1      42.073  27.248  29.013  1.00  0.00     0.037 A 
ATOM     65  C   UNL A   1      41.127  30.301  34.731  1.00  0.00     0.049 A 
ATOM     66  C   UNL A   1      42.870  27.331  30.292  1.00  0.00     0.074 A 
ATOM     67  C   UNL A   1      41.898  30.212  35.876  1.00  0.00     0.029 A 
ATOM     68  N   UNL A   1      41.749  29.520  33.766  1.00  0.00    -0.354 N 
ATOM     69  N   UNL A   1      42.586  27.963  31.406  1.00  0.00    -0.248 NA
ATOM     70  C   UNL A   1      44.153  26.614  30.325  1.00  0.00     0.031 C 
ATOM     71  C   UNL A   1      43.021  29.434  35.584  1.00  0.00     0.029 A 
ATOM     72  C   UNL A   1      42.913  28.974  34.281  1.00  0.00     0.049 A 
ATOM     73  H   UNL A   1      41.412  29.376  32.852  1.00  0.00     0.167 HD
ATOM     74  C   UNL A   1      43.630  27.687  32.281  1.00  0.00     0.074 A 
ATOM     75  C   UNL A   1      44.553  26.828  31.570  1.00  0.00     0.031 C 
ATOM     76  C   UNL A   1      43.807  28.103  33.561  1.00  0.00     0.037 A 
BRANCH  63  77
ATOM     77  C   UNL A   1      39.399  31.906  35.635  1.00  0.00     0.064 A 
ATOM     78  C   UNL A   1      38.495  31.417  36.591  1.00  0.00     0.173 A 
ATOM     79  C   UNL A   1      39.833  33.234  35.762  1.00  0.00     0.173 A 
ATOM     80  F   UNL A   1      38.033  30.160  36.503  1.00  0.00    -0.203 F 
ATOM     81  C   UNL A   1      38.024  32.235  37.615  1.00  0.00     0.198 A 
ATOM     82  C   UNL A   1      39.387  34.038  36.808  1.00  0.00     0.198 A 
ATOM     83  F   UNL A   1      40.695  33.752  34.874  1.00  0.00    -0.203 F 
ATOM     84  F   UNL A   1      37.119  31.763  38.484  1.00  0.00    -0.200 F 
ATOM     85  C   UNL A   1      38.477  33.540  37.728  1.00  0.00     0.200 A 
ATOM     86  F   UNL A   1      39.836  35.295  36.922  1.00  0.00    -0.200 F 
ATOM     87  F   UNL A   1      38.031  34.323  38.720  1.00  0.00    -0.200 F 
ENDBRANCH  63  77
BRANCH  64  88
ATOM     88  C   UNL A   1      42.581  26.473  27.848  1.00  0.00     0.064 A 
ATOM     89  C   UNL A   1      43.379  27.079  26.868  1.00  0.00     0.173 A 
ATOM     90  C   UNL A   1      42.259  25.119  27.678  1.00  0.00     0.173 A 
ATOM     91  F   UNL A   1      43.694  28.379  26.971  1.00  0.00    -0.203 F 
ATOM     92  C   UNL A   1      43.816  26.366  25.753  1.00  0.00     0.198 A 
ATOM     93  C   UNL A   1      42.724  24.398  26.580  1.00  0.00     0.198 A 
ATOM     94  F   UNL A   1      41.497  24.489  28.585  1.00  0.00    -0.203 F 
ATOM     95  F   UNL A   1      44.534  26.985  24.805  1.00  0.00    -0.200 F 
ATOM     96  C   UNL A   1      43.495  25.026  25.612  1.00  0.00     0.200 A 
ATOM     97  F   UNL A   1      42.422  23.098  26.457  1.00  0.00    -0.200 F 
ATOM     98  F   UNL A   1      43.918  24.340  24.543  1.00  0.00    -0.200 F 
ENDBRANCH  64  88
BRANCH  76  99
ATOM     99  C   UNL A   1      45.011  27.596  34.301  1.00  0.00     0.064 A 
ATOM    100  C   UNL A   1      46.211  28.318  34.349  1.00  0.00     0.173 A 
ATOM    101  C   UNL A   1      44.930  26.405  35.043  1.00  0.00     0.173 A 
ATOM    102  F   UNL A   1      46.345  29.455  33.651  1.00  0.00    -0.203 F 
ATOM    103  C   UNL A   1      47.292  27.858  35.099  1.00  0.00     0.198 A 
ATOM    104  C   UNL A   1      46.000  25.968  35.817  1.00  0.00     0.198 A 
ATOM    105  F   UNL A   1      43.800  25.681  35.038  1.00  0.00    -0.203 F 
ATOM    106  F   UNL A   1      48.443  28.545  35.101  1.00  0.00    -0.200 F 
ATOM    107  C   UNL A   1      47.181  26.692  35.841  1.00  0.00     0.200 A 
ATOM    108  F   UNL A   1      45.882  24.851  36.549  1.00  0.00    -0.200 F 
ATOM    109  F   UNL A   1      48.215  26.263  36.578  1.00  0.00    -0.200 F 
ENDBRANCH  76  99
ENDBRANCH  50  51
ENDBRANCH  43  45
ENDBRANCH  42  43
ENDBRANCH  41  42
ENDBRANCH  40  41
ENDBRANCH  39  40
ENDBRANCH  38  39
ENDBRANCH  37  38
ENDBRANCH   1  37
TORSDOF 26
ENDMDL
