MODEL 1
REMARK VINA RESULT:     -11.6      0.000      0.000
REMARK SMILES COc1cc([C@@H]2CC(=O)Nc3c(C(=O)OCCOCCOCCOCCOC(=O)c4ccc(-c5c6nc(c(-c7c(F)c(F)c(F)c(F)c7F)c7ccc([nH]7)c(-c7c(F)c(F)c(F)c(F)c7F)c7nc(c(-c8c(F)c(F)c(F)c(F)c8F)c8ccc5[nH]8)C=C7)C=C6)cc4)cn(-c4ccc(F)cc4)c32)c(OC)c2c1OCO2
REMARK SMILES IDX 21 1 20 2 19 3 18 4 17 5 16 6 15 7 13 8 14 9 12 10 6 11 7 12
REMARK SMILES IDX 102 13 8 14 11 15 94 16 9 17 10 18 93 19 5 21 3 22 4 23
REMARK SMILES IDX 107 24 106 25 108 26 103 27 110 28 109 29 2 30 1 31 104 32
REMARK SMILES IDX 105 33 95 34 96 35 101 36 97 37 100 38 98 39 99 40 22 41
REMARK SMILES IDX 23 42 24 43 25 44 26 45 27 46 28 47 29 48 30 49 31 50 92 51
REMARK SMILES IDX 32 52 91 53 33 54 34 55 35 56 85 57 36 58 90 59 84 60 86 61
REMARK SMILES IDX 37 62 89 63 83 64 82 65 38 67 70 68 50 69 69 70 51 71 54 72
REMARK SMILES IDX 68 73 87 74 52 75 53 76 67 78 88 79 55 80 39 81 40 82 48 83
REMARK SMILES IDX 41 84 42 85 46 86 49 87 43 88 44 89 47 90 45 91 71 92 72 93
REMARK SMILES IDX 80 94 73 95 74 96 78 97 81 98 75 99 76 100 79 101 77 102
REMARK SMILES IDX 56 103 57 104 65 105 58 106 59 107 63 108 66 109 60 110
REMARK SMILES IDX 61 111 64 112 62 113
REMARK H PARENT 10 20 86 66 54 77
REMARK Flexibility Score: inf
ROOT
ATOM      1  O   UNL A   1      33.850  30.192  26.734  1.00  0.00    -0.377 OA
ENDROOT
BRANCH   1   2
ATOM      2  C   UNL A   1      32.443  30.033  26.746  1.00  0.00     0.188 C 
BRANCH   2   3
ATOM      3  C   UNL A   1      31.921  28.631  27.126  1.00  0.00     0.188 C 
BRANCH   3   4
ATOM      4  O   UNL A   1      31.272  27.938  26.080  1.00  0.00    -0.376 OA
BRANCH   4   5
ATOM      5  C   UNL A   1      31.031  28.485  24.803  1.00  0.00     0.202 C 
BRANCH   5   6
ATOM      6  C   UNL A   1      31.161  27.736  23.466  1.00  0.00     0.261 C 
BRANCH   6   7
ATOM      7  O   UNL A   1      31.889  26.516  23.454  1.00  0.00    -0.460 OA
BRANCH   7   8
ATOM      8  C   UNL A   1      33.230  26.616  23.609  1.00  0.00     0.341 C 
ATOM      9  O   UNL A   1      33.910  27.572  23.229  1.00  0.00    -0.246 OA
BRANCH   8  10
ATOM     10  C   UNL A   1      33.751  25.529  24.411  1.00  0.00     0.102 A 
ATOM     11  C   UNL A   1      33.376  22.442  26.338  1.00  0.00     0.082 C 
ATOM     12  C   UNL A   1      32.210  22.812  27.271  1.00  0.00     0.115 C 
ATOM     13  C   UNL A   1      33.888  23.677  25.672  1.00  0.00     0.055 A 
ATOM     14  C   UNL A   1      31.300  23.933  26.778  1.00  0.00     0.225 C 
ATOM     15  C   UNL A   1      33.101  24.772  25.411  1.00  0.00     0.078 A 
ATOM     16  N   UNL A   1      35.137  23.922  25.154  1.00  0.00    -0.317 N 
ATOM     17  O   UNL A   1      30.139  24.036  27.177  1.00  0.00    -0.275 OA
ATOM     18  N   UNL A   1      31.843  24.889  25.953  1.00  0.00    -0.324 N 
ATOM     19  C   UNL A   1      35.052  25.046  24.363  1.00  0.00     0.109 A 
ATOM     20  H   UNL A   1      31.308  25.689  25.740  1.00  0.00     0.170 HD
BRANCH  11  21
ATOM     21  C   UNL A   1      33.003  21.359  25.310  1.00  0.00     0.012 A 
ATOM     22  C   UNL A   1      33.120  18.971  24.739  1.00  0.00     0.165 A 
ATOM     23  C   UNL A   1      33.263  20.011  25.662  1.00  0.00     0.059 A 
ATOM     24  C   UNL A   1      32.639  19.285  23.483  1.00  0.00     0.211 A 
ATOM     25  C   UNL A   1      32.331  20.584  23.132  1.00  0.00     0.211 A 
ATOM     26  O   UNL A   1      32.391  18.412  22.465  1.00  0.00    -0.449 OA
ATOM     27  C   UNL A   1      32.497  21.641  24.014  1.00  0.00     0.168 A 
ATOM     28  O   UNL A   1      31.873  20.662  21.849  1.00  0.00    -0.449 OA
ATOM     29  C   UNL A   1      31.836  19.282  21.469  1.00  0.00     0.468 C 
BRANCH  22  30
ATOM     30  O   UNL A   1      33.454  17.726  25.188  1.00  0.00    -0.493 OA
ATOM     31  C   UNL A   1      34.681  17.226  24.664  1.00  0.00     0.278 C 
ENDBRANCH  22  30
BRANCH  27  32
ATOM     32  O   UNL A   1      32.210  22.940  23.737  1.00  0.00    -0.492 OA
ATOM     33  C   UNL A   1      30.943  23.312  23.223  1.00  0.00     0.278 C 
ENDBRANCH  27  32
ENDBRANCH  11  21
BRANCH  16  34
ATOM     34  C   UNL A   1      36.297  23.142  25.300  1.00  0.00     0.046 A 
ATOM     35  C   UNL A   1      36.392  21.933  24.609  1.00  0.00     0.029 A 
ATOM     36  C   UNL A   1      37.342  23.599  26.111  1.00  0.00     0.029 A 
ATOM     37  C   UNL A   1      37.522  21.138  24.775  1.00  0.00     0.041 A 
ATOM     38  C   UNL A   1      38.472  22.793  26.273  1.00  0.00     0.041 A 
ATOM     39  C   UNL A   1      38.547  21.570  25.611  1.00  0.00     0.123 A 
ATOM     40  F   UNL A   1      39.629  20.797  25.775  1.00  0.00    -0.207 F 
ENDBRANCH  16  34
ENDBRANCH   8  10
ENDBRANCH   7   8
ENDBRANCH   6   7
ENDBRANCH   5   6
ENDBRANCH   4   5
ENDBRANCH   3   4
ENDBRANCH   2   3
ENDBRANCH   1   2
BRANCH   1  41
ATOM     41  C   UNL A   1      34.470  30.989  27.741  1.00  0.00     0.188 C 
BRANCH  41  42
ATOM     42  C   UNL A   1      34.301  32.534  27.861  1.00  0.00     0.188 C 
BRANCH  42  43
ATOM     43  O   UNL A   1      33.828  33.020  29.105  1.00  0.00    -0.376 OA
BRANCH  43  44
ATOM     44  C   UNL A   1      34.554  33.883  29.953  1.00  0.00     0.202 C 
BRANCH  44  45
ATOM     45  C   UNL A   1      34.730  33.471  31.408  1.00  0.00     0.261 C 
BRANCH  45  46
ATOM     46  O   UNL A   1      34.768  32.070  31.576  1.00  0.00    -0.460 OA
BRANCH  46  47
ATOM     47  C   UNL A   1      35.979  31.595  31.913  1.00  0.00     0.338 C 
ATOM     48  O   UNL A   1      36.542  31.702  32.992  1.00  0.00    -0.246 OA
BRANCH  47  49
ATOM     49  C   UNL A   1      36.590  31.024  30.708  1.00  0.00     0.060 A 
ATOM     50  C   UNL A   1      36.512  29.636  30.652  1.00  0.00     0.016 A 
ATOM     51  C   UNL A   1      37.641  31.758  30.137  1.00  0.00     0.016 A 
ATOM     52  C   UNL A   1      37.684  28.973  30.417  1.00  0.00     0.010 A 
ATOM     53  C   UNL A   1      38.819  31.099  29.943  1.00  0.00     0.010 A 
ATOM     54  C   UNL A   1      38.840  29.733  30.200  1.00  0.00    -0.014 A 
BRANCH  54  55
ATOM     55  C   UNL A   1      40.088  29.027  30.148  1.00  0.00     0.031 A 
ATOM     56  C   UNL A   1      40.696  28.927  31.483  1.00  0.00     0.074 A 
ATOM     57  C   UNL A   1      40.570  28.490  29.015  1.00  0.00     0.049 A 
ATOM     58  N   UNL A   1      41.738  29.553  31.911  1.00  0.00    -0.248 NA
ATOM     59  C   UNL A   1      39.920  28.241  32.529  1.00  0.00     0.031 C 
ATOM     60  C   UNL A   1      39.906  28.311  27.724  1.00  0.00     0.029 A 
ATOM     61  N   UNL A   1      41.771  27.889  28.831  1.00  0.00    -0.354 N 
ATOM     62  C   UNL A   1      41.865  29.173  33.239  1.00  0.00     0.074 A 
ATOM     63  C   UNL A   1      40.615  28.571  33.617  1.00  0.00     0.031 C 
ATOM     64  C   UNL A   1      40.626  27.439  26.978  1.00  0.00     0.029 A 
ATOM     65  C   UNL A   1      41.846  27.104  27.691  1.00  0.00     0.049 A 
ATOM     66  H   UNL A   1      42.524  28.000  29.455  1.00  0.00     0.167 HD
ATOM     67  C   UNL A   1      43.091  29.111  33.818  1.00  0.00     0.037 A 
ATOM     68  C   UNL A   1      42.804  26.169  27.465  1.00  0.00     0.037 A 
ATOM     69  C   UNL A   1      44.047  29.907  33.089  1.00  0.00     0.049 A 
ATOM     70  C   UNL A   1      43.948  26.478  28.373  1.00  0.00     0.074 A 
ATOM     71  C   UNL A   1      44.115  31.245  32.744  1.00  0.00     0.029 A 
ATOM     72  N   UNL A   1      44.926  29.263  32.251  1.00  0.00    -0.354 N 
ATOM     73  N   UNL A   1      44.715  27.526  28.237  1.00  0.00    -0.248 NA
ATOM     74  C   UNL A   1      43.923  25.899  29.712  1.00  0.00     0.031 C 
ATOM     75  C   UNL A   1      44.645  31.261  31.419  1.00  0.00     0.029 A 
ATOM     76  C   UNL A   1      44.936  29.945  31.060  1.00  0.00     0.049 A 
ATOM     77  H   UNL A   1      45.452  28.460  32.466  1.00  0.00     0.167 HD
ATOM     78  C   UNL A   1      44.920  27.989  29.531  1.00  0.00     0.074 A 
ATOM     79  C   UNL A   1      44.466  26.907  30.401  1.00  0.00     0.031 C 
ATOM     80  C   UNL A   1      45.152  29.310  29.782  1.00  0.00     0.037 A 
BRANCH  67  81
ATOM     81  C   UNL A   1      43.489  28.014  34.773  1.00  0.00     0.064 A 
ATOM     82  C   UNL A   1      43.988  28.374  36.037  1.00  0.00     0.173 A 
ATOM     83  C   UNL A   1      43.683  26.661  34.406  1.00  0.00     0.173 A 
ATOM     84  F   UNL A   1      43.871  29.635  36.482  1.00  0.00    -0.203 F 
ATOM     85  C   UNL A   1      44.708  27.476  36.827  1.00  0.00     0.198 A 
ATOM     86  C   UNL A   1      44.351  25.754  35.223  1.00  0.00     0.198 A 
ATOM     87  F   UNL A   1      43.347  26.179  33.205  1.00  0.00    -0.203 F 
ATOM     88  F   UNL A   1      45.283  27.905  37.958  1.00  0.00    -0.200 F 
ATOM     89  C   UNL A   1      44.895  26.170  36.416  1.00  0.00     0.200 A 
ATOM     90  F   UNL A   1      44.534  24.497  34.795  1.00  0.00    -0.200 F 
ATOM     91  F   UNL A   1      45.641  25.326  37.140  1.00  0.00    -0.200 F 
ENDBRANCH  67  81
BRANCH  68  92
ATOM     92  C   UNL A   1      42.642  24.852  26.805  1.00  0.00     0.064 A 
ATOM     93  C   UNL A   1      43.259  24.580  25.573  1.00  0.00     0.173 A 
ATOM     94  C   UNL A   1      42.098  23.745  27.487  1.00  0.00     0.173 A 
ATOM     95  F   UNL A   1      43.846  25.567  24.881  1.00  0.00    -0.203 F 
ATOM     96  C   UNL A   1      43.342  23.278  25.065  1.00  0.00     0.198 A 
ATOM     97  C   UNL A   1      42.173  22.449  26.975  1.00  0.00     0.198 A 
ATOM     98  F   UNL A   1      41.566  23.879  28.710  1.00  0.00    -0.203 F 
ATOM     99  F   UNL A   1      43.990  23.050  23.914  1.00  0.00    -0.200 F 
ATOM    100  C   UNL A   1      42.806  22.213  25.770  1.00  0.00     0.200 A 
ATOM    101  F   UNL A   1      41.681  21.425  27.686  1.00  0.00    -0.200 F 
ATOM    102  F   UNL A   1      42.933  20.961  25.311  1.00  0.00    -0.200 F 
ENDBRANCH  68  92
BRANCH  80 103
ATOM    103  C   UNL A   1      45.425  30.215  28.612  1.00  0.00     0.064 A 
ATOM    104  C   UNL A   1      44.422  30.825  27.838  1.00  0.00     0.173 A 
ATOM    105  C   UNL A   1      46.750  30.594  28.360  1.00  0.00     0.173 A 
ATOM    106  F   UNL A   1      43.125  30.603  28.090  1.00  0.00    -0.203 F 
ATOM    107  C   UNL A   1      44.739  31.729  26.824  1.00  0.00     0.198 A 
ATOM    108  C   UNL A   1      47.062  31.527  27.375  1.00  0.00     0.198 A 
ATOM    109  F   UNL A   1      47.746  30.091  29.106  1.00  0.00    -0.203 F 
ATOM    110  F   UNL A   1      43.765  32.283  26.087  1.00  0.00    -0.200 F 
ATOM    111  C   UNL A   1      46.059  32.083  26.599  1.00  0.00     0.200 A 
ATOM    112  F   UNL A   1      48.334  31.907  27.198  1.00  0.00    -0.200 F 
ATOM    113  F   UNL A   1      46.362  32.984  25.653  1.00  0.00    -0.200 F 
ENDBRANCH  80 103
ENDBRANCH  54  55
ENDBRANCH  47  49
ENDBRANCH  46  47
ENDBRANCH  45  46
ENDBRANCH  44  45
ENDBRANCH  43  44
ENDBRANCH  42  43
ENDBRANCH  41  42
ENDBRANCH   1  41
TORSDOF 24
ENDMDL
MODEL 2
REMARK VINA RESULT:     -11.4      1.568      3.008
REMARK SMILES COc1cc([C@@H]2CC(=O)Nc3c(C(=O)OCCOCCOCCOCCOC(=O)c4ccc(-c5c6nc(c(-c7c(F)c(F)c(F)c(F)c7F)c7ccc([nH]7)c(-c7c(F)c(F)c(F)c(F)c7F)c7nc(c(-c8c(F)c(F)c(F)c(F)c8F)c8ccc5[nH]8)C=C7)C=C6)cc4)cn(-c4ccc(F)cc4)c32)c(OC)c2c1OCO2
REMARK SMILES IDX 21 1 20 2 19 3 18 4 17 5 16 6 15 7 13 8 14 9 12 10 6 11 7 12
REMARK SMILES IDX 102 13 8 14 11 15 94 16 9 17 10 18 93 19 5 21 3 22 4 23
REMARK SMILES IDX 107 24 106 25 108 26 103 27 110 28 109 29 2 30 1 31 104 32
REMARK SMILES IDX 105 33 95 34 96 35 101 36 97 37 100 38 98 39 99 40 22 41
REMARK SMILES IDX 23 42 24 43 25 44 26 45 27 46 28 47 29 48 30 49 31 50 92 51
REMARK SMILES IDX 32 52 91 53 33 54 34 55 35 56 85 57 36 58 90 59 84 60 86 61
REMARK SMILES IDX 37 62 89 63 83 64 82 65 38 67 70 68 50 69 69 70 51 71 54 72
REMARK SMILES IDX 68 73 87 74 52 75 53 76 67 78 88 79 55 80 39 81 40 82 48 83
REMARK SMILES IDX 41 84 42 85 46 86 49 87 43 88 44 89 47 90 45 91 71 92 72 93
REMARK SMILES IDX 80 94 73 95 74 96 78 97 81 98 75 99 76 100 79 101 77 102
REMARK SMILES IDX 56 103 57 104 65 105 58 106 59 107 63 108 66 109 60 110
REMARK SMILES IDX 61 111 64 112 62 113
REMARK H PARENT 10 20 86 66 54 77
REMARK Flexibility Score: inf
ROOT
ATOM      1  O   UNL A   1      34.001  31.104  26.603  1.00  0.00    -0.377 OA
ENDROOT
BRANCH   1   2
ATOM      2  C   UNL A   1      33.288  29.906  26.353  1.00  0.00     0.188 C 
BRANCH   2   3
ATOM      3  C   UNL A   1      33.571  28.734  27.316  1.00  0.00     0.188 C 
BRANCH   3   4
ATOM      4  O   UNL A   1      32.447  27.932  27.617  1.00  0.00    -0.376 OA
BRANCH   4   5
ATOM      5  C   UNL A   1      31.323  27.802  26.777  1.00  0.00     0.202 C 
BRANCH   5   6
ATOM      6  C   UNL A   1      30.696  26.476  26.315  1.00  0.00     0.261 C 
BRANCH   6   7
ATOM      7  O   UNL A   1      31.244  25.267  26.823  1.00  0.00    -0.460 OA
BRANCH   7   8
ATOM      8  C   UNL A   1      30.532  24.141  26.588  1.00  0.00     0.341 C 
ATOM      9  O   UNL A   1      29.399  23.923  27.023  1.00  0.00    -0.246 OA
BRANCH   8  10
ATOM     10  C   UNL A   1      31.205  23.280  25.638  1.00  0.00     0.102 A 
ATOM     11  C   UNL A   1      33.769  22.600  23.118  1.00  0.00     0.082 C 
ATOM     12  C   UNL A   1      33.591  23.805  22.177  1.00  0.00     0.115 C 
ATOM     13  C   UNL A   1      32.608  22.528  24.055  1.00  0.00     0.055 A 
ATOM     14  C   UNL A   1      32.942  25.038  22.799  1.00  0.00     0.225 C 
ATOM     15  C   UNL A   1      31.895  23.631  24.456  1.00  0.00     0.078 A 
ATOM     16  N   UNL A   1      32.102  21.435  24.717  1.00  0.00    -0.317 N 
ATOM     17  O   UNL A   1      33.123  26.161  22.329  1.00  0.00    -0.275 OA
ATOM     18  N   UNL A   1      32.063  24.849  23.840  1.00  0.00    -0.324 N 
ATOM     19  C   UNL A   1      31.256  21.894  25.702  1.00  0.00     0.109 A 
ATOM     20  H   UNL A   1      31.535  25.617  24.158  1.00  0.00     0.170 HD
BRANCH  11  21
ATOM     21  C   UNL A   1      35.107  22.623  23.878  1.00  0.00     0.012 A 
ATOM     22  C   UNL A   1      37.024  21.297  24.660  1.00  0.00     0.165 A 
ATOM     23  C   UNL A   1      35.882  21.436  23.867  1.00  0.00     0.059 A 
ATOM     24  C   UNL A   1      37.427  22.388  25.407  1.00  0.00     0.211 A 
ATOM     25  C   UNL A   1      36.716  23.571  25.396  1.00  0.00     0.211 A 
ATOM     26  O   UNL A   1      38.529  22.464  26.205  1.00  0.00    -0.449 OA
ATOM     27  C   UNL A   1      35.560  23.727  24.647  1.00  0.00     0.168 A 
ATOM     28  O   UNL A   1      37.293  24.510  26.202  1.00  0.00    -0.449 OA
ATOM     29  C   UNL A   1      38.476  23.831  26.638  1.00  0.00     0.468 C 
BRANCH  22  30
ATOM     30  O   UNL A   1      37.649  20.086  24.598  1.00  0.00    -0.493 OA
ATOM     31  C   UNL A   1      36.802  18.976  24.886  1.00  0.00     0.278 C 
ENDBRANCH  22  30
BRANCH  27  32
ATOM     32  O   UNL A   1      34.817  24.862  24.587  1.00  0.00    -0.492 OA
ATOM     33  C   UNL A   1      34.501  25.588  25.762  1.00  0.00     0.278 C 
ENDBRANCH  27  32
ENDBRANCH  11  21
BRANCH  16  34
ATOM     34  C   UNL A   1      32.431  20.082  24.523  1.00  0.00     0.046 A 
ATOM     35  C   UNL A   1      32.874  19.329  25.612  1.00  0.00     0.029 A 
ATOM     36  C   UNL A   1      32.288  19.510  23.254  1.00  0.00     0.029 A 
ATOM     37  C   UNL A   1      33.235  17.999  25.422  1.00  0.00     0.041 A 
ATOM     38  C   UNL A   1      32.655  18.174  23.072  1.00  0.00     0.041 A 
ATOM     39  C   UNL A   1      33.131  17.436  24.153  1.00  0.00     0.123 A 
ATOM     40  F   UNL A   1      33.488  16.157  23.973  1.00  0.00    -0.207 F 
ENDBRANCH  16  34
ENDBRANCH   8  10
ENDBRANCH   7   8
ENDBRANCH   6   7
ENDBRANCH   5   6
ENDBRANCH   4   5
ENDBRANCH   3   4
ENDBRANCH   2   3
ENDBRANCH   1   2
BRANCH   1  41
ATOM     41  C   UNL A   1      33.849  31.755  27.863  1.00  0.00     0.188 C 
BRANCH  41  42
ATOM     42  C   UNL A   1      34.110  33.274  28.099  1.00  0.00     0.188 C 
BRANCH  42  43
ATOM     43  O   UNL A   1      33.560  33.829  29.281  1.00  0.00    -0.376 OA
BRANCH  43  44
ATOM     44  C   UNL A   1      34.314  34.472  30.286  1.00  0.00     0.202 C 
BRANCH  44  45
ATOM     45  C   UNL A   1      34.590  33.704  31.572  1.00  0.00     0.261 C 
BRANCH  45  46
ATOM     46  O   UNL A   1      34.574  32.306  31.384  1.00  0.00    -0.460 OA
BRANCH  46  47
ATOM     47  C   UNL A   1      35.705  31.691  31.771  1.00  0.00     0.338 C 
ATOM     48  O   UNL A   1      36.151  31.608  32.905  1.00  0.00    -0.246 OA
BRANCH  47  49
ATOM     49  C   UNL A   1      36.405  31.236  30.565  1.00  0.00     0.060 A 
ATOM     50  C   UNL A   1      36.336  29.860  30.370  1.00  0.00     0.016 A 
ATOM     51  C   UNL A   1      37.494  32.017  30.146  1.00  0.00     0.016 A 
ATOM     52  C   UNL A   1      37.524  29.218  30.160  1.00  0.00     0.010 A 
ATOM     53  C   UNL A   1      38.685  31.375  29.978  1.00  0.00     0.010 A 
ATOM     54  C   UNL A   1      38.690  29.991  30.104  1.00  0.00    -0.014 A 
BRANCH  54  55
ATOM     55  C   UNL A   1      39.941  29.287  30.077  1.00  0.00     0.031 A 
ATOM     56  C   UNL A   1      40.515  29.176  31.425  1.00  0.00     0.074 A 
ATOM     57  C   UNL A   1      40.452  28.762  28.951  1.00  0.00     0.049 A 
ATOM     58  N   UNL A   1      41.545  29.801  31.885  1.00  0.00    -0.248 NA
ATOM     59  C   UNL A   1      39.715  28.479  32.445  1.00  0.00     0.031 C 
ATOM     60  C   UNL A   1      39.821  28.593  27.642  1.00  0.00     0.029 A 
ATOM     61  N   UNL A   1      41.658  28.164  28.793  1.00  0.00    -0.354 N 
ATOM     62  C   UNL A   1      41.639  29.408  33.212  1.00  0.00     0.074 A 
ATOM     63  C   UNL A   1      40.381  28.801  33.553  1.00  0.00     0.031 C 
ATOM     64  C   UNL A   1      40.562  27.729  26.907  1.00  0.00     0.029 A 
ATOM     65  C   UNL A   1      41.764  27.389  27.648  1.00  0.00     0.049 A 
ATOM     66  H   UNL A   1      42.396  28.271  29.436  1.00  0.00     0.167 HD
ATOM     67  C   UNL A   1      42.850  29.343  33.822  1.00  0.00     0.037 A 
ATOM     68  C   UNL A   1      42.729  26.459  27.437  1.00  0.00     0.037 A 
ATOM     69  C   UNL A   1      43.823  30.148  33.125  1.00  0.00     0.049 A 
ATOM     70  C   UNL A   1      43.849  26.762  28.377  1.00  0.00     0.074 A 
ATOM     71  C   UNL A   1      43.897  31.489  32.793  1.00  0.00     0.029 A 
ATOM     72  N   UNL A   1      44.724  29.513  32.303  1.00  0.00    -0.354 N 
ATOM     73  N   UNL A   1      44.618  27.812  28.269  1.00  0.00    -0.248 NA
ATOM     74  C   UNL A   1      43.792  26.170  29.709  1.00  0.00     0.031 C 
ATOM     75  C   UNL A   1      44.460  31.518  31.483  1.00  0.00     0.029 A 
ATOM     76  C   UNL A   1      44.762  30.206  31.119  1.00  0.00     0.049 A 
ATOM     77  H   UNL A   1      45.246  28.709  32.523  1.00  0.00     0.167 HD
ATOM     78  C   UNL A   1      44.789  28.263  29.572  1.00  0.00     0.074 A 
ATOM     79  C   UNL A   1      44.315  27.173  30.421  1.00  0.00     0.031 C 
ATOM     80  C   UNL A   1      45.012  29.583  29.841  1.00  0.00     0.037 A 
BRANCH  67  81
ATOM     81  C   UNL A   1      43.227  28.238  34.776  1.00  0.00     0.064 A 
ATOM     82  C   UNL A   1      43.692  28.588  36.056  1.00  0.00     0.173 A 
ATOM     83  C   UNL A   1      43.434  26.889  34.402  1.00  0.00     0.173 A 
ATOM     84  F   UNL A   1      43.559  29.844  36.510  1.00  0.00    -0.203 F 
ATOM     85  C   UNL A   1      44.393  27.684  36.856  1.00  0.00     0.198 A 
ATOM     86  C   UNL A   1      44.082  25.976  35.227  1.00  0.00     0.198 A 
ATOM     87  F   UNL A   1      43.131  26.418  33.188  1.00  0.00    -0.203 F 
ATOM     88  F   UNL A   1      44.938  28.104  38.006  1.00  0.00    -0.200 F 
ATOM     89  C   UNL A   1      44.594  26.383  36.438  1.00  0.00     0.200 A 
ATOM     90  F   UNL A   1      44.280  24.723  34.793  1.00  0.00    -0.200 F 
ATOM     91  F   UNL A   1      45.324  25.534  37.173  1.00  0.00    -0.200 F 
ENDBRANCH  67  81
BRANCH  68  92
ATOM     92  C   UNL A   1      42.587  25.147  26.761  1.00  0.00     0.064 A 
ATOM     93  C   UNL A   1      43.279  24.868  25.571  1.00  0.00     0.173 A 
ATOM     94  C   UNL A   1      41.978  24.049  27.400  1.00  0.00     0.173 A 
ATOM     95  F   UNL A   1      43.929  25.846  24.925  1.00  0.00    -0.203 F 
ATOM     96  C   UNL A   1      43.371  23.567  25.064  1.00  0.00     0.198 A 
ATOM     97  C   UNL A   1      42.062  22.754  26.888  1.00  0.00     0.198 A 
ATOM     98  F   UNL A   1      41.368  24.189  28.585  1.00  0.00    -0.203 F 
ATOM     99  F   UNL A   1      44.091  23.331  23.958  1.00  0.00    -0.200 F 
ATOM    100  C   UNL A   1      42.769  22.510  25.726  1.00  0.00     0.200 A 
ATOM    101  F   UNL A   1      41.505  21.737  27.560  1.00  0.00    -0.200 F 
ATOM    102  F   UNL A   1      42.903  21.257  25.271  1.00  0.00    -0.200 F 
ENDBRANCH  68  92
BRANCH  80 103
ATOM    103  C   UNL A   1      45.313  30.499  28.686  1.00  0.00     0.064 A 
ATOM    104  C   UNL A   1      44.328  31.117  27.894  1.00  0.00     0.173 A 
ATOM    105  C   UNL A   1      46.642  30.880  28.469  1.00  0.00     0.173 A 
ATOM    106  F   UNL A   1      43.025  30.893  28.114  1.00  0.00    -0.203 F 
ATOM    107  C   UNL A   1      44.669  32.030  26.897  1.00  0.00     0.198 A 
ATOM    108  C   UNL A   1      46.978  31.822  27.501  1.00  0.00     0.198 A 
ATOM    109  F   UNL A   1      47.621  30.370  29.234  1.00  0.00    -0.203 F 
ATOM    110  F   UNL A   1      43.712  32.592  26.143  1.00  0.00    -0.200 F 
ATOM    111  C   UNL A   1      45.993  32.386  26.707  1.00  0.00     0.200 A 
ATOM    112  F   UNL A   1      48.254  32.204  27.358  1.00  0.00    -0.200 F 
ATOM    113  F   UNL A   1      46.319  33.296  25.777  1.00  0.00    -0.200 F 
ENDBRANCH  80 103
ENDBRANCH  54  55
ENDBRANCH  47  49
ENDBRANCH  46  47
ENDBRANCH  45  46
ENDBRANCH  44  45
ENDBRANCH  43  44
ENDBRANCH  42  43
ENDBRANCH  41  42
ENDBRANCH   1  41
TORSDOF 24
ENDMDL
MODEL 3
REMARK VINA RESULT:     -11.2      2.509      3.611
REMARK SMILES COc1cc([C@@H]2CC(=O)Nc3c(C(=O)OCCOCCOCCOCCOC(=O)c4ccc(-c5c6nc(c(-c7c(F)c(F)c(F)c(F)c7F)c7ccc([nH]7)c(-c7c(F)c(F)c(F)c(F)c7F)c7nc(c(-c8c(F)c(F)c(F)c(F)c8F)c8ccc5[nH]8)C=C7)C=C6)cc4)cn(-c4ccc(F)cc4)c32)c(OC)c2c1OCO2
REMARK SMILES IDX 21 1 20 2 19 3 18 4 17 5 16 6 15 7 13 8 14 9 12 10 6 11 7 12
REMARK SMILES IDX 102 13 8 14 11 15 94 16 9 17 10 18 93 19 5 21 3 22 4 23
REMARK SMILES IDX 107 24 106 25 108 26 103 27 110 28 109 29 2 30 1 31 104 32
REMARK SMILES IDX 105 33 95 34 96 35 101 36 97 37 100 38 98 39 99 40 22 41
REMARK SMILES IDX 23 42 24 43 25 44 26 45 27 46 28 47 29 48 30 49 31 50 92 51
REMARK SMILES IDX 32 52 91 53 33 54 34 55 35 56 85 57 36 58 90 59 84 60 86 61
REMARK SMILES IDX 37 62 89 63 83 64 82 65 38 67 70 68 50 69 69 70 51 71 54 72
REMARK SMILES IDX 68 73 87 74 52 75 53 76 67 78 88 79 55 80 39 81 40 82 48 83
REMARK SMILES IDX 41 84 42 85 46 86 49 87 43 88 44 89 47 90 45 91 71 92 72 93
REMARK SMILES IDX 80 94 73 95 74 96 78 97 81 98 75 99 76 100 79 101 77 102
REMARK SMILES IDX 56 103 57 104 65 105 58 106 59 107 63 108 66 109 60 110
REMARK SMILES IDX 61 111 64 112 62 113
REMARK H PARENT 10 20 86 66 54 77
REMARK Flexibility Score: inf
ROOT
ATOM      1  O   UNL A   1      34.993  30.120  27.538  1.00  0.00    -0.377 OA
ENDROOT
BRANCH   1   2
ATOM      2  C   UNL A   1      34.515  28.875  27.064  1.00  0.00     0.188 C 
BRANCH   2   3
ATOM      3  C   UNL A   1      33.002  28.795  26.768  1.00  0.00     0.188 C 
BRANCH   3   4
ATOM      4  O   UNL A   1      32.676  28.544  25.416  1.00  0.00    -0.376 OA
BRANCH   4   5
ATOM      5  C   UNL A   1      33.540  28.810  24.335  1.00  0.00     0.202 C 
BRANCH   5   6
ATOM      6  C   UNL A   1      33.465  28.158  22.944  1.00  0.00     0.261 C 
BRANCH   6   7
ATOM      7  O   UNL A   1      33.631  26.749  22.859  1.00  0.00    -0.460 OA
BRANCH   7   8
ATOM      8  C   UNL A   1      32.710  25.997  23.505  1.00  0.00     0.341 C 
ATOM      9  O   UNL A   1      31.494  26.051  23.304  1.00  0.00    -0.246 OA
BRANCH   8  10
ATOM     10  C   UNL A   1      33.338  25.012  24.359  1.00  0.00     0.102 A 
ATOM     11  C   UNL A   1      33.266  22.035  26.485  1.00  0.00     0.082 C 
ATOM     12  C   UNL A   1      32.092  22.366  27.424  1.00  0.00     0.115 C 
ATOM     13  C   UNL A   1      33.658  23.263  25.730  1.00  0.00     0.055 A 
ATOM     14  C   UNL A   1      31.081  23.373  26.885  1.00  0.00     0.225 C 
ATOM     15  C   UNL A   1      32.775  24.269  25.421  1.00  0.00     0.078 A 
ATOM     16  N   UNL A   1      34.871  23.578  25.166  1.00  0.00    -0.317 N 
ATOM     17  O   UNL A   1      29.924  23.405  27.307  1.00  0.00    -0.275 OA
ATOM     18  N   UNL A   1      31.523  24.316  25.987  1.00  0.00    -0.324 N 
ATOM     19  C   UNL A   1      34.674  24.637  24.308  1.00  0.00     0.109 A 
ATOM     20  H   UNL A   1      30.918  25.053  25.739  1.00  0.00     0.170 HD
BRANCH  11  21
ATOM     21  C   UNL A   1      32.965  20.861  25.537  1.00  0.00     0.012 A 
ATOM     22  C   UNL A   1      33.146  18.434  25.185  1.00  0.00     0.165 A 
ATOM     23  C   UNL A   1      33.224  19.553  26.019  1.00  0.00     0.059 A 
ATOM     24  C   UNL A   1      32.731  18.629  23.882  1.00  0.00     0.211 A 
ATOM     25  C   UNL A   1      32.426  19.888  23.403  1.00  0.00     0.211 A 
ATOM     26  O   UNL A   1      32.552  17.667  22.932  1.00  0.00    -0.449 OA
ATOM     27  C   UNL A   1      32.528  21.020  24.196  1.00  0.00     0.168 A 
ATOM     28  O   UNL A   1      32.039  19.846  22.095  1.00  0.00    -0.449 OA
ATOM     29  C   UNL A   1      32.041  18.438  21.835  1.00  0.00     0.468 C 
BRANCH  22  30
ATOM     30  O   UNL A   1      33.471  17.239  25.758  1.00  0.00    -0.493 OA
ATOM     31  C   UNL A   1      34.515  16.536  25.090  1.00  0.00     0.278 C 
ENDBRANCH  22  30
BRANCH  27  32
ATOM     32  O   UNL A   1      32.240  22.285  23.792  1.00  0.00    -0.492 OA
ATOM     33  C   UNL A   1      31.780  22.541  22.476  1.00  0.00     0.278 C 
ENDBRANCH  27  32
ENDBRANCH  11  21
BRANCH  16  34
ATOM     34  C   UNL A   1      36.096  22.908  25.330  1.00  0.00     0.046 A 
ATOM     35  C   UNL A   1      37.079  23.482  26.138  1.00  0.00     0.029 A 
ATOM     36  C   UNL A   1      36.300  21.673  24.705  1.00  0.00     0.029 A 
ATOM     37  C   UNL A   1      38.307  22.844  26.278  1.00  0.00     0.041 A 
ATOM     38  C   UNL A   1      37.537  21.040  24.850  1.00  0.00     0.041 A 
ATOM     39  C   UNL A   1      38.528  21.634  25.627  1.00  0.00     0.123 A 
ATOM     40  F   UNL A   1      39.716  21.027  25.758  1.00  0.00    -0.207 F 
ENDBRANCH  16  34
ENDBRANCH   8  10
ENDBRANCH   7   8
ENDBRANCH   6   7
ENDBRANCH   5   6
ENDBRANCH   4   5
ENDBRANCH   3   4
ENDBRANCH   2   3
ENDBRANCH   1   2
BRANCH   1  41
ATOM     41  C   UNL A   1      34.208  31.293  27.328  1.00  0.00     0.188 C 
BRANCH  41  42
ATOM     42  C   UNL A   1      34.052  32.439  28.374  1.00  0.00     0.188 C 
BRANCH  42  43
ATOM     43  O   UNL A   1      34.835  33.599  28.156  1.00  0.00    -0.376 OA
BRANCH  43  44
ATOM     44  C   UNL A   1      34.391  34.918  28.395  1.00  0.00     0.202 C 
BRANCH  44  45
ATOM     45  C   UNL A   1      33.336  35.130  29.471  1.00  0.00     0.261 C 
BRANCH  45  46
ATOM     46  O   UNL A   1      33.595  34.386  30.642  1.00  0.00    -0.460 OA
BRANCH  46  47
ATOM     47  C   UNL A   1      33.656  35.132  31.759  1.00  0.00     0.338 C 
ATOM     48  O   UNL A   1      33.180  36.243  31.933  1.00  0.00    -0.246 OA
BRANCH  47  49
ATOM     49  C   UNL A   1      34.521  34.436  32.717  1.00  0.00     0.060 A 
ATOM     50  C   UNL A   1      35.674  35.146  33.040  1.00  0.00     0.016 A 
ATOM     51  C   UNL A   1      34.461  33.034  32.705  1.00  0.00     0.016 A 
ATOM     52  C   UNL A   1      36.855  34.469  32.920  1.00  0.00     0.010 A 
ATOM     53  C   UNL A   1      35.640  32.367  32.544  1.00  0.00     0.010 A 
ATOM     54  C   UNL A   1      36.807  33.122  32.541  1.00  0.00    -0.014 A 
BRANCH  54  55
ATOM     55  C   UNL A   1      38.055  32.484  32.234  1.00  0.00     0.031 A 
ATOM     56  C   UNL A   1      38.890  32.346  33.436  1.00  0.00     0.074 A 
ATOM     57  C   UNL A   1      38.355  32.032  31.005  1.00  0.00     0.049 A 
ATOM     58  N   UNL A   1      39.963  33.002  33.717  1.00  0.00    -0.248 NA
ATOM     59  C   UNL A   1      38.337  31.568  34.556  1.00  0.00     0.031 C 
ATOM     60  C   UNL A   1      37.485  31.887  29.837  1.00  0.00     0.029 A 
ATOM     61  N   UNL A   1      39.530  31.504  30.582  1.00  0.00    -0.354 N 
ATOM     62  C   UNL A   1      40.334  32.559  34.978  1.00  0.00     0.074 A 
ATOM     63  C   UNL A   1      39.195  31.876  35.527  1.00  0.00     0.031 C 
ATOM     64  C   UNL A   1      38.101  31.094  28.928  1.00  0.00     0.029 A 
ATOM     65  C   UNL A   1      39.439  30.784  29.401  1.00  0.00     0.049 A 
ATOM     66  H   UNL A   1      40.375  31.621  31.073  1.00  0.00     0.167 HD
ATOM     67  C   UNL A   1      41.644  32.530  35.334  1.00  0.00     0.037 A 
ATOM     68  C   UNL A   1      40.380  29.913  28.958  1.00  0.00     0.037 A 
ATOM     69  C   UNL A   1      42.426  33.411  34.502  1.00  0.00     0.049 A 
ATOM     70  C   UNL A   1      41.651  30.232  29.675  1.00  0.00     0.074 A 
ATOM     71  C   UNL A   1      42.377  34.767  34.231  1.00  0.00     0.029 A 
ATOM     72  N   UNL A   1      43.171  32.857  33.488  1.00  0.00    -0.354 N 
ATOM     73  N   UNL A   1      42.339  31.324  29.472  1.00  0.00    -0.248 NA
ATOM     74  C   UNL A   1      41.882  29.583  30.960  1.00  0.00     0.031 C 
ATOM     75  C   UNL A   1      42.668  34.879  32.839  1.00  0.00     0.029 A 
ATOM     76  C   UNL A   1      42.946  33.600  32.357  1.00  0.00     0.049 A 
ATOM     77  H   UNL A   1      43.759  32.072  33.561  1.00  0.00     0.167 HD
ATOM     78  C   UNL A   1      42.746  31.728  30.738  1.00  0.00     0.074 A 
ATOM     79  C   UNL A   1      42.495  30.581  31.606  1.00  0.00     0.031 C 
ATOM     80  C   UNL A   1      42.963  33.045  31.025  1.00  0.00     0.037 A 
BRANCH  67  81
ATOM     81  C   UNL A   1      42.247  31.406  36.139  1.00  0.00     0.064 A 
ATOM     82  C   UNL A   1      43.081  31.732  37.224  1.00  0.00     0.173 A 
ATOM     83  C   UNL A   1      42.288  30.054  35.725  1.00  0.00     0.173 A 
ATOM     84  F   UNL A   1      43.131  32.988  37.692  1.00  0.00    -0.203 F 
ATOM     85  C   UNL A   1      43.956  30.799  37.784  1.00  0.00     0.198 A 
ATOM     86  C   UNL A   1      43.120  29.114  36.325  1.00  0.00     0.198 A 
ATOM     87  F   UNL A   1      41.625  29.601  34.657  1.00  0.00    -0.203 F 
ATOM     88  F   UNL A   1      44.829  31.192  38.720  1.00  0.00    -0.200 F 
ATOM     89  C   UNL A   1      43.980  29.495  37.329  1.00  0.00     0.200 A 
ATOM     90  F   UNL A   1      43.137  27.858  35.856  1.00  0.00    -0.200 F 
ATOM     91  F   UNL A   1      44.864  28.617  37.820  1.00  0.00    -0.200 F 
ENDBRANCH  67  81
BRANCH  68  92
ATOM     92  C   UNL A   1      40.161  28.625  28.257  1.00  0.00     0.064 A 
ATOM     93  C   UNL A   1      40.783  28.356  27.027  1.00  0.00     0.173 A 
ATOM     94  C   UNL A   1      39.550  27.529  28.899  1.00  0.00     0.173 A 
ATOM     95  F   UNL A   1      41.431  29.331  26.374  1.00  0.00    -0.203 F 
ATOM     96  C   UNL A   1      40.806  27.067  26.483  1.00  0.00     0.198 A 
ATOM     97  C   UNL A   1      39.565  26.247  28.350  1.00  0.00     0.198 A 
ATOM     98  F   UNL A   1      39.005  27.656  30.117  1.00  0.00    -0.203 F 
ATOM     99  F   UNL A   1      41.461  26.839  25.335  1.00  0.00    -0.200 F 
ATOM    100  C   UNL A   1      40.204  26.012  27.148  1.00  0.00     0.200 A 
ATOM    101  F   UNL A   1      39.009  25.230  29.024  1.00  0.00    -0.200 F 
ATOM    102  F   UNL A   1      40.274  24.768  26.655  1.00  0.00    -0.200 F 
ENDBRANCH  68  92
BRANCH  80 103
ATOM    103  C   UNL A   1      42.991  34.022  29.881  1.00  0.00     0.064 A 
ATOM    104  C   UNL A   1      41.847  34.640  29.346  1.00  0.00     0.173 A 
ATOM    105  C   UNL A   1      44.236  34.459  29.412  1.00  0.00     0.173 A 
ATOM    106  F   UNL A   1      40.626  34.360  29.820  1.00  0.00    -0.203 F 
ATOM    107  C   UNL A   1      41.948  35.609  28.348  1.00  0.00     0.198 A 
ATOM    108  C   UNL A   1      44.337  35.456  28.445  1.00  0.00     0.198 A 
ATOM    109  F   UNL A   1      45.366  33.950  29.928  1.00  0.00    -0.203 F 
ATOM    110  F   UNL A   1      40.840  36.170  27.840  1.00  0.00    -0.200 F 
ATOM    111  C   UNL A   1      43.193  36.020  27.904  1.00  0.00     0.200 A 
ATOM    112  F   UNL A   1      45.544  35.889  28.058  1.00  0.00    -0.200 F 
ATOM    113  F   UNL A   1      43.293  36.982  26.975  1.00  0.00    -0.200 F 
ENDBRANCH  80 103
ENDBRANCH  54  55
ENDBRANCH  47  49
ENDBRANCH  46  47
ENDBRANCH  45  46
ENDBRANCH  44  45
ENDBRANCH  43  44
ENDBRANCH  42  43
ENDBRANCH  41  42
ENDBRANCH   1  41
TORSDOF 24
ENDMDL
