MODEL 1
REMARK VINA RESULT:     -10.4      0.000      0.000
REMARK SMILES O=C(OCCOCCOCCOCCOC(=O)c1ccc(S(=O)(=O)Nc2ccccc2I)cc1)c1ccc(-c2c3nc(c(-c4c(F)c(F)c(F)c(F)c4F)c4ccc([nH]4)c(-c4c(F)c(F)c(F)c(F)c4F)c4nc(c(-c5c(F)c(F)c(F)c(F)c5F)c5ccc2[nH]5)C=C4)C=C3)cc1
REMARK SMILES IDX 10 1 9 2 8 3 7 4 6 5 5 6 4 7 3 8 2 9 1 10 35 11 36 12 97 13
REMARK SMILES IDX 37 14 96 15 38 16 39 17 40 18 90 19 41 20 95 21 89 22 91 23
REMARK SMILES IDX 42 24 94 25 88 26 87 27 43 29 75 30 55 31 74 32 56 33 59 34
REMARK SMILES IDX 73 35 92 36 57 37 58 38 72 40 93 41 60 42 44 43 45 44 53 45
REMARK SMILES IDX 46 46 47 47 51 48 54 49 48 50 49 51 52 52 50 53 76 54 77 55
REMARK SMILES IDX 85 56 78 57 79 58 83 59 86 60 80 61 81 62 84 63 82 64 61 65
REMARK SMILES IDX 62 66 70 67 63 68 64 69 68 70 71 71 65 72 66 73 69 74 67 75
REMARK SMILES IDX 11 76 12 77 13 78 14 79 15 80 16 81 17 82 18 83 19 84 34 85
REMARK SMILES IDX 20 86 33 87 21 88 22 89 23 90 24 91 25 92 26 94 27 95 31 96
REMARK SMILES IDX 28 97 30 98 32 99 29 100
REMARK H PARENT 91 28 59 39 25 93
REMARK Flexibility Score: inf
ROOT
ATOM      1  C   UNL A   1      33.616  27.613  25.421  1.00  0.00     0.188 C 
ENDROOT
BRANCH   1   2
ATOM      2  O   UNL A   1      34.392  28.581  26.117  1.00  0.00    -0.377 OA
BRANCH   2   3
ATOM      3  C   UNL A   1      33.767  29.212  27.237  1.00  0.00     0.188 C 
BRANCH   3   4
ATOM      4  C   UNL A   1      32.242  29.315  27.151  1.00  0.00     0.188 C 
BRANCH   4   5
ATOM      5  O   UNL A   1      31.859  30.623  26.714  1.00  0.00    -0.376 OA
BRANCH   5   6
ATOM      6  C   UNL A   1      32.646  31.688  27.249  1.00  0.00     0.202 C 
BRANCH   6   7
ATOM      7  C   UNL A   1      32.118  33.074  26.881  1.00  0.00     0.261 C 
BRANCH   7   8
ATOM      8  O   UNL A   1      32.182  33.977  27.993  1.00  0.00    -0.460 OA
BRANCH   8   9
ATOM      9  C   UNL A   1      33.279  34.596  28.493  1.00  0.00     0.338 C 
ATOM     10  O   UNL A   1      33.352  35.821  28.389  1.00  0.00    -0.246 OA
BRANCH   9  11
ATOM     11  C   UNL A   1      34.403  33.896  29.198  1.00  0.00     0.060 A 
ATOM     12  C   UNL A   1      34.270  32.871  30.140  1.00  0.00     0.016 A 
ATOM     13  C   UNL A   1      35.706  34.254  28.808  1.00  0.00     0.016 A 
ATOM     14  C   UNL A   1      35.376  32.251  30.709  1.00  0.00     0.010 A 
ATOM     15  C   UNL A   1      36.827  33.622  29.358  1.00  0.00     0.010 A 
ATOM     16  C   UNL A   1      36.659  32.625  30.323  1.00  0.00    -0.014 A 
BRANCH  16  17
ATOM     17  C   UNL A   1      37.806  32.035  31.035  1.00  0.00     0.031 A 
ATOM     18  C   UNL A   1      38.611  30.990  30.332  1.00  0.00     0.074 A 
ATOM     19  C   UNL A   1      38.162  32.509  32.242  1.00  0.00     0.049 A 
ATOM     20  N   UNL A   1      39.607  30.271  30.774  1.00  0.00    -0.248 NA
ATOM     21  C   UNL A   1      38.257  30.729  28.924  1.00  0.00     0.031 C 
ATOM     22  C   UNL A   1      37.504  33.614  32.943  1.00  0.00     0.029 A 
ATOM     23  N   UNL A   1      39.173  32.134  33.086  1.00  0.00    -0.354 N 
ATOM     24  C   UNL A   1      39.975  29.453  29.715  1.00  0.00     0.074 A 
ATOM     25  C   UNL A   1      39.109  29.768  28.603  1.00  0.00     0.031 C 
ATOM     26  C   UNL A   1      38.128  33.823  34.114  1.00  0.00     0.029 A 
ATOM     27  C   UNL A   1      39.184  32.827  34.272  1.00  0.00     0.049 A 
ATOM     28  H   UNL A   1      39.830  31.433  32.865  1.00  0.00     0.167 HD
ATOM     29  C   UNL A   1      40.944  28.512  29.695  1.00  0.00     0.037 A 
ATOM     30  C   UNL A   1      39.934  32.633  35.374  1.00  0.00     0.037 A 
ATOM     31  C   UNL A   1      41.793  28.227  30.817  1.00  0.00     0.049 A 
ATOM     32  C   UNL A   1      40.942  31.512  35.353  1.00  0.00     0.074 A 
ATOM     33  C   UNL A   1      42.791  27.278  30.931  1.00  0.00     0.029 A 
ATOM     34  N   UNL A   1      41.735  28.903  32.029  1.00  0.00    -0.354 N 
ATOM     35  N   UNL A   1      41.262  30.707  34.367  1.00  0.00    -0.248 NA
ATOM     36  C   UNL A   1      41.672  31.253  36.599  1.00  0.00     0.031 C 
ATOM     37  C   UNL A   1      43.304  27.347  32.231  1.00  0.00     0.029 A 
ATOM     38  C   UNL A   1      42.656  28.369  32.911  1.00  0.00     0.049 A 
ATOM     39  H   UNL A   1      41.127  29.650  32.230  1.00  0.00     0.167 HD
ATOM     40  C   UNL A   1      42.230  29.851  34.870  1.00  0.00     0.074 A 
ATOM     41  C   UNL A   1      42.469  30.256  36.241  1.00  0.00     0.031 C 
ATOM     42  C   UNL A   1      42.858  28.811  34.267  1.00  0.00     0.037 A 
BRANCH  29  43
ATOM     43  C   UNL A   1      41.075  27.685  28.452  1.00  0.00     0.064 A 
ATOM     44  C   UNL A   1      40.322  26.522  28.247  1.00  0.00     0.173 A 
ATOM     45  C   UNL A   1      41.978  28.071  27.450  1.00  0.00     0.173 A 
ATOM     46  F   UNL A   1      39.466  26.097  29.189  1.00  0.00    -0.203 F 
ATOM     47  C   UNL A   1      40.479  25.763  27.089  1.00  0.00     0.198 A 
ATOM     48  C   UNL A   1      42.118  27.322  26.284  1.00  0.00     0.198 A 
ATOM     49  F   UNL A   1      42.730  29.171  27.604  1.00  0.00    -0.203 F 
ATOM     50  F   UNL A   1      39.781  24.631  26.932  1.00  0.00    -0.200 F 
ATOM     51  C   UNL A   1      41.372  26.167  26.107  1.00  0.00     0.200 A 
ATOM     52  F   UNL A   1      42.981  27.714  25.337  1.00  0.00    -0.200 F 
ATOM     53  F   UNL A   1      41.523  25.435  24.994  1.00  0.00    -0.200 F 
ENDBRANCH  29  43
BRANCH  30  54
ATOM     54  C   UNL A   1      39.709  33.447  36.600  1.00  0.00     0.064 A 
ATOM     55  C   UNL A   1      38.797  33.049  37.587  1.00  0.00     0.173 A 
ATOM     56  C   UNL A   1      40.372  34.672  36.788  1.00  0.00     0.173 A 
ATOM     57  F   UNL A   1      38.116  31.903  37.445  1.00  0.00    -0.203 F 
ATOM     58  C   UNL A   1      38.538  33.853  38.698  1.00  0.00     0.198 A 
ATOM     59  C   UNL A   1      40.138  35.457  37.915  1.00  0.00     0.198 A 
ATOM     60  F   UNL A   1      41.250  35.110  35.874  1.00  0.00    -0.203 F 
ATOM     61  F   UNL A   1      37.617  33.475  39.595  1.00  0.00    -0.200 F 
ATOM     62  C   UNL A   1      39.212  35.053  38.864  1.00  0.00     0.200 A 
ATOM     63  F   UNL A   1      40.802  36.610  38.076  1.00  0.00    -0.200 F 
ATOM     64  F   UNL A   1      38.960  35.826  39.929  1.00  0.00    -0.200 F 
ENDBRANCH  30  54
BRANCH  42  65
ATOM     65  C   UNL A   1      43.857  28.054  35.088  1.00  0.00     0.064 A 
ATOM     66  C   UNL A   1      43.486  26.914  35.813  1.00  0.00     0.173 A 
ATOM     67  C   UNL A   1      45.206  28.439  35.099  1.00  0.00     0.173 A 
ATOM     68  F   UNL A   1      42.203  26.520  35.843  1.00  0.00    -0.203 F 
ATOM     69  C   UNL A   1      44.430  26.192  36.534  1.00  0.00     0.198 A 
ATOM     70  C   UNL A   1      46.151  27.698  35.799  1.00  0.00     0.198 A 
ATOM     71  F   UNL A   1      45.606  29.520  34.413  1.00  0.00    -0.203 F 
ATOM     72  F   UNL A   1      44.049  25.125  37.252  1.00  0.00    -0.200 F 
ATOM     73  C   UNL A   1      45.762  26.578  36.519  1.00  0.00     0.200 A 
ATOM     74  F   UNL A   1      47.439  28.064  35.772  1.00  0.00    -0.200 F 
ATOM     75  F   UNL A   1      46.673  25.873  37.204  1.00  0.00    -0.200 F 
ENDBRANCH  42  65
ENDBRANCH  16  17
ENDBRANCH   9  11
ENDBRANCH   8   9
ENDBRANCH   7   8
ENDBRANCH   6   7
ENDBRANCH   5   6
ENDBRANCH   4   5
ENDBRANCH   3   4
ENDBRANCH   2   3
ENDBRANCH   1   2
BRANCH   1  76
ATOM     76  C   UNL A   1      34.019  27.230  23.982  1.00  0.00     0.188 C 
BRANCH  76  77
ATOM     77  O   UNL A   1      33.089  27.586  22.964  1.00  0.00    -0.376 OA
BRANCH  77  78
ATOM     78  C   UNL A   1      32.672  28.952  22.972  1.00  0.00     0.202 C 
BRANCH  78  79
ATOM     79  C   UNL A   1      31.165  29.138  22.759  1.00  0.00     0.261 C 
BRANCH  79  80
ATOM     80  O   UNL A   1      30.368  28.730  23.877  1.00  0.00    -0.460 OA
BRANCH  80  81
ATOM     81  C   UNL A   1      29.425  27.787  23.667  1.00  0.00     0.338 C 
ATOM     82  O   UNL A   1      28.397  27.911  23.021  1.00  0.00    -0.246 OA
BRANCH  81  83
ATOM     83  C   UNL A   1      29.946  26.498  24.185  1.00  0.00     0.060 A 
ATOM     84  C   UNL A   1      30.213  25.463  23.276  1.00  0.00     0.017 A 
ATOM     85  C   UNL A   1      30.289  26.351  25.537  1.00  0.00     0.017 A 
ATOM     86  C   UNL A   1      30.748  24.254  23.730  1.00  0.00     0.023 A 
ATOM     87  C   UNL A   1      30.864  25.165  25.980  1.00  0.00     0.023 A 
ATOM     88  C   UNL A   1      31.009  24.094  25.093  1.00  0.00     0.087 A 
BRANCH  88  89
ATOM     89  S   UNL A   1      31.432  22.497  25.746  1.00  0.00     0.261 S 
ATOM     90  O   UNL A   1      32.504  22.660  26.704  1.00  0.00    -0.201 OA
ATOM     91  O   UNL A   1      30.202  21.831  26.127  1.00  0.00    -0.201 OA
BRANCH  89  92
ATOM     92  N   UNL A   1      32.082  21.632  24.408  1.00  0.00    -0.279 N 
ATOM     93  H   UNL A   1      31.512  21.294  23.679  1.00  0.00     0.180 HD
BRANCH  92  94
ATOM     94  C   UNL A   1      33.514  21.430  24.416  1.00  0.00     0.062 A 
ATOM     95  C   UNL A   1      34.358  22.528  24.211  1.00  0.00     0.028 A 
ATOM     96  C   UNL A   1      34.073  20.192  24.781  1.00  0.00     0.037 A 
ATOM     97  C   UNL A   1      35.735  22.407  24.421  1.00  0.00     0.002 A 
ATOM     98  C   UNL A   1      35.449  20.082  25.010  1.00  0.00     0.017 A 
ATOM     99  I   UNL A   1      32.923  18.447  24.976  1.00  0.00    -0.042 I 
ATOM    100  C   UNL A   1      36.276  21.192  24.840  1.00  0.00     0.001 A 
ENDBRANCH  92  94
ENDBRANCH  89  92
ENDBRANCH  88  89
ENDBRANCH  81  83
ENDBRANCH  80  81
ENDBRANCH  79  80
ENDBRANCH  78  79
ENDBRANCH  77  78
ENDBRANCH  76  77
ENDBRANCH   1  76
TORSDOF 23
ENDMDL
MODEL 2
REMARK VINA RESULT:     -10.0      1.095      7.194
REMARK SMILES O=C(OCCOCCOCCOCCOC(=O)c1ccc(S(=O)(=O)Nc2ccccc2I)cc1)c1ccc(-c2c3nc(c(-c4c(F)c(F)c(F)c(F)c4F)c4ccc([nH]4)c(-c4c(F)c(F)c(F)c(F)c4F)c4nc(c(-c5c(F)c(F)c(F)c(F)c5F)c5ccc2[nH]5)C=C4)C=C3)cc1
REMARK SMILES IDX 10 1 9 2 8 3 7 4 6 5 5 6 4 7 3 8 2 9 1 10 35 11 36 12 97 13
REMARK SMILES IDX 37 14 96 15 38 16 39 17 40 18 90 19 41 20 95 21 89 22 91 23
REMARK SMILES IDX 42 24 94 25 88 26 87 27 43 29 75 30 55 31 74 32 56 33 59 34
REMARK SMILES IDX 73 35 92 36 57 37 58 38 72 40 93 41 60 42 44 43 45 44 53 45
REMARK SMILES IDX 46 46 47 47 51 48 54 49 48 50 49 51 52 52 50 53 76 54 77 55
REMARK SMILES IDX 85 56 78 57 79 58 83 59 86 60 80 61 81 62 84 63 82 64 61 65
REMARK SMILES IDX 62 66 70 67 63 68 64 69 68 70 71 71 65 72 66 73 69 74 67 75
REMARK SMILES IDX 11 76 12 77 13 78 14 79 15 80 16 81 17 82 18 83 19 84 34 85
REMARK SMILES IDX 20 86 33 87 21 88 22 89 23 90 24 91 25 92 26 94 27 95 31 96
REMARK SMILES IDX 28 97 30 98 32 99 29 100
REMARK H PARENT 91 28 59 39 25 93
REMARK Flexibility Score: inf
ROOT
ATOM      1  C   UNL A   1      33.388  28.120  24.844  1.00  0.00     0.188 C 
ENDROOT
BRANCH   1   2
ATOM      2  O   UNL A   1      34.058  28.790  25.905  1.00  0.00    -0.377 OA
BRANCH   2   3
ATOM      3  C   UNL A   1      33.287  29.050  27.081  1.00  0.00     0.188 C 
BRANCH   3   4
ATOM      4  C   UNL A   1      31.793  29.278  26.835  1.00  0.00     0.188 C 
BRANCH   4   5
ATOM      5  O   UNL A   1      31.569  30.610  26.363  1.00  0.00    -0.376 OA
BRANCH   5   6
ATOM      6  C   UNL A   1      32.522  31.574  26.813  1.00  0.00     0.202 C 
BRANCH   6   7
ATOM      7  C   UNL A   1      31.946  32.985  26.931  1.00  0.00     0.261 C 
BRANCH   7   8
ATOM      8  O   UNL A   1      32.628  33.753  27.932  1.00  0.00    -0.460 OA
BRANCH   8   9
ATOM      9  C   UNL A   1      33.944  34.077  27.971  1.00  0.00     0.338 C 
ATOM     10  O   UNL A   1      34.294  35.144  27.466  1.00  0.00    -0.246 OA
BRANCH   9  11
ATOM     11  C   UNL A   1      35.006  33.238  28.617  1.00  0.00     0.060 A 
ATOM     12  C   UNL A   1      34.822  31.976  29.188  1.00  0.00     0.016 A 
ATOM     13  C   UNL A   1      36.319  33.743  28.567  1.00  0.00     0.016 A 
ATOM     14  C   UNL A   1      35.881  31.254  29.728  1.00  0.00     0.010 A 
ATOM     15  C   UNL A   1      37.396  33.016  29.087  1.00  0.00     0.010 A 
ATOM     16  C   UNL A   1      37.171  31.771  29.681  1.00  0.00    -0.014 A 
BRANCH  16  17
ATOM     17  C   UNL A   1      38.246  31.037  30.371  1.00  0.00     0.031 A 
ATOM     18  C   UNL A   1      38.453  31.293  31.829  1.00  0.00     0.074 A 
ATOM     19  C   UNL A   1      38.942  30.093  29.712  1.00  0.00     0.049 A 
ATOM     20  N   UNL A   1      39.377  30.835  32.630  1.00  0.00    -0.248 NA
ATOM     21  C   UNL A   1      37.471  32.176  32.484  1.00  0.00     0.031 C 
ATOM     22  C   UNL A   1      38.717  29.694  28.321  1.00  0.00     0.029 A 
ATOM     23  N   UNL A   1      39.970  29.288  30.128  1.00  0.00    -0.354 N 
ATOM     24  C   UNL A   1      39.108  31.398  33.869  1.00  0.00     0.074 A 
ATOM     25  C   UNL A   1      37.930  32.221  33.725  1.00  0.00     0.031 C 
ATOM     26  C   UNL A   1      39.586  28.721  27.999  1.00  0.00     0.029 A 
ATOM     27  C   UNL A   1      40.467  28.478  29.137  1.00  0.00     0.049 A 
ATOM     28  H   UNL A   1      40.319  29.290  31.049  1.00  0.00     0.167 HD
ATOM     29  C   UNL A   1      39.805  31.245  35.017  1.00  0.00     0.037 A 
ATOM     30  C   UNL A   1      41.546  27.672  29.146  1.00  0.00     0.037 A 
ATOM     31  C   UNL A   1      40.970  30.414  35.129  1.00  0.00     0.049 A 
ATOM     32  C   UNL A   1      42.359  27.597  30.414  1.00  0.00     0.074 A 
ATOM     33  C   UNL A   1      41.781  30.200  36.227  1.00  0.00     0.029 A 
ATOM     34  N   UNL A   1      41.489  29.655  34.087  1.00  0.00    -0.354 N 
ATOM     35  N   UNL A   1      42.132  28.163  31.576  1.00  0.00    -0.248 NA
ATOM     36  C   UNL A   1      43.588  26.796  30.368  1.00  0.00     0.031 C 
ATOM     37  C   UNL A   1      42.819  29.348  35.835  1.00  0.00     0.029 A 
ATOM     38  C   UNL A   1      42.630  28.997  34.506  1.00  0.00     0.049 A 
ATOM     39  H   UNL A   1      41.102  29.596  33.184  1.00  0.00     0.167 HD
ATOM     40  C   UNL A   1      43.183  27.786  32.398  1.00  0.00     0.074 A 
ATOM     41  C   UNL A   1      44.033  26.915  31.610  1.00  0.00     0.031 C 
ATOM     42  C   UNL A   1      43.440  28.137  33.683  1.00  0.00     0.037 A 
BRANCH  29  43
ATOM     43  C   UNL A   1      39.366  32.049  36.202  1.00  0.00     0.064 A 
ATOM     44  C   UNL A   1      39.939  33.288  36.517  1.00  0.00     0.173 A 
ATOM     45  C   UNL A   1      38.350  31.561  37.038  1.00  0.00     0.173 A 
ATOM     46  F   UNL A   1      40.933  33.783  35.765  1.00  0.00    -0.203 F 
ATOM     47  C   UNL A   1      39.522  34.005  37.637  1.00  0.00     0.198 A 
ATOM     48  C   UNL A   1      37.920  32.289  38.145  1.00  0.00     0.198 A 
ATOM     49  F   UNL A   1      37.777  30.375  36.784  1.00  0.00    -0.203 F 
ATOM     50  F   UNL A   1      40.113  35.167  37.946  1.00  0.00    -0.200 F 
ATOM     51  C   UNL A   1      38.510  33.507  38.446  1.00  0.00     0.200 A 
ATOM     52  F   UNL A   1      36.943  31.807  38.924  1.00  0.00    -0.200 F 
ATOM     53  F   UNL A   1      38.111  34.197  39.523  1.00  0.00    -0.200 F 
ENDBRANCH  29  43
BRANCH  30  54
ATOM     54  C   UNL A   1      41.967  26.950  27.915  1.00  0.00     0.064 A 
ATOM     55  C   UNL A   1      41.541  25.641  27.650  1.00  0.00     0.173 A 
ATOM     56  C   UNL A   1      42.850  27.540  26.994  1.00  0.00     0.173 A 
ATOM     57  F   UNL A   1      40.721  25.018  28.509  1.00  0.00    -0.203 F 
ATOM     58  C   UNL A   1      41.997  24.944  26.530  1.00  0.00     0.198 A 
ATOM     59  C   UNL A   1      43.277  26.856  25.858  1.00  0.00     0.198 A 
ATOM     60  F   UNL A   1      43.300  28.787  27.198  1.00  0.00    -0.203 F 
ATOM     61  F   UNL A   1      41.619  23.673  26.336  1.00  0.00    -0.200 F 
ATOM     62  C   UNL A   1      42.861  25.553  25.633  1.00  0.00     0.200 A 
ATOM     63  F   UNL A   1      44.102  27.455  24.988  1.00  0.00    -0.200 F 
ATOM     64  F   UNL A   1      43.302  24.882  24.561  1.00  0.00    -0.200 F 
ENDBRANCH  30  54
BRANCH  42  65
ATOM     65  C   UNL A   1      44.682  27.573  34.303  1.00  0.00     0.064 A 
ATOM     66  C   UNL A   1      45.893  28.278  34.274  1.00  0.00     0.173 A 
ATOM     67  C   UNL A   1      44.644  26.346  34.982  1.00  0.00     0.173 A 
ATOM     68  F   UNL A   1      45.978  29.448  33.622  1.00  0.00    -0.203 F 
ATOM     69  C   UNL A   1      47.028  27.768  34.894  1.00  0.00     0.198 A 
ATOM     70  C   UNL A   1      45.774  25.853  35.623  1.00  0.00     0.198 A 
ATOM     71  F   UNL A   1      43.504  25.641  35.041  1.00  0.00    -0.203 F 
ATOM     72  F   UNL A   1      48.186  28.440  34.824  1.00  0.00    -0.200 F 
ATOM     73  C   UNL A   1      46.966  26.561  35.575  1.00  0.00     0.200 A 
ATOM     74  F   UNL A   1      45.709  24.695  36.294  1.00  0.00    -0.200 F 
ATOM     75  F   UNL A   1      48.058  26.077  36.183  1.00  0.00    -0.200 F 
ENDBRANCH  42  65
ENDBRANCH  16  17
ENDBRANCH   9  11
ENDBRANCH   8   9
ENDBRANCH   7   8
ENDBRANCH   6   7
ENDBRANCH   5   6
ENDBRANCH   4   5
ENDBRANCH   3   4
ENDBRANCH   2   3
ENDBRANCH   1   2
BRANCH   1  76
ATOM     76  C   UNL A   1      33.232  28.840  23.489  1.00  0.00     0.188 C 
BRANCH  76  77
ATOM     77  O   UNL A   1      32.245  28.304  22.614  1.00  0.00    -0.376 OA
BRANCH  77  78
ATOM     78  C   UNL A   1      31.382  29.267  22.008  1.00  0.00     0.202 C 
BRANCH  78  79
ATOM     79  C   UNL A   1      29.976  29.305  22.618  1.00  0.00     0.261 C 
BRANCH  79  80
ATOM     80  O   UNL A   1      29.851  28.553  23.831  1.00  0.00    -0.460 OA
BRANCH  80  81
ATOM     81  C   UNL A   1      29.005  27.502  23.836  1.00  0.00     0.338 C 
ATOM     82  O   UNL A   1      27.858  27.484  23.419  1.00  0.00    -0.246 OA
BRANCH  81  83
ATOM     83  C   UNL A   1      29.772  26.301  24.250  1.00  0.00     0.060 A 
ATOM     84  C   UNL A   1      30.380  25.514  23.260  1.00  0.00     0.017 A 
ATOM     85  C   UNL A   1      29.998  26.022  25.605  1.00  0.00     0.017 A 
ATOM     86  C   UNL A   1      31.148  24.403  23.623  1.00  0.00     0.023 A 
ATOM     87  C   UNL A   1      30.799  24.945  25.967  1.00  0.00     0.023 A 
ATOM     88  C   UNL A   1      31.296  24.092  24.977  1.00  0.00     0.087 A 
BRANCH  88  89
ATOM     89  S   UNL A   1      32.031  22.550  25.469  1.00  0.00     0.261 S 
ATOM     90  O   UNL A   1      33.060  22.823  26.449  1.00  0.00    -0.201 OA
ATOM     91  O   UNL A   1      30.959  21.622  25.768  1.00  0.00    -0.201 OA
BRANCH  89  92
ATOM     92  N   UNL A   1      32.824  21.970  24.056  1.00  0.00    -0.279 N 
ATOM     93  H   UNL A   1      32.370  21.931  23.182  1.00  0.00     0.180 HD
BRANCH  92  94
ATOM     94  C   UNL A   1      34.194  21.542  24.227  1.00  0.00     0.062 A 
ATOM     95  C   UNL A   1      35.224  22.483  24.102  1.00  0.00     0.028 A 
ATOM     96  C   UNL A   1      34.502  20.243  24.671  1.00  0.00     0.037 A 
ATOM     97  C   UNL A   1      36.531  22.150  24.465  1.00  0.00     0.002 A 
ATOM     98  C   UNL A   1      35.809  19.921  25.053  1.00  0.00     0.017 A 
ATOM     99  I   UNL A   1      33.069  18.712  24.763  1.00  0.00    -0.042 I 
ATOM    100  C   UNL A   1      36.820  20.878  24.961  1.00  0.00     0.001 A 
ENDBRANCH  92  94
ENDBRANCH  89  92
ENDBRANCH  88  89
ENDBRANCH  81  83
ENDBRANCH  80  81
ENDBRANCH  79  80
ENDBRANCH  78  79
ENDBRANCH  77  78
ENDBRANCH  76  77
ENDBRANCH   1  76
TORSDOF 23
ENDMDL
MODEL 3
REMARK VINA RESULT:      -9.7      4.491      9.736
REMARK SMILES O=C(OCCOCCOCCOCCOC(=O)c1ccc(S(=O)(=O)Nc2ccccc2I)cc1)c1ccc(-c2c3nc(c(-c4c(F)c(F)c(F)c(F)c4F)c4ccc([nH]4)c(-c4c(F)c(F)c(F)c(F)c4F)c4nc(c(-c5c(F)c(F)c(F)c(F)c5F)c5ccc2[nH]5)C=C4)C=C3)cc1
REMARK SMILES IDX 10 1 9 2 8 3 7 4 6 5 5 6 4 7 3 8 2 9 1 10 35 11 36 12 97 13
REMARK SMILES IDX 37 14 96 15 38 16 39 17 40 18 90 19 41 20 95 21 89 22 91 23
REMARK SMILES IDX 42 24 94 25 88 26 87 27 43 29 75 30 55 31 74 32 56 33 59 34
REMARK SMILES IDX 73 35 92 36 57 37 58 38 72 40 93 41 60 42 44 43 45 44 53 45
REMARK SMILES IDX 46 46 47 47 51 48 54 49 48 50 49 51 52 52 50 53 76 54 77 55
REMARK SMILES IDX 85 56 78 57 79 58 83 59 86 60 80 61 81 62 84 63 82 64 61 65
REMARK SMILES IDX 62 66 70 67 63 68 64 69 68 70 71 71 65 72 66 73 69 74 67 75
REMARK SMILES IDX 11 76 12 77 13 78 14 79 15 80 16 81 17 82 18 83 19 84 34 85
REMARK SMILES IDX 20 86 33 87 21 88 22 89 23 90 24 91 25 92 26 94 27 95 31 96
REMARK SMILES IDX 28 97 30 98 32 99 29 100
REMARK H PARENT 91 28 59 39 25 93
REMARK Flexibility Score: inf
ROOT
ATOM      1  C   UNL A   1      33.553  24.749  22.314  1.00  0.00     0.188 C 
ENDROOT
BRANCH   1   2
ATOM      2  O   UNL A   1      34.896  24.511  22.717  1.00  0.00    -0.377 OA
BRANCH   2   3
ATOM      3  C   UNL A   1      35.076  23.773  23.929  1.00  0.00     0.188 C 
BRANCH   3   4
ATOM      4  C   UNL A   1      35.781  22.424  23.764  1.00  0.00     0.188 C 
BRANCH   4   5
ATOM      5  O   UNL A   1      35.633  21.641  24.953  1.00  0.00    -0.376 OA
BRANCH   5   6
ATOM      6  C   UNL A   1      36.194  20.330  24.881  1.00  0.00     0.202 C 
BRANCH   6   7
ATOM      7  C   UNL A   1      37.716  20.315  25.029  1.00  0.00     0.261 C 
BRANCH   7   8
ATOM      8  O   UNL A   1      38.170  21.326  25.939  1.00  0.00    -0.460 OA
BRANCH   8   9
ATOM      9  C   UNL A   1      39.425  21.502  26.419  1.00  0.00     0.338 C 
ATOM     10  O   UNL A   1      40.122  20.504  26.602  1.00  0.00    -0.246 OA
BRANCH   9  11
ATOM     11  C   UNL A   1      40.043  22.837  26.713  1.00  0.00     0.060 A 
ATOM     12  C   UNL A   1      39.655  24.061  26.160  1.00  0.00     0.016 A 
ATOM     13  C   UNL A   1      41.048  22.858  27.697  1.00  0.00     0.016 A 
ATOM     14  C   UNL A   1      40.262  25.257  26.528  1.00  0.00     0.010 A 
ATOM     15  C   UNL A   1      41.651  24.058  28.092  1.00  0.00     0.010 A 
ATOM     16  C   UNL A   1      41.263  25.260  27.493  1.00  0.00    -0.014 A 
BRANCH  16  17
ATOM     17  C   UNL A   1      41.967  26.525  27.769  1.00  0.00     0.031 A 
ATOM     18  C   UNL A   1      41.271  27.554  28.601  1.00  0.00     0.074 A 
ATOM     19  C   UNL A   1      43.238  26.687  27.362  1.00  0.00     0.049 A 
ATOM     20  N   UNL A   1      41.645  28.765  28.910  1.00  0.00    -0.248 NA
ATOM     21  C   UNL A   1      39.975  27.156  29.182  1.00  0.00     0.031 C 
ATOM     22  C   UNL A   1      44.033  25.682  26.653  1.00  0.00     0.029 A 
ATOM     23  N   UNL A   1      44.090  27.752  27.497  1.00  0.00    -0.354 N 
ATOM     24  C   UNL A   1      40.622  29.284  29.690  1.00  0.00     0.074 A 
ATOM     25  C   UNL A   1      39.614  28.257  29.822  1.00  0.00     0.031 C 
ATOM     26  C   UNL A   1      45.257  26.181  26.413  1.00  0.00     0.029 A 
ATOM     27  C   UNL A   1      45.308  27.559  26.891  1.00  0.00     0.049 A 
ATOM     28  H   UNL A   1      43.853  28.576  27.981  1.00  0.00     0.167 HD
ATOM     29  C   UNL A   1      40.538  30.520  30.230  1.00  0.00     0.037 A 
ATOM     30  C   UNL A   1      46.322  28.427  26.705  1.00  0.00     0.037 A 
ATOM     31  C   UNL A   1      41.561  31.517  30.085  1.00  0.00     0.049 A 
ATOM     32  C   UNL A   1      46.157  29.829  27.236  1.00  0.00     0.074 A 
ATOM     33  C   UNL A   1      41.580  32.815  30.558  1.00  0.00     0.029 A 
ATOM     34  N   UNL A   1      42.756  31.313  29.408  1.00  0.00    -0.354 N 
ATOM     35  N   UNL A   1      45.170  30.336  27.937  1.00  0.00    -0.248 NA
ATOM     36  C   UNL A   1      47.228  30.784  26.930  1.00  0.00     0.031 C 
ATOM     37  C   UNL A   1      42.768  33.413  30.124  1.00  0.00     0.029 A 
ATOM     38  C   UNL A   1      43.508  32.474  29.419  1.00  0.00     0.049 A 
ATOM     39  H   UNL A   1      43.028  30.468  28.982  1.00  0.00     0.167 HD
ATOM     40  C   UNL A   1      45.501  31.665  28.159  1.00  0.00     0.074 A 
ATOM     41  C   UNL A   1      46.796  31.876  27.545  1.00  0.00     0.031 C 
ATOM     42  C   UNL A   1      44.797  32.633  28.796  1.00  0.00     0.037 A 
BRANCH  29  43
ATOM     43  C   UNL A   1      39.272  30.873  30.950  1.00  0.00     0.064 A 
ATOM     44  C   UNL A   1      39.145  30.747  32.339  1.00  0.00     0.173 A 
ATOM     45  C   UNL A   1      38.166  31.344  30.226  1.00  0.00     0.173 A 
ATOM     46  F   UNL A   1      40.165  30.275  33.071  1.00  0.00    -0.203 F 
ATOM     47  C   UNL A   1      37.949  31.066  32.979  1.00  0.00     0.198 A 
ATOM     48  C   UNL A   1      36.978  31.681  30.871  1.00  0.00     0.198 A 
ATOM     49  F   UNL A   1      38.234  31.471  28.893  1.00  0.00    -0.203 F 
ATOM     50  F   UNL A   1      37.834  30.898  34.304  1.00  0.00    -0.200 F 
ATOM     51  C   UNL A   1      36.870  31.537  32.246  1.00  0.00     0.200 A 
ATOM     52  F   UNL A   1      35.938  32.136  30.161  1.00  0.00    -0.200 F 
ATOM     53  F   UNL A   1      35.719  31.842  32.863  1.00  0.00    -0.200 F 
ENDBRANCH  29  43
BRANCH  30  54
ATOM     54  C   UNL A   1      47.526  28.033  25.924  1.00  0.00     0.064 A 
ATOM     55  C   UNL A   1      47.486  27.910  24.528  1.00  0.00     0.173 A 
ATOM     56  C   UNL A   1      48.737  27.724  26.566  1.00  0.00     0.173 A 
ATOM     57  F   UNL A   1      46.349  28.165  23.866  1.00  0.00    -0.203 F 
ATOM     58  C   UNL A   1      48.599  27.471  23.809  1.00  0.00     0.198 A 
ATOM     59  C   UNL A   1      49.858  27.319  25.844  1.00  0.00     0.198 A 
ATOM     60  F   UNL A   1      48.834  27.815  27.900  1.00  0.00    -0.203 F 
ATOM     61  F   UNL A   1      48.513  27.305  22.482  1.00  0.00    -0.200 F 
ATOM     62  C   UNL A   1      49.784  27.181  24.466  1.00  0.00     0.200 A 
ATOM     63  F   UNL A   1      51.005  27.052  26.483  1.00  0.00    -0.200 F 
ATOM     64  F   UNL A   1      50.851  26.755  23.776  1.00  0.00    -0.200 F 
ENDBRANCH  30  54
BRANCH  42  65
ATOM     65  C   UNL A   1      45.420  33.994  28.858  1.00  0.00     0.064 A 
ATOM     66  C   UNL A   1      46.322  34.334  29.874  1.00  0.00     0.173 A 
ATOM     67  C   UNL A   1      45.159  34.941  27.856  1.00  0.00     0.173 A 
ATOM     68  F   UNL A   1      46.588  33.463  30.861  1.00  0.00    -0.203 F 
ATOM     69  C   UNL A   1      46.931  35.584  29.895  1.00  0.00     0.198 A 
ATOM     70  C   UNL A   1      45.791  36.179  27.867  1.00  0.00     0.198 A 
ATOM     71  F   UNL A   1      44.308  34.655  26.860  1.00  0.00    -0.203 F 
ATOM     72  F   UNL A   1      47.763  35.904  30.897  1.00  0.00    -0.200 F 
ATOM     73  C   UNL A   1      46.673  36.501  28.888  1.00  0.00     0.200 A 
ATOM     74  F   UNL A   1      45.552  37.058  26.885  1.00  0.00    -0.200 F 
ATOM     75  F   UNL A   1      47.271  37.700  28.903  1.00  0.00    -0.200 F 
ENDBRANCH  42  65
ENDBRANCH  16  17
ENDBRANCH   9  11
ENDBRANCH   8   9
ENDBRANCH   7   8
ENDBRANCH   6   7
ENDBRANCH   5   6
ENDBRANCH   4   5
ENDBRANCH   3   4
ENDBRANCH   2   3
ENDBRANCH   1   2
BRANCH   1  76
ATOM     76  C   UNL A   1      33.134  26.182  21.929  1.00  0.00     0.188 C 
BRANCH  76  77
ATOM     77  O   UNL A   1      33.875  27.230  22.547  1.00  0.00    -0.376 OA
BRANCH  77  78
ATOM     78  C   UNL A   1      33.231  28.504  22.559  1.00  0.00     0.202 C 
BRANCH  78  79
ATOM     79  C   UNL A   1      33.511  29.324  23.825  1.00  0.00     0.261 C 
BRANCH  79  80
ATOM     80  O   UNL A   1      32.842  28.830  24.993  1.00  0.00    -0.460 OA
BRANCH  80  81
ATOM     81  C   UNL A   1      31.584  28.364  24.848  1.00  0.00     0.338 C 
ATOM     82  O   UNL A   1      30.643  28.945  24.332  1.00  0.00    -0.246 OA
BRANCH  81  83
ATOM     83  C   UNL A   1      31.580  26.932  25.238  1.00  0.00     0.060 A 
ATOM     84  C   UNL A   1      30.483  26.136  24.875  1.00  0.00     0.017 A 
ATOM     85  C   UNL A   1      32.703  26.347  25.842  1.00  0.00     0.017 A 
ATOM     86  C   UNL A   1      30.473  24.773  25.189  1.00  0.00     0.023 A 
ATOM     87  C   UNL A   1      32.712  24.983  26.112  1.00  0.00     0.023 A 
ATOM     88  C   UNL A   1      31.566  24.222  25.864  1.00  0.00     0.087 A 
BRANCH  88  89
ATOM     89  S   UNL A   1      31.481  22.571  26.515  1.00  0.00     0.261 S 
ATOM     90  O   UNL A   1      31.859  22.606  27.911  1.00  0.00    -0.201 OA
ATOM     91  O   UNL A   1      30.211  22.000  26.112  1.00  0.00    -0.201 OA
BRANCH  89  92
ATOM     92  N   UNL A   1      32.712  21.705  25.681  1.00  0.00    -0.279 N 
ATOM     93  H   UNL A   1      33.624  21.617  26.044  1.00  0.00     0.180 HD
BRANCH  92  94
ATOM     94  C   UNL A   1      32.330  21.115  24.418  1.00  0.00     0.062 A 
ATOM     95  C   UNL A   1      31.977  21.953  23.353  1.00  0.00     0.028 A 
ATOM     96  C   UNL A   1      32.460  19.733  24.191  1.00  0.00     0.037 A 
ATOM     97  C   UNL A   1      31.808  21.427  22.068  1.00  0.00     0.002 A 
ATOM     98  C   UNL A   1      32.311  19.215  22.899  1.00  0.00     0.017 A 
ATOM     99  I   UNL A   1      32.846  18.366  25.736  1.00  0.00    -0.042 I 
ATOM    100  C   UNL A   1      31.996  20.065  21.838  1.00  0.00     0.001 A 
ENDBRANCH  92  94
ENDBRANCH  89  92
ENDBRANCH  88  89
ENDBRANCH  81  83
ENDBRANCH  80  81
ENDBRANCH  79  80
ENDBRANCH  78  79
ENDBRANCH  77  78
ENDBRANCH  76  77
ENDBRANCH   1  76
TORSDOF 23
ENDMDL
