MODEL 1
REMARK VINA RESULT:     -11.0      0.000      0.000
REMARK SMILES Cc1ccc(Nc2c(Cl)cc(Cl)cc2Cl)c(CC(=O)OCCOCCOCCOCCOC(=O)c2ccc(-c3c4nc(c(-c5c(F)c(F)c(F)c(F)c5F)c5ccc([nH]5)c(-c5c(F)c(F)c(F)c(F)c5F)c5nc(c(-c6c(F)c(F)c(F)c(F)c6F)c6ccc3[nH]6)C=C5)C=C4)cc2)c1
REMARK SMILES IDX 25 1 24 2 23 3 22 4 21 5 20 6 18 7 19 8 17 9 16 10 1 11 2 12
REMARK SMILES IDX 3 13 98 14 4 15 5 16 6 17 7 19 8 20 14 21 9 22 10 23 13 24
REMARK SMILES IDX 15 25 11 26 12 27 26 28 27 29 28 30 29 31 30 32 31 33 32 34
REMARK SMILES IDX 33 35 34 36 35 37 36 38 97 39 37 40 96 41 38 42 39 43 40 44
REMARK SMILES IDX 90 45 41 46 95 47 89 48 91 49 42 50 94 51 88 52 87 53 43 55
REMARK SMILES IDX 75 56 55 57 74 58 56 59 59 60 73 61 92 62 57 63 58 64 72 66
REMARK SMILES IDX 93 67 60 68 44 69 45 70 53 71 46 72 47 73 51 74 54 75 48 76
REMARK SMILES IDX 49 77 52 78 50 79 76 80 77 81 85 82 78 83 79 84 83 85 86 86
REMARK SMILES IDX 80 87 81 88 84 89 82 90 61 91 62 92 70 93 63 94 64 95 68 96
REMARK SMILES IDX 71 97 65 98 66 99 69 100 67 101
REMARK H PARENT 6 18 91 54 59 65
REMARK Flexibility Score: inf
ROOT
ATOM      1  C   UNL A   1      32.540  30.575  26.948  1.00  0.00     0.188 C 
ENDROOT
BRANCH   1   2
ATOM      2  C   UNL A   1      32.462  29.547  25.855  1.00  0.00     0.188 C 
BRANCH   2   3
ATOM      3  O   UNL A   1      31.742  28.349  25.965  1.00  0.00    -0.376 OA
BRANCH   3   4
ATOM      4  C   UNL A   1      32.521  27.261  26.384  1.00  0.00     0.202 C 
BRANCH   4   5
ATOM      5  C   UNL A   1      31.893  25.860  26.610  1.00  0.00     0.261 C 
BRANCH   5   6
ATOM      6  O   UNL A   1      32.730  24.719  26.373  1.00  0.00    -0.463 OA
BRANCH   6   7
ATOM      7  C   UNL A   1      32.165  23.545  26.771  1.00  0.00     0.310 C 
ATOM      8  O   UNL A   1      32.450  22.968  27.818  1.00  0.00    -0.252 OA
BRANCH   7   9
ATOM      9  C   UNL A   1      31.169  22.964  25.794  1.00  0.00     0.160 C 
BRANCH   9  10
ATOM     10  C   UNL A   1      31.634  22.005  24.704  1.00  0.00    -0.013 A 
ATOM     11  C   UNL A   1      32.750  18.318  24.850  1.00  0.00     0.044 C 
ATOM     12  C   UNL A   1      32.434  19.691  24.330  1.00  0.00    -0.051 A 
ATOM     13  C   UNL A   1      32.435  19.941  22.966  1.00  0.00     0.005 A 
ATOM     14  C   UNL A   1      32.066  20.731  25.186  1.00  0.00     0.009 A 
ATOM     15  C   UNL A   1      32.093  21.209  22.474  1.00  0.00     0.026 A 
ATOM     16  C   UNL A   1      31.654  22.273  23.297  1.00  0.00     0.042 A 
BRANCH  16  17
ATOM     17  N   UNL A   1      31.295  23.549  22.709  1.00  0.00    -0.353 N 
ATOM     18  H   UNL A   1      30.563  23.521  22.051  1.00  0.00     0.167 HD
BRANCH  17  19
ATOM     19  C   UNL A   1      31.864  24.859  22.956  1.00  0.00     0.076 A 
ATOM     20  C   UNL A   1      31.056  26.002  23.090  1.00  0.00     0.067 A 
ATOM     21  C   UNL A   1      33.265  25.123  22.896  1.00  0.00     0.067 A 
ATOM     22  Cl  UNL A   1      29.409  25.874  23.615  1.00  0.00    -0.082 Cl
ATOM     23  C   UNL A   1      31.565  27.300  22.924  1.00  0.00     0.043 A 
ATOM     24  C   UNL A   1      33.775  26.412  22.655  1.00  0.00     0.043 A 
ATOM     25  Cl  UNL A   1      34.473  23.936  23.286  1.00  0.00    -0.082 Cl
ATOM     26  C   UNL A   1      32.911  27.492  22.641  1.00  0.00     0.044 A 
ATOM     27  Cl  UNL A   1      33.511  29.077  22.347  1.00  0.00    -0.084 Cl
ENDBRANCH  17  19
ENDBRANCH  16  17
ENDBRANCH   9  10
ENDBRANCH   7   9
ENDBRANCH   6   7
ENDBRANCH   5   6
ENDBRANCH   4   5
ENDBRANCH   3   4
ENDBRANCH   2   3
ENDBRANCH   1   2
BRANCH   1  28
ATOM     28  O   UNL A   1      33.785  30.447  27.649  1.00  0.00    -0.377 OA
BRANCH  28  29
ATOM     29  C   UNL A   1      34.378  31.694  27.993  1.00  0.00     0.188 C 
BRANCH  29  30
ATOM     30  C   UNL A   1      33.500  32.926  27.840  1.00  0.00     0.188 C 
BRANCH  30  31
ATOM     31  O   UNL A   1      34.365  34.023  27.634  1.00  0.00    -0.376 OA
BRANCH  31  32
ATOM     32  C   UNL A   1      34.672  34.820  28.763  1.00  0.00     0.202 C 
BRANCH  32  33
ATOM     33  C   UNL A   1      33.382  35.441  29.283  1.00  0.00     0.261 C 
BRANCH  33  34
ATOM     34  O   UNL A   1      32.904  34.628  30.380  1.00  0.00    -0.460 OA
BRANCH  34  35
ATOM     35  C   UNL A   1      32.762  35.304  31.562  1.00  0.00     0.338 C 
ATOM     36  O   UNL A   1      31.991  36.219  31.751  1.00  0.00    -0.246 OA
BRANCH  35  37
ATOM     37  C   UNL A   1      33.855  34.927  32.519  1.00  0.00     0.060 A 
ATOM     38  C   UNL A   1      34.972  35.770  32.661  1.00  0.00     0.016 A 
ATOM     39  C   UNL A   1      33.903  33.652  33.070  1.00  0.00     0.016 A 
ATOM     40  C   UNL A   1      36.185  35.280  33.187  1.00  0.00     0.010 A 
ATOM     41  C   UNL A   1      35.110  33.172  33.567  1.00  0.00     0.010 A 
ATOM     42  C   UNL A   1      36.293  33.940  33.550  1.00  0.00    -0.014 A 
BRANCH  42  43
ATOM     43  C   UNL A   1      37.572  33.180  33.718  1.00  0.00     0.031 A 
ATOM     44  C   UNL A   1      37.712  31.846  33.017  1.00  0.00     0.074 A 
ATOM     45  C   UNL A   1      38.662  33.877  34.154  1.00  0.00     0.049 A 
ATOM     46  N   UNL A   1      38.786  31.121  32.962  1.00  0.00    -0.248 NA
ATOM     47  C   UNL A   1      36.587  31.178  32.346  1.00  0.00     0.031 C 
ATOM     48  C   UNL A   1      40.006  33.973  33.579  1.00  0.00     0.029 A 
ATOM     49  N   UNL A   1      38.765  34.799  35.195  1.00  0.00    -0.354 N 
ATOM     50  C   UNL A   1      38.590  30.119  32.008  1.00  0.00     0.074 A 
ATOM     51  C   UNL A   1      37.174  30.131  31.755  1.00  0.00     0.031 C 
ATOM     52  C   UNL A   1      40.849  34.663  34.346  1.00  0.00     0.029 A 
ATOM     53  C   UNL A   1      40.133  34.968  35.531  1.00  0.00     0.049 A 
ATOM     54  H   UNL A   1      38.009  35.259  35.628  1.00  0.00     0.167 HD
ATOM     55  C   UNL A   1      39.668  29.512  31.408  1.00  0.00     0.037 A 
ATOM     56  C   UNL A   1      40.591  34.664  36.770  1.00  0.00     0.037 A 
ATOM     57  C   UNL A   1      40.954  29.848  32.067  1.00  0.00     0.049 A 
ATOM     58  C   UNL A   1      41.294  33.307  36.800  1.00  0.00     0.074 A 
ATOM     59  C   UNL A   1      42.265  30.055  31.665  1.00  0.00     0.029 A 
ATOM     60  N   UNL A   1      40.967  30.108  33.434  1.00  0.00    -0.354 N 
ATOM     61  N   UNL A   1      41.542  32.545  35.754  1.00  0.00    -0.248 NA
ATOM     62  C   UNL A   1      41.751  32.692  38.040  1.00  0.00     0.031 C 
ATOM     63  C   UNL A   1      43.040  30.453  32.798  1.00  0.00     0.029 A 
ATOM     64  C   UNL A   1      42.218  30.411  33.906  1.00  0.00     0.049 A 
ATOM     65  H   UNL A   1      40.164  30.076  34.003  1.00  0.00     0.167 HD
ATOM     66  C   UNL A   1      42.106  31.358  36.161  1.00  0.00     0.074 A 
ATOM     67  C   UNL A   1      42.201  31.502  37.607  1.00  0.00     0.031 C 
ATOM     68  C   UNL A   1      42.442  30.318  35.333  1.00  0.00     0.037 A 
BRANCH  55  69
ATOM     69  C   UNL A   1      39.638  28.772  30.045  1.00  0.00     0.064 A 
ATOM     70  C   UNL A   1      39.194  27.427  29.972  1.00  0.00     0.173 A 
ATOM     71  C   UNL A   1      40.183  29.248  28.828  1.00  0.00     0.173 A 
ATOM     72  F   UNL A   1      38.561  26.851  31.004  1.00  0.00    -0.203 F 
ATOM     73  C   UNL A   1      39.374  26.613  28.842  1.00  0.00     0.198 A 
ATOM     74  C   UNL A   1      40.279  28.457  27.667  1.00  0.00     0.198 A 
ATOM     75  F   UNL A   1      40.689  30.480  28.710  1.00  0.00    -0.203 F 
ATOM     76  F   UNL A   1      39.028  25.318  28.891  1.00  0.00    -0.200 F 
ATOM     77  C   UNL A   1      39.910  27.130  27.685  1.00  0.00     0.200 A 
ATOM     78  F   UNL A   1      40.759  28.993  26.534  1.00  0.00    -0.200 F 
ATOM     79  F   UNL A   1      40.063  26.361  26.597  1.00  0.00    -0.200 F 
ENDBRANCH  55  69
BRANCH  56  80
ATOM     80  C   UNL A   1      39.707  35.389  37.746  1.00  0.00     0.064 A 
ATOM     81  C   UNL A   1      38.878  34.501  38.491  1.00  0.00     0.173 A 
ATOM     82  C   UNL A   1      40.239  36.491  38.431  1.00  0.00     0.173 A 
ATOM     83  F   UNL A   1      38.339  33.430  37.884  1.00  0.00    -0.203 F 
ATOM     84  C   UNL A   1      38.889  34.519  39.886  1.00  0.00     0.198 A 
ATOM     85  C   UNL A   1      40.203  36.527  39.832  1.00  0.00     0.198 A 
ATOM     86  F   UNL A   1      41.024  37.363  37.783  1.00  0.00    -0.203 F 
ATOM     87  F   UNL A   1      38.377  33.484  40.572  1.00  0.00    -0.200 F 
ATOM     88  C   UNL A   1      39.595  35.503  40.554  1.00  0.00     0.200 A 
ATOM     89  F   UNL A   1      40.916  37.452  40.490  1.00  0.00    -0.200 F 
ATOM     90  F   UNL A   1      39.792  35.403  41.877  1.00  0.00    -0.200 F 
ENDBRANCH  56  80
BRANCH  68  91
ATOM     91  C   UNL A   1      42.953  28.977  35.807  1.00  0.00     0.064 A 
ATOM     92  C   UNL A   1      44.291  28.590  35.708  1.00  0.00     0.173 A 
ATOM     93  C   UNL A   1      42.062  27.996  36.320  1.00  0.00     0.173 A 
ATOM     94  F   UNL A   1      45.185  29.371  35.085  1.00  0.00    -0.203 F 
ATOM     95  C   UNL A   1      44.736  27.376  36.232  1.00  0.00     0.198 A 
ATOM     96  C   UNL A   1      42.499  26.757  36.773  1.00  0.00     0.198 A 
ATOM     97  F   UNL A   1      40.744  28.208  36.418  1.00  0.00    -0.203 F 
ATOM     98  F   UNL A   1      46.045  27.092  36.216  1.00  0.00    -0.200 F 
ATOM     99  C   UNL A   1      43.844  26.464  36.770  1.00  0.00     0.200 A 
ATOM    100  F   UNL A   1      41.609  25.862  37.231  1.00  0.00    -0.200 F 
ATOM    101  F   UNL A   1      44.278  25.306  37.282  1.00  0.00    -0.200 F 
ENDBRANCH  68  91
ENDBRANCH  42  43
ENDBRANCH  35  37
ENDBRANCH  34  35
ENDBRANCH  33  34
ENDBRANCH  32  33
ENDBRANCH  31  32
ENDBRANCH  30  31
ENDBRANCH  29  30
ENDBRANCH  28  29
ENDBRANCH   1  28
TORSDOF 23
ENDMDL
MODEL 2
REMARK VINA RESULT:     -10.8      2.710      4.093
REMARK SMILES Cc1ccc(Nc2c(Cl)cc(Cl)cc2Cl)c(CC(=O)OCCOCCOCCOCCOC(=O)c2ccc(-c3c4nc(c(-c5c(F)c(F)c(F)c(F)c5F)c5ccc([nH]5)c(-c5c(F)c(F)c(F)c(F)c5F)c5nc(c(-c6c(F)c(F)c(F)c(F)c6F)c6ccc3[nH]6)C=C5)C=C4)cc2)c1
REMARK SMILES IDX 25 1 24 2 23 3 22 4 21 5 20 6 18 7 19 8 17 9 16 10 1 11 2 12
REMARK SMILES IDX 3 13 98 14 4 15 5 16 6 17 7 19 8 20 14 21 9 22 10 23 13 24
REMARK SMILES IDX 15 25 11 26 12 27 26 28 27 29 28 30 29 31 30 32 31 33 32 34
REMARK SMILES IDX 33 35 34 36 35 37 36 38 97 39 37 40 96 41 38 42 39 43 40 44
REMARK SMILES IDX 90 45 41 46 95 47 89 48 91 49 42 50 94 51 88 52 87 53 43 55
REMARK SMILES IDX 75 56 55 57 74 58 56 59 59 60 73 61 92 62 57 63 58 64 72 66
REMARK SMILES IDX 93 67 60 68 44 69 45 70 53 71 46 72 47 73 51 74 54 75 48 76
REMARK SMILES IDX 49 77 52 78 50 79 76 80 77 81 85 82 78 83 79 84 83 85 86 86
REMARK SMILES IDX 80 87 81 88 84 89 82 90 61 91 62 92 70 93 63 94 64 95 68 96
REMARK SMILES IDX 71 97 65 98 66 99 69 100 67 101
REMARK H PARENT 6 18 91 54 59 65
REMARK Flexibility Score: inf
ROOT
ATOM      1  C   UNL A   1      31.887  28.694  26.224  1.00  0.00     0.188 C 
ENDROOT
BRANCH   1   2
ATOM      2  C   UNL A   1      31.499  27.497  25.402  1.00  0.00     0.188 C 
BRANCH   2   3
ATOM      3  O   UNL A   1      32.426  26.665  24.758  1.00  0.00    -0.376 OA
BRANCH   3   4
ATOM      4  C   UNL A   1      32.602  26.965  23.400  1.00  0.00     0.202 C 
BRANCH   4   5
ATOM      5  C   UNL A   1      32.632  25.846  22.325  1.00  0.00     0.261 C 
BRANCH   5   6
ATOM      6  O   UNL A   1      32.096  24.567  22.693  1.00  0.00    -0.463 OA
BRANCH   6   7
ATOM      7  C   UNL A   1      32.919  23.527  22.381  1.00  0.00     0.310 C 
ATOM      8  O   UNL A   1      33.800  23.585  21.527  1.00  0.00    -0.252 OA
BRANCH   7   9
ATOM      9  C   UNL A   1      32.640  22.254  23.146  1.00  0.00     0.160 C 
BRANCH   9  10
ATOM     10  C   UNL A   1      32.619  22.265  24.670  1.00  0.00    -0.013 A 
ATOM     11  C   UNL A   1      29.799  23.044  27.181  1.00  0.00     0.044 C 
ATOM     12  C   UNL A   1      31.146  22.701  26.614  1.00  0.00    -0.051 A 
ATOM     13  C   UNL A   1      32.175  22.293  27.449  1.00  0.00     0.005 A 
ATOM     14  C   UNL A   1      31.387  22.715  25.238  1.00  0.00     0.009 A 
ATOM     15  C   UNL A   1      33.420  21.924  26.919  1.00  0.00     0.026 A 
ATOM     16  C   UNL A   1      33.690  21.863  25.532  1.00  0.00     0.042 A 
BRANCH  16  17
ATOM     17  N   UNL A   1      34.998  21.449  25.062  1.00  0.00    -0.353 N 
ATOM     18  H   UNL A   1      35.017  20.608  24.550  1.00  0.00     0.167 HD
BRANCH  17  19
ATOM     19  C   UNL A   1      36.279  22.103  25.240  1.00  0.00     0.076 A 
ATOM     20  C   UNL A   1      37.472  21.368  25.369  1.00  0.00     0.067 A 
ATOM     21  C   UNL A   1      36.412  23.502  25.485  1.00  0.00     0.067 A 
ATOM     22  Cl  UNL A   1      37.616  19.776  24.699  1.00  0.00    -0.082 Cl
ATOM     23  C   UNL A   1      38.632  21.921  25.935  1.00  0.00     0.043 A 
ATOM     24  C   UNL A   1      37.543  24.048  26.120  1.00  0.00     0.043 A 
ATOM     25  Cl  UNL A   1      35.293  24.684  24.875  1.00  0.00    -0.082 Cl
ATOM     26  C   UNL A   1      38.638  23.240  26.367  1.00  0.00     0.044 A 
ATOM     27  Cl  UNL A   1      40.031  23.886  27.144  1.00  0.00    -0.084 Cl
ENDBRANCH  17  19
ENDBRANCH  16  17
ENDBRANCH   9  10
ENDBRANCH   7   9
ENDBRANCH   6   7
ENDBRANCH   5   6
ENDBRANCH   4   5
ENDBRANCH   3   4
ENDBRANCH   2   3
ENDBRANCH   1   2
BRANCH   1  28
ATOM     28  O   UNL A   1      33.166  29.183  25.798  1.00  0.00    -0.377 OA
BRANCH  28  29
ATOM     29  C   UNL A   1      33.651  30.271  26.577  1.00  0.00     0.188 C 
BRANCH  29  30
ATOM     30  C   UNL A   1      32.647  30.943  27.498  1.00  0.00     0.188 C 
BRANCH  30  31
ATOM     31  O   UNL A   1      32.271  32.156  26.879  1.00  0.00    -0.376 OA
BRANCH  31  32
ATOM     32  C   UNL A   1      32.385  33.336  27.654  1.00  0.00     0.202 C 
BRANCH  32  33
ATOM     33  C   UNL A   1      33.821  33.837  27.563  1.00  0.00     0.261 C 
BRANCH  33  34
ATOM     34  O   UNL A   1      34.068  34.699  28.699  1.00  0.00    -0.460 OA
BRANCH  34  35
ATOM     35  C   UNL A   1      34.290  34.031  29.873  1.00  0.00     0.338 C 
ATOM     36  O   UNL A   1      33.838  34.351  30.951  1.00  0.00    -0.246 OA
BRANCH  35  37
ATOM     37  C   UNL A   1      35.360  32.994  29.696  1.00  0.00     0.060 A 
ATOM     38  C   UNL A   1      35.137  31.683  30.154  1.00  0.00     0.016 A 
ATOM     39  C   UNL A   1      36.647  33.364  29.323  1.00  0.00     0.016 A 
ATOM     40  C   UNL A   1      36.216  30.812  30.408  1.00  0.00     0.010 A 
ATOM     41  C   UNL A   1      37.706  32.505  29.597  1.00  0.00     0.010 A 
ATOM     42  C   UNL A   1      37.524  31.257  30.228  1.00  0.00    -0.014 A 
BRANCH  42  43
ATOM     43  C   UNL A   1      38.747  30.639  30.829  1.00  0.00     0.031 A 
ATOM     44  C   UNL A   1      39.248  29.331  30.255  1.00  0.00     0.074 A 
ATOM     45  C   UNL A   1      39.555  31.447  31.577  1.00  0.00     0.049 A 
ATOM     46  N   UNL A   1      40.349  28.727  30.578  1.00  0.00    -0.248 NA
ATOM     47  C   UNL A   1      38.481  28.549  29.274  1.00  0.00     0.031 C 
ATOM     48  C   UNL A   1      40.995  31.691  31.471  1.00  0.00     0.029 A 
ATOM     49  N   UNL A   1      39.213  32.371  32.565  1.00  0.00    -0.354 N 
ATOM     50  C   UNL A   1      40.583  27.714  29.645  1.00  0.00     0.074 A 
ATOM     51  C   UNL A   1      39.336  27.574  28.941  1.00  0.00     0.031 C 
ATOM     52  C   UNL A   1      41.462  32.465  32.450  1.00  0.00     0.029 A 
ATOM     53  C   UNL A   1      40.369  32.685  33.325  1.00  0.00     0.049 A 
ATOM     54  H   UNL A   1      38.314  32.744  32.711  1.00  0.00     0.167 HD
ATOM     55  C   UNL A   1      41.855  27.229  29.450  1.00  0.00     0.037 A 
ATOM     56  C   UNL A   1      40.423  32.427  34.654  1.00  0.00     0.037 A 
ATOM     57  C   UNL A   1      42.810  27.700  30.483  1.00  0.00     0.049 A 
ATOM     58  C   UNL A   1      41.213  31.154  34.955  1.00  0.00     0.074 A 
ATOM     59  C   UNL A   1      44.152  28.049  30.527  1.00  0.00     0.029 A 
ATOM     60  N   UNL A   1      42.346  27.953  31.770  1.00  0.00    -0.354 N 
ATOM     61  N   UNL A   1      41.870  30.428  34.073  1.00  0.00    -0.248 NA
ATOM     62  C   UNL A   1      41.298  30.586  36.295  1.00  0.00     0.031 C 
ATOM     63  C   UNL A   1      44.465  28.524  31.838  1.00  0.00     0.029 A 
ATOM     64  C   UNL A   1      43.333  28.388  32.616  1.00  0.00     0.049 A 
ATOM     65  H   UNL A   1      41.408  27.832  32.045  1.00  0.00     0.167 HD
ATOM     66  C   UNL A   1      42.388  29.307  34.680  1.00  0.00     0.074 A 
ATOM     67  C   UNL A   1      41.986  29.454  36.071  1.00  0.00     0.031 C 
ATOM     68  C   UNL A   1      43.083  28.313  34.040  1.00  0.00     0.037 A 
BRANCH  55  69
ATOM     69  C   UNL A   1      42.352  26.497  28.176  1.00  0.00     0.064 A 
ATOM     70  C   UNL A   1      43.021  25.251  28.284  1.00  0.00     0.173 A 
ATOM     71  C   UNL A   1      42.365  27.027  26.863  1.00  0.00     0.173 A 
ATOM     72  F   UNL A   1      43.017  24.562  29.434  1.00  0.00    -0.203 F 
ATOM     73  C   UNL A   1      43.719  24.654  27.222  1.00  0.00     0.198 A 
ATOM     74  C   UNL A   1      42.989  26.381  25.779  1.00  0.00     0.198 A 
ATOM     75  F   UNL A   1      41.818  28.211  26.570  1.00  0.00    -0.203 F 
ATOM     76  F   UNL A   1      44.422  23.531  27.434  1.00  0.00    -0.200 F 
ATOM     77  C   UNL A   1      43.697  25.214  25.966  1.00  0.00     0.200 A 
ATOM     78  F   UNL A   1      42.915  26.918  24.551  1.00  0.00    -0.200 F 
ATOM     79  F   UNL A   1      44.345  24.635  24.945  1.00  0.00    -0.200 F 
ENDBRANCH  55  69
BRANCH  56  80
ATOM     80  C   UNL A   1      39.197  33.048  35.263  1.00  0.00     0.064 A 
ATOM     81  C   UNL A   1      38.332  32.079  35.852  1.00  0.00     0.173 A 
ATOM     82  C   UNL A   1      39.336  34.270  35.937  1.00  0.00     0.173 A 
ATOM     83  F   UNL A   1      38.159  30.891  35.247  1.00  0.00    -0.203 F 
ATOM     84  C   UNL A   1      37.939  32.191  37.186  1.00  0.00     0.198 A 
ATOM     85  C   UNL A   1      38.895  34.393  37.261  1.00  0.00     0.198 A 
ATOM     86  F   UNL A   1      40.133  35.222  35.431  1.00  0.00    -0.203 F 
ATOM     87  F   UNL A   1      37.415  31.131  37.820  1.00  0.00    -0.200 F 
ATOM     88  C   UNL A   1      38.267  33.328  37.903  1.00  0.00     0.200 A 
ATOM     89  F   UNL A   1      39.240  35.472  37.978  1.00  0.00    -0.200 F 
ATOM     90  F   UNL A   1      38.088  33.354  39.232  1.00  0.00    -0.200 F 
ENDBRANCH  56  80
BRANCH  68  91
ATOM     91  C   UNL A   1      43.546  27.033  34.697  1.00  0.00     0.064 A 
ATOM     92  C   UNL A   1      44.884  26.768  34.997  1.00  0.00     0.173 A 
ATOM     93  C   UNL A   1      42.630  25.984  34.980  1.00  0.00     0.173 A 
ATOM     94  F   UNL A   1      45.852  27.615  34.619  1.00  0.00    -0.203 F 
ATOM     95  C   UNL A   1      45.259  25.609  35.678  1.00  0.00     0.198 A 
ATOM     96  C   UNL A   1      43.019  24.799  35.591  1.00  0.00     0.198 A 
ATOM     97  F   UNL A   1      41.325  26.078  34.691  1.00  0.00    -0.203 F 
ATOM     98  F   UNL A   1      46.537  25.445  36.045  1.00  0.00    -0.200 F 
ATOM     99  C   UNL A   1      44.327  24.630  35.981  1.00  0.00     0.200 A 
ATOM    100  F   UNL A   1      42.112  23.836  35.817  1.00  0.00    -0.200 F 
ATOM    101  F   UNL A   1      44.691  23.525  36.645  1.00  0.00    -0.200 F 
ENDBRANCH  68  91
ENDBRANCH  42  43
ENDBRANCH  35  37
ENDBRANCH  34  35
ENDBRANCH  33  34
ENDBRANCH  32  33
ENDBRANCH  31  32
ENDBRANCH  30  31
ENDBRANCH  29  30
ENDBRANCH  28  29
ENDBRANCH   1  28
TORSDOF 23
ENDMDL
MODEL 3
REMARK VINA RESULT:     -10.4      5.570     10.384
REMARK SMILES Cc1ccc(Nc2c(Cl)cc(Cl)cc2Cl)c(CC(=O)OCCOCCOCCOCCOC(=O)c2ccc(-c3c4nc(c(-c5c(F)c(F)c(F)c(F)c5F)c5ccc([nH]5)c(-c5c(F)c(F)c(F)c(F)c5F)c5nc(c(-c6c(F)c(F)c(F)c(F)c6F)c6ccc3[nH]6)C=C5)C=C4)cc2)c1
REMARK SMILES IDX 25 1 24 2 23 3 22 4 21 5 20 6 18 7 19 8 17 9 16 10 1 11 2 12
REMARK SMILES IDX 3 13 98 14 4 15 5 16 6 17 7 19 8 20 14 21 9 22 10 23 13 24
REMARK SMILES IDX 15 25 11 26 12 27 26 28 27 29 28 30 29 31 30 32 31 33 32 34
REMARK SMILES IDX 33 35 34 36 35 37 36 38 97 39 37 40 96 41 38 42 39 43 40 44
REMARK SMILES IDX 90 45 41 46 95 47 89 48 91 49 42 50 94 51 88 52 87 53 43 55
REMARK SMILES IDX 75 56 55 57 74 58 56 59 59 60 73 61 92 62 57 63 58 64 72 66
REMARK SMILES IDX 93 67 60 68 44 69 45 70 53 71 46 72 47 73 51 74 54 75 48 76
REMARK SMILES IDX 49 77 52 78 50 79 76 80 77 81 85 82 78 83 79 84 83 85 86 86
REMARK SMILES IDX 80 87 81 88 84 89 82 90 61 91 62 92 70 93 63 94 64 95 68 96
REMARK SMILES IDX 71 97 65 98 66 99 69 100 67 101
REMARK H PARENT 6 18 91 54 59 65
REMARK Flexibility Score: inf
ROOT
ATOM      1  C   UNL A   1      34.894  22.976  24.433  1.00  0.00     0.188 C 
ENDROOT
BRANCH   1   2
ATOM      2  C   UNL A   1      33.590  22.234  24.353  1.00  0.00     0.188 C 
BRANCH   2   3
ATOM      3  O   UNL A   1      32.912  21.732  25.474  1.00  0.00    -0.376 OA
BRANCH   3   4
ATOM      4  C   UNL A   1      31.826  22.522  25.876  1.00  0.00     0.202 C 
BRANCH   4   5
ATOM      5  C   UNL A   1      32.033  23.800  26.731  1.00  0.00     0.261 C 
BRANCH   5   6
ATOM      6  O   UNL A   1      32.717  24.900  26.114  1.00  0.00    -0.463 OA
BRANCH   6   7
ATOM      7  C   UNL A   1      32.240  26.116  26.500  1.00  0.00     0.310 C 
ATOM      8  O   UNL A   1      31.103  26.303  26.923  1.00  0.00    -0.252 OA
BRANCH   7   9
ATOM      9  C   UNL A   1      33.218  27.257  26.330  1.00  0.00     0.160 C 
BRANCH   9  10
ATOM     10  C   UNL A   1      32.723  28.698  26.331  1.00  0.00    -0.013 A 
ATOM     11  C   UNL A   1      34.028  31.849  28.129  1.00  0.00     0.044 C 
ATOM     12  C   UNL A   1      33.182  30.936  27.289  1.00  0.00    -0.051 A 
ATOM     13  C   UNL A   1      32.166  31.452  26.499  1.00  0.00     0.005 A 
ATOM     14  C   UNL A   1      33.429  29.563  27.223  1.00  0.00     0.009 A 
ATOM     15  C   UNL A   1      31.405  30.609  25.675  1.00  0.00     0.026 A 
ATOM     16  C   UNL A   1      31.660  29.225  25.529  1.00  0.00     0.042 A 
BRANCH  16  17
ATOM     17  N   UNL A   1      30.842  28.424  24.638  1.00  0.00    -0.353 N 
ATOM     18  H   UNL A   1      29.869  28.535  24.742  1.00  0.00     0.167 HD
BRANCH  17  19
ATOM     19  C   UNL A   1      31.259  27.484  23.616  1.00  0.00     0.076 A 
ATOM     20  C   UNL A   1      30.555  26.289  23.380  1.00  0.00     0.067 A 
ATOM     21  C   UNL A   1      32.496  27.596  22.913  1.00  0.00     0.067 A 
ATOM     22  Cl  UNL A   1      28.873  26.152  23.774  1.00  0.00    -0.082 Cl
ATOM     23  C   UNL A   1      31.137  25.200  22.713  1.00  0.00     0.043 A 
ATOM     24  C   UNL A   1      33.116  26.489  22.307  1.00  0.00     0.043 A 
ATOM     25  Cl  UNL A   1      33.264  29.119  22.580  1.00  0.00    -0.082 Cl
ATOM     26  C   UNL A   1      32.439  25.284  22.239  1.00  0.00     0.044 A 
ATOM     27  Cl  UNL A   1      33.179  23.917  21.504  1.00  0.00    -0.084 Cl
ENDBRANCH  17  19
ENDBRANCH  16  17
ENDBRANCH   9  10
ENDBRANCH   7   9
ENDBRANCH   6   7
ENDBRANCH   5   6
ENDBRANCH   4   5
ENDBRANCH   3   4
ENDBRANCH   2   3
ENDBRANCH   1   2
BRANCH   1  28
ATOM     28  O   UNL A   1      35.884  22.307  23.639  1.00  0.00    -0.377 OA
BRANCH  28  29
ATOM     29  C   UNL A   1      36.910  21.690  24.406  1.00  0.00     0.188 C 
BRANCH  29  30
ATOM     30  C   UNL A   1      36.585  20.329  25.001  1.00  0.00     0.188 C 
BRANCH  30  31
ATOM     31  O   UNL A   1      37.744  19.533  24.861  1.00  0.00    -0.376 OA
BRANCH  31  32
ATOM     32  C   UNL A   1      38.951  20.058  25.383  1.00  0.00     0.202 C 
BRANCH  32  33
ATOM     33  C   UNL A   1      39.801  18.901  25.892  1.00  0.00     0.261 C 
BRANCH  33  34
ATOM     34  O   UNL A   1      41.192  19.279  25.768  1.00  0.00    -0.460 OA
BRANCH  34  35
ATOM     35  C   UNL A   1      41.718  19.866  26.887  1.00  0.00     0.338 C 
ATOM     36  O   UNL A   1      42.073  19.274  27.882  1.00  0.00    -0.246 OA
BRANCH  35  37
ATOM     37  C   UNL A   1      41.571  21.359  26.817  1.00  0.00     0.060 A 
ATOM     38  C   UNL A   1      41.925  22.035  25.636  1.00  0.00     0.016 A 
ATOM     39  C   UNL A   1      41.337  22.100  27.970  1.00  0.00     0.016 A 
ATOM     40  C   UNL A   1      42.219  23.414  25.652  1.00  0.00     0.010 A 
ATOM     41  C   UNL A   1      41.649  23.455  27.980  1.00  0.00     0.010 A 
ATOM     42  C   UNL A   1      42.183  24.117  26.854  1.00  0.00    -0.014 A 
BRANCH  42  43
ATOM     43  C   UNL A   1      42.850  25.430  27.118  1.00  0.00     0.031 A 
ATOM     44  C   UNL A   1      44.356  25.454  27.265  1.00  0.00     0.074 A 
ATOM     45  C   UNL A   1      42.141  26.562  26.833  1.00  0.00     0.049 A 
ATOM     46  N   UNL A   1      45.095  26.514  27.379  1.00  0.00    -0.248 NA
ATOM     47  C   UNL A   1      45.165  24.231  27.355  1.00  0.00     0.031 C 
ATOM     48  C   UNL A   1      42.510  27.718  26.013  1.00  0.00     0.029 A 
ATOM     49  N   UNL A   1      40.814  26.875  27.131  1.00  0.00    -0.354 N 
ATOM     50  C   UNL A   1      46.430  26.136  27.216  1.00  0.00     0.074 A 
ATOM     51  C   UNL A   1      46.417  24.702  27.329  1.00  0.00     0.031 C 
ATOM     52  C   UNL A   1      41.600  28.691  26.053  1.00  0.00     0.029 A 
ATOM     53  C   UNL A   1      40.626  28.274  26.995  1.00  0.00     0.049 A 
ATOM     54  H   UNL A   1      40.120  26.228  27.394  1.00  0.00     0.167 HD
ATOM     55  C   UNL A   1      47.371  27.061  26.827  1.00  0.00     0.037 A 
ATOM     56  C   UNL A   1      40.246  29.034  28.050  1.00  0.00     0.037 A 
ATOM     57  C   UNL A   1      46.859  28.452  26.875  1.00  0.00     0.049 A 
ATOM     58  C   UNL A   1      41.428  29.783  28.666  1.00  0.00     0.074 A 
ATOM     59  C   UNL A   1      47.038  29.615  26.140  1.00  0.00     0.029 A 
ATOM     60  N   UNL A   1      45.896  28.787  27.822  1.00  0.00    -0.354 N 
ATOM     61  N   UNL A   1      42.658  29.803  28.196  1.00  0.00    -0.248 NA
ATOM     62  C   UNL A   1      41.305  30.557  29.896  1.00  0.00     0.031 C 
ATOM     63  C   UNL A   1      46.164  30.624  26.649  1.00  0.00     0.029 A 
ATOM     64  C   UNL A   1      45.510  30.101  27.746  1.00  0.00     0.049 A 
ATOM     65  H   UNL A   1      45.531  28.150  28.477  1.00  0.00     0.167 HD
ATOM     66  C   UNL A   1      43.477  30.502  29.052  1.00  0.00     0.074 A 
ATOM     67  C   UNL A   1      42.576  30.940  30.107  1.00  0.00     0.031 C 
ATOM     68  C   UNL A   1      44.828  30.671  28.889  1.00  0.00     0.037 A 
BRANCH  55  69
ATOM     69  C   UNL A   1      48.729  26.732  26.153  1.00  0.00     0.064 A 
ATOM     70  C   UNL A   1      49.869  26.446  26.947  1.00  0.00     0.173 A 
ATOM     71  C   UNL A   1      49.022  26.848  24.773  1.00  0.00     0.173 A 
ATOM     72  F   UNL A   1      49.754  26.204  28.260  1.00  0.00    -0.203 F 
ATOM     73  C   UNL A   1      51.175  26.391  26.433  1.00  0.00     0.198 A 
ATOM     74  C   UNL A   1      50.321  26.703  24.248  1.00  0.00     0.198 A 
ATOM     75  F   UNL A   1      48.085  27.152  23.870  1.00  0.00    -0.203 F 
ATOM     76  F   UNL A   1      52.213  26.228  27.266  1.00  0.00    -0.200 F 
ATOM     77  C   UNL A   1      51.401  26.512  25.081  1.00  0.00     0.200 A 
ATOM     78  F   UNL A   1      50.516  26.775  22.922  1.00  0.00    -0.200 F 
ATOM     79  F   UNL A   1      52.645  26.439  24.585  1.00  0.00    -0.200 F 
ENDBRANCH  55  69
BRANCH  56  80
ATOM     80  C   UNL A   1      39.022  28.384  28.630  1.00  0.00     0.064 A 
ATOM     81  C   UNL A   1      39.283  27.752  29.881  1.00  0.00     0.173 A 
ATOM     82  C   UNL A   1      37.792  29.045  28.495  1.00  0.00     0.173 A 
ATOM     83  F   UNL A   1      40.445  27.101  30.064  1.00  0.00    -0.203 F 
ATOM     84  C   UNL A   1      38.534  28.074  31.013  1.00  0.00     0.198 A 
ATOM     85  C   UNL A   1      37.019  29.323  29.631  1.00  0.00     0.198 A 
ATOM     86  F   UNL A   1      37.488  29.657  27.342  1.00  0.00    -0.203 F 
ATOM     87  F   UNL A   1      38.986  27.740  32.231  1.00  0.00    -0.200 F 
ATOM     88  C   UNL A   1      37.432  28.903  30.892  1.00  0.00     0.200 A 
ATOM     89  F   UNL A   1      35.973  30.156  29.533  1.00  0.00    -0.200 F 
ATOM     90  F   UNL A   1      36.841  29.392  31.992  1.00  0.00    -0.200 F 
ENDBRANCH  56  80
BRANCH  68  91
ATOM     91  C   UNL A   1      45.734  31.342  29.896  1.00  0.00     0.064 A 
ATOM     92  C   UNL A   1      46.261  32.623  29.716  1.00  0.00     0.173 A 
ATOM     93  C   UNL A   1      46.161  30.657  31.066  1.00  0.00     0.173 A 
ATOM     94  F   UNL A   1      46.062  33.291  28.571  1.00  0.00    -0.203 F 
ATOM     95  C   UNL A   1      47.028  33.238  30.707  1.00  0.00     0.198 A 
ATOM     96  C   UNL A   1      46.986  31.246  32.016  1.00  0.00     0.198 A 
ATOM     97  F   UNL A   1      45.781  29.402  31.337  1.00  0.00    -0.203 F 
ATOM     98  F   UNL A   1      47.420  34.508  30.542  1.00  0.00    -0.200 F 
ATOM     99  C   UNL A   1      47.383  32.555  31.858  1.00  0.00     0.200 A 
ATOM    100  F   UNL A   1      47.371  30.544  33.093  1.00  0.00    -0.200 F 
ATOM    101  F   UNL A   1      48.108  33.155  32.810  1.00  0.00    -0.200 F 
ENDBRANCH  68  91
ENDBRANCH  42  43
ENDBRANCH  35  37
ENDBRANCH  34  35
ENDBRANCH  33  34
ENDBRANCH  32  33
ENDBRANCH  31  32
ENDBRANCH  30  31
ENDBRANCH  29  30
ENDBRANCH  28  29
ENDBRANCH   1  28
TORSDOF 23
ENDMDL
