MODEL 1
REMARK VINA RESULT:      -9.9      0.000      0.000
REMARK SMILES CC[NH2+][C@@]1(C(=O)OCCOCCOCCOCCOC(=O)c2ccc(-c3c4nc(c(-c5c(F)c(F)c(F)c(F)c5F)c5ccc([nH]5)c(-c5c(F)c(F)c(F)c(F)c5F)c5nc(c(-c6c(F)c(F)c(F)c(F)c6F)c6ccc3[nH]6)C=C5)C=C4)cc2)CCC[C@H]1CCN1C(=O)CCC1=O
REMARK SMILES IDX 12 1 11 2 10 3 9 4 8 5 7 6 5 7 6 8 4 9 85 10 88 11 86 12
REMARK SMILES IDX 87 13 3 14 2 17 1 18 89 19 90 20 91 21 92 22 96 23 93 24
REMARK SMILES IDX 94 25 95 26 97 27 13 28 14 29 15 30 16 31 17 32 18 33 19 34
REMARK SMILES IDX 20 35 21 36 22 37 23 38 84 39 24 40 83 41 25 42 26 43 27 44
REMARK SMILES IDX 77 45 28 46 82 47 76 48 78 49 29 50 81 51 75 52 74 53 30 55
REMARK SMILES IDX 62 56 42 57 61 58 43 59 46 60 60 61 79 62 44 63 45 64 59 66
REMARK SMILES IDX 80 67 47 68 31 69 32 70 40 71 33 72 34 73 38 74 41 75 35 76
REMARK SMILES IDX 36 77 39 78 37 79 63 80 64 81 72 82 65 83 66 84 70 85 73 86
REMARK SMILES IDX 67 87 68 88 71 89 69 90 48 91 49 92 57 93 50 94 51 95 55 96
REMARK SMILES IDX 58 97 52 98 53 99 56 100 54 101
REMARK H PARENT 3 15 3 16 78 54 46 65
REMARK Flexibility Score: inf
ROOT
ATOM      1  C   UNL A   1      33.111  30.674  27.155  1.00  0.00     0.188 C 
ENDROOT
BRANCH   1   2
ATOM      2  C   UNL A   1      32.554  29.248  27.155  1.00  0.00     0.188 C 
BRANCH   2   3
ATOM      3  O   UNL A   1      32.266  28.764  25.859  1.00  0.00    -0.376 OA
BRANCH   3   4
ATOM      4  C   UNL A   1      33.284  28.936  24.892  1.00  0.00     0.202 C 
BRANCH   4   5
ATOM      5  C   UNL A   1      33.743  27.713  24.067  1.00  0.00     0.261 C 
BRANCH   5   6
ATOM      6  O   UNL A   1      32.893  26.545  24.070  1.00  0.00    -0.459 OA
BRANCH   6   7
ATOM      7  C   UNL A   1      33.447  25.388  23.626  1.00  0.00     0.368 C 
ATOM      8  O   UNL A   1      33.993  25.308  22.526  1.00  0.00    -0.245 OA
BRANCH   7   9
ATOM      9  C   UNL A   1      33.323  24.145  24.639  1.00  0.00     0.197 C 
ATOM     10  C   UNL A   1      34.063  24.661  25.891  1.00  0.00     0.081 C 
ATOM     11  C   UNL A   1      34.140  22.832  24.307  1.00  0.00     0.064 C 
ATOM     12  C   UNL A   1      35.533  24.508  25.510  1.00  0.00     0.008 C 
ATOM     13  C   UNL A   1      35.603  23.237  24.670  1.00  0.00     0.011 C 
BRANCH   9  14
ATOM     14  N   UNL A   1      31.871  23.958  24.753  1.00  0.00    -0.332 N 
ATOM     15  H   UNL A   1      31.440  24.604  24.093  1.00  0.00     0.347 HD
ATOM     16  H   UNL A   1      31.754  22.959  24.583  1.00  0.00     0.347 HD
BRANCH  14  17
ATOM     17  C   UNL A   1      31.207  24.154  26.021  1.00  0.00     0.257 C 
ATOM     18  C   UNL A   1      30.502  22.861  26.424  1.00  0.00     0.071 C 
ENDBRANCH  14  17
ENDBRANCH   9  14
BRANCH  11  19
ATOM     19  C   UNL A   1      33.875  21.486  25.070  1.00  0.00     0.033 C 
BRANCH  19  20
ATOM     20  C   UNL A   1      34.563  20.139  24.768  1.00  0.00     0.129 C 
BRANCH  20  21
ATOM     21  N   UNL A   1      33.801  19.033  24.223  1.00  0.00    -0.283 N 
ATOM     22  C   UNL A   1      32.739  19.188  23.375  1.00  0.00     0.229 C 
ATOM     23  C   UNL A   1      34.298  17.764  24.193  1.00  0.00     0.229 C 
ATOM     24  O   UNL A   1      32.161  20.230  23.102  1.00  0.00    -0.274 OA
ATOM     25  C   UNL A   1      32.415  17.866  22.740  1.00  0.00     0.110 C 
ATOM     26  C   UNL A   1      33.487  16.927  23.252  1.00  0.00     0.110 C 
ATOM     27  O   UNL A   1      35.284  17.352  24.788  1.00  0.00    -0.274 OA
ENDBRANCH  20  21
ENDBRANCH  19  20
ENDBRANCH  11  19
ENDBRANCH   7   9
ENDBRANCH   6   7
ENDBRANCH   5   6
ENDBRANCH   4   5
ENDBRANCH   3   4
ENDBRANCH   2   3
ENDBRANCH   1   2
BRANCH   1  28
ATOM     28  O   UNL A   1      34.402  30.972  27.680  1.00  0.00    -0.377 OA
BRANCH  28  29
ATOM     29  C   UNL A   1      34.560  31.993  28.658  1.00  0.00     0.188 C 
BRANCH  29  30
ATOM     30  C   UNL A   1      35.238  33.315  28.259  1.00  0.00     0.188 C 
BRANCH  30  31
ATOM     31  O   UNL A   1      34.365  34.300  27.741  1.00  0.00    -0.376 OA
BRANCH  31  32
ATOM     32  C   UNL A   1      34.273  35.543  28.420  1.00  0.00     0.202 C 
BRANCH  32  33
ATOM     33  C   UNL A   1      33.034  35.836  29.283  1.00  0.00     0.261 C 
BRANCH  33  34
ATOM     34  O   UNL A   1      32.794  34.947  30.381  1.00  0.00    -0.460 OA
BRANCH  34  35
ATOM     35  C   UNL A   1      32.885  35.451  31.625  1.00  0.00     0.338 C 
ATOM     36  O   UNL A   1      32.068  36.144  32.212  1.00  0.00    -0.246 OA
BRANCH  35  37
ATOM     37  C   UNL A   1      34.065  34.835  32.250  1.00  0.00     0.060 A 
ATOM     38  C   UNL A   1      35.292  35.504  32.168  1.00  0.00     0.016 A 
ATOM     39  C   UNL A   1      33.956  33.616  32.924  1.00  0.00     0.016 A 
ATOM     40  C   UNL A   1      36.428  34.933  32.726  1.00  0.00     0.010 A 
ATOM     41  C   UNL A   1      35.103  33.028  33.459  1.00  0.00     0.010 A 
ATOM     42  C   UNL A   1      36.347  33.667  33.320  1.00  0.00    -0.014 A 
BRANCH  42  43
ATOM     43  C   UNL A   1      37.605  32.927  33.550  1.00  0.00     0.031 A 
ATOM     44  C   UNL A   1      38.346  33.189  34.832  1.00  0.00     0.074 A 
ATOM     45  C   UNL A   1      38.021  31.981  32.691  1.00  0.00     0.049 A 
ATOM     46  N   UNL A   1      39.440  32.639  35.290  1.00  0.00    -0.248 NA
ATOM     47  C   UNL A   1      37.766  34.209  35.723  1.00  0.00     0.031 C 
ATOM     48  C   UNL A   1      37.345  31.613  31.450  1.00  0.00     0.029 A 
ATOM     49  N   UNL A   1      39.112  31.152  32.745  1.00  0.00    -0.354 N 
ATOM     50  C   UNL A   1      39.677  33.247  36.517  1.00  0.00     0.074 A 
ATOM     51  C   UNL A   1      38.639  34.232  36.716  1.00  0.00     0.031 C 
ATOM     52  C   UNL A   1      38.038  30.625  30.856  1.00  0.00     0.029 A 
ATOM     53  C   UNL A   1      39.219  30.318  31.660  1.00  0.00     0.049 A 
ATOM     54  H   UNL A   1      39.755  31.154  33.490  1.00  0.00     0.167 HD
ATOM     55  C   UNL A   1      40.667  32.993  37.403  1.00  0.00     0.037 A 
ATOM     56  C   UNL A   1      40.177  29.423  31.354  1.00  0.00     0.037 A 
ATOM     57  C   UNL A   1      41.697  32.012  37.189  1.00  0.00     0.049 A 
ATOM     58  C   UNL A   1      41.314  29.214  32.323  1.00  0.00     0.074 A 
ATOM     59  C   UNL A   1      42.749  31.669  38.018  1.00  0.00     0.029 A 
ATOM     60  N   UNL A   1      41.806  31.221  36.053  1.00  0.00    -0.354 N 
ATOM     61  N   UNL A   1      41.526  29.777  33.490  1.00  0.00    -0.248 NA
ATOM     62  C   UNL A   1      42.341  28.238  31.936  1.00  0.00     0.031 C 
ATOM     63  C   UNL A   1      43.533  30.719  37.355  1.00  0.00     0.029 A 
ATOM     64  C   UNL A   1      42.927  30.412  36.146  1.00  0.00     0.049 A 
ATOM     65  H   UNL A   1      41.180  31.233  35.293  1.00  0.00     0.167 HD
ATOM     66  C   UNL A   1      42.689  29.203  33.988  1.00  0.00     0.074 A 
ATOM     67  C   UNL A   1      43.124  28.233  33.004  1.00  0.00     0.031 C 
ATOM     68  C   UNL A   1      43.339  29.452  35.153  1.00  0.00     0.037 A 
BRANCH  55  69
ATOM     69  C   UNL A   1      40.705  33.820  38.657  1.00  0.00     0.064 A 
ATOM     70  C   UNL A   1      41.503  34.970  38.766  1.00  0.00     0.173 A 
ATOM     71  C   UNL A   1      39.918  33.463  39.762  1.00  0.00     0.173 A 
ATOM     72  F   UNL A   1      42.291  35.345  37.746  1.00  0.00    -0.203 F 
ATOM     73  C   UNL A   1      41.534  35.711  39.945  1.00  0.00     0.198 A 
ATOM     74  C   UNL A   1      39.926  34.226  40.925  1.00  0.00     0.198 A 
ATOM     75  F   UNL A   1      39.140  32.372  39.713  1.00  0.00    -0.203 F 
ATOM     76  F   UNL A   1      42.347  36.772  40.046  1.00  0.00    -0.200 F 
ATOM     77  C   UNL A   1      40.740  35.344  41.020  1.00  0.00     0.200 A 
ATOM     78  F   UNL A   1      39.148  33.875  41.959  1.00  0.00    -0.200 F 
ATOM     79  F   UNL A   1      40.765  36.063  42.151  1.00  0.00    -0.200 F 
ENDBRANCH  55  69
BRANCH  56  80
ATOM     80  C   UNL A   1      40.111  28.666  30.074  1.00  0.00     0.064 A 
ATOM     81  C   UNL A   1      39.458  27.429  29.990  1.00  0.00     0.173 A 
ATOM     82  C   UNL A   1      40.724  29.158  28.912  1.00  0.00     0.173 A 
ATOM     83  F   UNL A   1      38.877  26.902  31.078  1.00  0.00    -0.203 F 
ATOM     84  C   UNL A   1      39.442  26.702  28.801  1.00  0.00     0.198 A 
ATOM     85  C   UNL A   1      40.677  28.446  27.715  1.00  0.00     0.198 A 
ATOM     86  F   UNL A   1      41.364  30.336  28.936  1.00  0.00    -0.203 F 
ATOM     87  F   UNL A   1      38.858  25.497  28.763  1.00  0.00    -0.200 F 
ATOM     88  C   UNL A   1      40.046  27.214  27.663  1.00  0.00     0.200 A 
ATOM     89  F   UNL A   1      41.249  28.954  26.614  1.00  0.00    -0.200 F 
ATOM     90  F   UNL A   1      40.026  26.517  26.519  1.00  0.00    -0.200 F 
ENDBRANCH  56  80
BRANCH  68  91
ATOM     91  C   UNL A   1      44.564  28.630  35.445  1.00  0.00     0.064 A 
ATOM     92  C   UNL A   1      44.497  27.429  36.166  1.00  0.00     0.173 A 
ATOM     93  C   UNL A   1      45.820  29.042  34.973  1.00  0.00     0.173 A 
ATOM     94  F   UNL A   1      43.323  26.994  36.649  1.00  0.00    -0.203 F 
ATOM     95  C   UNL A   1      45.649  26.694  36.439  1.00  0.00     0.198 A 
ATOM     96  C   UNL A   1      46.962  28.284  35.213  1.00  0.00     0.198 A 
ATOM     97  F   UNL A   1      45.939  30.177  34.266  1.00  0.00    -0.203 F 
ATOM     98  F   UNL A   1      45.570  25.585  37.188  1.00  0.00    -0.200 F 
ATOM     99  C   UNL A   1      46.877  27.118  35.957  1.00  0.00     0.200 A 
ATOM    100  F   UNL A   1      48.145  28.685  34.728  1.00  0.00    -0.200 F 
ATOM    101  F   UNL A   1      47.983  26.407  36.218  1.00  0.00    -0.200 F 
ENDBRANCH  68  91
ENDBRANCH  42  43
ENDBRANCH  35  37
ENDBRANCH  34  35
ENDBRANCH  33  34
ENDBRANCH  32  33
ENDBRANCH  31  32
ENDBRANCH  30  31
ENDBRANCH  29  30
ENDBRANCH  28  29
ENDBRANCH   1  28
TORSDOF 25
ENDMDL
MODEL 2
REMARK VINA RESULT:      -9.7      1.195      2.498
REMARK SMILES CC[NH2+][C@@]1(C(=O)OCCOCCOCCOCCOC(=O)c2ccc(-c3c4nc(c(-c5c(F)c(F)c(F)c(F)c5F)c5ccc([nH]5)c(-c5c(F)c(F)c(F)c(F)c5F)c5nc(c(-c6c(F)c(F)c(F)c(F)c6F)c6ccc3[nH]6)C=C5)C=C4)cc2)CCC[C@H]1CCN1C(=O)CCC1=O
REMARK SMILES IDX 12 1 11 2 10 3 9 4 8 5 7 6 5 7 6 8 4 9 85 10 88 11 86 12
REMARK SMILES IDX 87 13 3 14 2 17 1 18 89 19 90 20 91 21 92 22 96 23 93 24
REMARK SMILES IDX 94 25 95 26 97 27 13 28 14 29 15 30 16 31 17 32 18 33 19 34
REMARK SMILES IDX 20 35 21 36 22 37 23 38 84 39 24 40 83 41 25 42 26 43 27 44
REMARK SMILES IDX 77 45 28 46 82 47 76 48 78 49 29 50 81 51 75 52 74 53 30 55
REMARK SMILES IDX 62 56 42 57 61 58 43 59 46 60 60 61 79 62 44 63 45 64 59 66
REMARK SMILES IDX 80 67 47 68 31 69 32 70 40 71 33 72 34 73 38 74 41 75 35 76
REMARK SMILES IDX 36 77 39 78 37 79 63 80 64 81 72 82 65 83 66 84 70 85 73 86
REMARK SMILES IDX 67 87 68 88 71 89 69 90 48 91 49 92 57 93 50 94 51 95 55 96
REMARK SMILES IDX 58 97 52 98 53 99 56 100 54 101
REMARK H PARENT 3 15 3 16 78 54 46 65
REMARK Flexibility Score: inf
ROOT
ATOM      1  C   UNL A   1      33.900  30.870  27.313  1.00  0.00     0.188 C 
ENDROOT
BRANCH   1   2
ATOM      2  C   UNL A   1      33.096  29.567  27.350  1.00  0.00     0.188 C 
BRANCH   2   3
ATOM      3  O   UNL A   1      31.753  29.731  26.941  1.00  0.00    -0.376 OA
BRANCH   3   4
ATOM      4  C   UNL A   1      31.554  30.458  25.744  1.00  0.00     0.202 C 
BRANCH   4   5
ATOM      5  C   UNL A   1      31.606  29.704  24.396  1.00  0.00     0.261 C 
BRANCH   5   6
ATOM      6  O   UNL A   1      30.940  28.424  24.318  1.00  0.00    -0.459 OA
BRANCH   6   7
ATOM      7  C   UNL A   1      31.734  27.324  24.327  1.00  0.00     0.368 C 
ATOM      8  O   UNL A   1      32.900  27.366  24.717  1.00  0.00    -0.245 OA
BRANCH   7   9
ATOM      9  C   UNL A   1      31.037  25.980  23.783  1.00  0.00     0.197 C 
ATOM     10  C   UNL A   1      29.585  26.133  24.283  1.00  0.00     0.081 C 
ATOM     11  C   UNL A   1      31.457  24.605  24.445  1.00  0.00     0.064 C 
ATOM     12  C   UNL A   1      29.689  25.763  25.761  1.00  0.00     0.008 C 
ATOM     13  C   UNL A   1      30.736  24.656  25.828  1.00  0.00     0.011 C 
BRANCH   9  14
ATOM     14  N   UNL A   1      31.254  26.061  22.334  1.00  0.00    -0.332 N 
ATOM     15  H   UNL A   1      30.743  25.283  21.918  1.00  0.00     0.347 HD
ATOM     16  H   UNL A   1      30.946  27.006  22.107  1.00  0.00     0.347 HD
BRANCH  14  17
ATOM     17  C   UNL A   1      32.594  26.015  21.793  1.00  0.00     0.257 C 
ATOM     18  C   UNL A   1      32.522  25.685  20.303  1.00  0.00     0.071 C 
ENDBRANCH  14  17
ENDBRANCH   9  14
BRANCH  11  19
ATOM     19  C   UNL A   1      31.048  23.230  23.808  1.00  0.00     0.033 C 
BRANCH  19  20
ATOM     20  C   UNL A   1      31.985  22.306  23.004  1.00  0.00     0.129 C 
BRANCH  20  21
ATOM     21  N   UNL A   1      33.184  21.768  23.615  1.00  0.00    -0.283 N 
ATOM     22  C   UNL A   1      34.396  22.401  23.596  1.00  0.00     0.229 C 
ATOM     23  C   UNL A   1      33.129  20.798  24.573  1.00  0.00     0.229 C 
ATOM     24  O   UNL A   1      34.705  23.379  22.932  1.00  0.00    -0.274 OA
ATOM     25  C   UNL A   1      35.309  21.754  24.599  1.00  0.00     0.110 C 
ATOM     26  C   UNL A   1      34.446  20.715  25.282  1.00  0.00     0.110 C 
ATOM     27  O   UNL A   1      32.156  20.120  24.869  1.00  0.00    -0.274 OA
ENDBRANCH  20  21
ENDBRANCH  19  20
ENDBRANCH  11  19
ENDBRANCH   7   9
ENDBRANCH   6   7
ENDBRANCH   5   6
ENDBRANCH   4   5
ENDBRANCH   3   4
ENDBRANCH   2   3
ENDBRANCH   1   2
BRANCH   1  28
ATOM     28  O   UNL A   1      34.942  31.131  28.250  1.00  0.00    -0.377 OA
BRANCH  28  29
ATOM     29  C   UNL A   1      34.833  32.224  29.155  1.00  0.00     0.188 C 
BRANCH  29  30
ATOM     30  C   UNL A   1      35.349  33.608  28.725  1.00  0.00     0.188 C 
BRANCH  30  31
ATOM     31  O   UNL A   1      34.401  34.413  28.051  1.00  0.00    -0.376 OA
BRANCH  31  32
ATOM     32  C   UNL A   1      34.147  35.716  28.553  1.00  0.00     0.202 C 
BRANCH  32  33
ATOM     33  C   UNL A   1      33.008  35.920  29.567  1.00  0.00     0.261 C 
BRANCH  33  34
ATOM     34  O   UNL A   1      32.882  34.928  30.595  1.00  0.00    -0.460 OA
BRANCH  34  35
ATOM     35  C   UNL A   1      32.908  35.345  31.873  1.00  0.00     0.338 C 
ATOM     36  O   UNL A   1      32.031  35.937  32.484  1.00  0.00    -0.246 OA
BRANCH  35  37
ATOM     37  C   UNL A   1      34.112  34.765  32.487  1.00  0.00     0.060 A 
ATOM     38  C   UNL A   1      35.324  35.455  32.366  1.00  0.00     0.016 A 
ATOM     39  C   UNL A   1      34.040  33.558  33.188  1.00  0.00     0.016 A 
ATOM     40  C   UNL A   1      36.482  34.919  32.912  1.00  0.00     0.010 A 
ATOM     41  C   UNL A   1      35.209  33.004  33.711  1.00  0.00     0.010 A 
ATOM     42  C   UNL A   1      36.437  33.663  33.533  1.00  0.00    -0.014 A 
BRANCH  42  43
ATOM     43  C   UNL A   1      37.714  32.953  33.753  1.00  0.00     0.031 A 
ATOM     44  C   UNL A   1      38.444  33.209  35.042  1.00  0.00     0.074 A 
ATOM     45  C   UNL A   1      38.158  32.036  32.877  1.00  0.00     0.049 A 
ATOM     46  N   UNL A   1      39.551  32.680  35.493  1.00  0.00    -0.248 NA
ATOM     47  C   UNL A   1      37.835  34.195  35.951  1.00  0.00     0.031 C 
ATOM     48  C   UNL A   1      37.495  31.674  31.627  1.00  0.00     0.029 A 
ATOM     49  N   UNL A   1      39.270  31.235  32.917  1.00  0.00    -0.354 N 
ATOM     50  C   UNL A   1      39.769  33.269  36.732  1.00  0.00     0.074 A 
ATOM     51  C   UNL A   1      38.704  34.223  36.947  1.00  0.00     0.031 C 
ATOM     52  C   UNL A   1      38.216  30.718  31.015  1.00  0.00     0.029 A 
ATOM     53  C   UNL A   1      39.402  30.426  31.817  1.00  0.00     0.049 A 
ATOM     54  H   UNL A   1      39.911  31.240  33.665  1.00  0.00     0.167 HD
ATOM     55  C   UNL A   1      40.763  33.024  37.616  1.00  0.00     0.037 A 
ATOM     56  C   UNL A   1      40.385  29.563  31.496  1.00  0.00     0.037 A 
ATOM     57  C   UNL A   1      41.820  32.075  37.386  1.00  0.00     0.049 A 
ATOM     58  C   UNL A   1      41.524  29.366  32.465  1.00  0.00     0.074 A 
ATOM     59  C   UNL A   1      42.878  31.745  38.211  1.00  0.00     0.029 A 
ATOM     60  N   UNL A   1      41.953  31.310  36.235  1.00  0.00    -0.354 N 
ATOM     61  N   UNL A   1      41.718  29.911  33.643  1.00  0.00    -0.248 NA
ATOM     62  C   UNL A   1      42.578  28.425  32.061  1.00  0.00     0.031 C 
ATOM     63  C   UNL A   1      43.689  30.829  37.533  1.00  0.00     0.029 A 
ATOM     64  C   UNL A   1      43.094  30.530  36.316  1.00  0.00     0.049 A 
ATOM     65  H   UNL A   1      41.329  31.321  35.474  1.00  0.00     0.167 HD
ATOM     66  C   UNL A   1      42.894  29.358  34.134  1.00  0.00     0.074 A 
ATOM     67  C   UNL A   1      43.358  28.419  33.132  1.00  0.00     0.031 C 
ATOM     68  C   UNL A   1      43.534  29.601  35.306  1.00  0.00     0.037 A 
BRANCH  55  69
ATOM     69  C   UNL A   1      40.775  33.827  38.886  1.00  0.00     0.064 A 
ATOM     70  C   UNL A   1      41.510  35.017  39.007  1.00  0.00     0.173 A 
ATOM     71  C   UNL A   1      40.028  33.405  39.995  1.00  0.00     0.173 A 
ATOM     72  F   UNL A   1      42.260  35.455  37.984  1.00  0.00    -0.203 F 
ATOM     73  C   UNL A   1      41.519  35.735  40.200  1.00  0.00     0.198 A 
ATOM     74  C   UNL A   1      40.011  34.144  41.174  1.00  0.00     0.198 A 
ATOM     75  F   UNL A   1      39.309  32.273  39.935  1.00  0.00    -0.203 F 
ATOM     76  F   UNL A   1      42.275  36.837  40.312  1.00  0.00    -0.200 F 
ATOM     77  C   UNL A   1      40.764  35.303  41.280  1.00  0.00     0.200 A 
ATOM     78  F   UNL A   1      39.271  33.730  42.212  1.00  0.00    -0.200 F 
ATOM     79  F   UNL A   1      40.768  35.999  42.425  1.00  0.00    -0.200 F 
ENDBRANCH  55  69
BRANCH  56  80
ATOM     80  C   UNL A   1      40.343  28.831  30.202  1.00  0.00     0.064 A 
ATOM     81  C   UNL A   1      40.964  29.341  29.053  1.00  0.00     0.173 A 
ATOM     82  C   UNL A   1      39.656  27.613  30.082  1.00  0.00     0.173 A 
ATOM     83  F   UNL A   1      41.614  30.513  29.107  1.00  0.00    -0.203 F 
ATOM     84  C   UNL A   1      40.880  28.674  27.832  1.00  0.00     0.198 A 
ATOM     85  C   UNL A   1      39.601  26.931  28.868  1.00  0.00     0.198 A 
ATOM     86  F   UNL A   1      39.042  27.080  31.148  1.00  0.00    -0.203 F 
ATOM     87  F   UNL A   1      41.437  29.212  26.738  1.00  0.00    -0.200 F 
ATOM     88  C   UNL A   1      40.204  27.467  27.742  1.00  0.00     0.200 A 
ATOM     89  F   UNL A   1      38.960  25.756  28.791  1.00  0.00    -0.200 F 
ATOM     90  F   UNL A   1      40.127  26.825  26.568  1.00  0.00    -0.200 F 
ENDBRANCH  56  80
BRANCH  68  91
ATOM     91  C   UNL A   1      44.780  28.807  35.585  1.00  0.00     0.064 A 
ATOM     92  C   UNL A   1      46.056  29.289  35.257  1.00  0.00     0.173 A 
ATOM     93  C   UNL A   1      44.695  27.555  36.214  1.00  0.00     0.173 A 
ATOM     94  F   UNL A   1      46.194  30.475  34.645  1.00  0.00    -0.203 F 
ATOM     95  C   UNL A   1      47.195  28.528  35.509  1.00  0.00     0.198 A 
ATOM     96  C   UNL A   1      45.838  26.816  36.502  1.00  0.00     0.198 A 
ATOM     97  F   UNL A   1      43.500  27.052  36.562  1.00  0.00    -0.203 F 
ATOM     98  F   UNL A   1      48.397  28.979  35.124  1.00  0.00    -0.200 F 
ATOM     99  C   UNL A   1      47.086  27.297  36.136  1.00  0.00     0.200 A 
ATOM    100  F   UNL A   1      45.732  25.636  37.127  1.00  0.00    -0.200 F 
ATOM    101  F   UNL A   1      48.183  26.568  36.382  1.00  0.00    -0.200 F 
ENDBRANCH  68  91
ENDBRANCH  42  43
ENDBRANCH  35  37
ENDBRANCH  34  35
ENDBRANCH  33  34
ENDBRANCH  32  33
ENDBRANCH  31  32
ENDBRANCH  30  31
ENDBRANCH  29  30
ENDBRANCH  28  29
ENDBRANCH   1  28
TORSDOF 25
ENDMDL
MODEL 3
REMARK VINA RESULT:      -9.7      0.639      7.150
REMARK SMILES CC[NH2+][C@@]1(C(=O)OCCOCCOCCOCCOC(=O)c2ccc(-c3c4nc(c(-c5c(F)c(F)c(F)c(F)c5F)c5ccc([nH]5)c(-c5c(F)c(F)c(F)c(F)c5F)c5nc(c(-c6c(F)c(F)c(F)c(F)c6F)c6ccc3[nH]6)C=C5)C=C4)cc2)CCC[C@H]1CCN1C(=O)CCC1=O
REMARK SMILES IDX 12 1 11 2 10 3 9 4 8 5 7 6 5 7 6 8 4 9 85 10 88 11 86 12
REMARK SMILES IDX 87 13 3 14 2 17 1 18 89 19 90 20 91 21 92 22 96 23 93 24
REMARK SMILES IDX 94 25 95 26 97 27 13 28 14 29 15 30 16 31 17 32 18 33 19 34
REMARK SMILES IDX 20 35 21 36 22 37 23 38 84 39 24 40 83 41 25 42 26 43 27 44
REMARK SMILES IDX 77 45 28 46 82 47 76 48 78 49 29 50 81 51 75 52 74 53 30 55
REMARK SMILES IDX 62 56 42 57 61 58 43 59 46 60 60 61 79 62 44 63 45 64 59 66
REMARK SMILES IDX 80 67 47 68 31 69 32 70 40 71 33 72 34 73 38 74 41 75 35 76
REMARK SMILES IDX 36 77 39 78 37 79 63 80 64 81 72 82 65 83 66 84 70 85 73 86
REMARK SMILES IDX 67 87 68 88 71 89 69 90 48 91 49 92 57 93 50 94 51 95 55 96
REMARK SMILES IDX 58 97 52 98 53 99 56 100 54 101
REMARK H PARENT 3 15 3 16 78 54 46 65
REMARK Flexibility Score: inf
ROOT
ATOM      1  C   UNL A   1      32.873  30.413  26.864  1.00  0.00     0.188 C 
ENDROOT
BRANCH   1   2
ATOM      2  C   UNL A   1      32.687  28.948  27.267  1.00  0.00     0.188 C 
BRANCH   2   3
ATOM      3  O   UNL A   1      32.281  28.124  26.193  1.00  0.00    -0.376 OA
BRANCH   3   4
ATOM      4  C   UNL A   1      33.034  28.244  25.001  1.00  0.00     0.202 C 
BRANCH   4   5
ATOM      5  C   UNL A   1      33.872  27.038  24.523  1.00  0.00     0.261 C 
BRANCH   5   6
ATOM      6  O   UNL A   1      33.244  25.736  24.540  1.00  0.00    -0.459 OA
BRANCH   6   7
ATOM      7  C   UNL A   1      33.888  24.742  23.877  1.00  0.00     0.368 C 
ATOM      8  O   UNL A   1      34.263  24.873  22.713  1.00  0.00    -0.245 OA
BRANCH   7   9
ATOM      9  C   UNL A   1      34.107  23.393  24.726  1.00  0.00     0.197 C 
ATOM     10  C   UNL A   1      34.861  23.902  25.972  1.00  0.00     0.081 C 
ATOM     11  C   UNL A   1      35.120  22.317  24.160  1.00  0.00     0.064 C 
ATOM     12  C   UNL A   1      36.287  24.092  25.458  1.00  0.00     0.008 C 
ATOM     13  C   UNL A   1      36.508  22.964  24.456  1.00  0.00     0.011 C 
BRANCH   9  14
ATOM     14  N   UNL A   1      32.737  22.907  24.929  1.00  0.00    -0.332 N 
ATOM     15  H   UNL A   1      32.137  23.458  24.315  1.00  0.00     0.347 HD
ATOM     16  H   UNL A   1      32.817  21.908  24.741  1.00  0.00     0.347 HD
BRANCH  14  17
ATOM     17  C   UNL A   1      32.136  22.945  26.242  1.00  0.00     0.257 C 
ATOM     18  C   UNL A   1      30.684  22.481  26.143  1.00  0.00     0.071 C 
ENDBRANCH  14  17
ENDBRANCH   9  14
BRANCH  11  19
ATOM     19  C   UNL A   1      35.194  20.867  24.759  1.00  0.00     0.033 C 
BRANCH  19  20
ATOM     20  C   UNL A   1      33.984  20.023  25.204  1.00  0.00     0.129 C 
BRANCH  20  21
ATOM     21  N   UNL A   1      33.448  18.995  24.333  1.00  0.00    -0.283 N 
ATOM     22  C   UNL A   1      32.611  19.251  23.282  1.00  0.00     0.229 C 
ATOM     23  C   UNL A   1      34.019  17.760  24.242  1.00  0.00     0.229 C 
ATOM     24  O   UNL A   1      32.049  20.306  23.029  1.00  0.00    -0.274 OA
ATOM     25  C   UNL A   1      32.535  18.037  22.401  1.00  0.00     0.110 C 
ATOM     26  C   UNL A   1      33.512  17.059  23.020  1.00  0.00     0.110 C 
ATOM     27  O   UNL A   1      34.859  17.288  24.995  1.00  0.00    -0.274 OA
ENDBRANCH  20  21
ENDBRANCH  19  20
ENDBRANCH  11  19
ENDBRANCH   7   9
ENDBRANCH   6   7
ENDBRANCH   5   6
ENDBRANCH   4   5
ENDBRANCH   3   4
ENDBRANCH   2   3
ENDBRANCH   1   2
BRANCH   1  28
ATOM     28  O   UNL A   1      33.976  31.182  27.335  1.00  0.00    -0.377 OA
BRANCH  28  29
ATOM     29  C   UNL A   1      33.782  32.179  28.332  1.00  0.00     0.188 C 
BRANCH  29  30
ATOM     30  C   UNL A   1      33.784  33.662  27.920  1.00  0.00     0.188 C 
BRANCH  30  31
ATOM     31  O   UNL A   1      32.792  34.454  28.544  1.00  0.00    -0.376 OA
BRANCH  31  32
ATOM     32  C   UNL A   1      33.064  35.831  28.754  1.00  0.00     0.202 C 
BRANCH  32  33
ATOM     33  C   UNL A   1      32.670  36.477  30.094  1.00  0.00     0.261 C 
BRANCH  33  34
ATOM     34  O   UNL A   1      32.413  35.582  31.184  1.00  0.00    -0.460 OA
BRANCH  34  35
ATOM     35  C   UNL A   1      32.972  35.869  32.374  1.00  0.00     0.338 C 
ATOM     36  O   UNL A   1      32.514  36.568  33.266  1.00  0.00    -0.246 OA
BRANCH  35  37
ATOM     37  C   UNL A   1      34.156  35.008  32.508  1.00  0.00     0.060 A 
ATOM     38  C   UNL A   1      34.029  33.800  33.205  1.00  0.00     0.016 A 
ATOM     39  C   UNL A   1      35.375  35.382  31.937  1.00  0.00     0.016 A 
ATOM     40  C   UNL A   1      35.136  32.978  33.370  1.00  0.00     0.010 A 
ATOM     41  C   UNL A   1      36.494  34.571  32.129  1.00  0.00     0.010 A 
ATOM     42  C   UNL A   1      36.384  33.391  32.883  1.00  0.00    -0.014 A 
BRANCH  42  43
ATOM     43  C   UNL A   1      37.589  32.708  33.398  1.00  0.00     0.031 A 
ATOM     44  C   UNL A   1      38.235  31.674  32.519  1.00  0.00     0.074 A 
ATOM     45  C   UNL A   1      38.145  33.069  34.567  1.00  0.00     0.049 A 
ATOM     46  N   UNL A   1      39.320  30.972  32.717  1.00  0.00    -0.248 NA
ATOM     47  C   UNL A   1      37.567  31.400  31.235  1.00  0.00     0.031 C 
ATOM     48  C   UNL A   1      37.628  34.098  35.465  1.00  0.00     0.029 A 
ATOM     49  N   UNL A   1      39.277  32.610  35.189  1.00  0.00    -0.354 N 
ATOM     50  C   UNL A   1      39.461  30.176  31.587  1.00  0.00     0.074 A 
ATOM     51  C   UNL A   1      38.334  30.451  30.725  1.00  0.00     0.031 C 
ATOM     52  C   UNL A   1      38.444  34.195  36.529  1.00  0.00     0.029 A 
ATOM     53  C   UNL A   1      39.520  33.214  36.398  1.00  0.00     0.049 A 
ATOM     54  H   UNL A   1      39.860  31.916  34.805  1.00  0.00     0.167 HD
ATOM     55  C   UNL A   1      40.451  29.304  31.291  1.00  0.00     0.037 A 
ATOM     56  C   UNL A   1      40.495  32.980  37.296  1.00  0.00     0.037 A 
ATOM     57  C   UNL A   1      41.565  29.036  32.162  1.00  0.00     0.049 A 
ATOM     58  C   UNL A   1      41.545  31.945  36.977  1.00  0.00     0.074 A 
ATOM     59  C   UNL A   1      42.627  28.174  31.965  1.00  0.00     0.029 A 
ATOM     60  N   UNL A   1      41.752  29.627  33.404  1.00  0.00    -0.354 N 
ATOM     61  N   UNL A   1      41.685  31.207  35.900  1.00  0.00    -0.248 NA
ATOM     62  C   UNL A   1      42.579  31.717  37.996  1.00  0.00     0.031 C 
ATOM     63  C   UNL A   1      43.422  28.192  33.116  1.00  0.00     0.029 A 
ATOM     64  C   UNL A   1      42.897  29.124  33.999  1.00  0.00     0.049 A 
ATOM     65  H   UNL A   1      41.158  30.303  33.803  1.00  0.00     0.167 HD
ATOM     66  C   UNL A   1      42.835  30.453  36.098  1.00  0.00     0.074 A 
ATOM     67  C   UNL A   1      43.365  30.839  37.390  1.00  0.00     0.031 C 
ATOM     68  C   UNL A   1      43.405  29.527  35.287  1.00  0.00     0.037 A 
BRANCH  55  69
ATOM     69  C   UNL A   1      40.346  28.548  29.997  1.00  0.00     0.064 A 
ATOM     70  C   UNL A   1      40.953  29.005  28.817  1.00  0.00     0.173 A 
ATOM     71  C   UNL A   1      39.638  27.338  29.941  1.00  0.00     0.173 A 
ATOM     72  F   UNL A   1      41.625  30.167  28.809  1.00  0.00    -0.203 F 
ATOM     73  C   UNL A   1      40.828  28.296  27.625  1.00  0.00     0.198 A 
ATOM     74  C   UNL A   1      39.545  26.614  28.757  1.00  0.00     0.198 A 
ATOM     75  F   UNL A   1      39.037  26.856  31.039  1.00  0.00    -0.203 F 
ATOM     76  F   UNL A   1      41.366  28.782  26.498  1.00  0.00    -0.200 F 
ATOM     77  C   UNL A   1      40.132  27.097  27.597  1.00  0.00     0.200 A 
ATOM     78  F   UNL A   1      38.882  25.450  28.735  1.00  0.00    -0.200 F 
ATOM     79  F   UNL A   1      40.019  26.412  26.451  1.00  0.00    -0.200 F 
ENDBRANCH  55  69
BRANCH  56  80
ATOM     80  C   UNL A   1      40.521  33.728  38.582  1.00  0.00     0.064 A 
ATOM     81  C   UNL A   1      41.393  34.807  38.783  1.00  0.00     0.173 A 
ATOM     82  C   UNL A   1      39.687  33.360  39.649  1.00  0.00     0.173 A 
ATOM     83  F   UNL A   1      42.229  35.184  37.804  1.00  0.00    -0.203 F 
ATOM     84  C   UNL A   1      41.447  35.472  40.007  1.00  0.00     0.198 A 
ATOM     85  C   UNL A   1      39.718  34.048  40.860  1.00  0.00     0.198 A 
ATOM     86  F   UNL A   1      38.834  32.334  39.513  1.00  0.00    -0.203 F 
ATOM     87  F   UNL A   1      42.329  36.464  40.189  1.00  0.00    -0.200 F 
ATOM     88  C   UNL A   1      40.605  35.096  41.042  1.00  0.00     0.200 A 
ATOM     89  F   UNL A   1      38.890  33.690  41.852  1.00  0.00    -0.200 F 
ATOM     90  F   UNL A   1      40.655  35.739  42.217  1.00  0.00    -0.200 F 
ENDBRANCH  56  80
BRANCH  68  91
ATOM     91  C   UNL A   1      44.689  28.900  35.755  1.00  0.00     0.064 A 
ATOM     92  C   UNL A   1      45.939  29.472  35.476  1.00  0.00     0.173 A 
ATOM     93  C   UNL A   1      44.664  27.722  36.517  1.00  0.00     0.173 A 
ATOM     94  F   UNL A   1      46.021  30.593  34.742  1.00  0.00    -0.203 F 
ATOM     95  C   UNL A   1      47.117  28.864  35.905  1.00  0.00     0.198 A 
ATOM     96  C   UNL A   1      45.840  27.140  36.979  1.00  0.00     0.198 A 
ATOM     97  F   UNL A   1      43.495  27.139  36.825  1.00  0.00    -0.203 F 
ATOM     98  F   UNL A   1      48.301  29.392  35.567  1.00  0.00    -0.200 F 
ATOM     99  C   UNL A   1      47.066  27.704  36.661  1.00  0.00     0.200 A 
ATOM    100  F   UNL A   1      45.788  26.029  37.728  1.00  0.00    -0.200 F 
ATOM    101  F   UNL A   1      48.200  27.122  37.077  1.00  0.00    -0.200 F 
ENDBRANCH  68  91
ENDBRANCH  42  43
ENDBRANCH  35  37
ENDBRANCH  34  35
ENDBRANCH  33  34
ENDBRANCH  32  33
ENDBRANCH  31  32
ENDBRANCH  30  31
ENDBRANCH  29  30
ENDBRANCH  28  29
ENDBRANCH   1  28
TORSDOF 25
ENDMDL
