MODEL 1
REMARK VINA RESULT:     -10.7      0.000      0.000
REMARK SMILES CC(C)c1ccc2c(c1)C(=O)C[C@@H]1[C@@]2(C)CCC[C@]1(C)C(=O)OCCOCCOCCOCCOC(=O)c1ccc(-c2c3nc(c(-c4c(F)c(F)c(F)c(F)c4F)c4ccc([nH]4)c(-c4c(F)c(F)c(F)c(F)c4F)c4nc(c(-c5c(F)c(F)c(F)c(F)c5F)c5ccc2[nH]5)C=C4)C=C3)cc1
REMARK SMILES IDX 30 1 29 2 28 3 27 4 26 5 25 6 24 7 23 8 21 9 22 10 19 11
REMARK SMILES IDX 4 12 5 13 9 14 6 15 8 16 7 17 10 18 14 19 12 20 11 21 13 22
REMARK SMILES IDX 16 23 15 24 17 25 18 26 20 27 2 28 1 29 3 30 31 31 32 32
REMARK SMILES IDX 33 33 34 34 35 35 36 36 37 37 38 38 39 39 100 40 40 41 99 42
REMARK SMILES IDX 41 43 42 44 43 45 93 46 44 47 98 48 92 49 94 50 45 51 97 52
REMARK SMILES IDX 91 53 90 54 46 56 78 57 58 58 77 59 59 60 62 61 76 62 95 63
REMARK SMILES IDX 60 64 61 65 75 67 96 68 63 69 47 70 48 71 56 72 49 73 50 74
REMARK SMILES IDX 54 75 57 76 51 77 52 78 55 79 53 80 79 81 80 82 88 83 81 84
REMARK SMILES IDX 82 85 86 86 89 87 83 88 84 89 87 90 85 91 64 92 65 93 73 94
REMARK SMILES IDX 66 95 67 96 71 97 74 98 68 99 69 100 72 101 70 102
REMARK H PARENT 94 55 62 66
REMARK Flexibility Score: inf
ROOT
ATOM      1  C   UNL A   1      35.741  32.190  31.968  1.00  0.00     0.188 C 
ENDROOT
BRANCH   1   2
ATOM      2  O   UNL A   1      35.907  32.651  30.634  1.00  0.00    -0.377 OA
BRANCH   2   3
ATOM      3  C   UNL A   1      34.728  32.736  29.834  1.00  0.00     0.188 C 
BRANCH   3   4
ATOM      4  C   UNL A   1      34.973  32.918  28.335  1.00  0.00     0.188 C 
BRANCH   4   5
ATOM      5  O   UNL A   1      35.510  31.763  27.703  1.00  0.00    -0.376 OA
BRANCH   5   6
ATOM      6  C   UNL A   1      34.980  30.524  28.190  1.00  0.00     0.202 C 
BRANCH   6   7
ATOM      7  C   UNL A   1      34.711  29.402  27.140  1.00  0.00     0.261 C 
BRANCH   7   8
ATOM      8  O   UNL A   1      33.695  28.361  27.312  1.00  0.00    -0.463 OA
BRANCH   8   9
ATOM      9  C   UNL A   1      32.436  28.523  26.835  1.00  0.00     0.312 C 
ATOM     10  O   UNL A   1      31.438  28.460  27.537  1.00  0.00    -0.252 OA
BRANCH   9  11
ATOM     11  C   UNL A   1      32.365  28.620  25.293  1.00  0.00     0.069 C 
ATOM     12  C   UNL A   1      34.206  22.251  24.882  1.00  0.00    -0.045 A 
ATOM     13  C   UNL A   1      34.427  22.880  23.655  1.00  0.00     0.004 A 
ATOM     14  C   UNL A   1      33.329  22.866  25.769  1.00  0.00     0.016 A 
ATOM     15  C   UNL A   1      33.822  24.114  23.353  1.00  0.00     0.005 A 
ATOM     16  C   UNL A   1      32.716  24.086  25.444  1.00  0.00     0.022 A 
ATOM     17  C   UNL A   1      32.983  24.784  24.268  1.00  0.00    -0.031 A 
ATOM     18  C   UNL A   1      31.779  24.632  26.411  1.00  0.00     0.163 C 
ATOM     19  C   UNL A   1      32.309  26.141  23.941  1.00  0.00    -0.002 C 
ATOM     20  C   UNL A   1      31.678  26.111  26.446  1.00  0.00     0.086 C 
ATOM     21  O   UNL A   1      31.284  23.930  27.290  1.00  0.00    -0.294 OA
ATOM     22  C   UNL A   1      31.715  26.989  25.178  1.00  0.00     0.024 C 
ATOM     23  C   UNL A   1      33.334  27.019  23.186  1.00  0.00     0.012 C 
ATOM     24  C   UNL A   1      31.112  25.781  23.019  1.00  0.00     0.017 C 
ATOM     25  C   UNL A   1      32.803  28.371  22.785  1.00  0.00     0.002 C 
ATOM     26  C   UNL A   1      31.904  28.979  23.835  1.00  0.00     0.019 C 
ATOM     27  C   UNL A   1      31.677  30.126  25.713  1.00  0.00     0.024 C 
BRANCH  12  28
ATOM     28  C   UNL A   1      34.866  20.951  25.294  1.00  0.00     0.013 C 
ATOM     29  C   UNL A   1      34.196  19.729  24.667  1.00  0.00     0.012 C 
ATOM     30  C   UNL A   1      36.368  20.986  25.006  1.00  0.00     0.012 C 
ENDBRANCH  12  28
ENDBRANCH   9  11
ENDBRANCH   8   9
ENDBRANCH   7   8
ENDBRANCH   6   7
ENDBRANCH   5   6
ENDBRANCH   4   5
ENDBRANCH   3   4
ENDBRANCH   2   3
ENDBRANCH   1   2
BRANCH   1  31
ATOM     31  C   UNL A   1      34.610  32.882  32.729  1.00  0.00     0.188 C 
BRANCH  31  32
ATOM     32  O   UNL A   1      34.832  33.272  34.088  1.00  0.00    -0.376 OA
BRANCH  32  33
ATOM     33  C   UNL A   1      35.897  34.162  34.408  1.00  0.00     0.202 C 
BRANCH  33  34
ATOM     34  C   UNL A   1      36.933  33.600  35.377  1.00  0.00     0.261 C 
BRANCH  34  35
ATOM     35  O   UNL A   1      37.141  32.193  35.206  1.00  0.00    -0.460 OA
BRANCH  35  36
ATOM     36  C   UNL A   1      38.305  31.712  35.693  1.00  0.00     0.338 C 
ATOM     37  O   UNL A   1      38.683  31.689  36.857  1.00  0.00    -0.246 OA
BRANCH  36  38
ATOM     38  C   UNL A   1      39.036  31.064  34.589  1.00  0.00     0.060 A 
ATOM     39  C   UNL A   1      38.766  31.425  33.268  1.00  0.00     0.016 A 
ATOM     40  C   UNL A   1      40.022  30.111  34.883  1.00  0.00     0.016 A 
ATOM     41  C   UNL A   1      39.533  30.881  32.242  1.00  0.00     0.010 A 
ATOM     42  C   UNL A   1      40.780  29.554  33.856  1.00  0.00     0.010 A 
ATOM     43  C   UNL A   1      40.572  29.981  32.539  1.00  0.00    -0.014 A 
BRANCH  43  44
ATOM     44  C   UNL A   1      41.599  29.721  31.513  1.00  0.00     0.031 A 
ATOM     45  C   UNL A   1      42.827  30.555  31.387  1.00  0.00     0.074 A 
ATOM     46  C   UNL A   1      41.378  28.673  30.696  1.00  0.00     0.049 A 
ATOM     47  N   UNL A   1      43.866  30.363  30.616  1.00  0.00    -0.248 NA
ATOM     48  C   UNL A   1      42.904  31.761  32.223  1.00  0.00     0.031 C 
ATOM     49  C   UNL A   1      40.179  27.831  30.726  1.00  0.00     0.029 A 
ATOM     50  N   UNL A   1      42.146  28.124  29.705  1.00  0.00    -0.354 N 
ATOM     51  C   UNL A   1      44.738  31.404  30.894  1.00  0.00     0.074 A 
ATOM     52  C   UNL A   1      44.083  32.256  31.865  1.00  0.00     0.031 C 
ATOM     53  C   UNL A   1      40.310  26.847  29.826  1.00  0.00     0.029 A 
ATOM     54  C   UNL A   1      41.584  27.007  29.138  1.00  0.00     0.049 A 
ATOM     55  H   UNL A   1      43.014  28.494  29.426  1.00  0.00     0.167 HD
ATOM     56  C   UNL A   1      45.980  31.601  30.390  1.00  0.00     0.037 A 
ATOM     57  C   UNL A   1      42.054  26.193  28.176  1.00  0.00     0.037 A 
ATOM     58  C   UNL A   1      46.595  30.746  29.404  1.00  0.00     0.049 A 
ATOM     59  C   UNL A   1      43.416  26.468  27.608  1.00  0.00     0.074 A 
ATOM     60  C   UNL A   1      47.859  30.843  28.850  1.00  0.00     0.029 A 
ATOM     61  N   UNL A   1      45.984  29.647  28.814  1.00  0.00    -0.354 N 
ATOM     62  N   UNL A   1      44.274  27.404  27.938  1.00  0.00    -0.248 NA
ATOM     63  C   UNL A   1      43.879  25.574  26.540  1.00  0.00     0.031 C 
ATOM     64  C   UNL A   1      47.992  29.841  27.885  1.00  0.00     0.029 A 
ATOM     65  C   UNL A   1      46.835  29.078  27.879  1.00  0.00     0.049 A 
ATOM     66  H   UNL A   1      45.081  29.320  29.028  1.00  0.00     0.167 HD
ATOM     67  C   UNL A   1      45.386  27.202  27.134  1.00  0.00     0.074 A 
ATOM     68  C   UNL A   1      45.102  26.037  26.318  1.00  0.00     0.031 C 
ATOM     69  C   UNL A   1      46.534  27.918  27.073  1.00  0.00     0.037 A 
BRANCH  56  70
ATOM     70  C   UNL A   1      46.769  32.771  30.899  1.00  0.00     0.064 A 
ATOM     71  C   UNL A   1      46.730  34.013  30.247  1.00  0.00     0.173 A 
ATOM     72  C   UNL A   1      47.490  32.683  32.099  1.00  0.00     0.173 A 
ATOM     73  F   UNL A   1      46.061  34.150  29.092  1.00  0.00    -0.203 F 
ATOM     74  C   UNL A   1      47.391  35.121  30.774  1.00  0.00     0.198 A 
ATOM     75  C   UNL A   1      48.127  33.800  32.637  1.00  0.00     0.198 A 
ATOM     76  F   UNL A   1      47.556  31.522  32.767  1.00  0.00    -0.203 F 
ATOM     77  F   UNL A   1      47.361  36.290  30.119  1.00  0.00    -0.200 F 
ATOM     78  C   UNL A   1      48.078  35.016  31.974  1.00  0.00     0.200 A 
ATOM     79  F   UNL A   1      48.777  33.701  33.805  1.00  0.00    -0.200 F 
ATOM     80  F   UNL A   1      48.694  36.088  32.489  1.00  0.00    -0.200 F 
ENDBRANCH  56  70
BRANCH  57  81
ATOM     81  C   UNL A   1      41.243  25.031  27.736  1.00  0.00     0.064 A 
ATOM     82  C   UNL A   1      41.519  23.740  28.205  1.00  0.00     0.173 A 
ATOM     83  C   UNL A   1      40.153  25.190  26.866  1.00  0.00     0.173 A 
ATOM     84  F   UNL A   1      42.556  23.535  29.031  1.00  0.00    -0.203 F 
ATOM     85  C   UNL A   1      40.746  22.650  27.809  1.00  0.00     0.198 A 
ATOM     86  C   UNL A   1      39.363  24.105  26.496  1.00  0.00     0.198 A 
ATOM     87  F   UNL A   1      39.840  26.407  26.398  1.00  0.00    -0.203 F 
ATOM     88  F   UNL A   1      41.056  21.421  28.243  1.00  0.00    -0.200 F 
ATOM     89  C   UNL A   1      39.664  22.835  26.962  1.00  0.00     0.200 A 
ATOM     90  F   UNL A   1      38.306  24.292  25.694  1.00  0.00    -0.200 F 
ATOM     91  F   UNL A   1      38.915  21.788  26.590  1.00  0.00    -0.200 F 
ENDBRANCH  57  81
BRANCH  69  92
ATOM     92  C   UNL A   1      47.578  27.464  26.095  1.00  0.00     0.064 A 
ATOM     93  C   UNL A   1      47.543  27.858  24.750  1.00  0.00     0.173 A 
ATOM     94  C   UNL A   1      48.663  26.682  26.523  1.00  0.00     0.173 A 
ATOM     95  F   UNL A   1      46.519  28.592  24.288  1.00  0.00    -0.203 F 
ATOM     96  C   UNL A   1      48.546  27.473  23.865  1.00  0.00     0.198 A 
ATOM     97  C   UNL A   1      49.681  26.328  25.644  1.00  0.00     0.198 A 
ATOM     98  F   UNL A   1      48.748  26.284  27.801  1.00  0.00    -0.203 F 
ATOM     99  F   UNL A   1      48.470  27.827  22.575  1.00  0.00    -0.200 F 
ATOM    100  C   UNL A   1      49.619  26.719  24.315  1.00  0.00     0.200 A 
ATOM    101  F   UNL A   1      50.728  25.616  26.084  1.00  0.00    -0.200 F 
ATOM    102  F   UNL A   1      50.594  26.368  23.466  1.00  0.00    -0.200 F 
ENDBRANCH  69  92
ENDBRANCH  43  44
ENDBRANCH  36  38
ENDBRANCH  35  36
ENDBRANCH  34  35
ENDBRANCH  33  34
ENDBRANCH  32  33
ENDBRANCH  31  32
ENDBRANCH   1  31
TORSDOF 21
ENDMDL
MODEL 2
REMARK VINA RESULT:     -10.7      4.577      7.267
REMARK SMILES CC(C)c1ccc2c(c1)C(=O)C[C@@H]1[C@@]2(C)CCC[C@]1(C)C(=O)OCCOCCOCCOCCOC(=O)c1ccc(-c2c3nc(c(-c4c(F)c(F)c(F)c(F)c4F)c4ccc([nH]4)c(-c4c(F)c(F)c(F)c(F)c4F)c4nc(c(-c5c(F)c(F)c(F)c(F)c5F)c5ccc2[nH]5)C=C4)C=C3)cc1
REMARK SMILES IDX 30 1 29 2 28 3 27 4 26 5 25 6 24 7 23 8 21 9 22 10 19 11
REMARK SMILES IDX 4 12 5 13 9 14 6 15 8 16 7 17 10 18 14 19 12 20 11 21 13 22
REMARK SMILES IDX 16 23 15 24 17 25 18 26 20 27 2 28 1 29 3 30 31 31 32 32
REMARK SMILES IDX 33 33 34 34 35 35 36 36 37 37 38 38 39 39 100 40 40 41 99 42
REMARK SMILES IDX 41 43 42 44 43 45 93 46 44 47 98 48 92 49 94 50 45 51 97 52
REMARK SMILES IDX 91 53 90 54 46 56 78 57 58 58 77 59 59 60 62 61 76 62 95 63
REMARK SMILES IDX 60 64 61 65 75 67 96 68 63 69 47 70 48 71 56 72 49 73 50 74
REMARK SMILES IDX 54 75 57 76 51 77 52 78 55 79 53 80 79 81 80 82 88 83 81 84
REMARK SMILES IDX 82 85 86 86 89 87 83 88 84 89 87 90 85 91 64 92 65 93 73 94
REMARK SMILES IDX 66 95 67 96 71 97 74 98 68 99 69 100 72 101 70 102
REMARK H PARENT 94 55 62 66
REMARK Flexibility Score: inf
ROOT
ATOM      1  C   UNL A   1      35.442  31.774  28.951  1.00  0.00     0.188 C 
ENDROOT
BRANCH   1   2
ATOM      2  O   UNL A   1      35.274  31.289  27.626  1.00  0.00    -0.377 OA
BRANCH   2   3
ATOM      3  C   UNL A   1      34.069  30.572  27.354  1.00  0.00     0.188 C 
BRANCH   3   4
ATOM      4  C   UNL A   1      34.263  29.190  26.730  1.00  0.00     0.188 C 
BRANCH   4   5
ATOM      5  O   UNL A   1      33.328  28.895  25.700  1.00  0.00    -0.376 OA
BRANCH   5   6
ATOM      6  C   UNL A   1      31.980  28.728  26.157  1.00  0.00     0.202 C 
BRANCH   6   7
ATOM      7  C   UNL A   1      31.638  27.400  26.900  1.00  0.00     0.261 C 
BRANCH   7   8
ATOM      8  O   UNL A   1      31.783  26.074  26.292  1.00  0.00    -0.463 OA
BRANCH   8   9
ATOM      9  C   UNL A   1      30.921  25.641  25.339  1.00  0.00     0.312 C 
ATOM     10  O   UNL A   1      29.933  24.965  25.584  1.00  0.00    -0.252 OA
BRANCH   9  11
ATOM     11  C   UNL A   1      31.395  25.929  23.896  1.00  0.00     0.069 C 
ATOM     12  C   UNL A   1      36.468  21.738  24.805  1.00  0.00    -0.045 A 
ATOM     13  C   UNL A   1      36.743  22.574  23.720  1.00  0.00     0.004 A 
ATOM     14  C   UNL A   1      35.142  21.628  25.210  1.00  0.00     0.016 A 
ATOM     15  C   UNL A   1      35.720  23.313  23.097  1.00  0.00     0.005 A 
ATOM     16  C   UNL A   1      34.130  22.355  24.564  1.00  0.00     0.022 A 
ATOM     17  C   UNL A   1      34.381  23.264  23.538  1.00  0.00    -0.031 A 
ATOM     18  C   UNL A   1      32.768  22.142  25.023  1.00  0.00     0.163 C 
ATOM     19  C   UNL A   1      33.249  24.071  22.853  1.00  0.00    -0.002 C 
ATOM     20  C   UNL A   1      31.854  23.302  24.888  1.00  0.00     0.086 C 
ATOM     21  O   UNL A   1      32.463  21.154  25.687  1.00  0.00    -0.294 OA
ATOM     22  C   UNL A   1      31.870  24.250  23.671  1.00  0.00     0.024 C 
ATOM     23  C   UNL A   1      33.800  25.472  22.500  1.00  0.00     0.012 C 
ATOM     24  C   UNL A   1      32.913  23.274  21.563  1.00  0.00     0.017 C 
ATOM     25  C   UNL A   1      32.804  26.364  21.806  1.00  0.00     0.002 C 
ATOM     26  C   UNL A   1      31.404  26.210  22.351  1.00  0.00     0.019 C 
ATOM     27  C   UNL A   1      29.888  26.732  23.875  1.00  0.00     0.024 C 
BRANCH  12  28
ATOM     28  C   UNL A   1      37.526  20.957  25.557  1.00  0.00     0.013 C 
ATOM     29  C   UNL A   1      37.848  19.618  24.894  1.00  0.00     0.012 C 
ATOM     30  C   UNL A   1      38.783  21.803  25.767  1.00  0.00     0.012 C 
ENDBRANCH  12  28
ENDBRANCH   9  11
ENDBRANCH   8   9
ENDBRANCH   7   8
ENDBRANCH   6   7
ENDBRANCH   5   6
ENDBRANCH   4   5
ENDBRANCH   3   4
ENDBRANCH   2   3
ENDBRANCH   1   2
BRANCH   1  31
ATOM     31  C   UNL A   1      35.682  33.282  29.035  1.00  0.00     0.188 C 
BRANCH  31  32
ATOM     32  O   UNL A   1      35.088  34.130  28.046  1.00  0.00    -0.376 OA
BRANCH  32  33
ATOM     33  C   UNL A   1      34.193  35.164  28.440  1.00  0.00     0.202 C 
BRANCH  33  34
ATOM     34  C   UNL A   1      33.294  34.818  29.624  1.00  0.00     0.261 C 
BRANCH  34  35
ATOM     35  O   UNL A   1      33.505  35.683  30.746  1.00  0.00    -0.460 OA
BRANCH  35  36
ATOM     36  C   UNL A   1      33.168  35.170  31.950  1.00  0.00     0.338 C 
ATOM     37  O   UNL A   1      32.046  34.959  32.391  1.00  0.00    -0.246 OA
BRANCH  36  38
ATOM     38  C   UNL A   1      34.403  34.754  32.638  1.00  0.00     0.060 A 
ATOM     39  C   UNL A   1      34.391  33.638  33.476  1.00  0.00     0.016 A 
ATOM     40  C   UNL A   1      35.588  35.470  32.417  1.00  0.00     0.016 A 
ATOM     41  C   UNL A   1      35.584  33.196  34.039  1.00  0.00     0.010 A 
ATOM     42  C   UNL A   1      36.780  35.039  32.993  1.00  0.00     0.010 A 
ATOM     43  C   UNL A   1      36.787  33.868  33.760  1.00  0.00    -0.014 A 
BRANCH  43  44
ATOM     44  C   UNL A   1      38.064  33.181  34.038  1.00  0.00     0.031 A 
ATOM     45  C   UNL A   1      38.861  33.452  35.267  1.00  0.00     0.074 A 
ATOM     46  C   UNL A   1      38.469  32.278  33.126  1.00  0.00     0.049 A 
ATOM     47  N   UNL A   1      39.931  32.834  35.696  1.00  0.00    -0.248 NA
ATOM     48  C   UNL A   1      38.413  34.559  36.124  1.00  0.00     0.031 C 
ATOM     49  C   UNL A   1      37.766  31.985  31.874  1.00  0.00     0.029 A 
ATOM     50  N   UNL A   1      39.545  31.432  33.110  1.00  0.00    -0.354 N 
ATOM     51  C   UNL A   1      40.269  33.452  36.890  1.00  0.00     0.074 A 
ATOM     52  C   UNL A   1      39.323  34.531  37.090  1.00  0.00     0.031 C 
ATOM     53  C   UNL A   1      38.404  30.996  31.232  1.00  0.00     0.029 A 
ATOM     54  C   UNL A   1      39.573  30.609  32.011  1.00  0.00     0.049 A 
ATOM     55  H   UNL A   1      40.230  31.414  33.817  1.00  0.00     0.167 HD
ATOM     56  C   UNL A   1      41.270  33.119  37.739  1.00  0.00     0.037 A 
ATOM     57  C   UNL A   1      40.443  29.640  31.676  1.00  0.00     0.037 A 
ATOM     58  C   UNL A   1      42.212  32.054  37.499  1.00  0.00     0.049 A 
ATOM     59  C   UNL A   1      41.567  29.329  32.621  1.00  0.00     0.074 A 
ATOM     60  C   UNL A   1      43.245  31.618  38.310  1.00  0.00     0.029 A 
ATOM     61  N   UNL A   1      42.246  31.267  36.354  1.00  0.00    -0.354 N 
ATOM     62  N   UNL A   1      41.831  29.857  33.792  1.00  0.00    -0.248 NA
ATOM     63  C   UNL A   1      42.511  28.285  32.204  1.00  0.00     0.031 C 
ATOM     64  C   UNL A   1      43.938  30.610  37.634  1.00  0.00     0.029 A 
ATOM     65  C   UNL A   1      43.301  30.371  36.426  1.00  0.00     0.049 A 
ATOM     66  H   UNL A   1      41.613  31.335  35.604  1.00  0.00     0.167 HD
ATOM     67  C   UNL A   1      42.958  29.199  34.262  1.00  0.00     0.074 A 
ATOM     68  C   UNL A   1      43.312  28.214  33.259  1.00  0.00     0.031 C 
ATOM     69  C   UNL A   1      43.640  29.397  35.416  1.00  0.00     0.037 A 
BRANCH  56  70
ATOM     70  C   UNL A   1      41.398  33.897  39.016  1.00  0.00     0.064 A 
ATOM     71  C   UNL A   1      40.805  33.447  40.205  1.00  0.00     0.173 A 
ATOM     72  C   UNL A   1      42.200  35.047  39.078  1.00  0.00     0.173 A 
ATOM     73  F   UNL A   1      40.022  32.358  40.200  1.00  0.00    -0.203 F 
ATOM     74  C   UNL A   1      41.003  34.124  41.407  1.00  0.00     0.198 A 
ATOM     75  C   UNL A   1      42.418  35.706  40.287  1.00  0.00     0.198 A 
ATOM     76  F   UNL A   1      42.796  35.518  37.972  1.00  0.00    -0.203 F 
ATOM     77  F   UNL A   1      40.404  33.690  42.524  1.00  0.00    -0.200 F 
ATOM     78  C   UNL A   1      41.819  35.245  41.448  1.00  0.00     0.200 A 
ATOM     79  F   UNL A   1      43.219  36.779  40.328  1.00  0.00    -0.200 F 
ATOM     80  F   UNL A   1      42.025  35.881  42.609  1.00  0.00    -0.200 F 
ENDBRANCH  56  70
BRANCH  57  81
ATOM     81  C   UNL A   1      40.247  28.881  30.416  1.00  0.00     0.064 A 
ATOM     82  C   UNL A   1      40.782  29.342  29.206  1.00  0.00     0.173 A 
ATOM     83  C   UNL A   1      39.554  27.661  30.400  1.00  0.00     0.173 A 
ATOM     84  F   UNL A   1      41.446  30.508  29.168  1.00  0.00    -0.203 F 
ATOM     85  C   UNL A   1      40.617  28.621  28.025  1.00  0.00     0.198 A 
ATOM     86  C   UNL A   1      39.416  26.926  29.225  1.00  0.00     0.198 A 
ATOM     87  F   UNL A   1      39.033  27.170  31.534  1.00  0.00    -0.203 F 
ATOM     88  F   UNL A   1      41.105  29.105  26.876  1.00  0.00    -0.200 F 
ATOM     89  C   UNL A   1      39.941  27.410  28.038  1.00  0.00     0.200 A 
ATOM     90  F   UNL A   1      38.781  25.746  29.246  1.00  0.00    -0.200 F 
ATOM     91  F   UNL A   1      39.793  26.712  26.904  1.00  0.00    -0.200 F 
ENDBRANCH  57  81
BRANCH  69  92
ATOM     92  C   UNL A   1      44.838  28.528  35.665  1.00  0.00     0.064 A 
ATOM     93  C   UNL A   1      44.722  27.291  36.315  1.00  0.00     0.173 A 
ATOM     94  C   UNL A   1      46.103  28.904  35.187  1.00  0.00     0.173 A 
ATOM     95  F   UNL A   1      43.538  26.893  36.804  1.00  0.00    -0.203 F 
ATOM     96  C   UNL A   1      45.833  26.470  36.493  1.00  0.00     0.198 A 
ATOM     97  C   UNL A   1      47.203  28.065  35.336  1.00  0.00     0.198 A 
ATOM     98  F   UNL A   1      46.266  30.074  34.551  1.00  0.00    -0.203 F 
ATOM     99  F   UNL A   1      45.707  25.311  37.153  1.00  0.00    -0.200 F 
ATOM    100  C   UNL A   1      47.068  26.852  35.993  1.00  0.00     0.200 A 
ATOM    101  F   UNL A   1      48.393  28.427  34.834  1.00  0.00    -0.200 F 
ATOM    102  F   UNL A   1      48.131  26.051  36.146  1.00  0.00    -0.200 F 
ENDBRANCH  69  92
ENDBRANCH  43  44
ENDBRANCH  36  38
ENDBRANCH  35  36
ENDBRANCH  34  35
ENDBRANCH  33  34
ENDBRANCH  32  33
ENDBRANCH  31  32
ENDBRANCH   1  31
TORSDOF 21
ENDMDL
MODEL 3
REMARK VINA RESULT:     -10.1      2.889      7.719
REMARK SMILES CC(C)c1ccc2c(c1)C(=O)C[C@@H]1[C@@]2(C)CCC[C@]1(C)C(=O)OCCOCCOCCOCCOC(=O)c1ccc(-c2c3nc(c(-c4c(F)c(F)c(F)c(F)c4F)c4ccc([nH]4)c(-c4c(F)c(F)c(F)c(F)c4F)c4nc(c(-c5c(F)c(F)c(F)c(F)c5F)c5ccc2[nH]5)C=C4)C=C3)cc1
REMARK SMILES IDX 30 1 29 2 28 3 27 4 26 5 25 6 24 7 23 8 21 9 22 10 19 11
REMARK SMILES IDX 4 12 5 13 9 14 6 15 8 16 7 17 10 18 14 19 12 20 11 21 13 22
REMARK SMILES IDX 16 23 15 24 17 25 18 26 20 27 2 28 1 29 3 30 31 31 32 32
REMARK SMILES IDX 33 33 34 34 35 35 36 36 37 37 38 38 39 39 100 40 40 41 99 42
REMARK SMILES IDX 41 43 42 44 43 45 93 46 44 47 98 48 92 49 94 50 45 51 97 52
REMARK SMILES IDX 91 53 90 54 46 56 78 57 58 58 77 59 59 60 62 61 76 62 95 63
REMARK SMILES IDX 60 64 61 65 75 67 96 68 63 69 47 70 48 71 56 72 49 73 50 74
REMARK SMILES IDX 54 75 57 76 51 77 52 78 55 79 53 80 79 81 80 82 88 83 81 84
REMARK SMILES IDX 82 85 86 86 89 87 83 88 84 89 87 90 85 91 64 92 65 93 73 94
REMARK SMILES IDX 66 95 67 96 71 97 74 98 68 99 69 100 72 101 70 102
REMARK H PARENT 94 55 62 66
REMARK Flexibility Score: inf
ROOT
ATOM      1  C   UNL A   1      39.283  27.219  28.623  1.00  0.00     0.188 C 
ENDROOT
BRANCH   1   2
ATOM      2  O   UNL A   1      39.534  28.547  28.183  1.00  0.00    -0.377 OA
BRANCH   2   3
ATOM      3  C   UNL A   1      38.410  29.426  28.125  1.00  0.00     0.188 C 
BRANCH   3   4
ATOM      4  C   UNL A   1      37.312  29.145  29.151  1.00  0.00     0.188 C 
BRANCH   4   5
ATOM      5  O   UNL A   1      36.164  29.969  28.995  1.00  0.00    -0.376 OA
BRANCH   5   6
ATOM      6  C   UNL A   1      35.768  30.177  27.634  1.00  0.00     0.202 C 
BRANCH   6   7
ATOM      7  C   UNL A   1      34.843  29.100  26.989  1.00  0.00     0.261 C 
BRANCH   7   8
ATOM      8  O   UNL A   1      33.623  28.596  27.625  1.00  0.00    -0.463 OA
BRANCH   8   9
ATOM      9  C   UNL A   1      32.410  28.751  27.040  1.00  0.00     0.312 C 
ATOM     10  O   UNL A   1      31.354  28.654  27.647  1.00  0.00    -0.252 OA
BRANCH   9  11
ATOM     11  C   UNL A   1      32.476  28.889  25.501  1.00  0.00     0.069 C 
ATOM     12  C   UNL A   1      34.479  22.569  25.096  1.00  0.00    -0.045 A 
ATOM     13  C   UNL A   1      34.798  23.235  23.911  1.00  0.00     0.004 A 
ATOM     14  C   UNL A   1      33.513  23.144  25.916  1.00  0.00     0.016 A 
ATOM     15  C   UNL A   1      34.196  24.466  23.587  1.00  0.00     0.005 A 
ATOM     16  C   UNL A   1      32.907  24.360  25.568  1.00  0.00     0.022 A 
ATOM     17  C   UNL A   1      33.264  25.094  24.439  1.00  0.00    -0.031 A 
ATOM     18  C   UNL A   1      31.875  24.862  26.459  1.00  0.00     0.163 C 
ATOM     19  C   UNL A   1      32.595  26.448  24.087  1.00  0.00    -0.002 C 
ATOM     20  C   UNL A   1      31.741  26.337  26.523  1.00  0.00     0.086 C 
ATOM     21  O   UNL A   1      31.318  24.128  27.271  1.00  0.00    -0.294 OA
ATOM     22  C   UNL A   1      31.874  27.250  25.286  1.00  0.00     0.024 C 
ATOM     23  C   UNL A   1      33.665  27.365  23.451  1.00  0.00     0.012 C 
ATOM     24  C   UNL A   1      31.493  26.091  23.051  1.00  0.00     0.017 C 
ATOM     25  C   UNL A   1      33.144  28.717  23.038  1.00  0.00     0.002 C 
ATOM     26  C   UNL A   1      32.141  29.279  24.017  1.00  0.00     0.019 C 
ATOM     27  C   UNL A   1      31.722  30.370  25.895  1.00  0.00     0.024 C 
BRANCH  12  28
ATOM     28  C   UNL A   1      35.127  21.270  25.534  1.00  0.00     0.013 C 
ATOM     29  C   UNL A   1      34.590  20.062  24.769  1.00  0.00     0.012 C 
ATOM     30  C   UNL A   1      36.651  21.365  25.449  1.00  0.00     0.012 C 
ENDBRANCH  12  28
ENDBRANCH   9  11
ENDBRANCH   8   9
ENDBRANCH   7   8
ENDBRANCH   6   7
ENDBRANCH   5   6
ENDBRANCH   4   5
ENDBRANCH   3   4
ENDBRANCH   2   3
ENDBRANCH   1   2
BRANCH   1  31
ATOM     31  C   UNL A   1      39.584  26.149  27.573  1.00  0.00     0.188 C 
BRANCH  31  32
ATOM     32  O   UNL A   1      38.968  24.863  27.704  1.00  0.00    -0.376 OA
BRANCH  32  33
ATOM     33  C   UNL A   1      39.087  23.907  26.656  1.00  0.00     0.202 C 
BRANCH  33  34
ATOM     34  C   UNL A   1      39.793  22.611  27.047  1.00  0.00     0.261 C 
BRANCH  34  35
ATOM     35  O   UNL A   1      40.318  21.908  25.916  1.00  0.00    -0.460 OA
BRANCH  35  36
ATOM     36  C   UNL A   1      41.466  21.230  26.132  1.00  0.00     0.338 C 
ATOM     37  O   UNL A   1      41.652  20.022  26.059  1.00  0.00    -0.246 OA
BRANCH  36  38
ATOM     38  C   UNL A   1      42.549  22.207  26.346  1.00  0.00     0.060 A 
ATOM     39  C   UNL A   1      42.788  23.200  25.395  1.00  0.00     0.016 A 
ATOM     40  C   UNL A   1      43.307  22.145  27.523  1.00  0.00     0.016 A 
ATOM     41  C   UNL A   1      43.744  24.177  25.656  1.00  0.00     0.010 A 
ATOM     42  C   UNL A   1      44.276  23.112  27.779  1.00  0.00     0.010 A 
ATOM     43  C   UNL A   1      44.456  24.161  26.869  1.00  0.00    -0.014 A 
BRANCH  43  44
ATOM     44  C   UNL A   1      45.164  25.385  27.291  1.00  0.00     0.031 A 
ATOM     45  C   UNL A   1      46.524  25.729  26.791  1.00  0.00     0.074 A 
ATOM     46  C   UNL A   1      44.510  26.191  28.149  1.00  0.00     0.049 A 
ATOM     47  N   UNL A   1      47.208  26.827  26.980  1.00  0.00    -0.248 NA
ATOM     48  C   UNL A   1      47.214  24.716  25.979  1.00  0.00     0.031 C 
ATOM     49  C   UNL A   1      43.191  25.904  28.720  1.00  0.00     0.029 A 
ATOM     50  N   UNL A   1      44.842  27.410  28.673  1.00  0.00    -0.354 N 
ATOM     51  C   UNL A   1      48.396  26.656  26.287  1.00  0.00     0.074 A 
ATOM     52  C   UNL A   1      48.365  25.324  25.717  1.00  0.00     0.031 C 
ATOM     53  C   UNL A   1      42.807  26.938  29.481  1.00  0.00     0.029 A 
ATOM     54  C   UNL A   1      43.863  27.943  29.474  1.00  0.00     0.049 A 
ATOM     55  H   UNL A   1      45.699  27.861  28.493  1.00  0.00     0.167 HD
ATOM     56  C   UNL A   1      49.401  27.551  26.133  1.00  0.00     0.037 A 
ATOM     57  C   UNL A   1      43.818  29.120  30.124  1.00  0.00     0.037 A 
ATOM     58  C   UNL A   1      49.414  28.861  26.735  1.00  0.00     0.049 A 
ATOM     59  C   UNL A   1      44.971  30.068  29.967  1.00  0.00     0.074 A 
ATOM     60  C   UNL A   1      50.371  29.853  26.618  1.00  0.00     0.029 A 
ATOM     61  N   UNL A   1      48.429  29.357  27.581  1.00  0.00    -0.354 N 
ATOM     62  N   UNL A   1      46.054  29.937  29.238  1.00  0.00    -0.248 NA
ATOM     63  C   UNL A   1      44.896  31.329  30.714  1.00  0.00     0.031 C 
ATOM     64  C   UNL A   1      49.997  30.923  27.436  1.00  0.00     0.029 A 
ATOM     65  C   UNL A   1      48.774  30.627  28.017  1.00  0.00     0.049 A 
ATOM     66  H   UNL A   1      47.608  28.877  27.832  1.00  0.00     0.167 HD
ATOM     67  C   UNL A   1      46.781  31.103  29.422  1.00  0.00     0.074 A 
ATOM     68  C   UNL A   1      46.002  31.942  30.312  1.00  0.00     0.031 C 
ATOM     69  C   UNL A   1      47.985  31.446  28.906  1.00  0.00     0.037 A 
BRANCH  56  70
ATOM     70  C   UNL A   1      50.566  27.160  25.273  1.00  0.00     0.064 A 
ATOM     71  C   UNL A   1      50.551  27.373  23.886  1.00  0.00     0.173 A 
ATOM     72  C   UNL A   1      51.746  26.660  25.846  1.00  0.00     0.173 A 
ATOM     73  F   UNL A   1      49.446  27.842  23.286  1.00  0.00    -0.203 F 
ATOM     74  C   UNL A   1      51.670  27.094  23.104  1.00  0.00     0.198 A 
ATOM     75  C   UNL A   1      52.872  26.407  25.064  1.00  0.00     0.198 A 
ATOM     76  F   UNL A   1      51.818  26.442  27.167  1.00  0.00    -0.203 F 
ATOM     77  F   UNL A   1      51.622  27.281  21.778  1.00  0.00    -0.200 F 
ATOM     78  C   UNL A   1      52.832  26.623  23.696  1.00  0.00     0.200 A 
ATOM     79  F   UNL A   1      54.000  25.968  25.639  1.00  0.00    -0.200 F 
ATOM     80  F   UNL A   1      53.914  26.376  22.945  1.00  0.00    -0.200 F 
ENDBRANCH  56  70
BRANCH  57  81
ATOM     81  C   UNL A   1      42.625  29.467  30.934  1.00  0.00     0.064 A 
ATOM     82  C   UNL A   1      41.588  30.240  30.397  1.00  0.00     0.173 A 
ATOM     83  C   UNL A   1      42.477  29.002  32.250  1.00  0.00     0.173 A 
ATOM     84  F   UNL A   1      41.686  30.716  29.146  1.00  0.00    -0.203 F 
ATOM     85  C   UNL A   1      40.457  30.551  31.149  1.00  0.00     0.198 A 
ATOM     86  C   UNL A   1      41.332  29.287  32.991  1.00  0.00     0.198 A 
ATOM     87  F   UNL A   1      43.436  28.248  32.808  1.00  0.00    -0.203 F 
ATOM     88  F   UNL A   1      39.499  31.325  30.623  1.00  0.00    -0.200 F 
ATOM     89  C   UNL A   1      40.327  30.067  32.442  1.00  0.00     0.200 A 
ATOM     90  F   UNL A   1      41.202  28.800  34.232  1.00  0.00    -0.200 F 
ATOM     91  F   UNL A   1      39.234  30.356  33.161  1.00  0.00    -0.200 F 
ENDBRANCH  57  81
BRANCH  69  92
ATOM     92  C   UNL A   1      48.539  32.789  29.284  1.00  0.00     0.064 A 
ATOM     93  C   UNL A   1      48.242  33.940  28.538  1.00  0.00     0.173 A 
ATOM     94  C   UNL A   1      49.317  32.939  30.442  1.00  0.00     0.173 A 
ATOM     95  F   UNL A   1      47.516  33.847  27.414  1.00  0.00    -0.203 F 
ATOM     96  C   UNL A   1      48.719  35.188  28.929  1.00  0.00     0.198 A 
ATOM     97  C   UNL A   1      49.761  34.194  30.849  1.00  0.00     0.198 A 
ATOM     98  F   UNL A   1      49.623  31.872  31.195  1.00  0.00    -0.203 F 
ATOM     99  F   UNL A   1      48.458  36.267  28.178  1.00  0.00    -0.200 F 
ATOM    100  C   UNL A   1      49.467  35.315  30.089  1.00  0.00     0.200 A 
ATOM    101  F   UNL A   1      50.468  34.318  31.981  1.00  0.00    -0.200 F 
ATOM    102  F   UNL A   1      49.906  36.521  30.475  1.00  0.00    -0.200 F 
ENDBRANCH  69  92
ENDBRANCH  43  44
ENDBRANCH  36  38
ENDBRANCH  35  36
ENDBRANCH  34  35
ENDBRANCH  33  34
ENDBRANCH  32  33
ENDBRANCH  31  32
ENDBRANCH   1  31
TORSDOF 21
ENDMDL
