MODEL 1
REMARK VINA RESULT:     -10.9      0.000      0.000
REMARK SMILES Cc1ccnc(C(=O)c2[nH]c3ccc(F)cc3c2CC(=O)OCCOCCOCCOCCOC(=O)c2ccc(-c3c4nc(c(-c5c(F)c(F)c(F)c(F)c5F)c5ccc([nH]5)c(-c5c(F)c(F)c(F)c(F)c5F)c5nc(c(-c6c(F)c(F)c(F)c(F)c6F)c6ccc3[nH]6)C=C5)C=C4)cc2)c1
REMARK SMILES IDX 27 1 26 2 25 3 24 4 23 5 22 6 20 7 21 8 19 9 18 10 9 11
REMARK SMILES IDX 10 12 11 13 17 15 12 16 16 17 13 18 14 19 15 20 7 21 8 22
REMARK SMILES IDX 6 23 1 24 2 25 3 26 100 27 4 28 5 29 28 30 29 31 30 32 31 33
REMARK SMILES IDX 32 34 33 35 34 36 35 37 36 38 37 39 38 40 99 41 39 42 98 43
REMARK SMILES IDX 40 44 41 45 42 46 92 47 43 48 97 49 91 50 93 51 44 52 96 53
REMARK SMILES IDX 90 54 89 55 45 57 77 58 57 59 76 60 58 61 61 62 75 63 94 64
REMARK SMILES IDX 59 65 60 66 74 68 95 69 62 70 46 71 47 72 55 73 48 74 49 75
REMARK SMILES IDX 53 76 56 77 50 78 51 79 54 80 52 81 78 82 79 83 87 84 80 85
REMARK SMILES IDX 81 86 85 87 88 88 82 89 83 90 86 91 84 92 63 93 64 94 72 95
REMARK SMILES IDX 65 96 66 97 70 98 73 99 67 100 68 101 71 102 69 103
REMARK H PARENT 10 14 93 56 61 67
REMARK Flexibility Score: inf
ROOT
ATOM      1  C   UNL A   1      33.986  34.509  29.608  1.00  0.00     0.188 C 
ENDROOT
BRANCH   1   2
ATOM      2  C   UNL A   1      34.284  33.894  28.227  1.00  0.00     0.188 C 
BRANCH   2   3
ATOM      3  O   UNL A   1      33.538  32.725  27.994  1.00  0.00    -0.376 OA
BRANCH   3   4
ATOM      4  C   UNL A   1      34.347  31.720  27.403  1.00  0.00     0.202 C 
BRANCH   4   5
ATOM      5  C   UNL A   1      33.614  30.361  27.338  1.00  0.00     0.261 C 
BRANCH   5   6
ATOM      6  O   UNL A   1      34.357  29.298  26.631  1.00  0.00    -0.463 OA
BRANCH   6   7
ATOM      7  C   UNL A   1      33.650  28.339  25.976  1.00  0.00     0.310 C 
ATOM      8  O   UNL A   1      34.141  27.707  25.044  1.00  0.00    -0.252 OA
BRANCH   7   9
ATOM      9  C   UNL A   1      32.250  27.978  26.562  1.00  0.00     0.161 C 
BRANCH   9  10
ATOM     10  C   UNL A   1      31.107  27.356  25.724  1.00  0.00     0.000 A 
ATOM     11  C   UNL A   1      30.629  26.005  25.536  1.00  0.00     0.093 A 
ATOM     12  N   UNL A   1      29.904  26.089  24.339  1.00  0.00    -0.352 N 
ATOM     13  C   UNL A   1      29.669  27.374  23.922  1.00  0.00     0.046 A 
ATOM     14  H   UNL A   1      29.592  25.297  23.844  1.00  0.00     0.167 HD
ATOM     15  C   UNL A   1      30.404  28.201  24.759  1.00  0.00     0.007 A 
ATOM     16  C   UNL A   1      28.914  27.856  22.835  1.00  0.00     0.030 A 
ATOM     17  C   UNL A   1      30.389  29.592  24.490  1.00  0.00     0.049 A 
ATOM     18  C   UNL A   1      28.892  29.237  22.612  1.00  0.00     0.041 A 
ATOM     19  C   UNL A   1      29.619  30.085  23.431  1.00  0.00     0.123 A 
ATOM     20  F   UNL A   1      29.593  31.405  23.197  1.00  0.00    -0.207 F 
BRANCH  11  21
ATOM     21  C   UNL A   1      30.895  24.586  26.024  1.00  0.00     0.227 C 
ATOM     22  O   UNL A   1      30.098  24.147  26.859  1.00  0.00    -0.285 OA
BRANCH  21  23
ATOM     23  C   UNL A   1      32.179  23.692  25.833  1.00  0.00     0.113 A 
ATOM     24  C   UNL A   1      35.858  23.904  24.736  1.00  0.00     0.044 C 
ATOM     25  C   UNL A   1      34.560  23.332  25.258  1.00  0.00    -0.047 A 
ATOM     26  C   UNL A   1      34.359  21.972  25.309  1.00  0.00     0.023 A 
ATOM     27  C   UNL A   1      33.481  24.148  25.674  1.00  0.00     0.036 A 
ATOM     28  C   UNL A   1      33.092  21.541  25.675  1.00  0.00     0.112 A 
ATOM     29  N   UNL A   1      32.002  22.349  25.883  1.00  0.00    -0.253 NA
ENDBRANCH  21  23
ENDBRANCH  11  21
ENDBRANCH   9  10
ENDBRANCH   7   9
ENDBRANCH   6   7
ENDBRANCH   5   6
ENDBRANCH   4   5
ENDBRANCH   3   4
ENDBRANCH   2   3
ENDBRANCH   1   2
BRANCH   1  30
ATOM     30  O   UNL A   1      33.603  35.872  29.495  1.00  0.00    -0.377 OA
BRANCH  30  31
ATOM     31  C   UNL A   1      33.044  36.378  30.700  1.00  0.00     0.188 C 
BRANCH  31  32
ATOM     32  C   UNL A   1      33.723  35.748  31.915  1.00  0.00     0.188 C 
BRANCH  32  33
ATOM     33  O   UNL A   1      35.030  36.124  32.336  1.00  0.00    -0.376 OA
BRANCH  33  34
ATOM     34  C   UNL A   1      35.906  35.152  32.891  1.00  0.00     0.202 C 
BRANCH  34  35
ATOM     35  C   UNL A   1      35.215  33.881  33.388  1.00  0.00     0.261 C 
BRANCH  35  36
ATOM     36  O   UNL A   1      35.950  32.731  32.963  1.00  0.00    -0.460 OA
BRANCH  36  37
ATOM     37  C   UNL A   1      35.387  32.040  31.928  1.00  0.00     0.338 C 
ATOM     38  O   UNL A   1      34.302  32.194  31.442  1.00  0.00    -0.246 OA
BRANCH  37  39
ATOM     39  C   UNL A   1      36.493  31.271  31.291  1.00  0.00     0.060 A 
ATOM     40  C   UNL A   1      37.158  30.324  32.094  1.00  0.00     0.016 A 
ATOM     41  C   UNL A   1      36.686  31.289  29.904  1.00  0.00     0.016 A 
ATOM     42  C   UNL A   1      38.040  29.417  31.515  1.00  0.00     0.010 A 
ATOM     43  C   UNL A   1      37.595  30.408  29.329  1.00  0.00     0.010 A 
ATOM     44  C   UNL A   1      38.309  29.511  30.144  1.00  0.00    -0.014 A 
BRANCH  44  45
ATOM     45  C   UNL A   1      39.600  29.002  29.642  1.00  0.00     0.031 A 
ATOM     46  C   UNL A   1      40.717  30.007  29.592  1.00  0.00     0.074 A 
ATOM     47  C   UNL A   1      39.770  27.736  29.234  1.00  0.00     0.049 A 
ATOM     48  N   UNL A   1      41.921  29.897  29.103  1.00  0.00    -0.248 NA
ATOM     49  C   UNL A   1      40.419  31.337  30.159  1.00  0.00     0.031 C 
ATOM     50  C   UNL A   1      38.763  26.681  29.284  1.00  0.00     0.029 A 
ATOM     51  N   UNL A   1      40.869  27.135  28.678  1.00  0.00    -0.354 N 
ATOM     52  C   UNL A   1      42.512  31.139  29.296  1.00  0.00     0.074 A 
ATOM     53  C   UNL A   1      41.529  32.002  29.905  1.00  0.00     0.031 C 
ATOM     54  C   UNL A   1      39.287  25.559  28.755  1.00  0.00     0.029 A 
ATOM     55  C   UNL A   1      40.651  25.833  28.302  1.00  0.00     0.049 A 
ATOM     56  H   UNL A   1      41.732  27.592  28.559  1.00  0.00     0.167 HD
ATOM     57  C   UNL A   1      43.770  31.526  28.996  1.00  0.00     0.037 A 
ATOM     58  C   UNL A   1      41.463  24.985  27.645  1.00  0.00     0.037 A 
ATOM     59  C   UNL A   1      44.729  30.660  28.375  1.00  0.00     0.049 A 
ATOM     60  C   UNL A   1      42.842  25.458  27.252  1.00  0.00     0.074 A 
ATOM     61  C   UNL A   1      46.037  30.931  28.025  1.00  0.00     0.029 A 
ATOM     62  N   UNL A   1      44.468  29.350  27.995  1.00  0.00    -0.354 N 
ATOM     63  N   UNL A   1      43.410  26.624  27.457  1.00  0.00    -0.248 NA
ATOM     64  C   UNL A   1      43.693  24.497  26.538  1.00  0.00     0.031 C 
ATOM     65  C   UNL A   1      46.551  29.802  27.379  1.00  0.00     0.029 A 
ATOM     66  C   UNL A   1      45.585  28.806  27.389  1.00  0.00     0.049 A 
ATOM     67  H   UNL A   1      43.615  28.879  28.137  1.00  0.00     0.167 HD
ATOM     68  C   UNL A   1      44.692  26.527  26.930  1.00  0.00     0.074 A 
ATOM     69  C   UNL A   1      44.820  25.182  26.405  1.00  0.00     0.031 C 
ATOM     70  C   UNL A   1      45.679  27.459  26.885  1.00  0.00     0.037 A 
BRANCH  57  71
ATOM     71  C   UNL A   1      44.142  32.947  29.298  1.00  0.00     0.064 A 
ATOM     72  C   UNL A   1      44.644  33.335  30.551  1.00  0.00     0.173 A 
ATOM     73  C   UNL A   1      43.970  33.943  28.325  1.00  0.00     0.173 A 
ATOM     74  F   UNL A   1      44.795  32.428  31.528  1.00  0.00    -0.203 F 
ATOM     75  C   UNL A   1      44.929  34.670  30.827  1.00  0.00     0.198 A 
ATOM     76  C   UNL A   1      44.291  35.270  28.593  1.00  0.00     0.198 A 
ATOM     77  F   UNL A   1      43.481  33.630  27.116  1.00  0.00    -0.203 F 
ATOM     78  F   UNL A   1      45.341  35.025  32.052  1.00  0.00    -0.200 F 
ATOM     79  C   UNL A   1      44.761  35.634  29.846  1.00  0.00     0.200 A 
ATOM     80  F   UNL A   1      44.133  36.200  27.641  1.00  0.00    -0.200 F 
ATOM     81  F   UNL A   1      45.037  36.918  30.112  1.00  0.00    -0.200 F 
ENDBRANCH  57  71
BRANCH  58  82
ATOM     82  C   UNL A   1      40.997  23.612  27.309  1.00  0.00     0.064 A 
ATOM     83  C   UNL A   1      41.602  22.483  27.878  1.00  0.00     0.173 A 
ATOM     84  C   UNL A   1      39.945  23.400  26.406  1.00  0.00     0.173 A 
ATOM     85  F   UNL A   1      42.628  22.630  28.729  1.00  0.00    -0.203 F 
ATOM     86  C   UNL A   1      41.185  21.195  27.543  1.00  0.00     0.198 A 
ATOM     87  C   UNL A   1      39.510  22.113  26.094  1.00  0.00     0.198 A 
ATOM     88  F   UNL A   1      39.332  24.444  25.829  1.00  0.00    -0.203 F 
ATOM     89  F   UNL A   1      41.812  20.133  28.067  1.00  0.00    -0.200 F 
ATOM     90  C   UNL A   1      40.135  21.011  26.657  1.00  0.00     0.200 A 
ATOM     91  F   UNL A   1      38.486  21.941  25.246  1.00  0.00    -0.200 F 
ATOM     92  F   UNL A   1      39.731  19.773  26.341  1.00  0.00    -0.200 F 
ENDBRANCH  58  82
BRANCH  70  93
ATOM     93  C   UNL A   1      46.994  27.043  26.290  1.00  0.00     0.064 A 
ATOM     94  C   UNL A   1      47.345  27.365  24.972  1.00  0.00     0.173 A 
ATOM     95  C   UNL A   1      47.938  26.361  27.075  1.00  0.00     0.173 A 
ATOM     96  F   UNL A   1      46.475  28.009  24.179  1.00  0.00    -0.203 F 
ATOM     97  C   UNL A   1      48.582  26.994  24.451  1.00  0.00     0.198 A 
ATOM     98  C   UNL A   1      49.186  26.025  26.563  1.00  0.00     0.198 A 
ATOM     99  F   UNL A   1      47.655  26.041  28.346  1.00  0.00    -0.203 F 
ATOM    100  F   UNL A   1      48.877  27.266  23.173  1.00  0.00    -0.200 F 
ATOM    101  C   UNL A   1      49.504  26.332  25.249  1.00  0.00     0.200 A 
ATOM    102  F   UNL A   1      50.083  25.406  27.343  1.00  0.00    -0.200 F 
ATOM    103  F   UNL A   1      50.698  25.986  24.750  1.00  0.00    -0.200 F 
ENDBRANCH  70  93
ENDBRANCH  44  45
ENDBRANCH  37  39
ENDBRANCH  36  37
ENDBRANCH  35  36
ENDBRANCH  34  35
ENDBRANCH  33  34
ENDBRANCH  32  33
ENDBRANCH  31  32
ENDBRANCH  30  31
ENDBRANCH   1  30
TORSDOF 23
ENDMDL
MODEL 2
REMARK VINA RESULT:     -10.3      4.702      6.725
REMARK SMILES Cc1ccnc(C(=O)c2[nH]c3ccc(F)cc3c2CC(=O)OCCOCCOCCOCCOC(=O)c2ccc(-c3c4nc(c(-c5c(F)c(F)c(F)c(F)c5F)c5ccc([nH]5)c(-c5c(F)c(F)c(F)c(F)c5F)c5nc(c(-c6c(F)c(F)c(F)c(F)c6F)c6ccc3[nH]6)C=C5)C=C4)cc2)c1
REMARK SMILES IDX 27 1 26 2 25 3 24 4 23 5 22 6 20 7 21 8 19 9 18 10 9 11
REMARK SMILES IDX 10 12 11 13 17 15 12 16 16 17 13 18 14 19 15 20 7 21 8 22
REMARK SMILES IDX 6 23 1 24 2 25 3 26 100 27 4 28 5 29 28 30 29 31 30 32 31 33
REMARK SMILES IDX 32 34 33 35 34 36 35 37 36 38 37 39 38 40 99 41 39 42 98 43
REMARK SMILES IDX 40 44 41 45 42 46 92 47 43 48 97 49 91 50 93 51 44 52 96 53
REMARK SMILES IDX 90 54 89 55 45 57 77 58 57 59 76 60 58 61 61 62 75 63 94 64
REMARK SMILES IDX 59 65 60 66 74 68 95 69 62 70 46 71 47 72 55 73 48 74 49 75
REMARK SMILES IDX 53 76 56 77 50 78 51 79 54 80 52 81 78 82 79 83 87 84 80 85
REMARK SMILES IDX 81 86 85 87 88 88 82 89 83 90 86 91 84 92 63 93 64 94 72 95
REMARK SMILES IDX 65 96 66 97 70 98 73 99 67 100 68 101 71 102 69 103
REMARK H PARENT 10 14 93 56 61 67
REMARK Flexibility Score: inf
ROOT
ATOM      1  C   UNL A   1      35.000  33.458  29.039  1.00  0.00     0.188 C 
ENDROOT
BRANCH   1   2
ATOM      2  C   UNL A   1      35.799  32.194  28.668  1.00  0.00     0.188 C 
BRANCH   2   3
ATOM      3  O   UNL A   1      35.004  31.035  28.697  1.00  0.00    -0.376 OA
BRANCH   3   4
ATOM      4  C   UNL A   1      34.879  30.477  27.399  1.00  0.00     0.202 C 
BRANCH   4   5
ATOM      5  C   UNL A   1      33.548  29.708  27.232  1.00  0.00     0.261 C 
BRANCH   5   6
ATOM      6  O   UNL A   1      33.701  28.310  26.779  1.00  0.00    -0.463 OA
BRANCH   6   7
ATOM      7  C   UNL A   1      33.614  28.047  25.448  1.00  0.00     0.310 C 
ATOM      8  O   UNL A   1      34.128  28.788  24.615  1.00  0.00    -0.252 OA
BRANCH   7   9
ATOM      9  C   UNL A   1      32.964  26.688  25.045  1.00  0.00     0.161 C 
BRANCH   9  10
ATOM     10  C   UNL A   1      31.441  26.422  25.089  1.00  0.00     0.000 A 
ATOM     11  C   UNL A   1      30.632  25.330  25.583  1.00  0.00     0.093 A 
ATOM     12  N   UNL A   1      29.414  25.509  24.913  1.00  0.00    -0.352 N 
ATOM     13  C   UNL A   1      29.303  26.718  24.276  1.00  0.00     0.046 A 
ATOM     14  H   UNL A   1      28.703  24.827  24.901  1.00  0.00     0.167 HD
ATOM     15  C   UNL A   1      30.549  27.323  24.359  1.00  0.00     0.007 A 
ATOM     16  C   UNL A   1      28.217  27.289  23.585  1.00  0.00     0.030 A 
ATOM     17  C   UNL A   1      30.722  28.570  23.708  1.00  0.00     0.049 A 
ATOM     18  C   UNL A   1      28.406  28.535  22.977  1.00  0.00     0.041 A 
ATOM     19  C   UNL A   1      29.641  29.159  23.043  1.00  0.00     0.123 A 
ATOM     20  F   UNL A   1      29.806  30.348  22.447  1.00  0.00    -0.207 F 
BRANCH  11  21
ATOM     21  C   UNL A   1      30.775  23.996  26.306  1.00  0.00     0.227 C 
ATOM     22  O   UNL A   1      30.000  23.811  27.250  1.00  0.00    -0.285 OA
BRANCH  21  23
ATOM     23  C   UNL A   1      31.932  22.931  26.210  1.00  0.00     0.113 A 
ATOM     24  C   UNL A   1      32.649  19.372  24.942  1.00  0.00     0.044 C 
ATOM     25  C   UNL A   1      32.874  20.741  25.542  1.00  0.00    -0.047 A 
ATOM     26  C   UNL A   1      34.001  21.007  26.285  1.00  0.00     0.023 A 
ATOM     27  C   UNL A   1      31.937  21.793  25.414  1.00  0.00     0.036 A 
ATOM     28  C   UNL A   1      34.060  22.247  26.908  1.00  0.00     0.112 A 
ATOM     29  N   UNL A   1      33.052  23.177  26.933  1.00  0.00    -0.253 NA
ENDBRANCH  21  23
ENDBRANCH  11  21
ENDBRANCH   9  10
ENDBRANCH   7   9
ENDBRANCH   6   7
ENDBRANCH   5   6
ENDBRANCH   4   5
ENDBRANCH   3   4
ENDBRANCH   2   3
ENDBRANCH   1   2
BRANCH   1  30
ATOM     30  O   UNL A   1      35.394  34.570  28.248  1.00  0.00    -0.377 OA
BRANCH  30  31
ATOM     31  C   UNL A   1      34.282  35.269  27.704  1.00  0.00     0.188 C 
BRANCH  31  32
ATOM     32  C   UNL A   1      33.252  35.572  28.790  1.00  0.00     0.188 C 
BRANCH  32  33
ATOM     33  O   UNL A   1      33.110  36.868  29.363  1.00  0.00    -0.376 OA
BRANCH  33  34
ATOM     34  C   UNL A   1      32.972  37.013  30.770  1.00  0.00     0.202 C 
BRANCH  34  35
ATOM     35  C   UNL A   1      32.531  35.743  31.502  1.00  0.00     0.261 C 
BRANCH  35  36
ATOM     36  O   UNL A   1      32.650  35.931  32.913  1.00  0.00    -0.460 OA
BRANCH  36  37
ATOM     37  C   UNL A   1      33.798  36.554  33.315  1.00  0.00     0.338 C 
ATOM     38  O   UNL A   1      33.911  37.634  33.824  1.00  0.00    -0.246 OA
BRANCH  37  39
ATOM     39  C   UNL A   1      34.862  35.513  33.304  1.00  0.00     0.060 A 
ATOM     40  C   UNL A   1      34.623  34.347  34.058  1.00  0.00     0.016 A 
ATOM     41  C   UNL A   1      35.918  35.562  32.386  1.00  0.00     0.016 A 
ATOM     42  C   UNL A   1      35.460  33.244  33.918  1.00  0.00     0.010 A 
ATOM     43  C   UNL A   1      36.777  34.474  32.272  1.00  0.00     0.010 A 
ATOM     44  C   UNL A   1      36.577  33.339  33.079  1.00  0.00    -0.014 A 
BRANCH  44  45
ATOM     45  C   UNL A   1      37.740  32.472  33.350  1.00  0.00     0.031 A 
ATOM     46  C   UNL A   1      38.490  32.775  34.617  1.00  0.00     0.074 A 
ATOM     47  C   UNL A   1      38.123  31.493  32.519  1.00  0.00     0.049 A 
ATOM     48  N   UNL A   1      39.604  32.270  35.071  1.00  0.00    -0.248 NA
ATOM     49  C   UNL A   1      37.905  33.814  35.486  1.00  0.00     0.031 C 
ATOM     50  C   UNL A   1      37.437  31.098  31.292  1.00  0.00     0.029 A 
ATOM     51  N   UNL A   1      39.209  30.661  32.587  1.00  0.00    -0.354 N 
ATOM     52  C   UNL A   1      39.851  32.937  36.264  1.00  0.00     0.074 A 
ATOM     53  C   UNL A   1      38.802  33.909  36.448  1.00  0.00     0.031 C 
ATOM     54  C   UNL A   1      38.136  30.107  30.707  1.00  0.00     0.029 A 
ATOM     55  C   UNL A   1      39.331  29.828  31.503  1.00  0.00     0.049 A 
ATOM     56  H   UNL A   1      39.842  30.660  33.340  1.00  0.00     0.167 HD
ATOM     57  C   UNL A   1      40.865  32.749  37.136  1.00  0.00     0.037 A 
ATOM     58  C   UNL A   1      40.316  28.964  31.195  1.00  0.00     0.037 A 
ATOM     59  C   UNL A   1      41.909  31.790  36.929  1.00  0.00     0.049 A 
ATOM     60  C   UNL A   1      41.480  28.820  32.146  1.00  0.00     0.074 A 
ATOM     61  C   UNL A   1      42.988  31.500  37.741  1.00  0.00     0.029 A 
ATOM     62  N   UNL A   1      42.008  30.971  35.812  1.00  0.00    -0.354 N 
ATOM     63  N   UNL A   1      41.701  29.432  33.287  1.00  0.00    -0.248 NA
ATOM     64  C   UNL A   1      42.529  27.865  31.768  1.00  0.00     0.031 C 
ATOM     65  C   UNL A   1      43.774  30.547  37.085  1.00  0.00     0.029 A 
ATOM     66  C   UNL A   1      43.147  30.193  35.899  1.00  0.00     0.049 A 
ATOM     67  H   UNL A   1      41.362  30.948  35.069  1.00  0.00     0.167 HD
ATOM     68  C   UNL A   1      42.893  28.912  33.778  1.00  0.00     0.074 A 
ATOM     69  C   UNL A   1      43.341  27.927  32.814  1.00  0.00     0.031 C 
ATOM     70  C   UNL A   1      43.558  29.216  34.922  1.00  0.00     0.037 A 
BRANCH  57  71
ATOM     71  C   UNL A   1      40.899  33.631  38.349  1.00  0.00     0.064 A 
ATOM     72  C   UNL A   1      40.205  33.305  39.526  1.00  0.00     0.173 A 
ATOM     73  C   UNL A   1      41.618  34.835  38.325  1.00  0.00     0.173 A 
ATOM     74  F   UNL A   1      39.473  32.182  39.590  1.00  0.00    -0.203 F 
ATOM     75  C   UNL A   1      40.205  34.166  40.620  1.00  0.00     0.198 A 
ATOM     76  C   UNL A   1      41.646  35.675  39.434  1.00  0.00     0.198 A 
ATOM     77  F   UNL A   1      42.287  35.201  37.222  1.00  0.00    -0.203 F 
ATOM     78  F   UNL A   1      39.479  33.867  41.706  1.00  0.00    -0.200 F 
ATOM     79  C   UNL A   1      40.932  35.346  40.576  1.00  0.00     0.200 A 
ATOM     80  F   UNL A   1      42.354  36.812  39.392  1.00  0.00    -0.200 F 
ATOM     81  F   UNL A   1      40.933  36.173  41.631  1.00  0.00    -0.200 F 
ENDBRANCH  57  71
BRANCH  58  82
ATOM     82  C   UNL A   1      40.253  28.178  29.933  1.00  0.00     0.064 A 
ATOM     83  C   UNL A   1      39.469  27.020  29.839  1.00  0.00     0.173 A 
ATOM     84  C   UNL A   1      40.983  28.561  28.798  1.00  0.00     0.173 A 
ATOM     85  F   UNL A   1      38.771  26.596  30.903  1.00  0.00    -0.203 F 
ATOM     86  C   UNL A   1      39.431  26.267  28.666  1.00  0.00     0.198 A 
ATOM     87  C   UNL A   1      40.922  27.824  27.617  1.00  0.00     0.198 A 
ATOM     88  F   UNL A   1      41.753  29.659  28.832  1.00  0.00    -0.203 F 
ATOM     89  F   UNL A   1      38.709  25.139  28.621  1.00  0.00    -0.200 F 
ATOM     90  C   UNL A   1      40.152  26.673  27.554  1.00  0.00     0.200 A 
ATOM     91  F   UNL A   1      41.611  28.228  26.540  1.00  0.00    -0.200 F 
ATOM     92  F   UNL A   1      40.110  25.951  26.425  1.00  0.00    -0.200 F 
ENDBRANCH  58  82
BRANCH  70  93
ATOM     93  C   UNL A   1      44.813  28.444  35.216  1.00  0.00     0.064 A 
ATOM     94  C   UNL A   1      46.074  28.900  34.810  1.00  0.00     0.173 A 
ATOM     95  C   UNL A   1      44.751  27.259  35.967  1.00  0.00     0.173 A 
ATOM     96  F   UNL A   1      46.186  30.022  34.084  1.00  0.00    -0.203 F 
ATOM     97  C   UNL A   1      47.227  28.181  35.119  1.00  0.00     0.198 A 
ATOM     98  C   UNL A   1      45.907  26.564  36.305  1.00  0.00     0.198 A 
ATOM     99  F   UNL A   1      43.569  26.787  36.391  1.00  0.00    -0.203 F 
ATOM    100  F   UNL A   1      48.417  28.607  34.676  1.00  0.00    -0.200 F 
ATOM    101  C   UNL A   1      47.142  27.020  35.872  1.00  0.00     0.200 A 
ATOM    102  F   UNL A   1      45.825  25.454  37.052  1.00  0.00    -0.200 F 
ATOM    103  F   UNL A   1      48.253  26.337  36.179  1.00  0.00    -0.200 F 
ENDBRANCH  70  93
ENDBRANCH  44  45
ENDBRANCH  37  39
ENDBRANCH  36  37
ENDBRANCH  35  36
ENDBRANCH  34  35
ENDBRANCH  33  34
ENDBRANCH  32  33
ENDBRANCH  31  32
ENDBRANCH  30  31
ENDBRANCH   1  30
TORSDOF 23
ENDMDL
MODEL 3
REMARK VINA RESULT:     -10.1      1.583      7.280
REMARK SMILES Cc1ccnc(C(=O)c2[nH]c3ccc(F)cc3c2CC(=O)OCCOCCOCCOCCOC(=O)c2ccc(-c3c4nc(c(-c5c(F)c(F)c(F)c(F)c5F)c5ccc([nH]5)c(-c5c(F)c(F)c(F)c(F)c5F)c5nc(c(-c6c(F)c(F)c(F)c(F)c6F)c6ccc3[nH]6)C=C5)C=C4)cc2)c1
REMARK SMILES IDX 27 1 26 2 25 3 24 4 23 5 22 6 20 7 21 8 19 9 18 10 9 11
REMARK SMILES IDX 10 12 11 13 17 15 12 16 16 17 13 18 14 19 15 20 7 21 8 22
REMARK SMILES IDX 6 23 1 24 2 25 3 26 100 27 4 28 5 29 28 30 29 31 30 32 31 33
REMARK SMILES IDX 32 34 33 35 34 36 35 37 36 38 37 39 38 40 99 41 39 42 98 43
REMARK SMILES IDX 40 44 41 45 42 46 92 47 43 48 97 49 91 50 93 51 44 52 96 53
REMARK SMILES IDX 90 54 89 55 45 57 77 58 57 59 76 60 58 61 61 62 75 63 94 64
REMARK SMILES IDX 59 65 60 66 74 68 95 69 62 70 46 71 47 72 55 73 48 74 49 75
REMARK SMILES IDX 53 76 56 77 50 78 51 79 54 80 52 81 78 82 79 83 87 84 80 85
REMARK SMILES IDX 81 86 85 87 88 88 82 89 83 90 86 91 84 92 63 93 64 94 72 95
REMARK SMILES IDX 65 96 66 97 70 98 73 99 67 100 68 101 71 102 69 103
REMARK H PARENT 10 14 93 56 61 67
REMARK Flexibility Score: inf
ROOT
ATOM      1  C   UNL A   1      35.315  33.081  28.070  1.00  0.00     0.188 C 
ENDROOT
BRANCH   1   2
ATOM      2  C   UNL A   1      34.595  31.794  28.515  1.00  0.00     0.188 C 
BRANCH   2   3
ATOM      3  O   UNL A   1      34.220  30.990  27.425  1.00  0.00    -0.376 OA
BRANCH   3   4
ATOM      4  C   UNL A   1      32.820  31.065  27.202  1.00  0.00     0.202 C 
BRANCH   4   5
ATOM      5  C   UNL A   1      32.377  30.151  26.036  1.00  0.00     0.261 C 
BRANCH   5   6
ATOM      6  O   UNL A   1      33.488  29.588  25.243  1.00  0.00    -0.463 OA
BRANCH   6   7
ATOM      7  C   UNL A   1      33.351  28.335  24.734  1.00  0.00     0.310 C 
ATOM      8  O   UNL A   1      34.096  27.421  25.076  1.00  0.00    -0.252 OA
BRANCH   7   9
ATOM      9  C   UNL A   1      32.114  28.083  23.817  1.00  0.00     0.161 C 
BRANCH   9  10
ATOM     10  C   UNL A   1      30.813  27.401  24.303  1.00  0.00     0.000 A 
ATOM     11  C   UNL A   1      30.535  26.174  25.015  1.00  0.00     0.093 A 
ATOM     12  N   UNL A   1      29.183  25.940  24.728  1.00  0.00    -0.352 N 
ATOM     13  C   UNL A   1      28.546  27.007  24.148  1.00  0.00     0.046 A 
ATOM     14  H   UNL A   1      28.733  25.087  24.925  1.00  0.00     0.167 HD
ATOM     15  C   UNL A   1      29.528  27.945  23.863  1.00  0.00     0.007 A 
ATOM     16  C   UNL A   1      27.192  27.183  23.801  1.00  0.00     0.030 A 
ATOM     17  C   UNL A   1      29.135  29.126  23.186  1.00  0.00     0.049 A 
ATOM     18  C   UNL A   1      26.827  28.372  23.162  1.00  0.00     0.041 A 
ATOM     19  C   UNL A   1      27.789  29.324  22.863  1.00  0.00     0.123 A 
ATOM     20  F   UNL A   1      27.421  30.454  22.242  1.00  0.00    -0.207 F 
BRANCH  11  21
ATOM     21  C   UNL A   1      31.262  25.005  25.668  1.00  0.00     0.227 C 
ATOM     22  O   UNL A   1      31.402  25.076  26.893  1.00  0.00    -0.285 OA
BRANCH  21  23
ATOM     23  C   UNL A   1      32.098  23.851  24.995  1.00  0.00     0.113 A 
ATOM     24  C   UNL A   1      35.722  22.763  24.315  1.00  0.00     0.044 C 
ATOM     25  C   UNL A   1      34.212  22.730  24.360  1.00  0.00    -0.047 A 
ATOM     26  C   UNL A   1      33.503  21.856  23.570  1.00  0.00     0.023 A 
ATOM     27  C   UNL A   1      33.454  23.611  25.167  1.00  0.00     0.036 A 
ATOM     28  C   UNL A   1      32.121  21.987  23.576  1.00  0.00     0.112 A 
ATOM     29  N   UNL A   1      31.416  22.977  24.214  1.00  0.00    -0.253 NA
ENDBRANCH  21  23
ENDBRANCH  11  21
ENDBRANCH   9  10
ENDBRANCH   7   9
ENDBRANCH   6   7
ENDBRANCH   5   6
ENDBRANCH   4   5
ENDBRANCH   3   4
ENDBRANCH   2   3
ENDBRANCH   1   2
BRANCH   1  30
ATOM     30  O   UNL A   1      34.512  34.229  28.301  1.00  0.00    -0.377 OA
BRANCH  30  31
ATOM     31  C   UNL A   1      34.862  34.900  29.505  1.00  0.00     0.188 C 
BRANCH  31  32
ATOM     32  C   UNL A   1      33.627  35.132  30.373  1.00  0.00     0.188 C 
BRANCH  32  33
ATOM     33  O   UNL A   1      33.450  34.487  31.629  1.00  0.00    -0.376 OA
BRANCH  33  34
ATOM     34  C   UNL A   1      34.025  33.208  31.860  1.00  0.00     0.202 C 
BRANCH  34  35
ATOM     35  C   UNL A   1      35.103  33.180  32.946  1.00  0.00     0.261 C 
BRANCH  35  36
ATOM     36  O   UNL A   1      36.109  32.224  32.606  1.00  0.00    -0.460 OA
BRANCH  36  37
ATOM     37  C   UNL A   1      37.336  32.461  33.160  1.00  0.00     0.338 C 
ATOM     38  O   UNL A   1      37.586  32.795  34.284  1.00  0.00    -0.246 OA
BRANCH  37  39
ATOM     39  C   UNL A   1      38.337  31.912  32.203  1.00  0.00     0.060 A 
ATOM     40  C   UNL A   1      39.344  31.085  32.736  1.00  0.00     0.016 A 
ATOM     41  C   UNL A   1      38.137  31.988  30.819  1.00  0.00     0.016 A 
ATOM     42  C   UNL A   1      40.172  30.359  31.884  1.00  0.00     0.010 A 
ATOM     43  C   UNL A   1      38.986  31.292  29.966  1.00  0.00     0.010 A 
ATOM     44  C   UNL A   1      40.036  30.523  30.500  1.00  0.00    -0.014 A 
BRANCH  44  45
ATOM     45  C   UNL A   1      41.206  30.261  29.640  1.00  0.00     0.031 A 
ATOM     46  C   UNL A   1      41.282  28.877  29.056  1.00  0.00     0.074 A 
ATOM     47  C   UNL A   1      42.154  31.179  29.406  1.00  0.00     0.049 A 
ATOM     48  N   UNL A   1      42.230  28.313  28.360  1.00  0.00    -0.248 NA
ATOM     49  C   UNL A   1      40.124  27.999  29.316  1.00  0.00     0.031 C 
ATOM     50  C   UNL A   1      42.147  32.555  29.891  1.00  0.00     0.029 A 
ATOM     51  N   UNL A   1      43.325  31.070  28.703  1.00  0.00    -0.354 N 
ATOM     52  C   UNL A   1      41.786  27.020  28.113  1.00  0.00     0.074 A 
ATOM     53  C   UNL A   1      40.508  26.864  28.763  1.00  0.00     0.031 C 
ATOM     54  C   UNL A   1      43.278  33.162  29.487  1.00  0.00     0.029 A 
ATOM     55  C   UNL A   1      44.098  32.203  28.746  1.00  0.00     0.049 A 
ATOM     56  H   UNL A   1      43.587  30.257  28.214  1.00  0.00     0.167 HD
ATOM     57  C   UNL A   1      42.390  26.048  27.398  1.00  0.00     0.037 A 
ATOM     58  C   UNL A   1      45.336  32.413  28.260  1.00  0.00     0.037 A 
ATOM     59  C   UNL A   1      43.669  26.215  26.772  1.00  0.00     0.049 A 
ATOM     60  C   UNL A   1      46.027  31.289  27.526  1.00  0.00     0.074 A 
ATOM     61  C   UNL A   1      44.384  25.308  26.015  1.00  0.00     0.029 A 
ATOM     62  N   UNL A   1      44.431  27.373  26.848  1.00  0.00    -0.354 N 
ATOM     63  N   UNL A   1      45.597  30.075  27.269  1.00  0.00    -0.248 NA
ATOM     64  C   UNL A   1      47.375  31.566  27.011  1.00  0.00     0.031 C 
ATOM     65  C   UNL A   1      45.608  25.898  25.684  1.00  0.00     0.029 A 
ATOM     66  C   UNL A   1      45.624  27.195  26.174  1.00  0.00     0.049 A 
ATOM     67  H   UNL A   1      44.160  28.198  27.313  1.00  0.00     0.167 HD
ATOM     68  C   UNL A   1      46.603  29.456  26.537  1.00  0.00     0.074 A 
ATOM     69  C   UNL A   1      47.661  30.435  26.382  1.00  0.00     0.031 C 
ATOM     70  C   UNL A   1      46.652  28.196  26.033  1.00  0.00     0.037 A 
BRANCH  57  71
ATOM     71  C   UNL A   1      41.688  24.725  27.307  1.00  0.00     0.064 A 
ATOM     72  C   UNL A   1      40.547  24.542  26.510  1.00  0.00     0.173 A 
ATOM     73  C   UNL A   1      42.151  23.629  28.050  1.00  0.00     0.173 A 
ATOM     74  F   UNL A   1      40.042  25.567  25.806  1.00  0.00    -0.203 F 
ATOM     75  C   UNL A   1      39.878  23.321  26.485  1.00  0.00     0.198 A 
ATOM     76  C   UNL A   1      41.502  22.400  27.994  1.00  0.00     0.198 A 
ATOM     77  F   UNL A   1      43.229  23.753  28.838  1.00  0.00    -0.203 F 
ATOM     78  F   UNL A   1      38.751  23.190  25.772  1.00  0.00    -0.200 F 
ATOM     79  C   UNL A   1      40.361  22.249  27.220  1.00  0.00     0.200 A 
ATOM     80  F   UNL A   1      41.973  21.363  28.700  1.00  0.00    -0.200 F 
ATOM     81  F   UNL A   1      39.718  21.073  27.194  1.00  0.00    -0.200 F 
ENDBRANCH  57  71
BRANCH  58  82
ATOM     82  C   UNL A   1      46.003  33.729  28.456  1.00  0.00     0.064 A 
ATOM     83  C   UNL A   1      45.846  34.765  27.526  1.00  0.00     0.173 A 
ATOM     84  C   UNL A   1      46.818  33.973  29.571  1.00  0.00     0.173 A 
ATOM     85  F   UNL A   1      45.097  34.575  26.430  1.00  0.00    -0.203 F 
ATOM     86  C   UNL A   1      46.493  35.989  27.694  1.00  0.00     0.198 A 
ATOM     87  C   UNL A   1      47.441  35.207  29.752  1.00  0.00     0.198 A 
ATOM     88  F   UNL A   1      47.005  33.015  30.491  1.00  0.00    -0.203 F 
ATOM     89  F   UNL A   1      46.362  36.946  26.765  1.00  0.00    -0.200 F 
ATOM     90  C   UNL A   1      47.285  36.211  28.810  1.00  0.00     0.200 A 
ATOM     91  F   UNL A   1      48.195  35.421  30.840  1.00  0.00    -0.200 F 
ATOM     92  F   UNL A   1      47.901  37.390  28.974  1.00  0.00    -0.200 F 
ENDBRANCH  58  82
BRANCH  70  93
ATOM     93  C   UNL A   1      47.865  27.820  25.231  1.00  0.00     0.064 A 
ATOM     94  C   UNL A   1      49.056  27.403  25.841  1.00  0.00     0.173 A 
ATOM     95  C   UNL A   1      47.810  27.825  23.828  1.00  0.00     0.173 A 
ATOM     96  F   UNL A   1      49.161  27.388  27.178  1.00  0.00    -0.203 F 
ATOM     97  C   UNL A   1      50.158  27.032  25.075  1.00  0.00     0.198 A 
ATOM     98  C   UNL A   1      48.900  27.418  23.067  1.00  0.00     0.198 A 
ATOM     99  F   UNL A   1      46.689  28.203  23.196  1.00  0.00    -0.203 F 
ATOM    100  F   UNL A   1      51.304  26.686  25.678  1.00  0.00    -0.200 F 
ATOM    101  C   UNL A   1      50.076  27.032  23.690  1.00  0.00     0.200 A 
ATOM    102  F   UNL A   1      48.811  27.397  21.730  1.00  0.00    -0.200 F 
ATOM    103  F   UNL A   1      51.134  26.663  22.956  1.00  0.00    -0.200 F 
ENDBRANCH  70  93
ENDBRANCH  44  45
ENDBRANCH  37  39
ENDBRANCH  36  37
ENDBRANCH  35  36
ENDBRANCH  34  35
ENDBRANCH  33  34
ENDBRANCH  32  33
ENDBRANCH  31  32
ENDBRANCH  30  31
ENDBRANCH   1  30
TORSDOF 23
ENDMDL
