MODEL 1
REMARK VINA RESULT:     -10.8      0.000      0.000
REMARK SMILES CC[N@@H+]1CCO[C@@H](Cn2cc(C(=O)OCCOCCOCCOCCOC(=O)c3ccc(-c4c5nc(c(-c6c(F)c(F)c(F)c(F)c6F)c6ccc([nH]6)c(-c6c(F)c(F)c(F)c(F)c6F)c6nc(c(-c7c(F)c(F)c(F)c(F)c7F)c7ccc4[nH]7)C=C6)C=C5)cc3)nn2)C1
REMARK SMILES IDX 19 1 18 2 17 3 16 4 15 5 14 6 12 7 13 8 11 9 9 10 10 11
REMARK SMILES IDX 93 12 92 13 8 14 7 15 3 16 4 17 94 18 5 20 6 21 2 22 1 23
REMARK SMILES IDX 20 24 21 25 22 26 23 27 24 28 25 29 26 30 27 31 28 32 29 33
REMARK SMILES IDX 30 34 91 35 31 36 90 37 32 38 33 39 34 40 84 41 35 42 89 43
REMARK SMILES IDX 83 44 85 45 36 46 88 47 82 48 81 49 37 51 69 52 49 53 68 54
REMARK SMILES IDX 50 55 53 56 67 57 86 58 51 59 52 60 66 62 87 63 54 64 38 65
REMARK SMILES IDX 39 66 47 67 40 68 41 69 45 70 48 71 42 72 43 73 46 74 44 75
REMARK SMILES IDX 70 76 71 77 79 78 72 79 73 80 77 81 80 82 74 83 75 84 78 85
REMARK SMILES IDX 76 86 55 87 56 88 64 89 57 90 58 91 62 92 65 93 59 94 60 95
REMARK SMILES IDX 63 96 61 97
REMARK H PARENT 3 19 85 50 53 61
REMARK Flexibility Score: inf
ROOT
ATOM      1  C   UNL A   1      38.478  21.839  25.717  1.00  0.00     0.188 C 
ENDROOT
BRANCH   1   2
ATOM      2  C   UNL A   1      37.671  23.145  25.568  1.00  0.00     0.188 C 
BRANCH   2   3
ATOM      3  O   UNL A   1      36.382  23.157  26.146  1.00  0.00    -0.376 OA
BRANCH   3   4
ATOM      4  C   UNL A   1      35.519  22.037  26.164  1.00  0.00     0.202 C 
BRANCH   4   5
ATOM      5  C   UNL A   1      34.070  21.995  26.689  1.00  0.00     0.261 C 
BRANCH   5   6
ATOM      6  O   UNL A   1      33.099  22.813  26.045  1.00  0.00    -0.458 OA
BRANCH   6   7
ATOM      7  C   UNL A   1      32.514  22.293  24.935  1.00  0.00     0.360 C 
ATOM      8  O   UNL A   1      31.786  21.297  24.942  1.00  0.00    -0.244 OA
BRANCH   7   9
ATOM      9  C   UNL A   1      32.739  23.125  23.766  1.00  0.00     0.190 A 
ATOM     10  N   UNL A   1      32.609  24.563  22.149  1.00  0.00    -0.249 N 
ATOM     11  C   UNL A   1      31.846  23.958  23.110  1.00  0.00     0.147 A 
ATOM     12  N   UNL A   1      33.821  23.991  22.069  1.00  0.00    -0.066 NA
ATOM     13  N   UNL A   1      33.928  23.141  23.080  1.00  0.00    -0.123 NA
BRANCH  10  14
ATOM     14  C   UNL A   1      32.418  25.894  21.603  1.00  0.00     0.184 C 
BRANCH  14  15
ATOM     15  C   UNL A   1      31.641  26.769  22.591  1.00  0.00     0.194 C 
ATOM     16  N   UNL A   1      31.838  28.506  24.396  1.00  0.00    -0.331 N 
ATOM     17  C   UNL A   1      30.617  29.100  23.843  1.00  0.00     0.291 C 
ATOM     18  C   UNL A   1      32.557  27.751  23.366  1.00  0.00     0.296 C 
ATOM     19  H   UNL A   1      32.429  29.293  24.664  1.00  0.00     0.348 HD
ATOM     20  C   UNL A   1      29.799  28.198  22.896  1.00  0.00     0.222 C 
ATOM     21  O   UNL A   1      30.611  27.516  21.920  1.00  0.00    -0.365 OA
BRANCH  16  22
ATOM     22  C   UNL A   1      31.728  27.853  25.702  1.00  0.00     0.258 C 
ATOM     23  C   UNL A   1      32.996  27.417  26.427  1.00  0.00     0.071 C 
ENDBRANCH  16  22
ENDBRANCH  14  15
ENDBRANCH  10  14
ENDBRANCH   7   9
ENDBRANCH   6   7
ENDBRANCH   5   6
ENDBRANCH   4   5
ENDBRANCH   3   4
ENDBRANCH   2   3
ENDBRANCH   1   2
BRANCH   1  24
ATOM     24  O   UNL A   1      39.590  21.914  26.591  1.00  0.00    -0.377 OA
BRANCH  24  25
ATOM     25  C   UNL A   1      40.837  21.380  26.148  1.00  0.00     0.188 C 
BRANCH  25  26
ATOM     26  C   UNL A   1      41.284  19.916  26.424  1.00  0.00     0.188 C 
BRANCH  26  27
ATOM     27  O   UNL A   1      42.025  19.288  25.392  1.00  0.00    -0.376 OA
BRANCH  27  28
ATOM     28  C   UNL A   1      43.263  18.641  25.610  1.00  0.00     0.202 C 
BRANCH  28  29
ATOM     29  C   UNL A   1      44.409  18.965  24.660  1.00  0.00     0.261 C 
BRANCH  29  30
ATOM     30  O   UNL A   1      44.415  20.313  24.232  1.00  0.00    -0.460 OA
BRANCH  30  31
ATOM     31  C   UNL A   1      45.550  20.976  24.494  1.00  0.00     0.338 C 
ATOM     32  O   UNL A   1      46.608  20.510  24.907  1.00  0.00    -0.246 OA
BRANCH  31  33
ATOM     33  C   UNL A   1      45.279  22.404  24.349  1.00  0.00     0.060 A 
ATOM     34  C   UNL A   1      46.331  23.253  24.688  1.00  0.00     0.016 A 
ATOM     35  C   UNL A   1      43.939  22.827  24.319  1.00  0.00     0.016 A 
ATOM     36  C   UNL A   1      46.007  24.424  25.320  1.00  0.00     0.010 A 
ATOM     37  C   UNL A   1      43.618  23.987  24.969  1.00  0.00     0.010 A 
ATOM     38  C   UNL A   1      44.655  24.698  25.556  1.00  0.00    -0.014 A 
BRANCH  38  39
ATOM     39  C   UNL A   1      44.347  25.798  26.429  1.00  0.00     0.031 A 
ATOM     40  C   UNL A   1      45.318  26.894  26.311  1.00  0.00     0.074 A 
ATOM     41  C   UNL A   1      43.270  25.804  27.233  1.00  0.00     0.049 A 
ATOM     42  N   UNL A   1      46.210  27.228  27.179  1.00  0.00    -0.248 NA
ATOM     43  C   UNL A   1      45.448  27.561  25.008  1.00  0.00     0.031 C 
ATOM     44  C   UNL A   1      42.130  24.886  27.266  1.00  0.00     0.029 A 
ATOM     45  N   UNL A   1      42.948  26.729  28.171  1.00  0.00    -0.354 N 
ATOM     46  C   UNL A   1      46.911  28.274  26.602  1.00  0.00     0.074 A 
ATOM     47  C   UNL A   1      46.526  28.317  25.215  1.00  0.00     0.031 C 
ATOM     48  C   UNL A   1      41.146  25.433  28.019  1.00  0.00     0.029 A 
ATOM     49  C   UNL A   1      41.638  26.665  28.615  1.00  0.00     0.049 A 
ATOM     50  H   UNL A   1      43.592  27.391  28.509  1.00  0.00     0.167 HD
ATOM     51  C   UNL A   1      47.570  29.174  27.376  1.00  0.00     0.037 A 
ATOM     52  C   UNL A   1      41.014  27.618  29.351  1.00  0.00     0.037 A 
ATOM     53  C   UNL A   1      47.768  28.674  28.713  1.00  0.00     0.049 A 
ATOM     54  C   UNL A   1      42.074  28.435  30.005  1.00  0.00     0.074 A 
ATOM     55  C   UNL A   1      48.452  27.598  29.245  1.00  0.00     0.029 A 
ATOM     56  N   UNL A   1      46.889  29.082  29.687  1.00  0.00    -0.354 N 
ATOM     57  N   UNL A   1      42.845  27.981  30.954  1.00  0.00    -0.248 NA
ATOM     58  C   UNL A   1      42.599  29.583  29.276  1.00  0.00     0.031 C 
ATOM     59  C   UNL A   1      47.634  27.129  30.314  1.00  0.00     0.029 A 
ATOM     60  C   UNL A   1      46.529  27.974  30.412  1.00  0.00     0.049 A 
ATOM     61  H   UNL A   1      46.575  30.003  29.839  1.00  0.00     0.167 HD
ATOM     62  C   UNL A   1      44.104  28.485  30.661  1.00  0.00     0.074 A 
ATOM     63  C   UNL A   1      43.876  29.532  29.669  1.00  0.00     0.031 C 
ATOM     64  C   UNL A   1      45.233  27.806  31.023  1.00  0.00     0.037 A 
BRANCH  51  65
ATOM     65  C   UNL A   1      47.692  30.628  27.029  1.00  0.00     0.064 A 
ATOM     66  C   UNL A   1      48.953  31.245  27.107  1.00  0.00     0.173 A 
ATOM     67  C   UNL A   1      46.586  31.499  26.915  1.00  0.00     0.173 A 
ATOM     68  F   UNL A   1      50.066  30.509  27.242  1.00  0.00    -0.203 F 
ATOM     69  C   UNL A   1      49.087  32.634  27.142  1.00  0.00     0.198 A 
ATOM     70  C   UNL A   1      46.728  32.881  26.890  1.00  0.00     0.198 A 
ATOM     71  F   UNL A   1      45.323  31.056  26.942  1.00  0.00    -0.203 F 
ATOM     72  F   UNL A   1      50.294  33.180  27.346  1.00  0.00    -0.200 F 
ATOM     73  C   UNL A   1      47.974  33.451  27.038  1.00  0.00     0.200 A 
ATOM     74  F   UNL A   1      45.635  33.654  26.810  1.00  0.00    -0.200 F 
ATOM     75  F   UNL A   1      48.095  34.781  27.133  1.00  0.00    -0.200 F 
ENDBRANCH  51  65
BRANCH  52  76
ATOM     76  C   UNL A   1      39.601  28.058  29.264  1.00  0.00     0.064 A 
ATOM     77  C   UNL A   1      38.796  28.147  30.411  1.00  0.00     0.173 A 
ATOM     78  C   UNL A   1      39.092  28.662  28.097  1.00  0.00     0.173 A 
ATOM     79  F   UNL A   1      39.226  27.640  31.577  1.00  0.00    -0.203 F 
ATOM     80  C   UNL A   1      37.569  28.818  30.398  1.00  0.00     0.198 A 
ATOM     81  C   UNL A   1      37.865  29.325  28.082  1.00  0.00     0.198 A 
ATOM     82  F   UNL A   1      39.817  28.706  26.970  1.00  0.00    -0.203 F 
ATOM     83  F   UNL A   1      36.857  28.935  31.528  1.00  0.00    -0.200 F 
ATOM     84  C   UNL A   1      37.109  29.414  29.236  1.00  0.00     0.200 A 
ATOM     85  F   UNL A   1      37.451  29.931  26.960  1.00  0.00    -0.200 F 
ATOM     86  F   UNL A   1      35.963  30.111  29.236  1.00  0.00    -0.200 F 
ENDBRANCH  52  76
BRANCH  64  87
ATOM     87  C   UNL A   1      45.070  26.640  31.957  1.00  0.00     0.064 A 
ATOM     88  C   UNL A   1      45.011  26.759  33.357  1.00  0.00     0.173 A 
ATOM     89  C   UNL A   1      44.824  25.376  31.407  1.00  0.00     0.173 A 
ATOM     90  F   UNL A   1      45.128  27.952  33.953  1.00  0.00    -0.203 F 
ATOM     91  C   UNL A   1      44.766  25.651  34.167  1.00  0.00     0.198 A 
ATOM     92  C   UNL A   1      44.543  24.278  32.216  1.00  0.00     0.198 A 
ATOM     93  F   UNL A   1      44.807  25.215  30.075  1.00  0.00    -0.203 F 
ATOM     94  F   UNL A   1      44.729  25.789  35.501  1.00  0.00    -0.200 F 
ATOM     95  C   UNL A   1      44.527  24.413  33.596  1.00  0.00     0.200 A 
ATOM     96  F   UNL A   1      44.260  23.094  31.657  1.00  0.00    -0.200 F 
ATOM     97  F   UNL A   1      44.252  23.355  34.371  1.00  0.00    -0.200 F 
ENDBRANCH  64  87
ENDBRANCH  38  39
ENDBRANCH  31  33
ENDBRANCH  30  31
ENDBRANCH  29  30
ENDBRANCH  28  29
ENDBRANCH  27  28
ENDBRANCH  26  27
ENDBRANCH  25  26
ENDBRANCH  24  25
ENDBRANCH   1  24
TORSDOF 23
ENDMDL
MODEL 2
REMARK VINA RESULT:     -10.0      4.017      9.630
REMARK SMILES CC[N@@H+]1CCO[C@@H](Cn2cc(C(=O)OCCOCCOCCOCCOC(=O)c3ccc(-c4c5nc(c(-c6c(F)c(F)c(F)c(F)c6F)c6ccc([nH]6)c(-c6c(F)c(F)c(F)c(F)c6F)c6nc(c(-c7c(F)c(F)c(F)c(F)c7F)c7ccc4[nH]7)C=C6)C=C5)cc3)nn2)C1
REMARK SMILES IDX 19 1 18 2 17 3 16 4 15 5 14 6 12 7 13 8 11 9 9 10 10 11
REMARK SMILES IDX 93 12 92 13 8 14 7 15 3 16 4 17 94 18 5 20 6 21 2 22 1 23
REMARK SMILES IDX 20 24 21 25 22 26 23 27 24 28 25 29 26 30 27 31 28 32 29 33
REMARK SMILES IDX 30 34 91 35 31 36 90 37 32 38 33 39 34 40 84 41 35 42 89 43
REMARK SMILES IDX 83 44 85 45 36 46 88 47 82 48 81 49 37 51 69 52 49 53 68 54
REMARK SMILES IDX 50 55 53 56 67 57 86 58 51 59 52 60 66 62 87 63 54 64 38 65
REMARK SMILES IDX 39 66 47 67 40 68 41 69 45 70 48 71 42 72 43 73 46 74 44 75
REMARK SMILES IDX 70 76 71 77 79 78 72 79 73 80 77 81 80 82 74 83 75 84 78 85
REMARK SMILES IDX 76 86 55 87 56 88 64 89 57 90 58 91 62 92 65 93 59 94 60 95
REMARK SMILES IDX 63 96 61 97
REMARK H PARENT 3 19 85 50 53 61
REMARK Flexibility Score: inf
ROOT
ATOM      1  C   UNL A   1      33.668  35.159  28.938  1.00  0.00     0.188 C 
ENDROOT
BRANCH   1   2
ATOM      2  C   UNL A   1      34.396  33.907  28.410  1.00  0.00     0.188 C 
BRANCH   2   3
ATOM      3  O   UNL A   1      33.602  32.957  27.731  1.00  0.00    -0.376 OA
BRANCH   3   4
ATOM      4  C   UNL A   1      33.680  31.564  27.956  1.00  0.00     0.202 C 
BRANCH   4   5
ATOM      5  C   UNL A   1      33.482  30.446  26.912  1.00  0.00     0.261 C 
BRANCH   5   6
ATOM      6  O   UNL A   1      32.167  29.939  26.715  1.00  0.00    -0.458 OA
BRANCH   6   7
ATOM      7  C   UNL A   1      31.406  30.577  25.788  1.00  0.00     0.360 C 
ATOM      8  O   UNL A   1      31.040  31.750  25.887  1.00  0.00    -0.244 OA
BRANCH   7   9
ATOM      9  C   UNL A   1      31.190  29.756  24.609  1.00  0.00     0.190 A 
ATOM     10  N   UNL A   1      31.314  28.310  23.000  1.00  0.00    -0.249 N 
ATOM     11  C   UNL A   1      32.063  28.873  23.995  1.00  0.00     0.147 A 
ATOM     12  N   UNL A   1      30.141  28.950  22.863  1.00  0.00    -0.066 NA
ATOM     13  N   UNL A   1      30.034  29.806  23.869  1.00  0.00    -0.123 NA
BRANCH  10  14
ATOM     14  C   UNL A   1      31.454  26.969  22.462  1.00  0.00     0.184 C 
BRANCH  14  15
ATOM     15  C   UNL A   1      31.939  26.007  23.550  1.00  0.00     0.194 C 
ATOM     16  N   UNL A   1      31.467  23.848  24.747  1.00  0.00    -0.331 N 
ATOM     17  C   UNL A   1      32.917  23.633  24.757  1.00  0.00     0.291 C 
ATOM     18  C   UNL A   1      31.083  24.717  23.631  1.00  0.00     0.296 C 
ATOM     19  H   UNL A   1      31.056  22.931  24.574  1.00  0.00     0.348 HD
ATOM     20  C   UNL A   1      33.785  24.876  24.469  1.00  0.00     0.222 C 
ATOM     21  O   UNL A   1      33.316  25.646  23.344  1.00  0.00    -0.365 OA
BRANCH  16  22
ATOM     22  C   UNL A   1      30.829  24.144  26.031  1.00  0.00     0.258 C 
ATOM     23  C   UNL A   1      30.275  22.997  26.869  1.00  0.00     0.071 C 
ENDBRANCH  16  22
ENDBRANCH  14  15
ENDBRANCH  10  14
ENDBRANCH   7   9
ENDBRANCH   6   7
ENDBRANCH   5   6
ENDBRANCH   4   5
ENDBRANCH   3   4
ENDBRANCH   2   3
ENDBRANCH   1   2
BRANCH   1  24
ATOM     24  O   UNL A   1      32.944  34.973  30.141  1.00  0.00    -0.377 OA
BRANCH  24  25
ATOM     25  C   UNL A   1      33.286  35.777  31.269  1.00  0.00     0.188 C 
BRANCH  25  26
ATOM     26  C   UNL A   1      33.957  35.206  32.551  1.00  0.00     0.188 C 
BRANCH  26  27
ATOM     27  O   UNL A   1      35.338  35.487  32.707  1.00  0.00    -0.376 OA
BRANCH  27  28
ATOM     28  C   UNL A   1      36.267  34.551  33.216  1.00  0.00     0.202 C 
BRANCH  28  29
ATOM     29  C   UNL A   1      35.775  33.132  33.473  1.00  0.00     0.261 C 
BRANCH  29  30
ATOM     30  O   UNL A   1      36.325  32.181  32.583  1.00  0.00    -0.460 OA
BRANCH  30  31
ATOM     31  C   UNL A   1      35.628  32.009  31.450  1.00  0.00     0.338 C 
ATOM     32  O   UNL A   1      34.427  32.189  31.280  1.00  0.00    -0.246 OA
BRANCH  31  33
ATOM     33  C   UNL A   1      36.522  31.414  30.460  1.00  0.00     0.060 A 
ATOM     34  C   UNL A   1      36.392  30.038  30.284  1.00  0.00     0.016 A 
ATOM     35  C   UNL A   1      37.683  32.121  30.101  1.00  0.00     0.016 A 
ATOM     36  C   UNL A   1      37.542  29.327  30.064  1.00  0.00     0.010 A 
ATOM     37  C   UNL A   1      38.832  31.408  29.902  1.00  0.00     0.010 A 
ATOM     38  C   UNL A   1      38.754  30.027  30.006  1.00  0.00    -0.014 A 
BRANCH  38  39
ATOM     39  C   UNL A   1      39.965  29.252  30.022  1.00  0.00     0.031 A 
ATOM     40  C   UNL A   1      40.484  29.054  31.382  1.00  0.00     0.074 A 
ATOM     41  C   UNL A   1      40.522  28.758  28.904  1.00  0.00     0.049 A 
ATOM     42  N   UNL A   1      41.530  29.604  31.893  1.00  0.00    -0.248 NA
ATOM     43  C   UNL A   1      39.640  28.327  32.341  1.00  0.00     0.031 C 
ATOM     44  C   UNL A   1      39.981  28.698  27.544  1.00  0.00     0.029 A 
ATOM     45  N   UNL A   1      41.712  28.118  28.790  1.00  0.00    -0.354 N 
ATOM     46  C   UNL A   1      41.580  29.153  33.202  1.00  0.00     0.074 A 
ATOM     47  C   UNL A   1      40.313  28.526  33.474  1.00  0.00     0.031 C 
ATOM     48  C   UNL A   1      40.744  27.858  26.804  1.00  0.00     0.029 A 
ATOM     49  C   UNL A   1      41.885  27.433  27.599  1.00  0.00     0.049 A 
ATOM     50  H   UNL A   1      42.396  28.137  29.496  1.00  0.00     0.167 HD
ATOM     51  C   UNL A   1      42.758  29.120  33.877  1.00  0.00     0.037 A 
ATOM     52  C   UNL A   1      42.864  26.528  27.352  1.00  0.00     0.037 A 
ATOM     53  C   UNL A   1      43.753  29.945  33.240  1.00  0.00     0.049 A 
ATOM     54  C   UNL A   1      43.958  26.783  28.331  1.00  0.00     0.074 A 
ATOM     55  C   UNL A   1      43.854  31.297  32.975  1.00  0.00     0.029 A 
ATOM     56  N   UNL A   1      44.667  29.330  32.419  1.00  0.00    -0.354 N 
ATOM     57  N   UNL A   1      44.713  27.846  28.299  1.00  0.00    -0.248 NA
ATOM     58  C   UNL A   1      43.892  26.106  29.621  1.00  0.00     0.031 C 
ATOM     59  C   UNL A   1      44.476  31.380  31.694  1.00  0.00     0.029 A 
ATOM     60  C   UNL A   1      44.770  30.082  31.277  1.00  0.00     0.049 A 
ATOM     61  H   UNL A   1      45.159  28.500  32.615  1.00  0.00     0.167 HD
ATOM     62  C   UNL A   1      44.859  28.217  29.629  1.00  0.00     0.074 A 
ATOM     63  C   UNL A   1      44.406  27.063  30.401  1.00  0.00     0.031 C 
ATOM     64  C   UNL A   1      45.049  29.524  29.975  1.00  0.00     0.037 A 
BRANCH  51  65
ATOM     65  C   UNL A   1      43.106  28.059  34.879  1.00  0.00     0.064 A 
ATOM     66  C   UNL A   1      43.531  28.445  36.162  1.00  0.00     0.173 A 
ATOM     67  C   UNL A   1      43.324  26.706  34.538  1.00  0.00     0.173 A 
ATOM     68  F   UNL A   1      43.392  29.714  36.574  1.00  0.00    -0.203 F 
ATOM     69  C   UNL A   1      44.191  27.557  37.012  1.00  0.00     0.198 A 
ATOM     70  C   UNL A   1      43.929  25.808  35.411  1.00  0.00     0.198 A 
ATOM     71  F   UNL A   1      43.070  26.227  33.314  1.00  0.00    -0.203 F 
ATOM     72  F   UNL A   1      44.693  27.997  38.173  1.00  0.00    -0.200 F 
ATOM     73  C   UNL A   1      44.394  26.241  36.634  1.00  0.00     0.200 A 
ATOM     74  F   UNL A   1      44.133  24.543  35.016  1.00  0.00    -0.200 F 
ATOM     75  F   UNL A   1      45.080  25.403  37.421  1.00  0.00    -0.200 F 
ENDBRANCH  51  65
BRANCH  52  76
ATOM     76  C   UNL A   1      42.772  25.279  26.558  1.00  0.00     0.064 A 
ATOM     77  C   UNL A   1      43.686  25.006  25.527  1.00  0.00     0.173 A 
ATOM     78  C   UNL A   1      41.960  24.205  26.972  1.00  0.00     0.173 A 
ATOM     79  F   UNL A   1      44.530  25.959  25.105  1.00  0.00    -0.203 F 
ATOM     80  C   UNL A   1      43.795  23.731  24.961  1.00  0.00     0.198 A 
ATOM     81  C   UNL A   1      42.064  22.936  26.403  1.00  0.00     0.198 A 
ATOM     82  F   UNL A   1      41.114  24.338  28.003  1.00  0.00    -0.203 F 
ATOM     83  F   UNL A   1      44.722  23.493  24.022  1.00  0.00    -0.200 F 
ATOM     84  C   UNL A   1      42.991  22.695  25.407  1.00  0.00     0.200 A 
ATOM     85  F   UNL A   1      41.306  21.934  26.871  1.00  0.00    -0.200 F 
ATOM     86  F   UNL A   1      43.137  21.459  24.909  1.00  0.00    -0.200 F 
ENDBRANCH  52  76
BRANCH  64  87
ATOM     87  C   UNL A   1      45.341  30.498  28.868  1.00  0.00     0.064 A 
ATOM     88  C   UNL A   1      46.628  30.739  28.355  1.00  0.00     0.173 A 
ATOM     89  C   UNL A   1      44.263  31.103  28.211  1.00  0.00     0.173 A 
ATOM     90  F   UNL A   1      47.699  30.114  28.860  1.00  0.00    -0.203 F 
ATOM     91  C   UNL A   1      46.826  31.586  27.266  1.00  0.00     0.198 A 
ATOM     92  C   UNL A   1      44.459  31.919  27.100  1.00  0.00     0.198 A 
ATOM     93  F   UNL A   1      43.007  30.861  28.619  1.00  0.00    -0.203 F 
ATOM     94  F   UNL A   1      48.066  31.810  26.805  1.00  0.00    -0.200 F 
ATOM     95  C   UNL A   1      45.741  32.170  26.636  1.00  0.00     0.200 A 
ATOM     96  F   UNL A   1      43.403  32.440  26.462  1.00  0.00    -0.200 F 
ATOM     97  F   UNL A   1      45.926  32.953  25.564  1.00  0.00    -0.200 F 
ENDBRANCH  64  87
ENDBRANCH  38  39
ENDBRANCH  31  33
ENDBRANCH  30  31
ENDBRANCH  29  30
ENDBRANCH  28  29
ENDBRANCH  27  28
ENDBRANCH  26  27
ENDBRANCH  25  26
ENDBRANCH  24  25
ENDBRANCH   1  24
TORSDOF 23
ENDMDL
MODEL 3
REMARK VINA RESULT:      -9.9      1.199      2.202
REMARK SMILES CC[N@@H+]1CCO[C@@H](Cn2cc(C(=O)OCCOCCOCCOCCOC(=O)c3ccc(-c4c5nc(c(-c6c(F)c(F)c(F)c(F)c6F)c6ccc([nH]6)c(-c6c(F)c(F)c(F)c(F)c6F)c6nc(c(-c7c(F)c(F)c(F)c(F)c7F)c7ccc4[nH]7)C=C6)C=C5)cc3)nn2)C1
REMARK SMILES IDX 19 1 18 2 17 3 16 4 15 5 14 6 12 7 13 8 11 9 9 10 10 11
REMARK SMILES IDX 93 12 92 13 8 14 7 15 3 16 4 17 94 18 5 20 6 21 2 22 1 23
REMARK SMILES IDX 20 24 21 25 22 26 23 27 24 28 25 29 26 30 27 31 28 32 29 33
REMARK SMILES IDX 30 34 91 35 31 36 90 37 32 38 33 39 34 40 84 41 35 42 89 43
REMARK SMILES IDX 83 44 85 45 36 46 88 47 82 48 81 49 37 51 69 52 49 53 68 54
REMARK SMILES IDX 50 55 53 56 67 57 86 58 51 59 52 60 66 62 87 63 54 64 38 65
REMARK SMILES IDX 39 66 47 67 40 68 41 69 45 70 48 71 42 72 43 73 46 74 44 75
REMARK SMILES IDX 70 76 71 77 79 78 72 79 73 80 77 81 80 82 74 83 75 84 78 85
REMARK SMILES IDX 76 86 55 87 56 88 64 89 57 90 58 91 62 92 65 93 59 94 60 95
REMARK SMILES IDX 63 96 61 97
REMARK H PARENT 3 19 85 50 53 61
REMARK Flexibility Score: inf
ROOT
ATOM      1  C   UNL A   1      38.838  21.347  25.703  1.00  0.00     0.188 C 
ENDROOT
BRANCH   1   2
ATOM      2  C   UNL A   1      37.715  22.402  25.757  1.00  0.00     0.188 C 
BRANCH   2   3
ATOM      3  O   UNL A   1      36.398  21.912  25.905  1.00  0.00    -0.376 OA
BRANCH   3   4
ATOM      4  C   UNL A   1      35.612  21.437  24.830  1.00  0.00     0.202 C 
BRANCH   4   5
ATOM      5  C   UNL A   1      34.358  20.546  24.926  1.00  0.00     0.261 C 
BRANCH   5   6
ATOM      6  O   UNL A   1      33.136  21.150  25.337  1.00  0.00    -0.458 OA
BRANCH   6   7
ATOM      7  C   UNL A   1      32.699  22.197  24.591  1.00  0.00     0.360 C 
ATOM      8  O   UNL A   1      32.456  22.128  23.384  1.00  0.00    -0.244 OA
BRANCH   7   9
ATOM      9  C   UNL A   1      32.427  23.367  25.408  1.00  0.00     0.190 A 
ATOM     10  N   UNL A   1      32.448  25.296  26.394  1.00  0.00    -0.249 N 
ATOM     11  C   UNL A   1      33.234  24.468  25.642  1.00  0.00     0.147 A 
ATOM     12  N   UNL A   1      31.326  24.670  26.782  1.00  0.00    -0.066 NA
ATOM     13  N   UNL A   1      31.280  23.506  26.150  1.00  0.00    -0.123 NA
BRANCH  10  14
ATOM     14  C   UNL A   1      32.492  26.747  26.416  1.00  0.00     0.184 C 
BRANCH  14  15
ATOM     15  C   UNL A   1      32.345  27.306  24.998  1.00  0.00     0.194 C 
ATOM     16  N   UNL A   1      31.688  29.313  23.636  1.00  0.00    -0.331 N 
ATOM     17  C   UNL A   1      32.784  28.954  22.731  1.00  0.00     0.291 C 
ATOM     18  C   UNL A   1      31.947  28.804  24.986  1.00  0.00     0.296 C 
ATOM     19  H   UNL A   1      31.698  30.331  23.687  1.00  0.00     0.348 HD
ATOM     20  C   UNL A   1      33.336  27.520  22.877  1.00  0.00     0.222 C 
ATOM     21  O   UNL A   1      33.560  27.135  24.247  1.00  0.00    -0.365 OA
BRANCH  16  22
ATOM     22  C   UNL A   1      30.325  29.126  23.137  1.00  0.00     0.258 C 
ATOM     23  C   UNL A   1      29.880  29.874  21.885  1.00  0.00     0.071 C 
ENDBRANCH  16  22
ENDBRANCH  14  15
ENDBRANCH  10  14
ENDBRANCH   7   9
ENDBRANCH   6   7
ENDBRANCH   5   6
ENDBRANCH   4   5
ENDBRANCH   3   4
ENDBRANCH   2   3
ENDBRANCH   1   2
BRANCH   1  24
ATOM     24  O   UNL A   1      39.894  21.543  26.628  1.00  0.00    -0.377 OA
BRANCH  24  25
ATOM     25  C   UNL A   1      41.178  21.008  26.313  1.00  0.00     0.188 C 
BRANCH  25  26
ATOM     26  C   UNL A   1      41.835  19.842  27.107  1.00  0.00     0.188 C 
BRANCH  26  27
ATOM     27  O   UNL A   1      42.335  18.767  26.331  1.00  0.00    -0.376 OA
BRANCH  27  28
ATOM     28  C   UNL A   1      43.703  18.616  26.006  1.00  0.00     0.202 C 
BRANCH  28  29
ATOM     29  C   UNL A   1      44.151  19.041  24.613  1.00  0.00     0.261 C 
BRANCH  29  30
ATOM     30  O   UNL A   1      44.116  20.441  24.418  1.00  0.00    -0.460 OA
BRANCH  30  31
ATOM     31  C   UNL A   1      45.305  21.050  24.524  1.00  0.00     0.338 C 
ATOM     32  O   UNL A   1      46.381  20.538  24.819  1.00  0.00    -0.246 OA
BRANCH  31  33
ATOM     33  C   UNL A   1      45.089  22.487  24.373  1.00  0.00     0.060 A 
ATOM     34  C   UNL A   1      46.205  23.289  24.604  1.00  0.00     0.016 A 
ATOM     35  C   UNL A   1      43.772  22.973  24.449  1.00  0.00     0.016 A 
ATOM     36  C   UNL A   1      45.991  24.485  25.237  1.00  0.00     0.010 A 
ATOM     37  C   UNL A   1      43.563  24.157  25.099  1.00  0.00     0.010 A 
ATOM     38  C   UNL A   1      44.678  24.828  25.582  1.00  0.00    -0.014 A 
BRANCH  38  39
ATOM     39  C   UNL A   1      44.497  25.955  26.456  1.00  0.00     0.031 A 
ATOM     40  C   UNL A   1      45.583  26.938  26.331  1.00  0.00     0.074 A 
ATOM     41  C   UNL A   1      43.432  26.080  27.265  1.00  0.00     0.049 A 
ATOM     42  N   UNL A   1      46.511  27.171  27.194  1.00  0.00    -0.248 NA
ATOM     43  C   UNL A   1      45.779  27.585  25.027  1.00  0.00     0.031 C 
ATOM     44  C   UNL A   1      42.199  25.293  27.305  1.00  0.00     0.029 A 
ATOM     45  N   UNL A   1      43.218  27.035  28.203  1.00  0.00    -0.354 N 
ATOM     46  C   UNL A   1      47.320  28.134  26.613  1.00  0.00     0.074 A 
ATOM     47  C   UNL A   1      46.935  28.218  25.228  1.00  0.00     0.031 C 
ATOM     48  C   UNL A   1      41.284  25.945  28.062  1.00  0.00     0.029 A 
ATOM     49  C   UNL A   1      41.912  27.116  28.654  1.00  0.00     0.049 A 
ATOM     50  H   UNL A   1      43.933  27.623  28.537  1.00  0.00     0.167 HD
ATOM     51  C   UNL A   1      48.078  28.956  27.382  1.00  0.00     0.037 A 
ATOM     52  C   UNL A   1      41.400  28.132  29.392  1.00  0.00     0.037 A 
ATOM     53  C   UNL A   1      48.226  28.438  28.718  1.00  0.00     0.049 A 
ATOM     54  C   UNL A   1      42.547  28.828  30.040  1.00  0.00     0.074 A 
ATOM     55  C   UNL A   1      48.791  27.294  29.249  1.00  0.00     0.029 A 
ATOM     56  N   UNL A   1      47.403  28.941  29.697  1.00  0.00    -0.354 N 
ATOM     57  N   UNL A   1      43.269  28.292  30.986  1.00  0.00    -0.248 NA
ATOM     58  C   UNL A   1      43.192  29.911  29.307  1.00  0.00     0.031 C 
ATOM     59  C   UNL A   1      47.931  26.918  30.322  1.00  0.00     0.029 A 
ATOM     60  C   UNL A   1      46.927  27.880  30.424  1.00  0.00     0.049 A 
ATOM     61  H   UNL A   1      47.193  29.891  29.849  1.00  0.00     0.167 HD
ATOM     62  C   UNL A   1      44.574  28.654  30.685  1.00  0.00     0.074 A 
ATOM     63  C   UNL A   1      44.458  29.720  29.693  1.00  0.00     0.031 C 
ATOM     64  C   UNL A   1      45.623  27.856  31.043  1.00  0.00     0.037 A 
BRANCH  51  65
ATOM     65  C   UNL A   1      48.357  30.388  27.033  1.00  0.00     0.064 A 
ATOM     66  C   UNL A   1      49.683  30.853  27.071  1.00  0.00     0.173 A 
ATOM     67  C   UNL A   1      47.357  31.382  26.955  1.00  0.00     0.173 A 
ATOM     68  F   UNL A   1      50.706  29.992  27.169  1.00  0.00    -0.203 F 
ATOM     69  C   UNL A   1      49.979  32.217  27.103  1.00  0.00     0.198 A 
ATOM     70  C   UNL A   1      47.659  32.739  26.928  1.00  0.00     0.198 A 
ATOM     71  F   UNL A   1      46.052  31.089  27.023  1.00  0.00    -0.203 F 
ATOM     72  F   UNL A   1      51.247  32.617  27.268  1.00  0.00    -0.200 F 
ATOM     73  C   UNL A   1      48.967  33.158  27.036  1.00  0.00     0.200 A 
ATOM     74  F   UNL A   1      46.661  33.634  26.883  1.00  0.00    -0.200 F 
ATOM     75  F   UNL A   1      49.244  34.465  27.128  1.00  0.00    -0.200 F 
ENDBRANCH  51  65
BRANCH  52  76
ATOM     76  C   UNL A   1      40.044  28.725  29.312  1.00  0.00     0.064 A 
ATOM     77  C   UNL A   1      39.519  29.171  28.088  1.00  0.00     0.173 A 
ATOM     78  C   UNL A   1      39.132  28.617  30.380  1.00  0.00     0.173 A 
ATOM     79  F   UNL A   1      40.308  29.259  27.007  1.00  0.00    -0.203 F 
ATOM     80  C   UNL A   1      38.159  29.468  27.937  1.00  0.00     0.198 A 
ATOM     81  C   UNL A   1      37.778  28.920  30.231  1.00  0.00     0.198 A 
ATOM     82  F   UNL A   1      39.514  28.122  31.566  1.00  0.00    -0.203 F 
ATOM     83  F   UNL A   1      37.683  29.833  26.738  1.00  0.00    -0.200 F 
ATOM     84  C   UNL A   1      37.290  29.333  29.006  1.00  0.00     0.200 A 
ATOM     85  F   UNL A   1      36.941  28.747  31.264  1.00  0.00    -0.200 F 
ATOM     86  F   UNL A   1      35.977  29.557  28.847  1.00  0.00    -0.200 F 
ENDBRANCH  52  76
BRANCH  64  87
ATOM     87  C   UNL A   1      45.338  26.715  31.979  1.00  0.00     0.064 A 
ATOM     88  C   UNL A   1      44.854  25.462  31.563  1.00  0.00     0.173 A 
ATOM     89  C   UNL A   1      45.701  26.851  33.325  1.00  0.00     0.173 A 
ATOM     90  F   UNL A   1      44.587  25.220  30.273  1.00  0.00    -0.203 F 
ATOM     91  C   UNL A   1      44.695  24.412  32.466  1.00  0.00     0.198 A 
ATOM     92  C   UNL A   1      45.576  25.790  34.217  1.00  0.00     0.198 A 
ATOM     93  F   UNL A   1      46.225  28.005  33.765  1.00  0.00    -0.203 F 
ATOM     94  F   UNL A   1      44.218  23.231  32.046  1.00  0.00    -0.200 F 
ATOM     95  C   UNL A   1      45.062  24.575  33.791  1.00  0.00     0.200 A 
ATOM     96  F   UNL A   1      45.981  25.936  35.485  1.00  0.00    -0.200 F 
ATOM     97  F   UNL A   1      44.947  23.554  34.651  1.00  0.00    -0.200 F 
ENDBRANCH  64  87
ENDBRANCH  38  39
ENDBRANCH  31  33
ENDBRANCH  30  31
ENDBRANCH  29  30
ENDBRANCH  28  29
ENDBRANCH  27  28
ENDBRANCH  26  27
ENDBRANCH  25  26
ENDBRANCH  24  25
ENDBRANCH   1  24
TORSDOF 23
ENDMDL
