MODEL 1
REMARK VINA RESULT:     -11.3      0.000      0.000
REMARK SMILES O=C(OCCOCCOCCOCCOC(=O)c1ccc(-c2c3nc(c(-c4c(F)c(F)c(F)c(F)c4F)c4ccc([nH]4)c(-c4c(F)c(F)c(F)c(F)c4F)c4nc(c(-c5c(F)c(F)c(F)c(F)c5F)c5ccc2[nH]5)C=C4)C=C3)cc1)C1=Cc2cc(Cl)c(Cl)c(Cl)c2O[C@@H]1C(F)(F)F
REMARK SMILES IDX 10 1 9 2 8 3 7 4 6 5 5 6 4 7 3 8 2 9 1 10 81 11 82 12 93 13
REMARK SMILES IDX 83 14 92 15 84 16 91 17 85 18 89 19 86 20 87 21 90 22 88 23
REMARK SMILES IDX 94 24 95 25 96 26 97 27 11 28 12 29 13 30 14 31 15 32 16 33
REMARK SMILES IDX 17 34 18 35 19 36 80 37 20 38 79 39 21 40 22 41 23 42 73 43
REMARK SMILES IDX 24 44 78 45 72 46 74 47 25 48 77 49 71 50 70 51 26 53 58 54
REMARK SMILES IDX 38 55 57 56 39 57 42 58 56 59 75 60 40 61 41 62 55 64 76 65
REMARK SMILES IDX 43 66 27 67 28 68 36 69 29 70 30 71 34 72 37 73 31 74 32 75
REMARK SMILES IDX 35 76 33 77 59 78 60 79 68 80 61 81 62 82 66 83 69 84 63 85
REMARK SMILES IDX 64 86 67 87 65 88 44 89 45 90 53 91 46 92 47 93 51 94 54 95
REMARK SMILES IDX 48 96 49 97 52 98 50 99
REMARK H PARENT 74 52 42 63
REMARK Flexibility Score: inf
ROOT
ATOM      1  C   UNL A   1      38.543  22.475  25.746  1.00  0.00     0.188 C 
ENDROOT
BRANCH   1   2
ATOM      2  O   UNL A   1      37.621  21.411  25.736  1.00  0.00    -0.377 OA
BRANCH   2   3
ATOM      3  C   UNL A   1      36.325  21.844  25.390  1.00  0.00     0.188 C 
BRANCH   3   4
ATOM      4  C   UNL A   1      35.341  20.722  25.034  1.00  0.00     0.188 C 
BRANCH   4   5
ATOM      5  O   UNL A   1      33.948  20.964  24.654  1.00  0.00    -0.376 OA
BRANCH   5   6
ATOM      6  C   UNL A   1      33.196  22.119  23.761  1.00  0.00     0.202 C 
BRANCH   6   7
ATOM      7  C   UNL A   1      33.957  24.078  23.179  1.00  0.00     0.261 C 
BRANCH   7   8
ATOM      8  O   UNL A   1      34.346  25.213  24.120  1.00  0.00    -0.460 OA
BRANCH   8   9
ATOM      9  C   UNL A   1      33.602  26.312  23.942  1.00  0.00     0.338 C 
ATOM     10  O   UNL A   1      33.649  27.127  23.058  1.00  0.00    -0.246 OA
BRANCH   9  11
ATOM     11  C   UNL A   1      33.112  26.387  25.302  1.00  0.00     0.087 C 
ATOM     12  C   UNL A   1      34.033  27.092  26.211  1.00  0.00     0.027 C 
ATOM     13  C   UNL A   1      31.356  27.004  24.807  1.00  0.00     0.316 C 
ATOM     14  C   UNL A   1      33.750  28.769  26.823  1.00  0.00     0.020 A 
ATOM     15  O   UNL A   1      31.082  28.853  25.351  1.00  0.00    -0.474 OA
ATOM     16  C   UNL A   1      34.724  29.372  27.569  1.00  0.00     0.034 A 
ATOM     17  C   UNL A   1      32.369  29.704  26.350  1.00  0.00     0.148 A 
ATOM     18  C   UNL A   1      34.493  30.725  27.898  1.00  0.00     0.062 A 
ATOM     19  C   UNL A   1      32.255  31.040  26.663  1.00  0.00     0.103 A 
ATOM     20  Cl  UNL A   1      35.771  31.443  28.850  1.00  0.00    -0.083 Cl
ATOM     21  C   UNL A   1      33.330  31.525  27.475  1.00  0.00     0.082 A 
ATOM     22  Cl  UNL A   1      31.027  32.045  26.024  1.00  0.00    -0.079 Cl
ATOM     23  Cl  UNL A   1      33.276  33.197  28.007  1.00  0.00    -0.081 Cl
BRANCH  13  24
ATOM     24  C   UNL A   1      30.600  25.600  25.229  1.00  0.00     0.430 C 
ATOM     25  F   UNL A   1      30.861  25.085  26.444  1.00  0.00    -0.167 F 
ATOM     26  F   UNL A   1      29.261  25.881  25.269  1.00  0.00    -0.167 F 
ATOM     27  F   UNL A   1      30.707  24.600  24.322  1.00  0.00    -0.167 F 
ENDBRANCH  13  24
ENDBRANCH   9  11
ENDBRANCH   8   9
ENDBRANCH   7   8
ENDBRANCH   6   7
ENDBRANCH   5   6
ENDBRANCH   4   5
ENDBRANCH   3   4
ENDBRANCH   2   3
ENDBRANCH   1   2
BRANCH   1  28
ATOM     28  C   UNL A   1      39.725  22.336  26.711  1.00  0.00     0.188 C 
BRANCH  28  29
ATOM     29  O   UNL A   1      40.893  21.602  26.389  1.00  0.00    -0.376 OA
BRANCH  29  30
ATOM     30  C   UNL A   1      40.890  20.186  26.350  1.00  0.00     0.202 C 
BRANCH  30  31
ATOM     31  C   UNL A   1      42.194  19.381  26.246  1.00  0.00     0.261 C 
BRANCH  31  32
ATOM     32  O   UNL A   1      42.769  19.271  24.938  1.00  0.00    -0.460 OA
BRANCH  32  33
ATOM     33  C   UNL A   1      44.116  19.365  24.878  1.00  0.00     0.338 C 
ATOM     34  O   UNL A   1      44.905  18.477  24.605  1.00  0.00    -0.246 OA
BRANCH  33  35
ATOM     35  C   UNL A   1      44.513  20.784  25.008  1.00  0.00     0.060 A 
ATOM     36  C   UNL A   1      45.275  21.163  26.126  1.00  0.00     0.016 A 
ATOM     37  C   UNL A   1      44.146  21.733  24.053  1.00  0.00     0.016 A 
ATOM     38  C   UNL A   1      45.658  22.490  26.303  1.00  0.00     0.010 A 
ATOM     39  C   UNL A   1      44.485  23.073  24.257  1.00  0.00     0.010 A 
ATOM     40  C   UNL A   1      45.213  23.459  25.398  1.00  0.00    -0.014 A 
BRANCH  40  41
ATOM     41  C   UNL A   1      45.307  24.893  25.755  1.00  0.00     0.031 A 
ATOM     42  C   UNL A   1      46.649  25.556  25.639  1.00  0.00     0.074 A 
ATOM     43  C   UNL A   1      44.236  25.586  26.177  1.00  0.00     0.049 A 
ATOM     44  N   UNL A   1      47.023  26.748  26.020  1.00  0.00    -0.248 NA
ATOM     45  C   UNL A   1      47.719  24.757  25.016  1.00  0.00     0.031 C 
ATOM     46  C   UNL A   1      42.878  25.062  26.268  1.00  0.00     0.029 A 
ATOM     47  N   UNL A   1      44.134  26.877  26.634  1.00  0.00    -0.354 N 
ATOM     48  C   UNL A   1      48.374  26.832  25.711  1.00  0.00     0.074 A 
ATOM     49  C   UNL A   1      48.759  25.570  25.120  1.00  0.00     0.031 C 
ATOM     50  C   UNL A   1      42.078  26.012  26.782  1.00  0.00     0.029 A 
ATOM     51  C   UNL A   1      42.881  27.191  27.104  1.00  0.00     0.049 A 
ATOM     52  H   UNL A   1      44.883  27.515  26.625  1.00  0.00     0.167 HD
ATOM     53  C   UNL A   1      49.216  27.870  25.917  1.00  0.00     0.037 A 
ATOM     54  C   UNL A   1      42.453  28.285  27.764  1.00  0.00     0.037 A 
ATOM     55  C   UNL A   1      48.817  29.122  26.501  1.00  0.00     0.049 A 
ATOM     56  C   UNL A   1      43.434  29.397  28.053  1.00  0.00     0.074 A 
ATOM     57  C   UNL A   1      49.581  30.254  26.711  1.00  0.00     0.029 A 
ATOM     58  N   UNL A   1      47.547  29.398  26.984  1.00  0.00    -0.354 N 
ATOM     59  N   UNL A   1      44.701  29.490  27.728  1.00  0.00    -0.248 NA
ATOM     60  C   UNL A   1      42.928  30.554  28.808  1.00  0.00     0.031 C 
ATOM     61  C   UNL A   1      48.798  31.185  27.397  1.00  0.00     0.029 A 
ATOM     62  C   UNL A   1      47.521  30.666  27.540  1.00  0.00     0.049 A 
ATOM     63  H   UNL A   1      46.778  28.784  26.940  1.00  0.00     0.167 HD
ATOM     64  C   UNL A   1      45.133  30.720  28.211  1.00  0.00     0.074 A 
ATOM     65  C   UNL A   1      43.988  31.347  28.835  1.00  0.00     0.031 C 
ATOM     66  C   UNL A   1      46.367  31.279  28.148  1.00  0.00     0.037 A 
BRANCH  53  67
ATOM     67  C   UNL A   1      50.662  27.686  25.561  1.00  0.00     0.064 A 
ATOM     68  C   UNL A   1      51.145  27.898  24.262  1.00  0.00     0.173 A 
ATOM     69  C   UNL A   1      51.589  27.345  26.558  1.00  0.00     0.173 A 
ATOM     70  F   UNL A   1      50.300  28.209  23.268  1.00  0.00    -0.203 F 
ATOM     71  C   UNL A   1      52.500  27.759  23.972  1.00  0.00     0.198 A 
ATOM     72  C   UNL A   1      52.946  27.242  26.273  1.00  0.00     0.198 A 
ATOM     73  F   UNL A   1      51.179  27.131  27.819  1.00  0.00    -0.203 F 
ATOM     74  F   UNL A   1      52.936  27.927  22.716  1.00  0.00    -0.200 F 
ATOM     75  C   UNL A   1      53.401  27.443  24.980  1.00  0.00     0.200 A 
ATOM     76  F   UNL A   1      53.815  26.953  27.252  1.00  0.00    -0.200 F 
ATOM     77  F   UNL A   1      54.707  27.331  24.702  1.00  0.00    -0.200 F 
ENDBRANCH  53  67
BRANCH  54  78
ATOM     78  C   UNL A   1      41.050  28.366  28.256  1.00  0.00     0.064 A 
ATOM     79  C   UNL A   1      40.028  28.900  27.458  1.00  0.00     0.173 A 
ATOM     80  C   UNL A   1      40.710  27.960  29.557  1.00  0.00     0.173 A 
ATOM     81  F   UNL A   1      40.303  29.329  26.217  1.00  0.00    -0.203 F 
ATOM     82  C   UNL A   1      38.733  29.053  27.950  1.00  0.00     0.198 A 
ATOM     83  C   UNL A   1      39.406  28.078  30.034  1.00  0.00     0.198 A 
ATOM     84  F   UNL A   1      41.646  27.449  30.369  1.00  0.00    -0.203 F 
ATOM     85  F   UNL A   1      37.794  29.630  27.188  1.00  0.00    -0.200 F 
ATOM     86  C   UNL A   1      38.421  28.637  29.235  1.00  0.00     0.200 A 
ATOM     87  F   UNL A   1      39.107  27.659  31.271  1.00  0.00    -0.200 F 
ATOM     88  F   UNL A   1      37.177  28.786  29.708  1.00  0.00    -0.200 F 
ENDBRANCH  54  78
BRANCH  66  89
ATOM     89  C   UNL A   1      46.544  32.650  28.735  1.00  0.00     0.064 A 
ATOM     90  C   UNL A   1      46.268  33.811  27.997  1.00  0.00     0.173 A 
ATOM     91  C   UNL A   1      46.926  32.801  30.077  1.00  0.00     0.173 A 
ATOM     92  F   UNL A   1      45.913  33.723  26.707  1.00  0.00    -0.203 F 
ATOM     93  C   UNL A   1      46.385  35.072  28.578  1.00  0.00     0.198 A 
ATOM     94  C   UNL A   1      47.005  34.060  30.664  1.00  0.00     0.198 A 
ATOM     95  F   UNL A   1      47.193  31.722  30.830  1.00  0.00    -0.203 F 
ATOM     96  F   UNL A   1      46.158  36.169  27.843  1.00  0.00    -0.200 F 
ATOM     97  C   UNL A   1      46.741  35.194  29.913  1.00  0.00     0.200 A 
ATOM     98  F   UNL A   1      47.329  34.175  31.960  1.00  0.00    -0.200 F 
ATOM     99  F   UNL A   1      46.833  36.408  30.474  1.00  0.00    -0.200 F 
ENDBRANCH  66  89
ENDBRANCH  40  41
ENDBRANCH  33  35
ENDBRANCH  32  33
ENDBRANCH  31  32
ENDBRANCH  30  31
ENDBRANCH  29  30
ENDBRANCH  28  29
ENDBRANCH   1  28
TORSDOF 21
ENDMDL
MODEL 2
REMARK VINA RESULT:     -11.0      6.597     12.426
REMARK SMILES O=C(OCCOCCOCCOCCOC(=O)c1ccc(-c2c3nc(c(-c4c(F)c(F)c(F)c(F)c4F)c4ccc([nH]4)c(-c4c(F)c(F)c(F)c(F)c4F)c4nc(c(-c5c(F)c(F)c(F)c(F)c5F)c5ccc2[nH]5)C=C4)C=C3)cc1)C1=Cc2cc(Cl)c(Cl)c(Cl)c2O[C@@H]1C(F)(F)F
REMARK SMILES IDX 10 1 9 2 8 3 7 4 6 5 5 6 4 7 3 8 2 9 1 10 81 11 82 12 93 13
REMARK SMILES IDX 83 14 92 15 84 16 91 17 85 18 89 19 86 20 87 21 90 22 88 23
REMARK SMILES IDX 94 24 95 25 96 26 97 27 11 28 12 29 13 30 14 31 15 32 16 33
REMARK SMILES IDX 17 34 18 35 19 36 80 37 20 38 79 39 21 40 22 41 23 42 73 43
REMARK SMILES IDX 24 44 78 45 72 46 74 47 25 48 77 49 71 50 70 51 26 53 58 54
REMARK SMILES IDX 38 55 57 56 39 57 42 58 56 59 75 60 40 61 41 62 55 64 76 65
REMARK SMILES IDX 43 66 27 67 28 68 36 69 29 70 30 71 34 72 37 73 31 74 32 75
REMARK SMILES IDX 35 76 33 77 59 78 60 79 68 80 61 81 62 82 66 83 69 84 63 85
REMARK SMILES IDX 64 86 67 87 65 88 44 89 45 90 53 91 46 92 47 93 51 94 54 95
REMARK SMILES IDX 48 96 49 97 52 98 50 99
REMARK H PARENT 74 52 42 63
REMARK Flexibility Score: inf
ROOT
ATOM      1  C   UNL A   1      33.526  31.473  27.626  1.00  0.00     0.188 C 
ENDROOT
BRANCH   1   2
ATOM      2  O   UNL A   1      33.746  30.082  27.630  1.00  0.00    -0.377 OA
BRANCH   2   3
ATOM      3  C   UNL A   1      33.940  29.579  26.328  1.00  0.00     0.188 C 
BRANCH   3   4
ATOM      4  C   UNL A   1      32.683  29.558  25.448  1.00  0.00     0.188 C 
BRANCH   4   5
ATOM      5  O   UNL A   1      32.561  28.742  24.239  1.00  0.00    -0.376 OA
BRANCH   5   6
ATOM      6  C   UNL A   1      32.188  27.167  23.961  1.00  0.00     0.202 C 
BRANCH   6   7
ATOM      7  C   UNL A   1      31.703  25.622  25.421  1.00  0.00     0.261 C 
BRANCH   7   8
ATOM      8  O   UNL A   1      32.679  24.944  26.378  1.00  0.00    -0.460 OA
BRANCH   8   9
ATOM      9  C   UNL A   1      32.911  23.664  26.061  1.00  0.00     0.338 C 
ATOM     10  O   UNL A   1      32.683  22.669  26.699  1.00  0.00    -0.246 OA
BRANCH   9  11
ATOM     11  C   UNL A   1      33.859  23.938  25.002  1.00  0.00     0.087 C 
ATOM     12  C   UNL A   1      35.155  24.432  25.499  1.00  0.00     0.027 C 
ATOM     13  C   UNL A   1      33.585  22.257  24.101  1.00  0.00     0.316 C 
ATOM     14  C   UNL A   1      36.657  23.430  25.548  1.00  0.00     0.020 A 
ATOM     15  O   UNL A   1      35.154  21.116  24.255  1.00  0.00    -0.474 OA
ATOM     16  C   UNL A   1      37.778  23.949  26.135  1.00  0.00     0.034 A 
ATOM     17  C   UNL A   1      36.680  21.773  25.042  1.00  0.00     0.148 A 
ATOM     18  C   UNL A   1      38.871  23.064  26.259  1.00  0.00     0.062 A 
ATOM     19  C   UNL A   1      37.770  20.961  25.259  1.00  0.00     0.103 A 
ATOM     20  Cl  UNL A   1      40.272  23.783  27.017  1.00  0.00    -0.083 Cl
ATOM     21  C   UNL A   1      38.879  21.649  25.849  1.00  0.00     0.082 A 
ATOM     22  Cl  UNL A   1      37.747  19.273  24.982  1.00  0.00    -0.079 Cl
ATOM     23  Cl  UNL A   1      40.363  20.750  26.117  1.00  0.00    -0.081 Cl
BRANCH  13  24
ATOM     24  C   UNL A   1      32.823  22.927  22.802  1.00  0.00     0.430 C 
ATOM     25  F   UNL A   1      33.523  23.782  22.033  1.00  0.00    -0.167 F 
ATOM     26  F   UNL A   1      32.522  21.893  21.957  1.00  0.00    -0.167 F 
ATOM     27  F   UNL A   1      31.626  23.498  23.074  1.00  0.00    -0.167 F 
ENDBRANCH  13  24
ENDBRANCH   9  11
ENDBRANCH   8   9
ENDBRANCH   7   8
ENDBRANCH   6   7
ENDBRANCH   5   6
ENDBRANCH   4   5
ENDBRANCH   3   4
ENDBRANCH   2   3
ENDBRANCH   1   2
BRANCH   1  28
ATOM     28  C   UNL A   1      34.702  32.344  28.082  1.00  0.00     0.188 C 
BRANCH  28  29
ATOM     29  O   UNL A   1      34.588  33.296  29.124  1.00  0.00    -0.376 OA
BRANCH  29  30
ATOM     30  C   UNL A   1      34.259  34.649  28.860  1.00  0.00     0.202 C 
BRANCH  30  31
ATOM     31  C   UNL A   1      33.003  35.303  29.455  1.00  0.00     0.261 C 
BRANCH  31  32
ATOM     32  O   UNL A   1      33.211  36.171  30.576  1.00  0.00    -0.460 OA
BRANCH  32  33
ATOM     33  C   UNL A   1      32.762  35.712  31.766  1.00  0.00     0.338 C 
ATOM     34  O   UNL A   1      31.615  35.725  32.176  1.00  0.00    -0.246 OA
BRANCH  33  35
ATOM     35  C   UNL A   1      33.856  34.993  32.455  1.00  0.00     0.060 A 
ATOM     36  C   UNL A   1      35.127  35.591  32.492  1.00  0.00     0.016 A 
ATOM     37  C   UNL A   1      33.646  33.751  33.056  1.00  0.00     0.016 A 
ATOM     38  C   UNL A   1      36.194  34.946  33.113  1.00  0.00     0.010 A 
ATOM     39  C   UNL A   1      34.728  33.080  33.631  1.00  0.00     0.010 A 
ATOM     40  C   UNL A   1      36.010  33.661  33.633  1.00  0.00    -0.014 A 
BRANCH  40  41
ATOM     41  C   UNL A   1      37.189  32.832  33.970  1.00  0.00     0.031 A 
ATOM     42  C   UNL A   1      37.908  33.128  35.254  1.00  0.00     0.074 A 
ATOM     43  C   UNL A   1      37.615  31.850  33.157  1.00  0.00     0.049 A 
ATOM     44  N   UNL A   1      39.036  32.646  35.705  1.00  0.00    -0.248 NA
ATOM     45  C   UNL A   1      37.270  34.110  36.147  1.00  0.00     0.031 C 
ATOM     46  C   UNL A   1      36.960  31.437  31.922  1.00  0.00     0.029 A 
ATOM     47  N   UNL A   1      38.721  31.040  33.243  1.00  0.00    -0.354 N 
ATOM     48  C   UNL A   1      39.257  33.288  36.916  1.00  0.00     0.074 A 
ATOM     49  C   UNL A   1      38.154  34.198  37.129  1.00  0.00     0.031 C 
ATOM     50  C   UNL A   1      37.692  30.469  31.343  1.00  0.00     0.029 A 
ATOM     51  C   UNL A   1      38.893  30.235  32.142  1.00  0.00     0.049 A 
ATOM     52  H   UNL A   1      39.330  31.036  34.016  1.00  0.00     0.167 HD
ATOM     53  C   UNL A   1      40.298  33.133  37.766  1.00  0.00     0.037 A 
ATOM     54  C   UNL A   1      39.929  29.443  31.802  1.00  0.00     0.037 A 
ATOM     55  C   UNL A   1      41.385  32.219  37.544  1.00  0.00     0.049 A 
ATOM     56  C   UNL A   1      41.117  29.351  32.731  1.00  0.00     0.074 A 
ATOM     57  C   UNL A   1      42.465  31.953  38.365  1.00  0.00     0.029 A 
ATOM     58  N   UNL A   1      41.538  31.435  36.410  1.00  0.00    -0.354 N 
ATOM     59  N   UNL A   1      41.308  29.929  33.893  1.00  0.00    -0.248 NA
ATOM     60  C   UNL A   1      42.237  28.502  32.299  1.00  0.00     0.031 C 
ATOM     61  C   UNL A   1      43.315  31.072  37.692  1.00  0.00     0.029 A 
ATOM     62  C   UNL A   1      42.724  30.724  36.487  1.00  0.00     0.049 A 
ATOM     63  H   UNL A   1      40.900  31.392  35.662  1.00  0.00     0.167 HD
ATOM     64  C   UNL A   1      42.549  29.494  34.340  1.00  0.00     0.074 A 
ATOM     65  C   UNL A   1      43.060  28.588  33.334  1.00  0.00     0.031 C 
ATOM     66  C   UNL A   1      43.211  29.817  35.479  1.00  0.00     0.037 A 
BRANCH  53  67
ATOM     67  C   UNL A   1      40.346  34.004  38.986  1.00  0.00     0.064 A 
ATOM     68  C   UNL A   1      39.852  33.580  40.228  1.00  0.00     0.173 A 
ATOM     69  C   UNL A   1      40.951  35.269  38.919  1.00  0.00     0.173 A 
ATOM     70  F   UNL A   1      39.249  32.387  40.344  1.00  0.00    -0.203 F 
ATOM     71  C   UNL A   1      39.949  34.395  41.353  1.00  0.00     0.198 A 
ATOM     72  C   UNL A   1      41.078  36.066  40.052  1.00  0.00     0.198 A 
ATOM     73  F   UNL A   1      41.441  35.724  37.755  1.00  0.00    -0.203 F 
ATOM     74  F   UNL A   1      39.435  33.987  42.521  1.00  0.00    -0.200 F 
ATOM     75  C   UNL A   1      40.572  35.633  41.267  1.00  0.00     0.200 A 
ATOM     76  F   UNL A   1      41.696  37.253  39.968  1.00  0.00    -0.200 F 
ATOM     77  F   UNL A   1      40.683  36.407  42.355  1.00  0.00    -0.200 F 
ENDBRANCH  53  67
BRANCH  54  78
ATOM     78  C   UNL A   1      39.928  28.720  30.500  1.00  0.00     0.064 A 
ATOM     79  C   UNL A   1      40.481  29.297  29.347  1.00  0.00     0.173 A 
ATOM     80  C   UNL A   1      39.327  27.458  30.369  1.00  0.00     0.173 A 
ATOM     81  F   UNL A   1      41.043  30.512  29.410  1.00  0.00    -0.203 F 
ATOM     82  C   UNL A   1      40.404  28.655  28.112  1.00  0.00     0.198 A 
ATOM     83  C   UNL A   1      39.286  26.801  29.141  1.00  0.00     0.198 A 
ATOM     84  F   UNL A   1      38.776  26.860  31.435  1.00  0.00    -0.203 F 
ATOM     85  F   UNL A   1      40.880  29.261  27.016  1.00  0.00    -0.200 F 
ATOM     86  C   UNL A   1      39.812  27.406  28.011  1.00  0.00     0.200 A 
ATOM     87  F   UNL A   1      38.727  25.586  29.052  1.00  0.00    -0.200 F 
ATOM     88  F   UNL A   1      39.737  26.791  26.823  1.00  0.00    -0.200 F 
ENDBRANCH  54  78
BRANCH  66  89
ATOM     89  C   UNL A   1      44.542  29.166  35.723  1.00  0.00     0.064 A 
ATOM     90  C   UNL A   1      44.652  27.932  36.380  1.00  0.00     0.173 A 
ATOM     91  C   UNL A   1      45.718  29.753  35.228  1.00  0.00     0.173 A 
ATOM     92  F   UNL A   1      43.561  27.335  36.884  1.00  0.00    -0.203 F 
ATOM     93  C   UNL A   1      45.891  27.318  36.546  1.00  0.00     0.198 A 
ATOM     94  C   UNL A   1      46.949  29.119  35.364  1.00  0.00     0.198 A 
ATOM     95  F   UNL A   1      45.668  30.929  34.585  1.00  0.00    -0.203 F 
ATOM     96  F   UNL A   1      45.978  26.160  37.214  1.00  0.00    -0.200 F 
ATOM     97  C   UNL A   1      47.036  27.906  36.028  1.00  0.00     0.200 A 
ATOM     98  F   UNL A   1      48.051  29.678  34.843  1.00  0.00    -0.200 F 
ATOM     99  F   UNL A   1      48.224  27.303  36.172  1.00  0.00    -0.200 F 
ENDBRANCH  66  89
ENDBRANCH  40  41
ENDBRANCH  33  35
ENDBRANCH  32  33
ENDBRANCH  31  32
ENDBRANCH  30  31
ENDBRANCH  29  30
ENDBRANCH  28  29
ENDBRANCH   1  28
TORSDOF 21
ENDMDL
MODEL 3
REMARK VINA RESULT:     -10.5      1.706      2.574
REMARK SMILES O=C(OCCOCCOCCOCCOC(=O)c1ccc(-c2c3nc(c(-c4c(F)c(F)c(F)c(F)c4F)c4ccc([nH]4)c(-c4c(F)c(F)c(F)c(F)c4F)c4nc(c(-c5c(F)c(F)c(F)c(F)c5F)c5ccc2[nH]5)C=C4)C=C3)cc1)C1=Cc2cc(Cl)c(Cl)c(Cl)c2O[C@@H]1C(F)(F)F
REMARK SMILES IDX 10 1 9 2 8 3 7 4 6 5 5 6 4 7 3 8 2 9 1 10 81 11 82 12 93 13
REMARK SMILES IDX 83 14 92 15 84 16 91 17 85 18 89 19 86 20 87 21 90 22 88 23
REMARK SMILES IDX 94 24 95 25 96 26 97 27 11 28 12 29 13 30 14 31 15 32 16 33
REMARK SMILES IDX 17 34 18 35 19 36 80 37 20 38 79 39 21 40 22 41 23 42 73 43
REMARK SMILES IDX 24 44 78 45 72 46 74 47 25 48 77 49 71 50 70 51 26 53 58 54
REMARK SMILES IDX 38 55 57 56 39 57 42 58 56 59 75 60 40 61 41 62 55 64 76 65
REMARK SMILES IDX 43 66 27 67 28 68 36 69 29 70 30 71 34 72 37 73 31 74 32 75
REMARK SMILES IDX 35 76 33 77 59 78 60 79 68 80 61 81 62 82 66 83 69 84 63 85
REMARK SMILES IDX 64 86 67 87 65 88 44 89 45 90 53 91 46 92 47 93 51 94 54 95
REMARK SMILES IDX 48 96 49 97 52 98 50 99
REMARK H PARENT 74 52 42 63
REMARK Flexibility Score: inf
ROOT
ATOM      1  C   UNL A   1      36.376  22.197  24.089  1.00  0.00     0.188 C 
ENDROOT
BRANCH   1   2
ATOM      2  O   UNL A   1      35.013  21.894  23.905  1.00  0.00    -0.377 OA
BRANCH   2   3
ATOM      3  C   UNL A   1      34.551  20.962  24.855  1.00  0.00     0.188 C 
BRANCH   3   4
ATOM      4  C   UNL A   1      33.134  21.225  25.382  1.00  0.00     0.188 C 
BRANCH   4   5
ATOM      5  O   UNL A   1      32.790  22.368  26.230  1.00  0.00    -0.376 OA
BRANCH   5   6
ATOM      6  C   UNL A   1      33.481  23.833  26.501  1.00  0.00     0.202 C 
BRANCH   6   7
ATOM      7  C   UNL A   1      34.414  25.169  25.053  1.00  0.00     0.261 C 
BRANCH   7   8
ATOM      8  O   UNL A   1      34.256  25.112  23.537  1.00  0.00    -0.460 OA
BRANCH   8   9
ATOM      9  C   UNL A   1      33.653  26.198  23.037  1.00  0.00     0.338 C 
ATOM     10  O   UNL A   1      34.091  27.036  22.293  1.00  0.00    -0.246 OA
BRANCH   9  11
ATOM     11  C   UNL A   1      32.570  26.227  23.997  1.00  0.00     0.087 C 
ATOM     12  C   UNL A   1      32.546  27.459  24.805  1.00  0.00     0.027 C 
ATOM     13  C   UNL A   1      31.216  25.706  22.730  1.00  0.00     0.316 C 
ATOM     14  C   UNL A   1      31.352  28.793  24.562  1.00  0.00     0.020 A 
ATOM     15  O   UNL A   1      29.995  27.177  22.363  1.00  0.00    -0.474 OA
ATOM     16  C   UNL A   1      31.490  29.942  25.290  1.00  0.00     0.034 A 
ATOM     17  C   UNL A   1      30.149  28.741  23.315  1.00  0.00     0.148 A 
ATOM     18  C   UNL A   1      30.607  30.991  24.952  1.00  0.00     0.062 A 
ATOM     19  C   UNL A   1      29.371  29.835  23.010  1.00  0.00     0.103 A 
ATOM     20  Cl  UNL A   1      30.831  32.433  25.914  1.00  0.00    -0.083 Cl
ATOM     21  C   UNL A   1      29.601  30.952  23.876  1.00  0.00     0.082 A 
ATOM     22  Cl  UNL A   1      28.340  29.896  21.647  1.00  0.00    -0.079 Cl
ATOM     23  Cl  UNL A   1      28.626  32.393  23.645  1.00  0.00    -0.081 Cl
BRANCH  13  24
ATOM     24  C   UNL A   1      30.987  24.212  23.389  1.00  0.00     0.430 C 
ATOM     25  F   UNL A   1      30.666  24.142  24.694  1.00  0.00    -0.167 F 
ATOM     26  F   UNL A   1      29.902  23.672  22.752  1.00  0.00    -0.167 F 
ATOM     27  F   UNL A   1      31.987  23.327  23.160  1.00  0.00    -0.167 F 
ENDBRANCH  13  24
ENDBRANCH   9  11
ENDBRANCH   8   9
ENDBRANCH   7   8
ENDBRANCH   6   7
ENDBRANCH   5   6
ENDBRANCH   4   5
ENDBRANCH   3   4
ENDBRANCH   2   3
ENDBRANCH   1   2
BRANCH   1  28
ATOM     28  C   UNL A   1      37.162  21.250  25.000  1.00  0.00     0.188 C 
BRANCH  28  29
ATOM     29  O   UNL A   1      37.887  20.138  24.505  1.00  0.00    -0.376 OA
BRANCH  29  30
ATOM     30  C   UNL A   1      38.539  19.231  25.376  1.00  0.00     0.202 C 
BRANCH  30  31
ATOM     31  C   UNL A   1      39.876  19.578  26.047  1.00  0.00     0.261 C 
BRANCH  31  32
ATOM     32  O   UNL A   1      41.059  19.124  25.377  1.00  0.00    -0.460 OA
BRANCH  32  33
ATOM     33  C   UNL A   1      42.173  19.048  26.138  1.00  0.00     0.338 C 
ATOM     34  O   UNL A   1      42.754  18.039  26.496  1.00  0.00    -0.246 OA
BRANCH  33  35
ATOM     35  C   UNL A   1      42.726  20.407  26.330  1.00  0.00     0.060 A 
ATOM     36  C   UNL A   1      42.605  21.002  27.598  1.00  0.00     0.016 A 
ATOM     37  C   UNL A   1      43.352  21.092  25.289  1.00  0.00     0.016 A 
ATOM     38  C   UNL A   1      43.093  22.287  27.824  1.00  0.00     0.010 A 
ATOM     39  C   UNL A   1      43.794  22.401  25.502  1.00  0.00     0.010 A 
ATOM     40  C   UNL A   1      43.636  23.012  26.760  1.00  0.00    -0.014 A 
BRANCH  40  41
ATOM     41  C   UNL A   1      43.829  24.474  26.892  1.00  0.00     0.031 A 
ATOM     42  C   UNL A   1      45.201  25.025  26.631  1.00  0.00     0.074 A 
ATOM     43  C   UNL A   1      42.820  25.289  27.242  1.00  0.00     0.049 A 
ATOM     44  N   UNL A   1      45.660  26.234  26.813  1.00  0.00    -0.248 NA
ATOM     45  C   UNL A   1      46.193  24.076  26.098  1.00  0.00     0.031 C 
ATOM     46  C   UNL A   1      41.439  24.873  27.458  1.00  0.00     0.029 A 
ATOM     47  N   UNL A   1      42.813  26.638  27.502  1.00  0.00    -0.354 N 
ATOM     48  C   UNL A   1      46.998  26.184  26.449  1.00  0.00     0.074 A 
ATOM     49  C   UNL A   1      47.283  24.827  26.041  1.00  0.00     0.031 C 
ATOM     50  C   UNL A   1      40.718  25.938  27.851  1.00  0.00     0.029 A 
ATOM     51  C   UNL A   1      41.602  27.097  27.963  1.00  0.00     0.049 A 
ATOM     52  H   UNL A   1      43.597  27.218  27.371  1.00  0.00     0.167 HD
ATOM     53  C   UNL A   1      47.907  27.186  26.465  1.00  0.00     0.037 A 
ATOM     54  C   UNL A   1      41.268  28.303  28.465  1.00  0.00     0.037 A 
ATOM     55  C   UNL A   1      47.607  28.533  26.867  1.00  0.00     0.049 A 
ATOM     56  C   UNL A   1      42.324  29.380  28.548  1.00  0.00     0.074 A 
ATOM     57  C   UNL A   1      48.445  29.633  26.877  1.00  0.00     0.029 A 
ATOM     58  N   UNL A   1      46.378  28.959  27.347  1.00  0.00    -0.354 N 
ATOM     59  N   UNL A   1      43.579  29.343  28.168  1.00  0.00    -0.248 NA
ATOM     60  C   UNL A   1      41.919  30.666  29.136  1.00  0.00     0.031 C 
ATOM     61  C   UNL A   1      47.748  30.704  27.441  1.00  0.00     0.029 A 
ATOM     62  C   UNL A   1      46.451  30.295  27.706  1.00  0.00     0.049 A 
ATOM     63  H   UNL A   1      45.574  28.395  27.423  1.00  0.00     0.167 HD
ATOM     64  C   UNL A   1      44.102  30.600  28.444  1.00  0.00     0.074 A 
ATOM     65  C   UNL A   1      43.025  31.385  29.006  1.00  0.00     0.031 C 
ATOM     66  C   UNL A   1      45.362  31.063  28.254  1.00  0.00     0.037 A 
BRANCH  53  67
ATOM     67  C   UNL A   1      49.322  26.858  26.091  1.00  0.00     0.064 A 
ATOM     68  C   UNL A   1      49.793  26.972  24.775  1.00  0.00     0.173 A 
ATOM     69  C   UNL A   1      50.238  26.477  27.085  1.00  0.00     0.173 A 
ATOM     70  F   UNL A   1      48.957  27.316  23.785  1.00  0.00    -0.203 F 
ATOM     71  C   UNL A   1      51.124  26.701  24.466  1.00  0.00     0.198 A 
ATOM     72  C   UNL A   1      51.574  26.242  26.779  1.00  0.00     0.198 A 
ATOM     73  F   UNL A   1      49.839  26.354  28.361  1.00  0.00    -0.203 F 
ATOM     74  F   UNL A   1      51.545  26.777  23.196  1.00  0.00    -0.200 F 
ATOM     75  C   UNL A   1      52.016  26.348  25.470  1.00  0.00     0.200 A 
ATOM     76  F   UNL A   1      52.436  25.918  27.753  1.00  0.00    -0.200 F 
ATOM     77  F   UNL A   1      53.301  26.108  25.173  1.00  0.00    -0.200 F 
ENDBRANCH  53  67
BRANCH  54  78
ATOM     78  C   UNL A   1      39.895  28.546  28.988  1.00  0.00     0.064 A 
ATOM     79  C   UNL A   1      38.884  29.064  28.166  1.00  0.00     0.173 A 
ATOM     80  C   UNL A   1      39.579  28.316  30.337  1.00  0.00     0.173 A 
ATOM     81  F   UNL A   1      39.140  29.328  26.876  1.00  0.00    -0.203 F 
ATOM     82  C   UNL A   1      37.624  29.370  28.677  1.00  0.00     0.198 A 
ATOM     83  C   UNL A   1      38.307  28.585  30.837  1.00  0.00     0.198 A 
ATOM     84  F   UNL A   1      40.507  27.828  31.173  1.00  0.00    -0.203 F 
ATOM     85  F   UNL A   1      36.700  29.927  27.883  1.00  0.00    -0.200 F 
ATOM     86  C   UNL A   1      37.334  29.125  30.010  1.00  0.00     0.200 A 
ATOM     87  F   UNL A   1      38.028  28.332  32.123  1.00  0.00    -0.200 F 
ATOM     88  F   UNL A   1      36.124  29.422  30.502  1.00  0.00    -0.200 F 
ENDBRANCH  54  78
BRANCH  66  89
ATOM     89  C   UNL A   1      45.645  32.493  28.620  1.00  0.00     0.064 A 
ATOM     90  C   UNL A   1      46.058  32.858  29.910  1.00  0.00     0.173 A 
ATOM     91  C   UNL A   1      45.570  33.501  27.646  1.00  0.00     0.173 A 
ATOM     92  F   UNL A   1      46.132  31.936  30.881  1.00  0.00    -0.203 F 
ATOM     93  C   UNL A   1      46.368  34.181  30.213  1.00  0.00     0.198 A 
ATOM     94  C   UNL A   1      45.917  34.814  27.943  1.00  0.00     0.198 A 
ATOM     95  F   UNL A   1      45.188  33.204  26.393  1.00  0.00    -0.203 F 
ATOM     96  F   UNL A   1      46.719  34.514  31.463  1.00  0.00    -0.200 F 
ATOM     97  C   UNL A   1      46.310  35.155  29.228  1.00  0.00     0.200 A 
ATOM     98  F   UNL A   1      45.880  35.750  26.984  1.00  0.00    -0.200 F 
ATOM     99  F   UNL A   1      46.629  36.424  29.518  1.00  0.00    -0.200 F 
ENDBRANCH  66  89
ENDBRANCH  40  41
ENDBRANCH  33  35
ENDBRANCH  32  33
ENDBRANCH  31  32
ENDBRANCH  30  31
ENDBRANCH  29  30
ENDBRANCH  28  29
ENDBRANCH   1  28
TORSDOF 21
ENDMDL
