MODEL 1
REMARK VINA RESULT:      -9.0      0.000      0.000
REMARK SMILES O=C(CC1(C[S@](=O)C[C@H]2Cc3ccccc3S2)CC1)OCCOCCOCCOCCOC(=O)c1ccc(-c2c3nc(c(-c4c(F)c(F)c(F)c(F)c4F)c4ccc([nH]4)c(-c4c(F)c(F)c(F)c(F)c4F)c4nc(c(-c5c(F)c(F)c(F)c(F)c5F)c5ccc2[nH]5)C=C4)C=C3)cc1
REMARK SMILES IDX 24 1 23 2 22 3 21 4 20 5 2 6 1 7 3 8 4 9 18 10 19 11 5 12
REMARK SMILES IDX 6 13 7 14 8 15 9 16 10 17 17 18 11 19 16 20 12 21 15 22
REMARK SMILES IDX 13 23 14 24 25 25 26 26 27 27 28 28 29 29 30 30 31 31 32 32
REMARK SMILES IDX 33 33 34 34 35 35 36 36 97 37 37 38 96 39 38 40 39 41 40 42
REMARK SMILES IDX 90 43 41 44 95 45 89 46 91 47 42 48 94 49 88 50 87 51 43 53
REMARK SMILES IDX 75 54 55 55 74 56 56 57 59 58 73 59 92 60 57 61 58 62 72 64
REMARK SMILES IDX 93 65 60 66 44 67 45 68 53 69 46 70 47 71 51 72 54 73 48 74
REMARK SMILES IDX 49 75 52 76 50 77 76 78 77 79 85 80 78 81 79 82 83 83 86 84
REMARK SMILES IDX 80 85 81 86 84 87 82 88 61 89 62 90 70 91 63 92 64 93 68 94
REMARK SMILES IDX 71 95 65 96 66 97 69 98 67 99
REMARK H PARENT 91 52 59 63
REMARK Flexibility Score: inf
ROOT
ATOM      1  C   UNL A   1      34.189  34.095  27.980  1.00  0.00     0.188 C 
ENDROOT
BRANCH   1   2
ATOM      2  O   UNL A   1      33.902  32.754  27.604  1.00  0.00    -0.376 OA
BRANCH   2   3
ATOM      3  C   UNL A   1      34.609  31.595  27.993  1.00  0.00     0.202 C 
BRANCH   3   4
ATOM      4  C   UNL A   1      34.008  30.196  27.871  1.00  0.00     0.261 C 
BRANCH   4   5
ATOM      5  O   UNL A   1      32.997  29.939  26.887  1.00  0.00    -0.463 OA
BRANCH   5   6
ATOM      6  C   UNL A   1      32.223  28.849  26.749  1.00  0.00     0.306 C 
ATOM      7  O   UNL A   1      31.785  28.280  27.746  1.00  0.00    -0.252 OA
BRANCH   6   8
ATOM      8  C   UNL A   1      31.999  28.304  25.372  1.00  0.00     0.130 C 
BRANCH   8   9
ATOM      9  C   UNL A   1      32.580  26.960  24.994  1.00  0.00    -0.008 C 
ATOM     10  C   UNL A   1      33.868  27.129  24.182  1.00  0.00     0.009 C 
ATOM     11  C   UNL A   1      33.938  26.538  25.546  1.00  0.00     0.009 C 
BRANCH   9  12
ATOM     12  C   UNL A   1      31.647  25.842  24.598  1.00  0.00     0.112 C 
BRANCH  12  13
ATOM     13  S   UNL A   1      30.690  24.848  25.741  1.00  0.00     0.023 S 
ATOM     14  O   UNL A   1      29.681  25.651  26.490  1.00  0.00    -0.260 OA
BRANCH  13  15
ATOM     15  C   UNL A   1      31.867  24.054  26.848  1.00  0.00     0.120 C 
BRANCH  15  16
ATOM     16  C   UNL A   1      32.140  22.541  26.681  1.00  0.00     0.068 C 
ATOM     17  C   UNL A   1      32.441  22.183  25.198  1.00  0.00     0.052 C 
ATOM     18  S   UNL A   1      33.727  22.045  27.444  1.00  0.00    -0.121 SA
ATOM     19  C   UNL A   1      33.855  22.643  24.939  1.00  0.00    -0.033 A 
ATOM     20  C   UNL A   1      34.647  22.649  26.086  1.00  0.00     0.011 A 
ATOM     21  C   UNL A   1      34.404  23.029  23.729  1.00  0.00     0.005 A 
ATOM     22  C   UNL A   1      35.942  23.130  26.098  1.00  0.00     0.015 A 
ATOM     23  C   UNL A   1      35.721  23.502  23.716  1.00  0.00     0.000 A 
ATOM     24  C   UNL A   1      36.478  23.578  24.895  1.00  0.00     0.001 A 
ENDBRANCH  15  16
ENDBRANCH  13  15
ENDBRANCH  12  13
ENDBRANCH   9  12
ENDBRANCH   8   9
ENDBRANCH   6   8
ENDBRANCH   5   6
ENDBRANCH   4   5
ENDBRANCH   3   4
ENDBRANCH   2   3
ENDBRANCH   1   2
BRANCH   1  25
ATOM     25  C   UNL A   1      32.973  34.931  28.403  1.00  0.00     0.188 C 
BRANCH  25  26
ATOM     26  O   UNL A   1      32.669  34.828  29.787  1.00  0.00    -0.377 OA
BRANCH  26  27
ATOM     27  C   UNL A   1      33.763  35.084  30.650  1.00  0.00     0.188 C 
BRANCH  27  28
ATOM     28  C   UNL A   1      33.418  35.212  32.154  1.00  0.00     0.188 C 
BRANCH  28  29
ATOM     29  O   UNL A   1      33.408  34.104  33.046  1.00  0.00    -0.376 OA
BRANCH  29  30
ATOM     30  C   UNL A   1      34.591  33.375  33.308  1.00  0.00     0.202 C 
BRANCH  30  31
ATOM     31  C   UNL A   1      35.005  32.309  32.284  1.00  0.00     0.261 C 
BRANCH  31  32
ATOM     32  O   UNL A   1      36.377  32.351  31.868  1.00  0.00    -0.460 OA
BRANCH  32  33
ATOM     33  C   UNL A   1      37.260  31.641  32.614  1.00  0.00     0.338 C 
ATOM     34  O   UNL A   1      37.031  31.010  33.632  1.00  0.00    -0.246 OA
BRANCH  33  35
ATOM     35  C   UNL A   1      38.551  31.575  31.880  1.00  0.00     0.060 A 
ATOM     36  C   UNL A   1      39.771  31.524  32.562  1.00  0.00     0.016 A 
ATOM     37  C   UNL A   1      38.534  31.655  30.479  1.00  0.00     0.016 A 
ATOM     38  C   UNL A   1      40.966  31.494  31.838  1.00  0.00     0.010 A 
ATOM     39  C   UNL A   1      39.730  31.662  29.756  1.00  0.00     0.010 A 
ATOM     40  C   UNL A   1      40.951  31.527  30.431  1.00  0.00    -0.014 A 
BRANCH  40  41
ATOM     41  C   UNL A   1      42.148  31.073  29.683  1.00  0.00     0.031 A 
ATOM     42  C   UNL A   1      43.295  31.964  29.334  1.00  0.00     0.074 A 
ATOM     43  C   UNL A   1      42.152  29.778  29.312  1.00  0.00     0.049 A 
ATOM     44  N   UNL A   1      44.436  31.641  28.776  1.00  0.00    -0.248 NA
ATOM     45  C   UNL A   1      43.154  33.394  29.633  1.00  0.00     0.031 C 
ATOM     46  C   UNL A   1      41.059  28.837  29.571  1.00  0.00     0.029 A 
ATOM     47  N   UNL A   1      43.091  29.029  28.657  1.00  0.00    -0.354 N 
ATOM     48  C   UNL A   1      45.164  32.817  28.682  1.00  0.00     0.074 A 
ATOM     49  C   UNL A   1      44.314  33.874  29.197  1.00  0.00     0.031 C 
ATOM     50  C   UNL A   1      41.400  27.630  29.102  1.00  0.00     0.029 A 
ATOM     51  C   UNL A   1      42.726  27.715  28.503  1.00  0.00     0.049 A 
ATOM     52  H   UNL A   1      43.944  29.396  28.329  1.00  0.00     0.167 HD
ATOM     53  C   UNL A   1      46.429  32.983  28.223  1.00  0.00     0.037 A 
ATOM     54  C   UNL A   1      43.390  26.683  27.955  1.00  0.00     0.037 A 
ATOM     55  C   UNL A   1      47.253  31.918  27.698  1.00  0.00     0.049 A 
ATOM     56  C   UNL A   1      44.776  26.904  27.434  1.00  0.00     0.074 A 
ATOM     57  C   UNL A   1      48.567  31.980  27.263  1.00  0.00     0.029 A 
ATOM     58  N   UNL A   1      46.842  30.604  27.523  1.00  0.00    -0.354 N 
ATOM     59  N   UNL A   1      45.492  28.001  27.437  1.00  0.00    -0.248 NA
ATOM     60  C   UNL A   1      45.453  25.743  26.844  1.00  0.00     0.031 C 
ATOM     61  C   UNL A   1      48.932  30.721  26.777  1.00  0.00     0.029 A 
ATOM     62  C   UNL A   1      47.863  29.857  26.956  1.00  0.00     0.049 A 
ATOM     63  H   UNL A   1      45.954  30.254  27.767  1.00  0.00     0.167 HD
ATOM     64  C   UNL A   1      46.709  27.662  26.867  1.00  0.00     0.074 A 
ATOM     65  C   UNL A   1      46.642  26.251  26.546  1.00  0.00     0.031 C 
ATOM     66  C   UNL A   1      47.783  28.455  26.629  1.00  0.00     0.037 A 
BRANCH  53  67
ATOM     67  C   UNL A   1      47.031  34.358  28.280  1.00  0.00     0.064 A 
ATOM     68  C   UNL A   1      47.810  34.765  29.372  1.00  0.00     0.173 A 
ATOM     69  C   UNL A   1      46.930  35.232  27.186  1.00  0.00     0.173 A 
ATOM     70  F   UNL A   1      47.942  33.965  30.442  1.00  0.00    -0.203 F 
ATOM     71  C   UNL A   1      48.458  35.998  29.373  1.00  0.00     0.198 A 
ATOM     72  C   UNL A   1      47.599  36.455  27.180  1.00  0.00     0.198 A 
ATOM     73  F   UNL A   1      46.211  34.886  26.108  1.00  0.00    -0.203 F 
ATOM     74  F   UNL A   1      49.185  36.371  30.436  1.00  0.00    -0.200 F 
ATOM     75  C   UNL A   1      48.360  36.837  28.274  1.00  0.00     0.200 A 
ATOM     76  F   UNL A   1      47.518  37.256  26.110  1.00  0.00    -0.200 F 
ATOM     77  F   UNL A   1      49.002  38.014  28.267  1.00  0.00    -0.200 F 
ENDBRANCH  53  67
BRANCH  54  78
ATOM     78  C   UNL A   1      42.756  25.343  27.941  1.00  0.00     0.064 A 
ATOM     79  C   UNL A   1      43.076  24.391  28.916  1.00  0.00     0.173 A 
ATOM     80  C   UNL A   1      41.773  25.012  26.996  1.00  0.00     0.173 A 
ATOM     81  F   UNL A   1      44.014  24.663  29.834  1.00  0.00    -0.203 F 
ATOM     82  C   UNL A   1      42.443  23.151  28.942  1.00  0.00     0.198 A 
ATOM     83  C   UNL A   1      41.122  23.783  27.039  1.00  0.00     0.198 A 
ATOM     84  F   UNL A   1      41.422  25.900  26.053  1.00  0.00    -0.203 F 
ATOM     85  F   UNL A   1      42.785  22.247  29.870  1.00  0.00    -0.200 F 
ATOM     86  C   UNL A   1      41.460  22.852  28.009  1.00  0.00     0.200 A 
ATOM     87  F   UNL A   1      40.160  23.505  26.149  1.00  0.00    -0.200 F 
ATOM     88  F   UNL A   1      40.841  21.664  28.045  1.00  0.00    -0.200 F 
ENDBRANCH  54  78
BRANCH  66  89
ATOM     89  C   UNL A   1      48.976  27.814  25.986  1.00  0.00     0.064 A 
ATOM     90  C   UNL A   1      50.085  27.409  26.743  1.00  0.00     0.173 A 
ATOM     91  C   UNL A   1      48.992  27.553  24.607  1.00  0.00     0.173 A 
ATOM     92  F   UNL A   1      50.125  27.652  28.063  1.00  0.00    -0.203 F 
ATOM     93  C   UNL A   1      51.171  26.780  26.143  1.00  0.00     0.198 A 
ATOM     94  C   UNL A   1      50.068  26.899  24.014  1.00  0.00     0.198 A 
ATOM     95  F   UNL A   1      47.955  27.918  23.837  1.00  0.00    -0.203 F 
ATOM     96  F   UNL A   1      52.236  26.435  26.881  1.00  0.00    -0.200 F 
ATOM     97  C   UNL A   1      51.158  26.516  24.781  1.00  0.00     0.200 A 
ATOM     98  F   UNL A   1      50.048  26.635  22.700  1.00  0.00    -0.200 F 
ATOM     99  F   UNL A   1      52.199  25.899  24.207  1.00  0.00    -0.200 F 
ENDBRANCH  66  89
ENDBRANCH  40  41
ENDBRANCH  33  35
ENDBRANCH  32  33
ENDBRANCH  31  32
ENDBRANCH  30  31
ENDBRANCH  29  30
ENDBRANCH  28  29
ENDBRANCH  27  28
ENDBRANCH  26  27
ENDBRANCH  25  26
ENDBRANCH   1  25
TORSDOF 25
ENDMDL
MODEL 2
REMARK VINA RESULT:      -8.3      9.647     16.603
REMARK SMILES O=C(CC1(C[S@](=O)C[C@H]2Cc3ccccc3S2)CC1)OCCOCCOCCOCCOC(=O)c1ccc(-c2c3nc(c(-c4c(F)c(F)c(F)c(F)c4F)c4ccc([nH]4)c(-c4c(F)c(F)c(F)c(F)c4F)c4nc(c(-c5c(F)c(F)c(F)c(F)c5F)c5ccc2[nH]5)C=C4)C=C3)cc1
REMARK SMILES IDX 24 1 23 2 22 3 21 4 20 5 2 6 1 7 3 8 4 9 18 10 19 11 5 12
REMARK SMILES IDX 6 13 7 14 8 15 9 16 10 17 17 18 11 19 16 20 12 21 15 22
REMARK SMILES IDX 13 23 14 24 25 25 26 26 27 27 28 28 29 29 30 30 31 31 32 32
REMARK SMILES IDX 33 33 34 34 35 35 36 36 97 37 37 38 96 39 38 40 39 41 40 42
REMARK SMILES IDX 90 43 41 44 95 45 89 46 91 47 42 48 94 49 88 50 87 51 43 53
REMARK SMILES IDX 75 54 55 55 74 56 56 57 59 58 73 59 92 60 57 61 58 62 72 64
REMARK SMILES IDX 93 65 60 66 44 67 45 68 53 69 46 70 47 71 51 72 54 73 48 74
REMARK SMILES IDX 49 75 52 76 50 77 76 78 77 79 85 80 78 81 79 82 83 83 86 84
REMARK SMILES IDX 80 85 81 86 84 87 82 88 61 89 62 90 70 91 63 92 64 93 68 94
REMARK SMILES IDX 71 95 65 96 66 97 69 98 67 99
REMARK H PARENT 91 52 59 63
REMARK Flexibility Score: inf
ROOT
ATOM      1  C   UNL A   1      43.221  42.991  22.544  1.00  0.00     0.188 C 
ENDROOT
BRANCH   1   2
ATOM      2  O   UNL A   1      43.338  42.311  21.301  1.00  0.00    -0.376 OA
BRANCH   2   3
ATOM      3  C   UNL A   1      42.554  42.516  20.144  1.00  0.00     0.202 C 
BRANCH   3   4
ATOM      4  C   UNL A   1      42.686  43.772  19.284  1.00  0.00     0.261 C 
BRANCH   4   5
ATOM      5  O   UNL A   1      42.267  43.742  17.913  1.00  0.00    -0.463 OA
BRANCH   5   6
ATOM      6  C   UNL A   1      42.718  44.481  16.885  1.00  0.00     0.306 C 
ATOM      7  O   UNL A   1      43.402  43.956  16.009  1.00  0.00    -0.252 OA
BRANCH   6   8
ATOM      8  C   UNL A   1      42.450  45.954  16.894  1.00  0.00     0.130 C 
BRANCH   8   9
ATOM      9  C   UNL A   1      43.563  46.918  17.238  1.00  0.00    -0.008 C 
ATOM     10  C   UNL A   1      43.241  48.329  16.736  1.00  0.00     0.009 C 
ATOM     11  C   UNL A   1      43.298  48.071  18.201  1.00  0.00     0.009 C 
BRANCH   9  12
ATOM     12  C   UNL A   1      44.995  46.452  17.138  1.00  0.00     0.112 C 
BRANCH  12  13
ATOM     13  S   UNL A   1      46.368  47.139  18.061  1.00  0.00     0.023 S 
ATOM     14  O   UNL A   1      47.637  47.146  17.278  1.00  0.00    -0.260 OA
BRANCH  13  15
ATOM     15  C   UNL A   1      46.518  46.166  19.568  1.00  0.00     0.120 C 
BRANCH  15  16
ATOM     16  C   UNL A   1      47.802  46.307  20.418  1.00  0.00     0.068 C 
ATOM     17  C   UNL A   1      47.548  45.893  21.896  1.00  0.00     0.052 C 
ATOM     18  S   UNL A   1      49.063  45.063  19.963  1.00  0.00    -0.121 SA
ATOM     19  C   UNL A   1      47.503  44.384  21.901  1.00  0.00    -0.033 A 
ATOM     20  C   UNL A   1      48.256  43.810  20.878  1.00  0.00     0.011 A 
ATOM     21  C   UNL A   1      46.825  43.568  22.788  1.00  0.00     0.005 A 
ATOM     22  C   UNL A   1      48.274  42.450  20.634  1.00  0.00     0.015 A 
ATOM     23  C   UNL A   1      46.845  42.185  22.571  1.00  0.00     0.000 A 
ATOM     24  C   UNL A   1      47.542  41.631  21.487  1.00  0.00     0.001 A 
ENDBRANCH  15  16
ENDBRANCH  13  15
ENDBRANCH  12  13
ENDBRANCH   9  12
ENDBRANCH   8   9
ENDBRANCH   6   8
ENDBRANCH   5   6
ENDBRANCH   4   5
ENDBRANCH   3   4
ENDBRANCH   2   3
ENDBRANCH   1   2
BRANCH   1  25
ATOM     25  C   UNL A   1      41.962  42.658  23.356  1.00  0.00     0.188 C 
BRANCH  25  26
ATOM     26  O   UNL A   1      41.944  41.328  23.854  1.00  0.00    -0.377 OA
BRANCH  26  27
ATOM     27  C   UNL A   1      41.905  41.229  25.267  1.00  0.00     0.188 C 
BRANCH  27  28
ATOM     28  C   UNL A   1      43.276  41.283  25.984  1.00  0.00     0.188 C 
BRANCH  28  29
ATOM     29  O   UNL A   1      44.241  40.241  25.895  1.00  0.00    -0.376 OA
BRANCH  29  30
ATOM     30  C   UNL A   1      45.621  40.521  26.015  1.00  0.00     0.202 C 
BRANCH  30  31
ATOM     31  C   UNL A   1      46.586  39.327  26.018  1.00  0.00     0.261 C 
BRANCH  31  32
ATOM     32  O   UNL A   1      45.968  38.033  26.078  1.00  0.00    -0.460 OA
BRANCH  32  33
ATOM     33  C   UNL A   1      46.480  37.157  26.979  1.00  0.00     0.338 C 
ATOM     34  O   UNL A   1      47.656  36.941  27.218  1.00  0.00    -0.246 OA
BRANCH  33  35
ATOM     35  C   UNL A   1      45.364  36.624  27.803  1.00  0.00     0.060 A 
ATOM     36  C   UNL A   1      45.230  35.253  28.043  1.00  0.00     0.016 A 
ATOM     37  C   UNL A   1      44.385  37.515  28.270  1.00  0.00     0.016 A 
ATOM     38  C   UNL A   1      44.151  34.785  28.796  1.00  0.00     0.010 A 
ATOM     39  C   UNL A   1      43.287  37.044  28.992  1.00  0.00     0.010 A 
ATOM     40  C   UNL A   1      43.193  35.681  29.305  1.00  0.00    -0.014 A 
BRANCH  40  41
ATOM     41  C   UNL A   1      42.322  35.252  30.426  1.00  0.00     0.031 A 
ATOM     42  C   UNL A   1      40.907  34.806  30.254  1.00  0.00     0.074 A 
ATOM     43  C   UNL A   1      42.881  35.290  31.651  1.00  0.00     0.049 A 
ATOM     44  N   UNL A   1      40.095  34.310  31.156  1.00  0.00    -0.248 NA
ATOM     45  C   UNL A   1      40.317  34.936  28.917  1.00  0.00     0.031 C 
ATOM     46  C   UNL A   1      44.245  35.751  31.928  1.00  0.00     0.029 A 
ATOM     47  N   UNL A   1      42.392  34.936  32.879  1.00  0.00    -0.354 N 
ATOM     48  C   UNL A   1      38.907  34.039  30.494  1.00  0.00     0.074 A 
ATOM     49  C   UNL A   1      39.087  34.473  29.121  1.00  0.00     0.031 C 
ATOM     50  C   UNL A   1      44.492  35.627  33.237  1.00  0.00     0.029 A 
ATOM     51  C   UNL A   1      43.305  35.092  33.892  1.00  0.00     0.049 A 
ATOM     52  H   UNL A   1      41.476  34.603  33.023  1.00  0.00     0.167 HD
ATOM     53  C   UNL A   1      37.784  33.465  30.992  1.00  0.00     0.037 A 
ATOM     54  C   UNL A   1      43.208  34.817  35.204  1.00  0.00     0.037 A 
ATOM     55  C   UNL A   1      37.618  33.055  32.368  1.00  0.00     0.049 A 
ATOM     56  C   UNL A   1      41.945  34.207  35.729  1.00  0.00     0.074 A 
ATOM     57  C   UNL A   1      36.538  32.414  32.952  1.00  0.00     0.029 A 
ATOM     58  N   UNL A   1      38.550  33.257  33.377  1.00  0.00    -0.354 N 
ATOM     59  N   UNL A   1      40.862  33.867  35.076  1.00  0.00    -0.248 NA
ATOM     60  C   UNL A   1      41.894  33.931  37.170  1.00  0.00     0.031 C 
ATOM     61  C   UNL A   1      36.793  32.276  34.320  1.00  0.00     0.029 A 
ATOM     62  C   UNL A   1      38.054  32.785  34.583  1.00  0.00     0.049 A 
ATOM     63  H   UNL A   1      39.433  33.675  33.254  1.00  0.00     0.167 HD
ATOM     64  C   UNL A   1      40.006  33.322  36.019  1.00  0.00     0.074 A 
ATOM     65  C   UNL A   1      40.703  33.359  37.288  1.00  0.00     0.031 C 
ATOM     66  C   UNL A   1      38.751  32.837  35.844  1.00  0.00     0.037 A 
BRANCH  53  67
ATOM     67  C   UNL A   1      36.637  33.216  30.054  1.00  0.00     0.064 A 
ATOM     68  C   UNL A   1      36.675  32.166  29.125  1.00  0.00     0.173 A 
ATOM     69  C   UNL A   1      35.446  33.950  30.164  1.00  0.00     0.173 A 
ATOM     70  F   UNL A   1      37.788  31.431  28.983  1.00  0.00    -0.203 F 
ATOM     71  C   UNL A   1      35.568  31.868  28.333  1.00  0.00     0.198 A 
ATOM     72  C   UNL A   1      34.333  33.634  29.388  1.00  0.00     0.198 A 
ATOM     73  F   UNL A   1      35.350  34.953  31.049  1.00  0.00    -0.203 F 
ATOM     74  F   UNL A   1      35.634  30.870  27.441  1.00  0.00    -0.200 F 
ATOM     75  C   UNL A   1      34.396  32.594  28.472  1.00  0.00     0.200 A 
ATOM     76  F   UNL A   1      33.195  34.325  29.537  1.00  0.00    -0.200 F 
ATOM     77  F   UNL A   1      33.324  32.292  27.726  1.00  0.00    -0.200 F 
ENDBRANCH  53  67
BRANCH  54  78
ATOM     78  C   UNL A   1      44.377  35.067  36.081  1.00  0.00     0.064 A 
ATOM     79  C   UNL A   1      45.347  34.076  36.279  1.00  0.00     0.173 A 
ATOM     80  C   UNL A   1      44.581  36.317  36.685  1.00  0.00     0.173 A 
ATOM     81  F   UNL A   1      45.189  32.866  35.726  1.00  0.00    -0.203 F 
ATOM     82  C   UNL A   1      46.475  34.324  37.056  1.00  0.00     0.198 A 
ATOM     83  C   UNL A   1      45.722  36.571  37.440  1.00  0.00     0.198 A 
ATOM     84  F   UNL A   1      43.686  37.301  36.511  1.00  0.00    -0.203 F 
ATOM     85  F   UNL A   1      47.377  33.352  37.251  1.00  0.00    -0.200 F 
ATOM     86  C   UNL A   1      46.667  35.573  37.628  1.00  0.00     0.200 A 
ATOM     87  F   UNL A   1      45.913  37.784  37.975  1.00  0.00    -0.200 F 
ATOM     88  F   UNL A   1      47.760  35.814  38.363  1.00  0.00    -0.200 F 
ENDBRANCH  54  78
BRANCH  66  89
ATOM     89  C   UNL A   1      38.047  32.310  37.059  1.00  0.00     0.064 A 
ATOM     90  C   UNL A   1      37.591  33.168  38.069  1.00  0.00     0.173 A 
ATOM     91  C   UNL A   1      37.778  30.939  37.190  1.00  0.00     0.173 A 
ATOM     92  F   UNL A   1      37.840  34.486  37.998  1.00  0.00    -0.203 F 
ATOM     93  C   UNL A   1      36.904  32.673  39.174  1.00  0.00     0.198 A 
ATOM     94  C   UNL A   1      37.067  30.450  38.282  1.00  0.00     0.198 A 
ATOM     95  F   UNL A   1      38.190  30.075  36.249  1.00  0.00    -0.203 F 
ATOM     96  F   UNL A   1      36.510  33.508  40.146  1.00  0.00    -0.200 F 
ATOM     97  C   UNL A   1      36.634  31.317  39.274  1.00  0.00     0.200 A 
ATOM     98  F   UNL A   1      36.796  29.140  38.372  1.00  0.00    -0.200 F 
ATOM     99  F   UNL A   1      35.961  30.843  40.332  1.00  0.00    -0.200 F 
ENDBRANCH  66  89
ENDBRANCH  40  41
ENDBRANCH  33  35
ENDBRANCH  32  33
ENDBRANCH  31  32
ENDBRANCH  30  31
ENDBRANCH  29  30
ENDBRANCH  28  29
ENDBRANCH  27  28
ENDBRANCH  26  27
ENDBRANCH  25  26
ENDBRANCH   1  25
TORSDOF 25
ENDMDL
MODEL 3
REMARK VINA RESULT:      -8.2      3.170      5.908
REMARK SMILES O=C(CC1(C[S@](=O)C[C@H]2Cc3ccccc3S2)CC1)OCCOCCOCCOCCOC(=O)c1ccc(-c2c3nc(c(-c4c(F)c(F)c(F)c(F)c4F)c4ccc([nH]4)c(-c4c(F)c(F)c(F)c(F)c4F)c4nc(c(-c5c(F)c(F)c(F)c(F)c5F)c5ccc2[nH]5)C=C4)C=C3)cc1
REMARK SMILES IDX 24 1 23 2 22 3 21 4 20 5 2 6 1 7 3 8 4 9 18 10 19 11 5 12
REMARK SMILES IDX 6 13 7 14 8 15 9 16 10 17 17 18 11 19 16 20 12 21 15 22
REMARK SMILES IDX 13 23 14 24 25 25 26 26 27 27 28 28 29 29 30 30 31 31 32 32
REMARK SMILES IDX 33 33 34 34 35 35 36 36 97 37 37 38 96 39 38 40 39 41 40 42
REMARK SMILES IDX 90 43 41 44 95 45 89 46 91 47 42 48 94 49 88 50 87 51 43 53
REMARK SMILES IDX 75 54 55 55 74 56 56 57 59 58 73 59 92 60 57 61 58 62 72 64
REMARK SMILES IDX 93 65 60 66 44 67 45 68 53 69 46 70 47 71 51 72 54 73 48 74
REMARK SMILES IDX 49 75 52 76 50 77 76 78 77 79 85 80 78 81 79 82 83 83 86 84
REMARK SMILES IDX 80 85 81 86 84 87 82 88 61 89 62 90 70 91 63 92 64 93 68 94
REMARK SMILES IDX 71 95 65 96 66 97 69 98 67 99
REMARK H PARENT 91 52 59 63
REMARK Flexibility Score: inf
ROOT
ATOM      1  C   UNL A   1      34.214  33.785  28.113  1.00  0.00     0.188 C 
ENDROOT
BRANCH   1   2
ATOM      2  O   UNL A   1      33.765  32.438  28.170  1.00  0.00    -0.376 OA
BRANCH   2   3
ATOM      3  C   UNL A   1      34.351  31.321  27.535  1.00  0.00     0.202 C 
BRANCH   3   4
ATOM      4  C   UNL A   1      33.666  29.956  27.492  1.00  0.00     0.261 C 
BRANCH   4   5
ATOM      5  O   UNL A   1      32.787  29.635  26.406  1.00  0.00    -0.463 OA
BRANCH   5   6
ATOM      6  C   UNL A   1      31.999  28.556  26.261  1.00  0.00     0.306 C 
ATOM      7  O   UNL A   1      31.366  28.126  27.223  1.00  0.00    -0.252 OA
BRANCH   6   8
ATOM      8  C   UNL A   1      31.994  27.851  24.940  1.00  0.00     0.130 C 
BRANCH   8   9
ATOM      9  C   UNL A   1      32.469  26.418  24.853  1.00  0.00    -0.008 C 
ATOM     10  C   UNL A   1      33.807  26.328  24.111  1.00  0.00     0.009 C 
ATOM     11  C   UNL A   1      33.754  26.000  25.561  1.00  0.00     0.009 C 
BRANCH   9  12
ATOM     12  C   UNL A   1      31.460  25.323  24.607  1.00  0.00     0.112 C 
BRANCH  12  13
ATOM     13  S   UNL A   1      30.717  24.305  25.880  1.00  0.00     0.023 S 
ATOM     14  O   UNL A   1      29.722  25.052  26.701  1.00  0.00    -0.260 OA
BRANCH  13  15
ATOM     15  C   UNL A   1      32.066  23.665  26.885  1.00  0.00     0.120 C 
BRANCH  15  16
ATOM     16  C   UNL A   1      32.446  22.172  26.756  1.00  0.00     0.068 C 
ATOM     17  C   UNL A   1      32.611  21.758  25.266  1.00  0.00     0.052 C 
ATOM     18  S   UNL A   1      34.142  21.843  27.355  1.00  0.00    -0.121 SA
ATOM     19  C   UNL A   1      33.944  22.313  24.827  1.00  0.00    -0.033 A 
ATOM     20  C   UNL A   1      34.854  22.443  25.875  1.00  0.00     0.011 A 
ATOM     21  C   UNL A   1      34.322  22.674  23.547  1.00  0.00     0.005 A 
ATOM     22  C   UNL A   1      36.098  23.024  25.718  1.00  0.00     0.015 A 
ATOM     23  C   UNL A   1      35.586  23.248  23.362  1.00  0.00     0.000 A 
ATOM     24  C   UNL A   1      36.458  23.446  24.443  1.00  0.00     0.001 A 
ENDBRANCH  15  16
ENDBRANCH  13  15
ENDBRANCH  12  13
ENDBRANCH   9  12
ENDBRANCH   8   9
ENDBRANCH   6   8
ENDBRANCH   5   6
ENDBRANCH   4   5
ENDBRANCH   3   4
ENDBRANCH   2   3
ENDBRANCH   1   2
BRANCH   1  25
ATOM     25  C   UNL A   1      33.279  34.816  28.759  1.00  0.00     0.188 C 
BRANCH  25  26
ATOM     26  O   UNL A   1      33.166  34.675  30.168  1.00  0.00    -0.377 OA
BRANCH  26  27
ATOM     27  C   UNL A   1      34.394  34.447  30.837  1.00  0.00     0.188 C 
BRANCH  27  28
ATOM     28  C   UNL A   1      34.324  34.419  32.383  1.00  0.00     0.188 C 
BRANCH  28  29
ATOM     29  O   UNL A   1      34.575  33.247  33.151  1.00  0.00    -0.376 OA
BRANCH  29  30
ATOM     30  C   UNL A   1      35.892  32.762  33.321  1.00  0.00     0.202 C 
BRANCH  30  31
ATOM     31  C   UNL A   1      36.539  32.045  32.128  1.00  0.00     0.261 C 
BRANCH  31  32
ATOM     32  O   UNL A   1      37.741  32.645  31.623  1.00  0.00    -0.460 OA
BRANCH  32  33
ATOM     33  C   UNL A   1      38.848  32.536  32.401  1.00  0.00     0.338 C 
ATOM     34  O   UNL A   1      38.984  31.858  33.405  1.00  0.00    -0.246 OA
BRANCH  33  35
ATOM     35  C   UNL A   1      39.972  33.228  31.719  1.00  0.00     0.060 A 
ATOM     36  C   UNL A   1      40.993  33.846  32.449  1.00  0.00     0.016 A 
ATOM     37  C   UNL A   1      39.951  33.331  30.319  1.00  0.00     0.016 A 
ATOM     38  C   UNL A   1      42.018  34.514  31.775  1.00  0.00     0.010 A 
ATOM     39  C   UNL A   1      40.956  34.030  29.646  1.00  0.00     0.010 A 
ATOM     40  C   UNL A   1      42.024  34.580  30.369  1.00  0.00    -0.014 A 
BRANCH  40  41
ATOM     41  C   UNL A   1      43.289  34.899  29.664  1.00  0.00     0.031 A 
ATOM     42  C   UNL A   1      43.716  36.287  29.313  1.00  0.00     0.074 A 
ATOM     43  C   UNL A   1      44.061  33.845  29.337  1.00  0.00     0.049 A 
ATOM     44  N   UNL A   1      44.852  36.682  28.792  1.00  0.00    -0.248 NA
ATOM     45  C   UNL A   1      42.757  37.370  29.562  1.00  0.00     0.031 C 
ATOM     46  C   UNL A   1      43.711  32.446  29.600  1.00  0.00     0.029 A 
ATOM     47  N   UNL A   1      45.285  33.775  28.729  1.00  0.00    -0.354 N 
ATOM     48  C   UNL A   1      44.762  38.061  28.677  1.00  0.00     0.074 A 
ATOM     49  C   UNL A   1      43.437  38.431  29.137  1.00  0.00     0.031 C 
ATOM     50  C   UNL A   1      44.708  31.658  29.180  1.00  0.00     0.029 A 
ATOM     51  C   UNL A   1      45.758  32.492  28.609  1.00  0.00     0.049 A 
ATOM     52  H   UNL A   1      45.777  34.566  28.408  1.00  0.00     0.167 HD
ATOM     53  C   UNL A   1      45.711  38.927  28.243  1.00  0.00     0.037 A 
ATOM     54  C   UNL A   1      46.919  32.034  28.111  1.00  0.00     0.037 A 
ATOM     55  C   UNL A   1      47.020  38.535  27.772  1.00  0.00     0.049 A 
ATOM     56  C   UNL A   1      47.937  33.014  27.616  1.00  0.00     0.074 A 
ATOM     57  C   UNL A   1      48.067  39.346  27.366  1.00  0.00     0.029 A 
ATOM     58  N   UNL A   1      47.457  37.226  27.632  1.00  0.00    -0.354 N 
ATOM     59  N   UNL A   1      47.879  34.323  27.600  1.00  0.00    -0.248 NA
ATOM     60  C   UNL A   1      49.185  32.458  27.081  1.00  0.00     0.031 C 
ATOM     61  C   UNL A   1      49.115  38.529  26.931  1.00  0.00     0.029 A 
ATOM     62  C   UNL A   1      48.743  37.206  27.113  1.00  0.00     0.049 A 
ATOM     63  H   UNL A   1      46.930  36.427  27.866  1.00  0.00     0.167 HD
ATOM     64  C   UNL A   1      49.087  34.749  27.069  1.00  0.00     0.074 A 
ATOM     65  C   UNL A   1      49.866  33.560  26.794  1.00  0.00     0.031 C 
ATOM     66  C   UNL A   1      49.507  36.016  26.831  1.00  0.00     0.037 A 
BRANCH  53  67
ATOM     67  C   UNL A   1      45.396  40.395  28.269  1.00  0.00     0.064 A 
ATOM     68  C   UNL A   1      45.750  41.194  29.365  1.00  0.00     0.173 A 
ATOM     69  C   UNL A   1      44.849  41.033  27.144  1.00  0.00     0.173 A 
ATOM     70  F   UNL A   1      46.281  40.635  30.464  1.00  0.00    -0.203 F 
ATOM     71  C   UNL A   1      45.558  42.574  29.340  1.00  0.00     0.198 A 
ATOM     72  C   UNL A   1      44.680  42.416  27.113  1.00  0.00     0.198 A 
ATOM     73  F   UNL A   1      44.509  40.319  26.061  1.00  0.00    -0.203 F 
ATOM     74  F   UNL A   1      45.890  43.315  30.408  1.00  0.00    -0.200 F 
ATOM     75  C   UNL A   1      45.034  43.185  28.212  1.00  0.00     0.200 A 
ATOM     76  F   UNL A   1      44.190  43.006  26.015  1.00  0.00    -0.200 F 
ATOM     77  F   UNL A   1      44.870  44.514  28.181  1.00  0.00    -0.200 F 
ENDBRANCH  53  67
BRANCH  54  78
ATOM     78  C   UNL A   1      47.185  30.575  28.127  1.00  0.00     0.064 A 
ATOM     79  C   UNL A   1      46.903  29.786  27.005  1.00  0.00     0.173 A 
ATOM     80  C   UNL A   1      47.782  29.955  29.234  1.00  0.00     0.173 A 
ATOM     81  F   UNL A   1      46.326  30.336  25.928  1.00  0.00    -0.203 F 
ATOM     82  C   UNL A   1      47.202  28.426  26.993  1.00  0.00     0.198 A 
ATOM     83  C   UNL A   1      48.104  28.602  29.211  1.00  0.00     0.198 A 
ATOM     84  F   UNL A   1      48.085  30.675  30.325  1.00  0.00    -0.203 F 
ATOM     85  F   UNL A   1      46.900  27.686  25.917  1.00  0.00    -0.200 F 
ATOM     86  C   UNL A   1      47.810  27.837  28.092  1.00  0.00     0.200 A 
ATOM     87  F   UNL A   1      48.710  28.041  30.266  1.00  0.00    -0.200 F 
ATOM     88  F   UNL A   1      48.111  26.532  28.073  1.00  0.00    -0.200 F 
ENDBRANCH  54  78
BRANCH  66  89
ATOM     89  C   UNL A   1      50.874  36.183  26.237  1.00  0.00     0.064 A 
ATOM     90  C   UNL A   1      51.057  36.324  24.854  1.00  0.00     0.173 A 
ATOM     91  C   UNL A   1      52.008  36.256  27.061  1.00  0.00     0.173 A 
ATOM     92  F   UNL A   1      50.006  36.243  24.022  1.00  0.00    -0.203 F 
ATOM     93  C   UNL A   1      52.326  36.517  24.316  1.00  0.00     0.198 A 
ATOM     94  C   UNL A   1      53.271  36.477  26.522  1.00  0.00     0.198 A 
ATOM     95  F   UNL A   1      51.886  36.131  28.392  1.00  0.00    -0.203 F 
ATOM     96  F   UNL A   1      52.481  36.612  22.987  1.00  0.00    -0.200 F 
ATOM     97  C   UNL A   1      53.430  36.604  25.150  1.00  0.00     0.200 A 
ATOM     98  F   UNL A   1      54.336  36.573  27.331  1.00  0.00    -0.200 F 
ATOM     99  F   UNL A   1      54.650  36.803  24.632  1.00  0.00    -0.200 F 
ENDBRANCH  66  89
ENDBRANCH  40  41
ENDBRANCH  33  35
ENDBRANCH  32  33
ENDBRANCH  31  32
ENDBRANCH  30  31
ENDBRANCH  29  30
ENDBRANCH  28  29
ENDBRANCH  27  28
ENDBRANCH  26  27
ENDBRANCH  25  26
ENDBRANCH   1  25
TORSDOF 25
ENDMDL
