MODEL 1
REMARK VINA RESULT:      -9.2      0.000      0.000
REMARK SMILES CC(C)CSc1cc2c(cc1Cl)C=C(C(=O)OCCOCCOCCOCCOC(=O)c1ccc(-c3c4nc(c(-c5c(F)c(F)c(F)c(F)c5F)c5ccc([nH]5)c(-c5c(F)c(F)c(F)c(F)c5F)c5nc(c(-c6c(F)c(F)c(F)c(F)c6F)c6ccc3[nH]6)C=C5)C=C4)cc1)[C@@H](C(F)(F)F)O2
REMARK SMILES IDX 22 1 21 2 20 3 19 4 18 5 17 6 15 7 16 8 14 9 6 10 7 11 11 12
REMARK SMILES IDX 8 13 10 14 12 15 9 16 100 17 13 18 95 19 5 20 4 21 2 22 1 23
REMARK SMILES IDX 3 24 96 25 97 26 98 27 99 28 23 29 24 30 25 31 26 32 27 33
REMARK SMILES IDX 28 34 29 35 30 36 31 37 32 38 33 39 94 40 34 41 93 42 35 43
REMARK SMILES IDX 36 44 37 45 87 46 38 47 92 48 86 49 88 50 39 51 91 52 85 53
REMARK SMILES IDX 84 54 40 56 72 57 52 58 71 59 53 60 56 61 70 62 89 63 54 64
REMARK SMILES IDX 55 65 69 67 90 68 57 69 41 70 42 71 50 72 43 73 44 74 48 75
REMARK SMILES IDX 51 76 45 77 46 78 49 79 47 80 73 81 74 82 82 83 75 84 76 85
REMARK SMILES IDX 80 86 83 87 77 88 78 89 81 90 79 91 58 92 59 93 67 94 60 95
REMARK SMILES IDX 61 96 65 97 68 98 62 99 63 100 66 101 64 102
REMARK H PARENT 88 55 56 66
REMARK Flexibility Score: inf
ROOT
ATOM      1  C   UNL A   1      33.469  22.836  22.776  1.00  0.00     0.188 C 
ENDROOT
BRANCH   1   2
ATOM      2  C   UNL A   1      32.745  24.183  22.582  1.00  0.00     0.188 C 
BRANCH   2   3
ATOM      3  O   UNL A   1      33.540  25.135  21.892  1.00  0.00    -0.376 OA
BRANCH   3   4
ATOM      4  C   UNL A   1      33.049  26.449  21.674  1.00  0.00     0.202 C 
BRANCH   4   5
ATOM      5  C   UNL A   1      33.435  27.645  22.567  1.00  0.00     0.261 C 
BRANCH   5   6
ATOM      6  O   UNL A   1      34.078  27.350  23.811  1.00  0.00    -0.460 OA
BRANCH   6   7
ATOM      7  C   UNL A   1      33.318  27.286  24.918  1.00  0.00     0.338 C 
ATOM      8  O   UNL A   1      32.661  26.336  25.305  1.00  0.00    -0.246 OA
BRANCH   7   9
ATOM      9  C   UNL A   1      33.568  28.522  25.693  1.00  0.00     0.087 C 
ATOM     10  C   UNL A   1      35.051  31.846  29.147  1.00  0.00     0.030 A 
ATOM     11  C   UNL A   1      34.149  31.883  28.070  1.00  0.00     0.063 A 
ATOM     12  C   UNL A   1      35.939  30.763  29.234  1.00  0.00     0.055 A 
ATOM     13  C   UNL A   1      34.023  30.797  27.202  1.00  0.00     0.129 A 
ATOM     14  C   UNL A   1      35.791  29.663  28.381  1.00  0.00     0.033 A 
ATOM     15  Cl  UNL A   1      37.251  30.699  30.357  1.00  0.00    -0.083 Cl
ATOM     16  C   UNL A   1      34.792  29.655  27.405  1.00  0.00     0.019 A 
ATOM     17  O   UNL A   1      33.079  30.913  26.225  1.00  0.00    -0.475 OA
ATOM     18  C   UNL A   1      34.498  28.448  26.655  1.00  0.00     0.027 C 
ATOM     19  C   UNL A   1      32.872  29.804  25.303  1.00  0.00     0.316 C 
BRANCH  10  20
ATOM     20  S   UNL A   1      34.893  33.179  30.330  1.00  0.00    -0.124 SA
BRANCH  20  21
ATOM     21  C   UNL A   1      33.697  34.328  29.530  1.00  0.00     0.078 C 
BRANCH  21  22
ATOM     22  C   UNL A   1      33.731  35.823  29.909  1.00  0.00    -0.007 C 
ATOM     23  C   UNL A   1      33.399  36.785  28.767  1.00  0.00     0.008 C 
ATOM     24  C   UNL A   1      32.717  36.059  31.039  1.00  0.00     0.008 C 
ENDBRANCH  21  22
ENDBRANCH  20  21
ENDBRANCH  10  20
BRANCH  19  25
ATOM     25  C   UNL A   1      31.356  29.631  25.129  1.00  0.00     0.430 C 
ATOM     26  F   UNL A   1      30.872  28.689  25.974  1.00  0.00    -0.167 F 
ATOM     27  F   UNL A   1      30.675  30.770  25.391  1.00  0.00    -0.167 F 
ATOM     28  F   UNL A   1      31.040  29.249  23.871  1.00  0.00    -0.167 F 
ENDBRANCH  19  25
ENDBRANCH   7   9
ENDBRANCH   6   7
ENDBRANCH   5   6
ENDBRANCH   4   5
ENDBRANCH   3   4
ENDBRANCH   2   3
ENDBRANCH   1   2
BRANCH   1  29
ATOM     29  O   UNL A   1      33.257  22.295  24.075  1.00  0.00    -0.377 OA
BRANCH  29  30
ATOM     30  C   UNL A   1      33.927  21.070  24.380  1.00  0.00     0.188 C 
BRANCH  30  31
ATOM     31  C   UNL A   1      35.095  21.033  25.394  1.00  0.00     0.188 C 
BRANCH  31  32
ATOM     32  O   UNL A   1      36.107  22.003  25.134  1.00  0.00    -0.376 OA
BRANCH  32  33
ATOM     33  C   UNL A   1      36.028  23.242  25.820  1.00  0.00     0.202 C 
BRANCH  33  34
ATOM     34  C   UNL A   1      37.382  23.834  26.227  1.00  0.00     0.261 C 
BRANCH  34  35
ATOM     35  O   UNL A   1      38.532  23.136  25.728  1.00  0.00    -0.460 OA
BRANCH  35  36
ATOM     36  C   UNL A   1      39.486  22.777  26.615  1.00  0.00     0.338 C 
ATOM     37  O   UNL A   1      39.815  21.648  26.931  1.00  0.00    -0.246 OA
BRANCH  36  38
ATOM     38  C   UNL A   1      40.205  24.007  27.007  1.00  0.00     0.060 A 
ATOM     39  C   UNL A   1      40.877  24.064  28.231  1.00  0.00     0.016 A 
ATOM     40  C   UNL A   1      40.177  25.121  26.159  1.00  0.00     0.016 A 
ATOM     41  C   UNL A   1      41.552  25.230  28.590  1.00  0.00     0.010 A 
ATOM     42  C   UNL A   1      40.858  26.288  26.521  1.00  0.00     0.010 A 
ATOM     43  C   UNL A   1      41.569  26.340  27.728  1.00  0.00    -0.014 A 
BRANCH  43  44
ATOM     44  C   UNL A   1      42.482  27.469  28.032  1.00  0.00     0.031 A 
ATOM     45  C   UNL A   1      42.013  28.706  28.733  1.00  0.00     0.074 A 
ATOM     46  C   UNL A   1      43.775  27.336  27.685  1.00  0.00     0.049 A 
ATOM     47  N   UNL A   1      42.725  29.703  29.194  1.00  0.00    -0.248 NA
ATOM     48  C   UNL A   1      40.566  28.851  28.935  1.00  0.00     0.031 C 
ATOM     49  C   UNL A   1      44.330  26.189  26.963  1.00  0.00     0.029 A 
ATOM     50  N   UNL A   1      44.857  28.148  27.908  1.00  0.00    -0.354 N 
ATOM     51  C   UNL A   1      41.819  30.583  29.769  1.00  0.00     0.074 A 
ATOM     52  C   UNL A   1      40.498  30.029  29.546  1.00  0.00     0.031 C 
ATOM     53  C   UNL A   1      45.656  26.350  26.841  1.00  0.00     0.029 A 
ATOM     54  C   UNL A   1      46.041  27.618  27.455  1.00  0.00     0.049 A 
ATOM     55  H   UNL A   1      44.792  29.025  28.350  1.00  0.00     0.167 HD
ATOM     56  C   UNL A   1      42.076  31.732  30.441  1.00  0.00     0.037 A 
ATOM     57  C   UNL A   1      47.297  28.091  27.538  1.00  0.00     0.037 A 
ATOM     58  C   UNL A   1      43.395  32.281  30.643  1.00  0.00     0.049 A 
ATOM     59  C   UNL A   1      47.546  29.390  28.250  1.00  0.00     0.074 A 
ATOM     60  C   UNL A   1      43.758  33.412  31.352  1.00  0.00     0.029 A 
ATOM     61  N   UNL A   1      44.565  31.746  30.122  1.00  0.00    -0.354 N 
ATOM     62  N   UNL A   1      46.695  30.163  28.877  1.00  0.00    -0.248 NA
ATOM     63  C   UNL A   1      48.931  29.881  28.270  1.00  0.00     0.031 C 
ATOM     64  C   UNL A   1      45.136  33.596  31.212  1.00  0.00     0.029 A 
ATOM     65  C   UNL A   1      45.645  32.549  30.461  1.00  0.00     0.049 A 
ATOM     66  H   UNL A   1      44.621  30.920  29.589  1.00  0.00     0.167 HD
ATOM     67  C   UNL A   1      47.438  31.224  29.375  1.00  0.00     0.074 A 
ATOM     68  C   UNL A   1      48.815  30.981  29.001  1.00  0.00     0.031 C 
ATOM     69  C   UNL A   1      47.011  32.304  30.073  1.00  0.00     0.037 A 
BRANCH  56  70
ATOM     70  C   UNL A   1      40.913  32.478  31.029  1.00  0.00     0.064 A 
ATOM     71  C   UNL A   1      40.295  33.526  30.331  1.00  0.00     0.173 A 
ATOM     72  C   UNL A   1      40.352  32.085  32.254  1.00  0.00     0.173 A 
ATOM     73  F   UNL A   1      40.792  33.941  29.156  1.00  0.00    -0.203 F 
ATOM     74  C   UNL A   1      39.167  34.162  30.844  1.00  0.00     0.198 A 
ATOM     75  C   UNL A   1      39.209  32.707  32.751  1.00  0.00     0.198 A 
ATOM     76  F   UNL A   1      40.896  31.079  32.956  1.00  0.00    -0.203 F 
ATOM     77  F   UNL A   1      38.610  35.179  30.172  1.00  0.00    -0.200 F 
ATOM     78  C   UNL A   1      38.620  33.747  32.049  1.00  0.00     0.200 A 
ATOM     79  F   UNL A   1      38.670  32.291  33.906  1.00  0.00    -0.200 F 
ATOM     80  F   UNL A   1      37.524  34.347  32.531  1.00  0.00    -0.200 F 
ENDBRANCH  56  70
BRANCH  57  81
ATOM     81  C   UNL A   1      48.415  27.299  26.965  1.00  0.00     0.064 A 
ATOM     82  C   UNL A   1      48.670  27.309  25.587  1.00  0.00     0.173 A 
ATOM     83  C   UNL A   1      49.271  26.546  27.782  1.00  0.00     0.173 A 
ATOM     84  F   UNL A   1      47.871  28.003  24.763  1.00  0.00    -0.203 F 
ATOM     85  C   UNL A   1      49.733  26.588  25.048  1.00  0.00     0.198 A 
ATOM     86  C   UNL A   1      50.350  25.849  27.246  1.00  0.00     0.198 A 
ATOM     87  F   UNL A   1      49.074  26.511  29.109  1.00  0.00    -0.203 F 
ATOM     88  F   UNL A   1      49.935  26.588  23.723  1.00  0.00    -0.200 F 
ATOM     89  C   UNL A   1      50.577  25.865  25.877  1.00  0.00     0.200 A 
ATOM     90  F   UNL A   1      51.174  25.167  28.053  1.00  0.00    -0.200 F 
ATOM     91  F   UNL A   1      51.607  25.183  25.360  1.00  0.00    -0.200 F 
ENDBRANCH  57  81
BRANCH  69  92
ATOM     92  C   UNL A   1      48.041  33.323  30.470  1.00  0.00     0.064 A 
ATOM     93  C   UNL A   1      48.338  34.418  29.644  1.00  0.00     0.173 A 
ATOM     94  C   UNL A   1      48.681  33.249  31.717  1.00  0.00     0.173 A 
ATOM     95  F   UNL A   1      47.766  34.526  28.436  1.00  0.00    -0.203 F 
ATOM     96  C   UNL A   1      49.246  35.394  30.048  1.00  0.00     0.198 A 
ATOM     97  C   UNL A   1      49.565  34.242  32.129  1.00  0.00     0.198 A 
ATOM     98  F   UNL A   1      48.429  32.225  32.547  1.00  0.00    -0.203 F 
ATOM     99  F   UNL A   1      49.539  36.412  29.227  1.00  0.00    -0.200 F 
ATOM    100  C   UNL A   1      49.849  35.312  31.293  1.00  0.00     0.200 A 
ATOM    101  F   UNL A   1      50.136  34.170  33.340  1.00  0.00    -0.200 F 
ATOM    102  F   UNL A   1      50.707  36.263  31.687  1.00  0.00    -0.200 F 
ENDBRANCH  69  92
ENDBRANCH  43  44
ENDBRANCH  36  38
ENDBRANCH  35  36
ENDBRANCH  34  35
ENDBRANCH  33  34
ENDBRANCH  32  33
ENDBRANCH  31  32
ENDBRANCH  30  31
ENDBRANCH  29  30
ENDBRANCH   1  29
TORSDOF 24
ENDMDL
MODEL 2
REMARK VINA RESULT:      -9.1      4.748      8.514
REMARK SMILES CC(C)CSc1cc2c(cc1Cl)C=C(C(=O)OCCOCCOCCOCCOC(=O)c1ccc(-c3c4nc(c(-c5c(F)c(F)c(F)c(F)c5F)c5ccc([nH]5)c(-c5c(F)c(F)c(F)c(F)c5F)c5nc(c(-c6c(F)c(F)c(F)c(F)c6F)c6ccc3[nH]6)C=C5)C=C4)cc1)[C@@H](C(F)(F)F)O2
REMARK SMILES IDX 22 1 21 2 20 3 19 4 18 5 17 6 15 7 16 8 14 9 6 10 7 11 11 12
REMARK SMILES IDX 8 13 10 14 12 15 9 16 100 17 13 18 95 19 5 20 4 21 2 22 1 23
REMARK SMILES IDX 3 24 96 25 97 26 98 27 99 28 23 29 24 30 25 31 26 32 27 33
REMARK SMILES IDX 28 34 29 35 30 36 31 37 32 38 33 39 94 40 34 41 93 42 35 43
REMARK SMILES IDX 36 44 37 45 87 46 38 47 92 48 86 49 88 50 39 51 91 52 85 53
REMARK SMILES IDX 84 54 40 56 72 57 52 58 71 59 53 60 56 61 70 62 89 63 54 64
REMARK SMILES IDX 55 65 69 67 90 68 57 69 41 70 42 71 50 72 43 73 44 74 48 75
REMARK SMILES IDX 51 76 45 77 46 78 49 79 47 80 73 81 74 82 82 83 75 84 76 85
REMARK SMILES IDX 80 86 83 87 77 88 78 89 81 90 79 91 58 92 59 93 67 94 60 95
REMARK SMILES IDX 61 96 65 97 68 98 62 99 63 100 66 101 64 102
REMARK H PARENT 88 55 56 66
REMARK Flexibility Score: inf
ROOT
ATOM      1  C   UNL A   1      46.018  26.804  25.076  1.00  0.00     0.188 C 
ENDROOT
BRANCH   1   2
ATOM      2  C   UNL A   1      46.098  27.847  26.208  1.00  0.00     0.188 C 
BRANCH   2   3
ATOM      3  O   UNL A   1      45.388  29.038  25.903  1.00  0.00    -0.376 OA
BRANCH   3   4
ATOM      4  C   UNL A   1      45.049  29.950  26.937  1.00  0.00     0.202 C 
BRANCH   4   5
ATOM      5  C   UNL A   1      43.840  30.903  26.850  1.00  0.00     0.261 C 
BRANCH   5   6
ATOM      6  O   UNL A   1      44.081  32.288  27.118  1.00  0.00    -0.460 OA
BRANCH   6   7
ATOM      7  C   UNL A   1      44.133  33.136  26.076  1.00  0.00     0.338 C 
ATOM      8  O   UNL A   1      43.958  32.867  24.901  1.00  0.00    -0.246 OA
BRANCH   7   9
ATOM      9  C   UNL A   1      44.259  34.503  26.629  1.00  0.00     0.087 C 
ATOM     10  C   UNL A   1      43.732  39.402  27.575  1.00  0.00     0.030 A 
ATOM     11  C   UNL A   1      44.672  38.425  27.944  1.00  0.00     0.063 A 
ATOM     12  C   UNL A   1      42.525  38.979  26.997  1.00  0.00     0.055 A 
ATOM     13  C   UNL A   1      44.488  37.085  27.597  1.00  0.00     0.129 A 
ATOM     14  C   UNL A   1      42.356  37.641  26.623  1.00  0.00     0.033 A 
ATOM     15  Cl  UNL A   1      41.187  40.036  26.712  1.00  0.00    -0.083 Cl
ATOM     16  C   UNL A   1      43.365  36.706  26.868  1.00  0.00     0.019 A 
ATOM     17  O   UNL A   1      45.487  36.228  27.953  1.00  0.00    -0.475 OA
ATOM     18  C   UNL A   1      43.288  35.369  26.309  1.00  0.00     0.027 C 
ATOM     19  C   UNL A   1      45.375  34.821  27.595  1.00  0.00     0.316 C 
BRANCH  10  20
ATOM     20  S   UNL A   1      44.241  41.097  27.834  1.00  0.00    -0.124 SA
BRANCH  20  21
ATOM     21  C   UNL A   1      44.558  41.719  26.131  1.00  0.00     0.078 C 
BRANCH  21  22
ATOM     22  C   UNL A   1      44.466  43.235  25.860  1.00  0.00    -0.007 C 
ATOM     23  C   UNL A   1      45.270  44.112  26.821  1.00  0.00     0.008 C 
ATOM     24  C   UNL A   1      44.972  43.505  24.434  1.00  0.00     0.008 C 
ENDBRANCH  21  22
ENDBRANCH  20  21
ENDBRANCH  10  20
BRANCH  19  25
ATOM     25  C   UNL A   1      46.751  34.368  27.084  1.00  0.00     0.430 C 
ATOM     26  F   UNL A   1      47.728  35.210  27.501  1.00  0.00    -0.167 F 
ATOM     27  F   UNL A   1      47.086  33.137  27.532  1.00  0.00    -0.167 F 
ATOM     28  F   UNL A   1      46.794  34.333  25.733  1.00  0.00    -0.167 F 
ENDBRANCH  19  25
ENDBRANCH   7   9
ENDBRANCH   6   7
ENDBRANCH   5   6
ENDBRANCH   4   5
ENDBRANCH   3   4
ENDBRANCH   2   3
ENDBRANCH   1   2
BRANCH   1  29
ATOM     29  O   UNL A   1      45.056  25.791  25.347  1.00  0.00    -0.377 OA
BRANCH  29  30
ATOM     30  C   UNL A   1      45.471  24.438  25.149  1.00  0.00     0.188 C 
BRANCH  30  31
ATOM     31  C   UNL A   1      45.193  23.356  26.218  1.00  0.00     0.188 C 
BRANCH  31  32
ATOM     32  O   UNL A   1      43.915  22.738  26.087  1.00  0.00    -0.376 OA
BRANCH  32  33
ATOM     33  C   UNL A   1      43.141  22.560  27.261  1.00  0.00     0.202 C 
BRANCH  33  34
ATOM     34  C   UNL A   1      41.756  21.948  27.027  1.00  0.00     0.261 C 
BRANCH  34  35
ATOM     35  O   UNL A   1      40.957  22.601  26.030  1.00  0.00    -0.460 OA
BRANCH  35  36
ATOM     36  C   UNL A   1      39.745  23.070  26.401  1.00  0.00     0.338 C 
ATOM     37  O   UNL A   1      38.688  22.466  26.405  1.00  0.00    -0.246 OA
BRANCH  36  38
ATOM     38  C   UNL A   1      39.955  24.409  26.989  1.00  0.00     0.060 A 
ATOM     39  C   UNL A   1      39.488  24.688  28.276  1.00  0.00     0.016 A 
ATOM     40  C   UNL A   1      40.595  25.401  26.235  1.00  0.00     0.016 A 
ATOM     41  C   UNL A   1      39.692  25.954  28.821  1.00  0.00     0.010 A 
ATOM     42  C   UNL A   1      40.801  26.669  26.785  1.00  0.00     0.010 A 
ATOM     43  C   UNL A   1      40.372  26.945  28.092  1.00  0.00    -0.014 A 
BRANCH  43  44
ATOM     44  C   UNL A   1      40.774  28.194  28.783  1.00  0.00     0.031 A 
ATOM     45  C   UNL A   1      39.803  29.298  29.064  1.00  0.00     0.074 A 
ATOM     46  C   UNL A   1      42.053  28.298  29.189  1.00  0.00     0.049 A 
ATOM     47  N   UNL A   1      39.977  30.376  29.786  1.00  0.00    -0.248 NA
ATOM     48  C   UNL A   1      38.471  29.188  28.453  1.00  0.00     0.031 C 
ATOM     49  C   UNL A   1      43.092  27.300  28.931  1.00  0.00     0.029 A 
ATOM     50  N   UNL A   1      42.692  29.268  29.917  1.00  0.00    -0.354 N 
ATOM     51  C   UNL A   1      38.771  31.061  29.745  1.00  0.00     0.074 A 
ATOM     52  C   UNL A   1      37.890  30.305  28.876  1.00  0.00     0.031 C 
ATOM     53  C   UNL A   1      44.228  27.686  29.530  1.00  0.00     0.029 A 
ATOM     54  C   UNL A   1      44.004  28.968  30.193  1.00  0.00     0.049 A 
ATOM     55  H   UNL A   1      42.254  30.098  30.213  1.00  0.00     0.167 HD
ATOM     56  C   UNL A   1      38.430  32.201  30.393  1.00  0.00     0.037 A 
ATOM     57  C   UNL A   1      44.920  29.640  30.914  1.00  0.00     0.037 A 
ATOM     58  C   UNL A   1      39.321  32.953  31.243  1.00  0.00     0.049 A 
ATOM     59  C   UNL A   1      44.526  30.926  31.585  1.00  0.00     0.074 A 
ATOM     60  C   UNL A   1      39.051  34.092  31.982  1.00  0.00     0.029 A 
ATOM     61  N   UNL A   1      40.660  32.649  31.456  1.00  0.00    -0.354 N 
ATOM     62  N   UNL A   1      43.355  31.512  31.621  1.00  0.00    -0.248 NA
ATOM     63  C   UNL A   1      45.579  31.640  32.319  1.00  0.00     0.031 C 
ATOM     64  C   UNL A   1      40.237  34.511  32.593  1.00  0.00     0.029 A 
ATOM     65  C   UNL A   1      41.236  33.604  32.281  1.00  0.00     0.049 A 
ATOM     66  H   UNL A   1      41.130  31.873  31.076  1.00  0.00     0.167 HD
ATOM     67  C   UNL A   1      43.525  32.655  32.388  1.00  0.00     0.074 A 
ATOM     68  C   UNL A   1      44.907  32.666  32.821  1.00  0.00     0.031 C 
ATOM     69  C   UNL A   1      42.617  33.612  32.697  1.00  0.00     0.037 A 
BRANCH  56  70
ATOM     70  C   UNL A   1      37.027  32.710  30.232  1.00  0.00     0.064 A 
ATOM     71  C   UNL A   1      36.038  32.430  31.188  1.00  0.00     0.173 A 
ATOM     72  C   UNL A   1      36.688  33.560  29.169  1.00  0.00     0.173 A 
ATOM     73  F   UNL A   1      36.311  31.622  32.224  1.00  0.00    -0.203 F 
ATOM     74  C   UNL A   1      34.760  32.971  31.077  1.00  0.00     0.198 A 
ATOM     75  C   UNL A   1      35.415  34.120  29.076  1.00  0.00     0.198 A 
ATOM     76  F   UNL A   1      37.599  33.872  28.235  1.00  0.00    -0.203 F 
ATOM     77  F   UNL A   1      33.825  32.667  31.989  1.00  0.00    -0.200 F 
ATOM     78  C   UNL A   1      34.452  33.822  30.027  1.00  0.00     0.200 A 
ATOM     79  F   UNL A   1      35.125  34.958  28.070  1.00  0.00    -0.200 F 
ATOM     80  F   UNL A   1      33.227  34.356  29.932  1.00  0.00    -0.200 F 
ENDBRANCH  56  70
BRANCH  57  81
ATOM     81  C   UNL A   1      46.286  29.078  31.066  1.00  0.00     0.064 A 
ATOM     82  C   UNL A   1      46.557  28.102  32.034  1.00  0.00     0.173 A 
ATOM     83  C   UNL A   1      47.338  29.478  30.229  1.00  0.00     0.173 A 
ATOM     84  F   UNL A   1      45.587  27.698  32.868  1.00  0.00    -0.203 F 
ATOM     85  C   UNL A   1      47.831  27.554  32.164  1.00  0.00     0.198 A 
ATOM     86  C   UNL A   1      48.603  28.909  30.341  1.00  0.00     0.198 A 
ATOM     87  F   UNL A   1      47.127  30.404  29.281  1.00  0.00    -0.203 F 
ATOM     88  F   UNL A   1      48.072  26.645  33.120  1.00  0.00    -0.200 F 
ATOM     89  C   UNL A   1      48.851  27.951  31.314  1.00  0.00     0.200 A 
ATOM     90  F   UNL A   1      49.581  29.282  29.504  1.00  0.00    -0.200 F 
ATOM     91  F   UNL A   1      50.072  27.414  31.430  1.00  0.00    -0.200 F 
ENDBRANCH  57  81
BRANCH  69  92
ATOM     92  C   UNL A   1      43.084  34.768  33.534  1.00  0.00     0.064 A 
ATOM     93  C   UNL A   1      43.497  35.973  32.946  1.00  0.00     0.173 A 
ATOM     94  C   UNL A   1      43.051  34.699  34.935  1.00  0.00     0.173 A 
ATOM     95  F   UNL A   1      43.562  36.084  31.610  1.00  0.00    -0.203 F 
ATOM     96  C   UNL A   1      43.867  37.063  33.730  1.00  0.00     0.198 A 
ATOM     97  C   UNL A   1      43.393  35.801  35.715  1.00  0.00     0.198 A 
ATOM     98  F   UNL A   1      42.660  33.572  35.549  1.00  0.00    -0.203 F 
ATOM     99  F   UNL A   1      44.289  38.193  33.145  1.00  0.00    -0.200 F 
ATOM    100  C   UNL A   1      43.804  36.981  35.112  1.00  0.00     0.200 A 
ATOM    101  F   UNL A   1      43.317  35.724  37.052  1.00  0.00    -0.200 F 
ATOM    102  F   UNL A   1      44.141  38.037  35.864  1.00  0.00    -0.200 F 
ENDBRANCH  69  92
ENDBRANCH  43  44
ENDBRANCH  36  38
ENDBRANCH  35  36
ENDBRANCH  34  35
ENDBRANCH  33  34
ENDBRANCH  32  33
ENDBRANCH  31  32
ENDBRANCH  30  31
ENDBRANCH  29  30
ENDBRANCH   1  29
TORSDOF 24
ENDMDL
MODEL 3
REMARK VINA RESULT:      -8.9      6.788     11.854
REMARK SMILES CC(C)CSc1cc2c(cc1Cl)C=C(C(=O)OCCOCCOCCOCCOC(=O)c1ccc(-c3c4nc(c(-c5c(F)c(F)c(F)c(F)c5F)c5ccc([nH]5)c(-c5c(F)c(F)c(F)c(F)c5F)c5nc(c(-c6c(F)c(F)c(F)c(F)c6F)c6ccc3[nH]6)C=C5)C=C4)cc1)[C@@H](C(F)(F)F)O2
REMARK SMILES IDX 22 1 21 2 20 3 19 4 18 5 17 6 15 7 16 8 14 9 6 10 7 11 11 12
REMARK SMILES IDX 8 13 10 14 12 15 9 16 100 17 13 18 95 19 5 20 4 21 2 22 1 23
REMARK SMILES IDX 3 24 96 25 97 26 98 27 99 28 23 29 24 30 25 31 26 32 27 33
REMARK SMILES IDX 28 34 29 35 30 36 31 37 32 38 33 39 94 40 34 41 93 42 35 43
REMARK SMILES IDX 36 44 37 45 87 46 38 47 92 48 86 49 88 50 39 51 91 52 85 53
REMARK SMILES IDX 84 54 40 56 72 57 52 58 71 59 53 60 56 61 70 62 89 63 54 64
REMARK SMILES IDX 55 65 69 67 90 68 57 69 41 70 42 71 50 72 43 73 44 74 48 75
REMARK SMILES IDX 51 76 45 77 46 78 49 79 47 80 73 81 74 82 82 83 75 84 76 85
REMARK SMILES IDX 80 86 83 87 77 88 78 89 81 90 79 91 58 92 59 93 67 94 60 95
REMARK SMILES IDX 61 96 65 97 68 98 62 99 63 100 66 101 64 102
REMARK H PARENT 88 55 56 66
REMARK Flexibility Score: inf
ROOT
ATOM      1  C   UNL A   1      32.930  29.761  27.125  1.00  0.00     0.188 C 
ENDROOT
BRANCH   1   2
ATOM      2  C   UNL A   1      31.877  28.647  26.967  1.00  0.00     0.188 C 
BRANCH   2   3
ATOM      3  O   UNL A   1      31.600  28.345  25.609  1.00  0.00    -0.376 OA
BRANCH   3   4
ATOM      4  C   UNL A   1      32.099  29.183  24.577  1.00  0.00     0.202 C 
BRANCH   4   5
ATOM      5  C   UNL A   1      33.149  28.713  23.550  1.00  0.00     0.261 C 
BRANCH   5   6
ATOM      6  O   UNL A   1      33.754  27.435  23.775  1.00  0.00    -0.460 OA
BRANCH   6   7
ATOM      7  C   UNL A   1      33.689  26.521  22.792  1.00  0.00     0.338 C 
ATOM      8  O   UNL A   1      33.968  26.684  21.618  1.00  0.00    -0.246 OA
BRANCH   7   9
ATOM      9  C   UNL A   1      33.393  25.217  23.426  1.00  0.00     0.087 C 
ATOM     10  C   UNL A   1      33.572  20.457  25.003  1.00  0.00     0.030 A 
ATOM     11  C   UNL A   1      32.573  21.445  24.970  1.00  0.00     0.063 A 
ATOM     12  C   UNL A   1      34.900  20.845  24.767  1.00  0.00     0.055 A 
ATOM     13  C   UNL A   1      32.864  22.745  24.552  1.00  0.00     0.129 A 
ATOM     14  C   UNL A   1      35.184  22.140  24.320  1.00  0.00     0.033 A 
ATOM     15  Cl  UNL A   1      36.252  19.796  25.007  1.00  0.00    -0.083 Cl
ATOM     16  C   UNL A   1      34.156  23.071  24.153  1.00  0.00     0.019 A 
ATOM     17  O   UNL A   1      31.812  23.611  24.502  1.00  0.00    -0.475 OA
ATOM     18  C   UNL A   1      34.407  24.345  23.502  1.00  0.00     0.027 C 
ATOM     19  C   UNL A   1      32.037  24.975  24.045  1.00  0.00     0.316 C 
BRANCH  10  20
ATOM     20  S   UNL A   1      32.994  18.786  25.279  1.00  0.00    -0.124 SA
BRANCH  20  21
ATOM     21  C   UNL A   1      34.011  17.779  24.121  1.00  0.00     0.078 C 
BRANCH  21  22
ATOM     22  C   UNL A   1      34.180  16.271  24.394  1.00  0.00    -0.007 C 
ATOM     23  C   UNL A   1      35.369  15.906  25.283  1.00  0.00     0.008 C 
ATOM     24  C   UNL A   1      32.902  15.755  25.074  1.00  0.00     0.008 C 
ENDBRANCH  21  22
ENDBRANCH  20  21
ENDBRANCH  10  20
BRANCH  19  25
ATOM     25  C   UNL A   1      30.879  25.339  23.104  1.00  0.00     0.430 C 
ATOM     26  F   UNL A   1      31.244  25.208  21.806  1.00  0.00    -0.167 F 
ATOM     27  F   UNL A   1      29.801  24.542  23.284  1.00  0.00    -0.167 F 
ATOM     28  F   UNL A   1      30.472  26.616  23.286  1.00  0.00    -0.167 F 
ENDBRANCH  19  25
ENDBRANCH   7   9
ENDBRANCH   6   7
ENDBRANCH   5   6
ENDBRANCH   4   5
ENDBRANCH   3   4
ENDBRANCH   2   3
ENDBRANCH   1   2
BRANCH   1  29
ATOM     29  O   UNL A   1      34.112  29.297  27.767  1.00  0.00    -0.377 OA
BRANCH  29  30
ATOM     30  C   UNL A   1      35.310  30.035  27.524  1.00  0.00     0.188 C 
BRANCH  30  31
ATOM     31  C   UNL A   1      36.481  30.007  28.534  1.00  0.00     0.188 C 
BRANCH  31  32
ATOM     32  O   UNL A   1      37.327  31.152  28.459  1.00  0.00    -0.376 OA
BRANCH  32  33
ATOM     33  C   UNL A   1      36.740  32.425  28.675  1.00  0.00     0.202 C 
BRANCH  33  34
ATOM     34  C   UNL A   1      36.151  32.628  30.075  1.00  0.00     0.261 C 
BRANCH  34  35
ATOM     35  O   UNL A   1      36.805  33.620  30.878  1.00  0.00    -0.460 OA
BRANCH  35  36
ATOM     36  C   UNL A   1      36.432  33.731  32.172  1.00  0.00     0.338 C 
ATOM     37  O   UNL A   1      35.381  34.172  32.603  1.00  0.00    -0.246 OA
BRANCH  36  38
ATOM     38  C   UNL A   1      37.456  33.042  32.984  1.00  0.00     0.060 A 
ATOM     39  C   UNL A   1      38.813  33.270  32.738  1.00  0.00     0.016 A 
ATOM     40  C   UNL A   1      37.056  32.138  33.976  1.00  0.00     0.016 A 
ATOM     41  C   UNL A   1      39.770  32.615  33.510  1.00  0.00     0.010 A 
ATOM     42  C   UNL A   1      38.019  31.484  34.751  1.00  0.00     0.010 A 
ATOM     43  C   UNL A   1      39.381  31.739  34.538  1.00  0.00    -0.014 A 
BRANCH  43  44
ATOM     44  C   UNL A   1      40.410  31.243  35.484  1.00  0.00     0.031 A 
ATOM     45  C   UNL A   1      41.178  29.981  35.239  1.00  0.00     0.074 A 
ATOM     46  C   UNL A   1      40.666  31.990  36.575  1.00  0.00     0.049 A 
ATOM     47  N   UNL A   1      42.204  29.508  35.899  1.00  0.00    -0.248 NA
ATOM     48  C   UNL A   1      40.736  29.138  34.120  1.00  0.00     0.031 C 
ATOM     49  C   UNL A   1      39.948  33.215  36.932  1.00  0.00     0.029 A 
ATOM     50  N   UNL A   1      41.602  31.848  37.566  1.00  0.00    -0.354 N 
ATOM     51  C   UNL A   1      42.554  28.326  35.261  1.00  0.00     0.074 A 
ATOM     52  C   UNL A   1      41.592  28.125  34.195  1.00  0.00     0.031 C 
ATOM     53  C   UNL A   1      40.499  33.737  38.037  1.00  0.00     0.029 A 
ATOM     54  C   UNL A   1      41.591  32.875  38.478  1.00  0.00     0.049 A 
ATOM     55  H   UNL A   1      42.221  31.085  37.619  1.00  0.00     0.167 HD
ATOM     56  C   UNL A   1      43.597  27.504  35.530  1.00  0.00     0.037 A 
ATOM     57  C   UNL A   1      42.382  33.105  39.542  1.00  0.00     0.037 A 
ATOM     58  C   UNL A   1      44.540  27.708  36.604  1.00  0.00     0.049 A 
ATOM     59  C   UNL A   1      43.504  32.152  39.843  1.00  0.00     0.074 A 
ATOM     60  C   UNL A   1      45.657  26.957  36.923  1.00  0.00     0.029 A 
ATOM     61  N   UNL A   1      44.466  28.728  37.542  1.00  0.00    -0.354 N 
ATOM     62  N   UNL A   1      43.887  31.093  39.174  1.00  0.00    -0.248 NA
ATOM     63  C   UNL A   1      44.305  32.428  41.042  1.00  0.00     0.031 C 
ATOM     64  C   UNL A   1      46.225  27.485  38.086  1.00  0.00     0.029 A 
ATOM     65  C   UNL A   1      45.494  28.600  38.464  1.00  0.00     0.049 A 
ATOM     66  H   UNL A   1      43.783  29.437  37.553  1.00  0.00     0.167 HD
ATOM     67  C   UNL A   1      44.979  30.582  39.861  1.00  0.00     0.074 A 
ATOM     68  C   UNL A   1      45.214  31.464  40.985  1.00  0.00     0.031 C 
ATOM     69  C   UNL A   1      45.713  29.477  39.587  1.00  0.00     0.037 A 
BRANCH  56  70
ATOM     70  C   UNL A   1      43.800  26.310  34.643  1.00  0.00     0.064 A 
ATOM     71  C   UNL A   1      44.539  26.405  33.454  1.00  0.00     0.173 A 
ATOM     72  C   UNL A   1      43.335  25.043  35.026  1.00  0.00     0.173 A 
ATOM     73  F   UNL A   1      45.006  27.594  33.043  1.00  0.00    -0.203 F 
ATOM     74  C   UNL A   1      44.793  25.278  32.676  1.00  0.00     0.198 A 
ATOM     75  C   UNL A   1      43.613  23.914  34.258  1.00  0.00     0.198 A 
ATOM     76  F   UNL A   1      42.634  24.893  36.160  1.00  0.00    -0.203 F 
ATOM     77  F   UNL A   1      45.479  25.399  31.530  1.00  0.00    -0.200 F 
ATOM     78  C   UNL A   1      44.338  24.033  33.082  1.00  0.00     0.200 A 
ATOM     79  F   UNL A   1      43.188  22.709  34.662  1.00  0.00    -0.200 F 
ATOM     80  F   UNL A   1      44.599  22.948  32.341  1.00  0.00    -0.200 F 
ENDBRANCH  56  70
BRANCH  57  81
ATOM     81  C   UNL A   1      42.158  34.317  40.370  1.00  0.00     0.064 A 
ATOM     82  C   UNL A   1      42.806  35.523  40.069  1.00  0.00     0.173 A 
ATOM     83  C   UNL A   1      41.270  34.306  41.455  1.00  0.00     0.173 A 
ATOM     84  F   UNL A   1      43.676  35.579  39.050  1.00  0.00    -0.203 F 
ATOM     85  C   UNL A   1      42.580  36.669  40.828  1.00  0.00     0.198 A 
ATOM     86  C   UNL A   1      41.023  35.459  42.196  1.00  0.00     0.198 A 
ATOM     87  F   UNL A   1      40.619  33.179  41.779  1.00  0.00    -0.203 F 
ATOM     88  F   UNL A   1      43.237  37.801  40.539  1.00  0.00    -0.200 F 
ATOM     89  C   UNL A   1      41.684  36.639  41.885  1.00  0.00     0.200 A 
ATOM     90  F   UNL A   1      40.141  35.431  43.204  1.00  0.00    -0.200 F 
ATOM     91  F   UNL A   1      41.456  37.745  42.606  1.00  0.00    -0.200 F 
ENDBRANCH  57  81
BRANCH  69  92
ATOM     92  C   UNL A   1      46.837  29.141  40.524  1.00  0.00     0.064 A 
ATOM     93  C   UNL A   1      48.129  29.653  40.326  1.00  0.00     0.173 A 
ATOM     94  C   UNL A   1      46.609  28.363  41.669  1.00  0.00     0.173 A 
ATOM     95  F   UNL A   1      48.402  30.389  39.238  1.00  0.00    -0.203 F 
ATOM     96  C   UNL A   1      49.151  29.391  41.234  1.00  0.00     0.198 A 
ATOM     97  C   UNL A   1      47.626  28.128  42.591  1.00  0.00     0.198 A 
ATOM     98  F   UNL A   1      45.392  27.852  41.910  1.00  0.00    -0.203 F 
ATOM     99  F   UNL A   1      50.383  29.863  41.006  1.00  0.00    -0.200 F 
ATOM    100  C   UNL A   1      48.897  28.639  42.371  1.00  0.00     0.200 A 
ATOM    101  F   UNL A   1      47.375  27.414  43.698  1.00  0.00    -0.200 F 
ATOM    102  F   UNL A   1      49.876  28.405  43.254  1.00  0.00    -0.200 F 
ENDBRANCH  69  92
ENDBRANCH  43  44
ENDBRANCH  36  38
ENDBRANCH  35  36
ENDBRANCH  34  35
ENDBRANCH  33  34
ENDBRANCH  32  33
ENDBRANCH  31  32
ENDBRANCH  30  31
ENDBRANCH  29  30
ENDBRANCH   1  29
TORSDOF 24
ENDMDL
