MODEL 1
REMARK VINA RESULT:      -9.1      0.000      0.000
REMARK SMILES CCCc1cc(OC(F)(F)F)cc2c1O[C@@H](C(F)(F)F)C(C(=O)OCCOCCOCCOCCOC(=O)c1ccc(-c3c4nc(c(-c5c(F)c(F)c(F)c(F)c5F)c5ccc([nH]5)c(-c5c(F)c(F)c(F)c(F)c5F)c5nc(c(-c6c(F)c(F)c(F)c(F)c6F)c6ccc3[nH]6)C=C5)C=C4)cc1)=C2
REMARK SMILES IDX 30 1 29 2 28 3 27 4 26 5 25 6 24 7 22 8 23 9 21 10 4 11 5 12
REMARK SMILES IDX 14 13 6 14 13 15 15 16 12 17 102 18 16 19 3 20 2 21 1 22
REMARK SMILES IDX 7 23 8 24 9 25 10 26 11 27 17 28 18 29 19 30 20 31 31 32
REMARK SMILES IDX 32 33 33 34 34 35 35 36 36 37 37 38 38 39 39 40 40 41 101 42
REMARK SMILES IDX 41 43 100 44 42 45 43 46 44 47 94 48 45 49 99 50 93 51 95 52
REMARK SMILES IDX 46 53 98 54 92 55 91 56 47 58 79 59 59 60 78 61 60 62 63 63
REMARK SMILES IDX 77 64 96 65 61 66 62 67 76 69 97 70 64 71 48 72 49 73 57 74
REMARK SMILES IDX 50 75 51 76 55 77 58 78 52 79 53 80 56 81 54 82 80 83 81 84
REMARK SMILES IDX 89 85 82 86 83 87 87 88 90 89 84 90 85 91 88 92 86 93 65 94
REMARK SMILES IDX 66 95 74 96 67 97 68 98 72 99 75 100 69 101 70 102 73 103
REMARK SMILES IDX 71 104
REMARK H PARENT 95 57 63 68
REMARK Flexibility Score: inf
ROOT
ATOM      1  O   UNL A   1      35.695  32.471  29.998  1.00  0.00    -0.377 OA
ENDROOT
BRANCH   1   2
ATOM      2  C   UNL A   1      35.444  31.492  29.005  1.00  0.00     0.188 C 
BRANCH   2   3
ATOM      3  C   UNL A   1      34.264  31.717  28.045  1.00  0.00     0.188 C 
BRANCH   3   4
ATOM      4  O   UNL A   1      34.125  30.722  27.035  1.00  0.00    -0.376 OA
BRANCH   4   5
ATOM      5  C   UNL A   1      33.582  29.480  27.465  1.00  0.00     0.202 C 
BRANCH   5   6
ATOM      6  C   UNL A   1      32.149  29.258  26.975  1.00  0.00     0.261 C 
BRANCH   6   7
ATOM      7  O   UNL A   1      31.945  27.970  26.370  1.00  0.00    -0.460 OA
BRANCH   7   8
ATOM      8  C   UNL A   1      32.460  27.795  25.132  1.00  0.00     0.338 C 
ATOM      9  O   UNL A   1      32.703  28.670  24.322  1.00  0.00    -0.246 OA
BRANCH   8  10
ATOM     10  C   UNL A   1      32.817  26.379  24.950  1.00  0.00     0.087 C 
ATOM     11  C   UNL A   1      33.349  22.236  24.914  1.00  0.00    -0.002 A 
ATOM     12  C   UNL A   1      34.615  21.718  25.237  1.00  0.00     0.054 A 
ATOM     13  C   UNL A   1      33.184  23.629  24.937  1.00  0.00     0.131 A 
ATOM     14  C   UNL A   1      35.653  22.555  25.659  1.00  0.00     0.130 A 
ATOM     15  C   UNL A   1      34.220  24.480  25.351  1.00  0.00     0.021 A 
ATOM     16  O   UNL A   1      31.948  24.126  24.601  1.00  0.00    -0.475 OA
ATOM     17  C   UNL A   1      35.456  23.938  25.699  1.00  0.00     0.058 A 
ATOM     18  C   UNL A   1      33.941  25.905  25.512  1.00  0.00     0.027 C 
ATOM     19  C   UNL A   1      31.964  25.482  24.084  1.00  0.00     0.316 C 
BRANCH  11  20
ATOM     20  C   UNL A   1      32.186  21.351  24.512  1.00  0.00     0.039 C 
BRANCH  20  21
ATOM     21  C   UNL A   1      32.339  20.504  23.242  1.00  0.00     0.001 C 
ATOM     22  C   UNL A   1      32.363  19.005  23.515  1.00  0.00     0.004 C 
ENDBRANCH  20  21
ENDBRANCH  11  20
BRANCH  14  23
ATOM     23  O   UNL A   1      36.894  22.139  26.056  1.00  0.00    -0.406 OA
BRANCH  23  24
ATOM     24  C   UNL A   1      37.695  21.498  25.073  1.00  0.00     0.573 C 
ATOM     25  F   UNL A   1      37.496  20.161  25.066  1.00  0.00    -0.132 F 
ATOM     26  F   UNL A   1      37.439  21.998  23.845  1.00  0.00    -0.132 F 
ATOM     27  F   UNL A   1      38.996  21.725  25.358  1.00  0.00    -0.132 F 
ENDBRANCH  23  24
ENDBRANCH  14  23
BRANCH  19  28
ATOM     28  C   UNL A   1      30.514  25.892  23.780  1.00  0.00     0.430 C 
ATOM     29  F   UNL A   1      30.440  26.710  22.704  1.00  0.00    -0.167 F 
ATOM     30  F   UNL A   1      29.782  24.792  23.454  1.00  0.00    -0.167 F 
ATOM     31  F   UNL A   1      29.898  26.486  24.820  1.00  0.00    -0.167 F 
ENDBRANCH  19  28
ENDBRANCH   8  10
ENDBRANCH   7   8
ENDBRANCH   6   7
ENDBRANCH   5   6
ENDBRANCH   4   5
ENDBRANCH   3   4
ENDBRANCH   2   3
ENDBRANCH   1   2
BRANCH   1  32
ATOM     32  C   UNL A   1      34.938  32.455  31.201  1.00  0.00     0.188 C 
BRANCH  32  33
ATOM     33  C   UNL A   1      35.609  32.247  32.576  1.00  0.00     0.188 C 
BRANCH  33  34
ATOM     34  O   UNL A   1      36.990  31.907  32.524  1.00  0.00    -0.376 OA
BRANCH  34  35
ATOM     35  C   UNL A   1      37.474  31.090  33.580  1.00  0.00     0.202 C 
BRANCH  35  36
ATOM     36  C   UNL A   1      37.358  29.593  33.280  1.00  0.00     0.261 C 
BRANCH  36  37
ATOM     37  O   UNL A   1      37.637  29.242  31.914  1.00  0.00    -0.460 OA
BRANCH  37  38
ATOM     38  C   UNL A   1      38.749  28.506  31.697  1.00  0.00     0.338 C 
ATOM     39  O   UNL A   1      38.863  27.296  31.759  1.00  0.00    -0.246 OA
BRANCH  38  40
ATOM     40  C   UNL A   1      39.793  29.410  31.182  1.00  0.00     0.060 A 
ATOM     41  C   UNL A   1      39.945  29.534  29.795  1.00  0.00     0.016 A 
ATOM     42  C   UNL A   1      40.611  30.126  32.058  1.00  0.00     0.016 A 
ATOM     43  C   UNL A   1      40.954  30.345  29.281  1.00  0.00     0.010 A 
ATOM     44  C   UNL A   1      41.634  30.923  31.543  1.00  0.00     0.010 A 
ATOM     45  C   UNL A   1      41.832  31.003  30.153  1.00  0.00    -0.014 A 
BRANCH  45  46
ATOM     46  C   UNL A   1      43.084  31.582  29.617  1.00  0.00     0.031 A 
ATOM     47  C   UNL A   1      43.104  33.052  29.303  1.00  0.00     0.074 A 
ATOM     48  C   UNL A   1      44.183  30.831  29.433  1.00  0.00     0.049 A 
ATOM     49  N   UNL A   1      44.077  33.792  28.839  1.00  0.00    -0.248 NA
ATOM     50  C   UNL A   1      41.851  33.788  29.547  1.00  0.00     0.031 C 
ATOM     51  C   UNL A   1      44.291  29.403  29.717  1.00  0.00     0.029 A 
ATOM     52  N   UNL A   1      45.423  31.177  28.955  1.00  0.00    -0.354 N 
ATOM     53  C   UNL A   1      43.557  35.076  28.742  1.00  0.00     0.074 A 
ATOM     54  C   UNL A   1      42.174  35.011  29.159  1.00  0.00     0.031 C 
ATOM     55  C   UNL A   1      45.530  28.989  29.396  1.00  0.00     0.029 A 
ATOM     56  C   UNL A   1      46.294  30.121  28.869  1.00  0.00     0.049 A 
ATOM     57  H   UNL A   1      45.664  32.097  28.699  1.00  0.00     0.167 HD
ATOM     58  C   UNL A   1      44.181  36.211  28.351  1.00  0.00     0.037 A 
ATOM     59  C   UNL A   1      47.558  30.077  28.405  1.00  0.00     0.037 A 
ATOM     60  C   UNL A   1      45.554  36.274  27.930  1.00  0.00     0.049 A 
ATOM     61  C   UNL A   1      48.211  31.346  27.918  1.00  0.00     0.074 A 
ATOM     62  C   UNL A   1      46.286  37.381  27.540  1.00  0.00     0.029 A 
ATOM     63  N   UNL A   1      46.398  35.179  27.832  1.00  0.00    -0.354 N 
ATOM     64  N   UNL A   1      47.732  32.565  27.880  1.00  0.00    -0.248 NA
ATOM     65  C   UNL A   1      49.588  31.231  27.414  1.00  0.00     0.031 C 
ATOM     66  C   UNL A   1      47.561  36.948  27.161  1.00  0.00     0.029 A 
ATOM     67  C   UNL A   1      47.637  35.579  27.361  1.00  0.00     0.049 A 
ATOM     68  H   UNL A   1      46.153  34.254  28.063  1.00  0.00     0.167 HD
ATOM     69  C   UNL A   1      48.751  33.364  27.376  1.00  0.00     0.074 A 
ATOM     70  C   UNL A   1      49.883  32.493  27.135  1.00  0.00     0.031 C 
ATOM     71  C   UNL A   1      48.752  34.698  27.133  1.00  0.00     0.037 A 
BRANCH  58  72
ATOM     72  C   UNL A   1      43.373  37.472  28.343  1.00  0.00     0.064 A 
ATOM     73  C   UNL A   1      43.437  38.392  29.400  1.00  0.00     0.173 A 
ATOM     74  C   UNL A   1      42.547  37.778  27.252  1.00  0.00     0.173 A 
ATOM     75  F   UNL A   1      44.200  38.135  30.474  1.00  0.00    -0.203 F 
ATOM     76  C   UNL A   1      42.686  39.563  29.375  1.00  0.00     0.198 A 
ATOM     77  C   UNL A   1      41.816  38.963  27.219  1.00  0.00     0.198 A 
ATOM     78  F   UNL A   1      42.451  36.930  26.218  1.00  0.00    -0.203 F 
ATOM     79  F   UNL A   1      42.729  40.409  30.415  1.00  0.00    -0.200 F 
ATOM     80  C   UNL A   1      41.881  39.851  28.282  1.00  0.00     0.200 A 
ATOM     81  F   UNL A   1      41.046  39.242  26.159  1.00  0.00    -0.200 F 
ATOM     82  F   UNL A   1      41.164  40.983  28.256  1.00  0.00    -0.200 F 
ENDBRANCH  58  72
BRANCH  59  83
ATOM     83  C   UNL A   1      48.296  28.787  28.371  1.00  0.00     0.064 A 
ATOM     84  C   UNL A   1      48.186  27.917  27.278  1.00  0.00     0.173 A 
ATOM     85  C   UNL A   1      49.098  28.384  29.448  1.00  0.00     0.173 A 
ATOM     86  F   UNL A   1      47.409  28.247  26.236  1.00  0.00    -0.203 F 
ATOM     87  C   UNL A   1      48.832  26.683  27.274  1.00  0.00     0.198 A 
ATOM     88  C   UNL A   1      49.766  27.161  29.431  1.00  0.00     0.198 A 
ATOM     89  F   UNL A   1      49.233  29.179  30.520  1.00  0.00    -0.203 F 
ATOM     90  F   UNL A   1      48.669  25.847  26.238  1.00  0.00    -0.200 F 
ATOM     91  C   UNL A   1      49.625  26.307  28.347  1.00  0.00     0.200 A 
ATOM     92  F   UNL A   1      50.537  26.806  30.467  1.00  0.00    -0.200 F 
ATOM     93  F   UNL A   1      50.244  25.119  28.343  1.00  0.00    -0.200 F 
ENDBRANCH  59  83
BRANCH  71  94
ATOM     94  C   UNL A   1      50.021  35.304  26.606  1.00  0.00     0.064 A 
ATOM     95  C   UNL A   1      51.110  35.575  27.448  1.00  0.00     0.173 A 
ATOM     96  C   UNL A   1      50.165  35.570  25.237  1.00  0.00     0.173 A 
ATOM     97  F   UNL A   1      51.016  35.350  28.767  1.00  0.00    -0.203 F 
ATOM     98  C   UNL A   1      52.290  36.112  26.939  1.00  0.00     0.198 A 
ATOM     99  C   UNL A   1      51.356  36.079  24.727  1.00  0.00     0.198 A 
ATOM    100  F   UNL A   1      49.156  35.320  24.389  1.00  0.00    -0.203 F 
ATOM    101  F   UNL A   1      53.303  36.403  27.767  1.00  0.00    -0.200 F 
ATOM    102  C   UNL A   1      52.415  36.356  25.579  1.00  0.00     0.200 A 
ATOM    103  F   UNL A   1      51.480  36.301  23.411  1.00  0.00    -0.200 F 
ATOM    104  F   UNL A   1      53.554  36.865  25.091  1.00  0.00    -0.200 F 
ENDBRANCH  71  94
ENDBRANCH  45  46
ENDBRANCH  38  40
ENDBRANCH  37  38
ENDBRANCH  36  37
ENDBRANCH  35  36
ENDBRANCH  34  35
ENDBRANCH  33  34
ENDBRANCH  32  33
ENDBRANCH   1  32
TORSDOF 25
ENDMDL
MODEL 2
REMARK VINA RESULT:      -8.7      0.911      2.060
REMARK SMILES CCCc1cc(OC(F)(F)F)cc2c1O[C@@H](C(F)(F)F)C(C(=O)OCCOCCOCCOCCOC(=O)c1ccc(-c3c4nc(c(-c5c(F)c(F)c(F)c(F)c5F)c5ccc([nH]5)c(-c5c(F)c(F)c(F)c(F)c5F)c5nc(c(-c6c(F)c(F)c(F)c(F)c6F)c6ccc3[nH]6)C=C5)C=C4)cc1)=C2
REMARK SMILES IDX 30 1 29 2 28 3 27 4 26 5 25 6 24 7 22 8 23 9 21 10 4 11 5 12
REMARK SMILES IDX 14 13 6 14 13 15 15 16 12 17 102 18 16 19 3 20 2 21 1 22
REMARK SMILES IDX 7 23 8 24 9 25 10 26 11 27 17 28 18 29 19 30 20 31 31 32
REMARK SMILES IDX 32 33 33 34 34 35 35 36 36 37 37 38 38 39 39 40 40 41 101 42
REMARK SMILES IDX 41 43 100 44 42 45 43 46 44 47 94 48 45 49 99 50 93 51 95 52
REMARK SMILES IDX 46 53 98 54 92 55 91 56 47 58 79 59 59 60 78 61 60 62 63 63
REMARK SMILES IDX 77 64 96 65 61 66 62 67 76 69 97 70 64 71 48 72 49 73 57 74
REMARK SMILES IDX 50 75 51 76 55 77 58 78 52 79 53 80 56 81 54 82 80 83 81 84
REMARK SMILES IDX 89 85 82 86 83 87 87 88 90 89 84 90 85 91 88 92 86 93 65 94
REMARK SMILES IDX 66 95 74 96 67 97 68 98 72 99 75 100 69 101 70 102 73 103
REMARK SMILES IDX 71 104
REMARK H PARENT 95 57 63 68
REMARK Flexibility Score: inf
ROOT
ATOM      1  O   UNL A   1      35.591  32.613  29.861  1.00  0.00    -0.377 OA
ENDROOT
BRANCH   1   2
ATOM      2  C   UNL A   1      35.288  31.600  28.918  1.00  0.00     0.188 C 
BRANCH   2   3
ATOM      3  C   UNL A   1      34.233  31.903  27.841  1.00  0.00     0.188 C 
BRANCH   3   4
ATOM      4  O   UNL A   1      34.055  30.868  26.880  1.00  0.00    -0.376 OA
BRANCH   4   5
ATOM      5  C   UNL A   1      34.080  29.541  27.391  1.00  0.00     0.202 C 
BRANCH   5   6
ATOM      6  C   UNL A   1      32.702  28.876  27.384  1.00  0.00     0.261 C 
BRANCH   6   7
ATOM      7  O   UNL A   1      32.718  27.532  26.876  1.00  0.00    -0.460 OA
BRANCH   7   8
ATOM      8  C   UNL A   1      32.613  27.390  25.536  1.00  0.00     0.338 C 
ATOM      9  O   UNL A   1      32.433  28.283  24.729  1.00  0.00    -0.246 OA
BRANCH   8  10
ATOM     10  C   UNL A   1      32.885  25.991  25.172  1.00  0.00     0.087 C 
ATOM     11  C   UNL A   1      33.483  21.874  24.792  1.00  0.00    -0.002 A 
ATOM     12  C   UNL A   1      34.761  21.410  24.437  1.00  0.00     0.054 A 
ATOM     13  C   UNL A   1      33.299  23.258  24.922  1.00  0.00     0.131 A 
ATOM     14  C   UNL A   1      35.841  22.290  24.311  1.00  0.00     0.130 A 
ATOM     15  C   UNL A   1      34.372  24.153  24.789  1.00  0.00     0.021 A 
ATOM     16  O   UNL A   1      32.041  23.703  25.249  1.00  0.00    -0.475 OA
ATOM     17  C   UNL A   1      35.638  23.663  24.472  1.00  0.00     0.058 A 
ATOM     18  C   UNL A   1      34.157  25.564  25.097  1.00  0.00     0.027 C 
ATOM     19  C   UNL A   1      31.750  25.058  24.820  1.00  0.00     0.316 C 
BRANCH  11  20
ATOM     20  C   UNL A   1      32.306  20.941  24.996  1.00  0.00     0.039 C 
BRANCH  20  21
ATOM     21  C   UNL A   1      32.499  19.461  24.641  1.00  0.00     0.001 C 
ATOM     22  C   UNL A   1      32.288  19.161  23.163  1.00  0.00     0.004 C 
ENDBRANCH  20  21
ENDBRANCH  11  20
BRANCH  14  23
ATOM     23  O   UNL A   1      37.130  21.927  24.036  1.00  0.00    -0.406 OA
BRANCH  23  24
ATOM     24  C   UNL A   1      37.782  21.112  25.001  1.00  0.00     0.573 C 
ATOM     25  F   UNL A   1      37.649  19.799  24.713  1.00  0.00    -0.132 F 
ATOM     26  F   UNL A   1      39.092  21.425  25.086  1.00  0.00    -0.132 F 
ATOM     27  F   UNL A   1      37.216  21.334  26.208  1.00  0.00    -0.132 F 
ENDBRANCH  23  24
ENDBRANCH  14  23
BRANCH  19  28
ATOM     28  C   UNL A   1      30.325  25.406  25.278  1.00  0.00     0.430 C 
ATOM     29  F   UNL A   1      29.513  25.674  24.229  1.00  0.00    -0.167 F 
ATOM     30  F   UNL A   1      29.768  24.336  25.907  1.00  0.00    -0.167 F 
ATOM     31  F   UNL A   1      30.278  26.441  26.138  1.00  0.00    -0.167 F 
ENDBRANCH  19  28
ENDBRANCH   8  10
ENDBRANCH   7   8
ENDBRANCH   6   7
ENDBRANCH   5   6
ENDBRANCH   4   5
ENDBRANCH   3   4
ENDBRANCH   2   3
ENDBRANCH   1   2
BRANCH   1  32
ATOM     32  C   UNL A   1      34.829  32.704  31.058  1.00  0.00     0.188 C 
BRANCH  32  33
ATOM     33  C   UNL A   1      35.487  32.572  32.448  1.00  0.00     0.188 C 
BRANCH  33  34
ATOM     34  O   UNL A   1      36.868  32.230  32.428  1.00  0.00    -0.376 OA
BRANCH  34  35
ATOM     35  C   UNL A   1      37.460  31.938  33.686  1.00  0.00     0.202 C 
BRANCH  35  36
ATOM     36  C   UNL A   1      37.765  30.449  33.872  1.00  0.00     0.261 C 
BRANCH  36  37
ATOM     37  O   UNL A   1      38.072  29.752  32.653  1.00  0.00    -0.460 OA
BRANCH  37  38
ATOM     38  C   UNL A   1      39.256  29.103  32.612  1.00  0.00     0.338 C 
ATOM     39  O   UNL A   1      39.471  27.933  32.873  1.00  0.00    -0.246 OA
BRANCH  38  40
ATOM     40  C   UNL A   1      40.249  30.012  32.012  1.00  0.00     0.060 A 
ATOM     41  C   UNL A   1      40.248  30.178  30.622  1.00  0.00     0.016 A 
ATOM     42  C   UNL A   1      41.168  30.692  32.814  1.00  0.00     0.016 A 
ATOM     43  C   UNL A   1      41.204  30.995  30.023  1.00  0.00     0.010 A 
ATOM     44  C   UNL A   1      42.138  31.494  32.212  1.00  0.00     0.010 A 
ATOM     45  C   UNL A   1      42.183  31.617  30.812  1.00  0.00    -0.014 A 
BRANCH  45  46
ATOM     46  C   UNL A   1      43.375  32.199  30.159  1.00  0.00     0.031 A 
ATOM     47  C   UNL A   1      43.292  33.622  29.678  1.00  0.00     0.074 A 
ATOM     48  C   UNL A   1      44.511  31.496  30.012  1.00  0.00     0.049 A 
ATOM     49  N   UNL A   1      44.199  34.357  29.091  1.00  0.00    -0.248 NA
ATOM     50  C   UNL A   1      42.006  34.308  29.893  1.00  0.00     0.031 C 
ATOM     51  C   UNL A   1      44.717  30.119  30.452  1.00  0.00     0.029 A 
ATOM     52  N   UNL A   1      45.707  31.855  29.443  1.00  0.00    -0.354 N 
ATOM     53  C   UNL A   1      43.598  35.589  28.872  1.00  0.00     0.074 A 
ATOM     54  C   UNL A   1      42.238  35.495  29.354  1.00  0.00     0.031 C 
ATOM     55  C   UNL A   1      45.967  29.742  30.125  1.00  0.00     0.029 A 
ATOM     56  C   UNL A   1      46.638  30.847  29.439  1.00  0.00     0.049 A 
ATOM     57  H   UNL A   1      45.881  32.750  29.073  1.00  0.00     0.167 HD
ATOM     58  C   UNL A   1      44.135  36.705  28.326  1.00  0.00     0.037 A 
ATOM     59  C   UNL A   1      47.884  30.822  28.927  1.00  0.00     0.037 A 
ATOM     60  C   UNL A   1      45.485  36.797  27.840  1.00  0.00     0.049 A 
ATOM     61  C   UNL A   1      48.439  32.061  28.270  1.00  0.00     0.074 A 
ATOM     62  C   UNL A   1      46.131  37.891  27.294  1.00  0.00     0.029 A 
ATOM     63  N   UNL A   1      46.390  35.748  27.829  1.00  0.00    -0.354 N 
ATOM     64  N   UNL A   1      47.885  33.238  28.115  1.00  0.00    -0.248 NA
ATOM     65  C   UNL A   1      49.800  31.966  27.721  1.00  0.00     0.031 C 
ATOM     66  C   UNL A   1      47.415  37.491  26.910  1.00  0.00     0.029 A 
ATOM     67  C   UNL A   1      47.583  36.161  27.260  1.00  0.00     0.049 A 
ATOM     68  H   UNL A   1      46.212  34.843  28.175  1.00  0.00     0.167 HD
ATOM     69  C   UNL A   1      48.832  34.030  27.478  1.00  0.00     0.074 A 
ATOM     70  C   UNL A   1      50.006  33.203  27.287  1.00  0.00     0.031 C 
ATOM     71  C   UNL A   1      48.742  35.324  27.085  1.00  0.00     0.037 A 
BRANCH  58  72
ATOM     72  C   UNL A   1      43.251  37.909  28.211  1.00  0.00     0.064 A 
ATOM     73  C   UNL A   1      42.386  38.082  27.121  1.00  0.00     0.173 A 
ATOM     74  C   UNL A   1      43.250  38.887  29.216  1.00  0.00     0.173 A 
ATOM     75  F   UNL A   1      42.364  37.182  26.126  1.00  0.00    -0.203 F 
ATOM     76  C   UNL A   1      41.565  39.203  27.031  1.00  0.00     0.198 A 
ATOM     77  C   UNL A   1      42.410  39.994  29.135  1.00  0.00     0.198 A 
ATOM     78  F   UNL A   1      44.062  38.767  30.276  1.00  0.00    -0.203 F 
ATOM     79  F   UNL A   1      40.776  39.370  25.961  1.00  0.00    -0.200 F 
ATOM     80  C   UNL A   1      41.573  40.154  28.041  1.00  0.00     0.200 A 
ATOM     81  F   UNL A   1      42.414  40.908  30.115  1.00  0.00    -0.200 F 
ATOM     82  F   UNL A   1      40.777  41.229  27.957  1.00  0.00    -0.200 F 
ENDBRANCH  58  72
BRANCH  59  83
ATOM     83  C   UNL A   1      48.699  29.581  29.006  1.00  0.00     0.064 A 
ATOM     84  C   UNL A   1      49.583  29.360  30.070  1.00  0.00     0.173 A 
ATOM     85  C   UNL A   1      48.634  28.608  27.998  1.00  0.00     0.173 A 
ATOM     86  F   UNL A   1      49.699  30.275  31.044  1.00  0.00    -0.203 F 
ATOM     87  C   UNL A   1      50.387  28.223  30.113  1.00  0.00     0.198 A 
ATOM     88  C   UNL A   1      49.420  27.458  28.056  1.00  0.00     0.198 A 
ATOM     89  F   UNL A   1      47.807  28.774  26.955  1.00  0.00    -0.203 F 
ATOM     90  F   UNL A   1      51.261  28.061  31.117  1.00  0.00    -0.200 F 
ATOM     91  C   UNL A   1      50.302  27.271  29.109  1.00  0.00     0.200 A 
ATOM     92  F   UNL A   1      49.329  26.537  27.087  1.00  0.00    -0.200 F 
ATOM     93  F   UNL A   1      51.078  26.180  29.150  1.00  0.00    -0.200 F 
ENDBRANCH  59  83
BRANCH  71  94
ATOM     94  C   UNL A   1      49.949  35.937  26.436  1.00  0.00     0.064 A 
ATOM     95  C   UNL A   1      50.122  35.920  25.045  1.00  0.00     0.173 A 
ATOM     96  C   UNL A   1      50.917  36.591  27.212  1.00  0.00     0.173 A 
ATOM     97  F   UNL A   1      49.231  35.295  24.261  1.00  0.00    -0.203 F 
ATOM     98  C   UNL A   1      51.234  36.518  24.455  1.00  0.00     0.198 A 
ATOM     99  C   UNL A   1      52.012  37.212  26.618  1.00  0.00     0.198 A 
ATOM    100  F   UNL A   1      50.793  36.643  28.547  1.00  0.00    -0.203 F 
ATOM    101  F   UNL A   1      51.401  36.453  23.127  1.00  0.00    -0.200 F 
ATOM    102  C   UNL A   1      52.173  37.169  25.241  1.00  0.00     0.200 A 
ATOM    103  F   UNL A   1      52.911  37.854  27.378  1.00  0.00    -0.200 F 
ATOM    104  F   UNL A   1      53.237  37.750  24.672  1.00  0.00    -0.200 F 
ENDBRANCH  71  94
ENDBRANCH  45  46
ENDBRANCH  38  40
ENDBRANCH  37  38
ENDBRANCH  36  37
ENDBRANCH  35  36
ENDBRANCH  34  35
ENDBRANCH  33  34
ENDBRANCH  32  33
ENDBRANCH   1  32
TORSDOF 25
ENDMDL
MODEL 3
REMARK VINA RESULT:      -8.5      4.059      9.455
REMARK SMILES CCCc1cc(OC(F)(F)F)cc2c1O[C@@H](C(F)(F)F)C(C(=O)OCCOCCOCCOCCOC(=O)c1ccc(-c3c4nc(c(-c5c(F)c(F)c(F)c(F)c5F)c5ccc([nH]5)c(-c5c(F)c(F)c(F)c(F)c5F)c5nc(c(-c6c(F)c(F)c(F)c(F)c6F)c6ccc3[nH]6)C=C5)C=C4)cc1)=C2
REMARK SMILES IDX 30 1 29 2 28 3 27 4 26 5 25 6 24 7 22 8 23 9 21 10 4 11 5 12
REMARK SMILES IDX 14 13 6 14 13 15 15 16 12 17 102 18 16 19 3 20 2 21 1 22
REMARK SMILES IDX 7 23 8 24 9 25 10 26 11 27 17 28 18 29 19 30 20 31 31 32
REMARK SMILES IDX 32 33 33 34 34 35 35 36 36 37 37 38 38 39 39 40 40 41 101 42
REMARK SMILES IDX 41 43 100 44 42 45 43 46 44 47 94 48 45 49 99 50 93 51 95 52
REMARK SMILES IDX 46 53 98 54 92 55 91 56 47 58 79 59 59 60 78 61 60 62 63 63
REMARK SMILES IDX 77 64 96 65 61 66 62 67 76 69 97 70 64 71 48 72 49 73 57 74
REMARK SMILES IDX 50 75 51 76 55 77 58 78 52 79 53 80 56 81 54 82 80 83 81 84
REMARK SMILES IDX 89 85 82 86 83 87 87 88 90 89 84 90 85 91 88 92 86 93 65 94
REMARK SMILES IDX 66 95 74 96 67 97 68 98 72 99 75 100 69 101 70 102 73 103
REMARK SMILES IDX 71 104
REMARK H PARENT 95 57 63 68
REMARK Flexibility Score: inf
ROOT
ATOM      1  O   UNL A   1      33.785  22.250  26.383  1.00  0.00    -0.377 OA
ENDROOT
BRANCH   1   2
ATOM      2  C   UNL A   1      32.402  22.265  26.076  1.00  0.00     0.188 C 
BRANCH   2   3
ATOM      3  C   UNL A   1      31.965  22.847  24.722  1.00  0.00     0.188 C 
BRANCH   3   4
ATOM      4  O   UNL A   1      33.026  23.385  23.939  1.00  0.00    -0.376 OA
BRANCH   4   5
ATOM      5  C   UNL A   1      32.826  23.361  22.532  1.00  0.00     0.202 C 
BRANCH   5   6
ATOM      6  C   UNL A   1      32.779  24.761  21.915  1.00  0.00     0.261 C 
BRANCH   6   7
ATOM      7  O   UNL A   1      32.572  25.805  22.881  1.00  0.00    -0.460 OA
BRANCH   7   8
ATOM      8  C   UNL A   1      33.186  26.984  22.638  1.00  0.00     0.338 C 
ATOM      9  O   UNL A   1      33.668  27.341  21.580  1.00  0.00    -0.246 OA
BRANCH   8  10
ATOM     10  C   UNL A   1      33.070  27.846  23.826  1.00  0.00     0.087 C 
ATOM     11  C   UNL A   1      32.864  30.816  26.757  1.00  0.00    -0.002 A 
ATOM     12  C   UNL A   1      33.769  30.765  27.830  1.00  0.00     0.054 A 
ATOM     13  C   UNL A   1      32.949  29.816  25.777  1.00  0.00     0.131 A 
ATOM     14  C   UNL A   1      34.785  29.804  27.876  1.00  0.00     0.130 A 
ATOM     15  C   UNL A   1      33.959  28.841  25.814  1.00  0.00     0.021 A 
ATOM     16  O   UNL A   1      32.048  29.863  24.742  1.00  0.00    -0.475 OA
ATOM     17  C   UNL A   1      34.866  28.834  26.873  1.00  0.00     0.058 A 
ATOM     18  C   UNL A   1      34.100  27.927  24.684  1.00  0.00     0.027 C 
ATOM     19  C   UNL A   1      31.783  28.582  24.113  1.00  0.00     0.316 C 
BRANCH  11  20
ATOM     20  C   UNL A   1      31.790  31.880  26.647  1.00  0.00     0.039 C 
BRANCH  20  21
ATOM     21  C   UNL A   1      31.863  33.070  27.612  1.00  0.00     0.001 C 
ATOM     22  C   UNL A   1      33.208  33.786  27.588  1.00  0.00     0.004 C 
ENDBRANCH  20  21
ENDBRANCH  11  20
BRANCH  14  23
ATOM     23  O   UNL A   1      35.749  29.716  28.841  1.00  0.00    -0.406 OA
BRANCH  23  24
ATOM     24  C   UNL A   1      36.240  30.942  29.364  1.00  0.00     0.573 C 
ATOM     25  F   UNL A   1      35.261  31.870  29.456  1.00  0.00    -0.132 F 
ATOM     26  F   UNL A   1      36.800  30.756  30.578  1.00  0.00    -0.132 F 
ATOM     27  F   UNL A   1      37.190  31.420  28.530  1.00  0.00    -0.132 F 
ENDBRANCH  23  24
ENDBRANCH  14  23
BRANCH  19  28
ATOM     28  C   UNL A   1      30.780  28.812  22.972  1.00  0.00     0.430 C 
ATOM     29  F   UNL A   1      30.207  27.653  22.568  1.00  0.00    -0.167 F 
ATOM     30  F   UNL A   1      29.754  29.593  23.407  1.00  0.00    -0.167 F 
ATOM     31  F   UNL A   1      31.320  29.425  21.901  1.00  0.00    -0.167 F 
ENDBRANCH  19  28
ENDBRANCH   8  10
ENDBRANCH   7   8
ENDBRANCH   6   7
ENDBRANCH   5   6
ENDBRANCH   4   5
ENDBRANCH   3   4
ENDBRANCH   2   3
ENDBRANCH   1   2
BRANCH   1  32
ATOM     32  C   UNL A   1      34.540  21.068  26.151  1.00  0.00     0.188 C 
BRANCH  32  33
ATOM     33  C   UNL A   1      35.116  20.737  24.757  1.00  0.00     0.188 C 
BRANCH  33  34
ATOM     34  O   UNL A   1      36.465  21.142  24.555  1.00  0.00    -0.376 OA
BRANCH  34  35
ATOM     35  C   UNL A   1      37.428  20.573  25.431  1.00  0.00     0.202 C 
BRANCH  35  36
ATOM     36  C   UNL A   1      38.648  21.473  25.644  1.00  0.00     0.261 C 
BRANCH  36  37
ATOM     37  O   UNL A   1      38.472  22.824  25.186  1.00  0.00    -0.460 OA
BRANCH  37  38
ATOM     38  C   UNL A   1      37.944  23.696  26.071  1.00  0.00     0.338 C 
ATOM     39  O   UNL A   1      36.801  23.730  26.489  1.00  0.00    -0.246 OA
BRANCH  38  40
ATOM     40  C   UNL A   1      39.043  24.518  26.606  1.00  0.00     0.060 A 
ATOM     41  C   UNL A   1      39.252  24.537  27.990  1.00  0.00     0.016 A 
ATOM     42  C   UNL A   1      39.860  25.260  25.749  1.00  0.00     0.016 A 
ATOM     43  C   UNL A   1      40.254  25.342  28.527  1.00  0.00     0.010 A 
ATOM     44  C   UNL A   1      40.851  26.081  26.289  1.00  0.00     0.010 A 
ATOM     45  C   UNL A   1      41.025  26.153  27.682  1.00  0.00    -0.014 A 
BRANCH  45  46
ATOM     46  C   UNL A   1      41.844  27.236  28.270  1.00  0.00     0.031 A 
ATOM     47  C   UNL A   1      43.338  27.151  28.119  1.00  0.00     0.074 A 
ATOM     48  C   UNL A   1      41.282  28.279  28.903  1.00  0.00     0.049 A 
ATOM     49  N   UNL A   1      44.265  27.975  28.530  1.00  0.00    -0.248 NA
ATOM     50  C   UNL A   1      43.855  25.972  27.403  1.00  0.00     0.031 C 
ATOM     51  C   UNL A   1      39.848  28.480  29.096  1.00  0.00     0.029 A 
ATOM     52  N   UNL A   1      41.862  29.368  29.504  1.00  0.00    -0.354 N 
ATOM     53  C   UNL A   1      45.469  27.420  28.120  1.00  0.00     0.074 A 
ATOM     54  C   UNL A   1      45.162  26.171  27.459  1.00  0.00     0.031 C 
ATOM     55  C   UNL A   1      39.659  29.621  29.783  1.00  0.00     0.029 A 
ATOM     56  C   UNL A   1      40.959  30.219  30.090  1.00  0.00     0.049 A 
ATOM     57  H   UNL A   1      42.834  29.524  29.513  1.00  0.00     0.167 HD
ATOM     58  C   UNL A   1      46.720  27.913  28.271  1.00  0.00     0.037 A 
ATOM     59  C   UNL A   1      41.167  31.343  30.802  1.00  0.00     0.037 A 
ATOM     60  C   UNL A   1      47.027  29.151  28.934  1.00  0.00     0.049 A 
ATOM     61  C   UNL A   1      42.575  31.840  31.008  1.00  0.00     0.074 A 
ATOM     62  C   UNL A   1      48.260  29.749  29.115  1.00  0.00     0.029 A 
ATOM     63  N   UNL A   1      46.088  29.973  29.537  1.00  0.00    -0.354 N 
ATOM     64  N   UNL A   1      43.705  31.339  30.570  1.00  0.00    -0.248 NA
ATOM     65  C   UNL A   1      42.736  33.066  31.803  1.00  0.00     0.031 C 
ATOM     66  C   UNL A   1      48.073  30.912  29.870  1.00  0.00     0.029 A 
ATOM     67  C   UNL A   1      46.718  31.061  30.116  1.00  0.00     0.049 A 
ATOM     68  H   UNL A   1      45.117  29.808  29.552  1.00  0.00     0.167 HD
ATOM     69  C   UNL A   1      44.704  32.197  31.012  1.00  0.00     0.074 A 
ATOM     70  C   UNL A   1      44.046  33.262  31.741  1.00  0.00     0.031 C 
ATOM     71  C   UNL A   1      46.045  32.114  30.832  1.00  0.00     0.037 A 
BRANCH  58  72
ATOM     72  C   UNL A   1      47.852  27.097  27.723  1.00  0.00     0.064 A 
ATOM     73  C   UNL A   1      48.492  26.118  28.496  1.00  0.00     0.173 A 
ATOM     74  C   UNL A   1      48.282  27.279  26.401  1.00  0.00     0.173 A 
ATOM     75  F   UNL A   1      48.128  25.920  29.773  1.00  0.00    -0.203 F 
ATOM     76  C   UNL A   1      49.538  25.364  27.971  1.00  0.00     0.198 A 
ATOM     77  C   UNL A   1      49.311  26.505  25.871  1.00  0.00     0.198 A 
ATOM     78  F   UNL A   1      47.702  28.205  25.623  1.00  0.00    -0.203 F 
ATOM     79  F   UNL A   1      50.165  24.462  28.740  1.00  0.00    -0.200 F 
ATOM     80  C   UNL A   1      49.942  25.553  26.658  1.00  0.00     0.200 A 
ATOM     81  F   UNL A   1      49.694  26.685  24.600  1.00  0.00    -0.200 F 
ATOM     82  F   UNL A   1      50.943  24.821  26.151  1.00  0.00    -0.200 F 
ENDBRANCH  58  72
BRANCH  59  83
ATOM     83  C   UNL A   1      40.014  32.081  31.383  1.00  0.00     0.064 A 
ATOM     84  C   UNL A   1      39.495  31.744  32.640  1.00  0.00     0.173 A 
ATOM     85  C   UNL A   1      39.387  33.116  30.674  1.00  0.00     0.173 A 
ATOM     86  F   UNL A   1      40.044  30.743  33.344  1.00  0.00    -0.203 F 
ATOM     87  C   UNL A   1      38.379  32.399  33.157  1.00  0.00     0.198 A 
ATOM     88  C   UNL A   1      38.287  33.789  31.205  1.00  0.00     0.198 A 
ATOM     89  F   UNL A   1      39.842  33.475  29.465  1.00  0.00    -0.203 F 
ATOM     90  F   UNL A   1      37.872  32.021  34.339  1.00  0.00    -0.200 F 
ATOM     91  C   UNL A   1      37.779  33.423  32.442  1.00  0.00     0.200 A 
ATOM     92  F   UNL A   1      37.715  34.783  30.513  1.00  0.00    -0.200 F 
ATOM     93  F   UNL A   1      36.704  34.050  32.938  1.00  0.00    -0.200 F 
ENDBRANCH  59  83
BRANCH  71  94
ATOM     94  C   UNL A   1      46.890  33.214  31.407  1.00  0.00     0.064 A 
ATOM     95  C   UNL A   1      47.425  33.129  32.700  1.00  0.00     0.173 A 
ATOM     96  C   UNL A   1      47.209  34.341  30.635  1.00  0.00     0.173 A 
ATOM     97  F   UNL A   1      47.139  32.077  33.482  1.00  0.00    -0.203 F 
ATOM     98  C   UNL A   1      48.232  34.145  33.208  1.00  0.00     0.198 A 
ATOM     99  C   UNL A   1      48.038  35.341  31.135  1.00  0.00     0.198 A 
ATOM    100  F   UNL A   1      46.730  34.465  29.388  1.00  0.00    -0.203 F 
ATOM    101  F   UNL A   1      48.697  34.063  34.462  1.00  0.00    -0.200 F 
ATOM    102  C   UNL A   1      48.543  35.246  32.424  1.00  0.00     0.200 A 
ATOM    103  F   UNL A   1      48.350  36.396  30.370  1.00  0.00    -0.200 F 
ATOM    104  F   UNL A   1      49.325  36.218  32.912  1.00  0.00    -0.200 F 
ENDBRANCH  71  94
ENDBRANCH  45  46
ENDBRANCH  38  40
ENDBRANCH  37  38
ENDBRANCH  36  37
ENDBRANCH  35  36
ENDBRANCH  34  35
ENDBRANCH  33  34
ENDBRANCH  32  33
ENDBRANCH   1  32
TORSDOF 25
ENDMDL
