MODEL 1
REMARK VINA RESULT:     -10.8      0.000      0.000
REMARK SMILES Cc1nn(CC(=O)OCCOCCOCCOCCOC(=O)c2ccc(-c3c4nc(c(-c5c(F)c(F)c(F)c(F)c5F)c5ccc([nH]5)c(-c5c(F)c(F)c(F)c(F)c5F)c5nc(c(-c6c(F)c(F)c(F)c(F)c6F)c6ccc3[nH]6)C=C5)C=C4)cc2)c(C)c1NC(=O)C(=O)Nc1ccc(F)cc1
REMARK SMILES IDX 13 1 12 2 11 3 10 4 9 5 8 6 6 7 7 8 5 9 4 10 1 11 2 12 3 13
REMARK SMILES IDX 88 14 86 15 87 16 89 17 90 18 91 20 92 21 93 22 94 23 95 25
REMARK SMILES IDX 96 26 101 27 97 28 100 29 98 30 99 31 14 32 15 33 16 34
REMARK SMILES IDX 17 35 18 36 19 37 20 38 21 39 22 40 23 41 24 42 85 43 25 44
REMARK SMILES IDX 84 45 26 46 27 47 28 48 78 49 29 50 83 51 77 52 79 53 30 54
REMARK SMILES IDX 82 55 76 56 75 57 31 59 63 60 43 61 62 62 44 63 47 64 61 65
REMARK SMILES IDX 80 66 45 67 46 68 60 70 81 71 48 72 32 73 33 74 41 75 34 76
REMARK SMILES IDX 35 77 39 78 42 79 36 80 37 81 40 82 38 83 64 84 65 85 73 86
REMARK SMILES IDX 66 87 67 88 71 89 74 90 68 91 69 92 72 93 70 94 49 95 50 96
REMARK SMILES IDX 58 97 51 98 52 99 56 100 59 101 53 102 54 103 57 104 55 105
REMARK H PARENT 89 19 94 24 79 58 47 69
REMARK Flexibility Score: inf
ROOT
ATOM      1  C   UNL A   1      33.488  35.028  30.199  1.00  0.00     0.188 C 
ENDROOT
BRANCH   1   2
ATOM      2  C   UNL A   1      33.279  34.958  28.674  1.00  0.00     0.188 C 
BRANCH   2   3
ATOM      3  O   UNL A   1      33.341  33.705  28.000  1.00  0.00    -0.376 OA
BRANCH   3   4
ATOM      4  C   UNL A   1      34.530  32.931  28.075  1.00  0.00     0.202 C 
BRANCH   4   5
ATOM      5  C   UNL A   1      34.417  31.412  27.863  1.00  0.00     0.261 C 
BRANCH   5   6
ATOM      6  O   UNL A   1      33.194  30.986  27.222  1.00  0.00    -0.462 OA
BRANCH   6   7
ATOM      7  C   UNL A   1      33.108  29.688  26.832  1.00  0.00     0.327 C 
ATOM      8  O   UNL A   1      34.032  29.078  26.297  1.00  0.00    -0.250 OA
BRANCH   7   9
ATOM      9  C   UNL A   1      31.828  28.984  27.211  1.00  0.00     0.267 C 
BRANCH   9  10
ATOM     10  N   UNL A   1      31.292  27.980  26.296  1.00  0.00    -0.256 N 
ATOM     11  C   UNL A   1      30.698  24.535  25.669  1.00  0.00     0.071 C 
ATOM     12  C   UNL A   1      30.922  26.002  25.604  1.00  0.00     0.083 A 
ATOM     13  N   UNL A   1      31.252  26.686  26.702  1.00  0.00    -0.175 NA
ATOM     14  C   UNL A   1      30.937  26.838  24.458  1.00  0.00     0.086 A 
ATOM     15  C   UNL A   1      31.006  28.127  24.959  1.00  0.00     0.060 A 
ATOM     16  C   UNL A   1      30.837  29.467  24.345  1.00  0.00     0.069 C 
BRANCH  14  17
ATOM     17  N   UNL A   1      30.882  26.386  23.155  1.00  0.00    -0.315 N 
ATOM     18  C   UNL A   1      31.916  26.343  22.241  1.00  0.00     0.314 C 
ATOM     19  H   UNL A   1      30.009  26.059  22.842  1.00  0.00     0.170 HD
ATOM     20  O   UNL A   1      31.772  25.745  21.179  1.00  0.00    -0.263 OA
BRANCH  18  21
ATOM     21  C   UNL A   1      33.284  26.895  22.646  1.00  0.00     0.314 C 
ATOM     22  O   UNL A   1      33.520  28.094  22.494  1.00  0.00    -0.263 OA
ATOM     23  N   UNL A   1      34.263  26.099  23.206  1.00  0.00    -0.318 N 
ATOM     24  H   UNL A   1      35.192  26.375  23.027  1.00  0.00     0.170 HD
BRANCH  23  25
ATOM     25  C   UNL A   1      34.109  24.952  23.993  1.00  0.00     0.041 A 
ATOM     26  C   UNL A   1      33.818  23.782  23.278  1.00  0.00     0.029 A 
ATOM     27  C   UNL A   1      34.317  24.883  25.370  1.00  0.00     0.029 A 
ATOM     28  C   UNL A   1      33.884  22.540  23.903  1.00  0.00     0.041 A 
ATOM     29  C   UNL A   1      34.365  23.636  26.001  1.00  0.00     0.041 A 
ATOM     30  C   UNL A   1      34.181  22.477  25.256  1.00  0.00     0.123 A 
ATOM     31  F   UNL A   1      34.300  21.283  25.848  1.00  0.00    -0.207 F 
ENDBRANCH  23  25
ENDBRANCH  18  21
ENDBRANCH  14  17
ENDBRANCH   9  10
ENDBRANCH   7   9
ENDBRANCH   6   7
ENDBRANCH   5   6
ENDBRANCH   4   5
ENDBRANCH   3   4
ENDBRANCH   2   3
ENDBRANCH   1   2
BRANCH   1  32
ATOM     32  O   UNL A   1      33.010  36.192  30.846  1.00  0.00    -0.377 OA
BRANCH  32  33
ATOM     33  C   UNL A   1      32.707  36.049  32.224  1.00  0.00     0.188 C 
BRANCH  33  34
ATOM     34  C   UNL A   1      33.706  36.684  33.210  1.00  0.00     0.188 C 
BRANCH  34  35
ATOM     35  O   UNL A   1      35.042  36.191  33.110  1.00  0.00    -0.376 OA
BRANCH  35  36
ATOM     36  C   UNL A   1      35.323  34.817  33.331  1.00  0.00     0.202 C 
BRANCH  36  37
ATOM     37  C   UNL A   1      36.404  34.183  32.454  1.00  0.00     0.261 C 
BRANCH  37  38
ATOM     38  O   UNL A   1      36.479  32.767  32.525  1.00  0.00    -0.460 OA
BRANCH  38  39
ATOM     39  C   UNL A   1      35.730  32.095  31.633  1.00  0.00     0.338 C 
ATOM     40  O   UNL A   1      34.518  32.014  31.579  1.00  0.00    -0.246 OA
BRANCH  39  41
ATOM     41  C   UNL A   1      36.617  31.327  30.763  1.00  0.00     0.060 A 
ATOM     42  C   UNL A   1      36.512  29.942  30.871  1.00  0.00     0.016 A 
ATOM     43  C   UNL A   1      37.726  31.965  30.187  1.00  0.00     0.016 A 
ATOM     44  C   UNL A   1      37.643  29.201  30.649  1.00  0.00     0.010 A 
ATOM     45  C   UNL A   1      38.862  31.225  29.980  1.00  0.00     0.010 A 
ATOM     46  C   UNL A   1      38.823  29.875  30.311  1.00  0.00    -0.014 A 
BRANCH  46  47
ATOM     47  C   UNL A   1      40.030  29.089  30.276  1.00  0.00     0.031 A 
ATOM     48  C   UNL A   1      40.654  28.937  31.600  1.00  0.00     0.074 A 
ATOM     49  C   UNL A   1      40.495  28.537  29.143  1.00  0.00     0.049 A 
ATOM     50  N   UNL A   1      41.782  29.417  31.997  1.00  0.00    -0.248 NA
ATOM     51  C   UNL A   1      39.843  28.318  32.659  1.00  0.00     0.031 C 
ATOM     52  C   UNL A   1      39.813  28.396  27.854  1.00  0.00     0.029 A 
ATOM     53  N   UNL A   1      41.674  27.895  28.947  1.00  0.00    -0.354 N 
ATOM     54  C   UNL A   1      41.912  29.007  33.317  1.00  0.00     0.074 A 
ATOM     55  C   UNL A   1      40.627  28.499  33.719  1.00  0.00     0.031 C 
ATOM     56  C   UNL A   1      40.506  27.522  27.086  1.00  0.00     0.029 A 
ATOM     57  C   UNL A   1      41.729  27.151  27.779  1.00  0.00     0.049 A 
ATOM     58  H   UNL A   1      42.426  27.951  29.580  1.00  0.00     0.167 HD
ATOM     59  C   UNL A   1      43.140  28.880  33.881  1.00  0.00     0.037 A 
ATOM     60  C   UNL A   1      42.682  26.240  27.467  1.00  0.00     0.037 A 
ATOM     61  C   UNL A   1      44.119  29.663  33.168  1.00  0.00     0.049 A 
ATOM     62  C   UNL A   1      43.862  26.513  28.329  1.00  0.00     0.074 A 
ATOM     63  C   UNL A   1      44.271  31.010  32.898  1.00  0.00     0.029 A 
ATOM     64  N   UNL A   1      44.955  29.010  32.298  1.00  0.00    -0.354 N 
ATOM     65  N   UNL A   1      44.636  27.555  28.206  1.00  0.00    -0.248 NA
ATOM     66  C   UNL A   1      43.949  25.825  29.610  1.00  0.00     0.031 C 
ATOM     67  C   UNL A   1      44.851  31.073  31.598  1.00  0.00     0.029 A 
ATOM     68  C   UNL A   1      45.058  29.764  31.159  1.00  0.00     0.049 A 
ATOM     69  H   UNL A   1      45.404  28.149  32.464  1.00  0.00     0.167 HD
ATOM     70  C   UNL A   1      44.970  27.904  29.507  1.00  0.00     0.074 A 
ATOM     71  C   UNL A   1      44.622  26.739  30.313  1.00  0.00     0.031 C 
ATOM     72  C   UNL A   1      45.226  29.203  29.838  1.00  0.00     0.037 A 
BRANCH  59  73
ATOM     73  C   UNL A   1      43.517  27.741  34.802  1.00  0.00     0.064 A 
ATOM     74  C   UNL A   1      43.403  26.423  34.320  1.00  0.00     0.173 A 
ATOM     75  C   UNL A   1      43.679  27.862  36.201  1.00  0.00     0.173 A 
ATOM     76  F   UNL A   1      43.241  26.185  33.010  1.00  0.00    -0.203 F 
ATOM     77  C   UNL A   1      43.348  25.325  35.181  1.00  0.00     0.198 A 
ATOM     78  C   UNL A   1      43.679  26.759  37.050  1.00  0.00     0.198 A 
ATOM     79  F   UNL A   1      43.736  29.043  36.826  1.00  0.00    -0.203 F 
ATOM     80  F   UNL A   1      43.094  24.107  34.686  1.00  0.00    -0.200 F 
ATOM     81  C   UNL A   1      43.475  25.495  36.546  1.00  0.00     0.200 A 
ATOM     82  F   UNL A   1      43.792  26.950  38.373  1.00  0.00    -0.200 F 
ATOM     83  F   UNL A   1      43.350  24.453  37.379  1.00  0.00    -0.200 F 
ENDBRANCH  59  73
BRANCH  60  84
ATOM     84  C   UNL A   1      42.542  24.985  26.694  1.00  0.00     0.064 A 
ATOM     85  C   UNL A   1      43.298  24.771  25.530  1.00  0.00     0.173 A 
ATOM     86  C   UNL A   1      41.879  23.862  27.226  1.00  0.00     0.173 A 
ATOM     87  F   UNL A   1      43.995  25.778  24.984  1.00  0.00    -0.203 F 
ATOM     88  C   UNL A   1      43.411  23.503  24.952  1.00  0.00     0.198 A 
ATOM     89  C   UNL A   1      41.982  22.600  26.641  1.00  0.00     0.198 A 
ATOM     90  F   UNL A   1      41.199  23.942  28.378  1.00  0.00    -0.203 F 
ATOM     91  F   UNL A   1      44.198  23.324  23.882  1.00  0.00    -0.200 F 
ATOM     92  C   UNL A   1      42.761  22.417  25.514  1.00  0.00     0.200 A 
ATOM     93  F   UNL A   1      41.376  21.551  27.215  1.00  0.00    -0.200 F 
ATOM     94  F   UNL A   1      42.918  21.190  24.998  1.00  0.00    -0.200 F 
ENDBRANCH  60  84
BRANCH  72  95
ATOM     95  C   UNL A   1      45.467  30.171  28.714  1.00  0.00     0.064 A 
ATOM     96  C   UNL A   1      46.730  30.429  28.153  1.00  0.00     0.173 A 
ATOM     97  C   UNL A   1      44.354  30.761  28.100  1.00  0.00     0.173 A 
ATOM     98  F   UNL A   1      47.830  29.823  28.619  1.00  0.00    -0.203 F 
ATOM     99  C   UNL A   1      46.871  31.281  27.058  1.00  0.00     0.198 A 
ATOM    100  C   UNL A   1      44.494  31.578  26.983  1.00  0.00     0.198 A 
ATOM    101  F   UNL A   1      43.119  30.506  28.560  1.00  0.00    -0.203 F 
ATOM    102  F   UNL A   1      48.088  31.528  26.553  1.00  0.00    -0.200 F 
ATOM    103  C   UNL A   1      45.753  31.847  26.469  1.00  0.00     0.200 A 
ATOM    104  F   UNL A   1      43.405  32.082  26.385  1.00  0.00    -0.200 F 
ATOM    105  F   UNL A   1      45.884  32.632  25.391  1.00  0.00    -0.200 F 
ENDBRANCH  72  95
ENDBRANCH  46  47
ENDBRANCH  39  41
ENDBRANCH  38  39
ENDBRANCH  37  38
ENDBRANCH  36  37
ENDBRANCH  35  36
ENDBRANCH  34  35
ENDBRANCH  33  34
ENDBRANCH  32  33
ENDBRANCH   1  32
TORSDOF 24
ENDMDL
MODEL 2
REMARK VINA RESULT:     -10.5      4.570      9.932
REMARK SMILES Cc1nn(CC(=O)OCCOCCOCCOCCOC(=O)c2ccc(-c3c4nc(c(-c5c(F)c(F)c(F)c(F)c5F)c5ccc([nH]5)c(-c5c(F)c(F)c(F)c(F)c5F)c5nc(c(-c6c(F)c(F)c(F)c(F)c6F)c6ccc3[nH]6)C=C5)C=C4)cc2)c(C)c1NC(=O)C(=O)Nc1ccc(F)cc1
REMARK SMILES IDX 13 1 12 2 11 3 10 4 9 5 8 6 6 7 7 8 5 9 4 10 1 11 2 12 3 13
REMARK SMILES IDX 88 14 86 15 87 16 89 17 90 18 91 20 92 21 93 22 94 23 95 25
REMARK SMILES IDX 96 26 101 27 97 28 100 29 98 30 99 31 14 32 15 33 16 34
REMARK SMILES IDX 17 35 18 36 19 37 20 38 21 39 22 40 23 41 24 42 85 43 25 44
REMARK SMILES IDX 84 45 26 46 27 47 28 48 78 49 29 50 83 51 77 52 79 53 30 54
REMARK SMILES IDX 82 55 76 56 75 57 31 59 63 60 43 61 62 62 44 63 47 64 61 65
REMARK SMILES IDX 80 66 45 67 46 68 60 70 81 71 48 72 32 73 33 74 41 75 34 76
REMARK SMILES IDX 35 77 39 78 42 79 36 80 37 81 40 82 38 83 64 84 65 85 73 86
REMARK SMILES IDX 66 87 67 88 71 89 74 90 68 91 69 92 72 93 70 94 49 95 50 96
REMARK SMILES IDX 58 97 51 98 52 99 56 100 59 101 53 102 54 103 57 104 55 105
REMARK H PARENT 89 19 94 24 79 58 47 69
REMARK Flexibility Score: inf
ROOT
ATOM      1  C   UNL A   1      38.062  21.132  25.923  1.00  0.00     0.188 C 
ENDROOT
BRANCH   1   2
ATOM      2  C   UNL A   1      37.017  20.471  25.005  1.00  0.00     0.188 C 
BRANCH   2   3
ATOM      3  O   UNL A   1      36.091  21.274  24.279  1.00  0.00    -0.376 OA
BRANCH   3   4
ATOM      4  C   UNL A   1      34.714  21.239  24.628  1.00  0.00     0.202 C 
BRANCH   4   5
ATOM      5  C   UNL A   1      34.350  21.036  26.108  1.00  0.00     0.261 C 
BRANCH   5   6
ATOM      6  O   UNL A   1      34.252  22.257  26.874  1.00  0.00    -0.462 OA
BRANCH   6   7
ATOM      7  C   UNL A   1      33.009  22.697  27.200  1.00  0.00     0.327 C 
ATOM      8  O   UNL A   1      32.509  22.552  28.313  1.00  0.00    -0.250 OA
BRANCH   7   9
ATOM      9  C   UNL A   1      32.309  23.500  26.130  1.00  0.00     0.267 C 
BRANCH   9  10
ATOM     10  N   UNL A   1      32.589  24.930  26.042  1.00  0.00    -0.256 N 
ATOM     11  C   UNL A   1      31.330  28.237  26.343  1.00  0.00     0.071 C 
ATOM     12  C   UNL A   1      32.086  26.998  26.030  1.00  0.00     0.083 A 
ATOM     13  N   UNL A   1      31.622  25.806  26.414  1.00  0.00    -0.175 NA
ATOM     14  C   UNL A   1      33.259  26.860  25.245  1.00  0.00     0.086 A 
ATOM     15  C   UNL A   1      33.650  25.543  25.418  1.00  0.00     0.060 A 
ATOM     16  C   UNL A   1      34.885  24.795  25.075  1.00  0.00     0.069 C 
BRANCH  14  17
ATOM     17  N   UNL A   1      33.831  27.874  24.502  1.00  0.00    -0.315 N 
ATOM     18  C   UNL A   1      33.842  27.999  23.128  1.00  0.00     0.314 C 
ATOM     19  H   UNL A   1      34.282  28.586  25.010  1.00  0.00     0.170 HD
ATOM     20  O   UNL A   1      34.225  29.044  22.610  1.00  0.00    -0.263 OA
BRANCH  18  21
ATOM     21  C   UNL A   1      33.212  26.892  22.280  1.00  0.00     0.314 C 
ATOM     22  O   UNL A   1      33.881  25.900  21.989  1.00  0.00    -0.263 OA
ATOM     23  N   UNL A   1      31.903  26.951  21.847  1.00  0.00    -0.318 N 
ATOM     24  H   UNL A   1      31.713  26.491  20.997  1.00  0.00     0.170 HD
BRANCH  23  25
ATOM     25  C   UNL A   1      30.812  27.580  22.457  1.00  0.00     0.041 A 
ATOM     26  C   UNL A   1      30.702  28.953  22.195  1.00  0.00     0.029 A 
ATOM     27  C   UNL A   1      29.815  26.938  23.191  1.00  0.00     0.029 A 
ATOM     28  C   UNL A   1      29.540  29.643  22.531  1.00  0.00     0.041 A 
ATOM     29  C   UNL A   1      28.657  27.636  23.544  1.00  0.00     0.041 A 
ATOM     30  C   UNL A   1      28.517  28.971  23.182  1.00  0.00     0.123 A 
ATOM     31  F   UNL A   1      27.377  29.616  23.457  1.00  0.00    -0.207 F 
ENDBRANCH  23  25
ENDBRANCH  18  21
ENDBRANCH  14  17
ENDBRANCH   9  10
ENDBRANCH   7   9
ENDBRANCH   6   7
ENDBRANCH   5   6
ENDBRANCH   4   5
ENDBRANCH   3   4
ENDBRANCH   2   3
ENDBRANCH   1   2
BRANCH   1  32
ATOM     32  O   UNL A   1      39.411  20.763  25.709  1.00  0.00    -0.377 OA
BRANCH  32  33
ATOM     33  C   UNL A   1      40.381  21.709  26.125  1.00  0.00     0.188 C 
BRANCH  33  34
ATOM     34  C   UNL A   1      39.850  22.944  26.877  1.00  0.00     0.188 C 
BRANCH  34  35
ATOM     35  O   UNL A   1      40.690  23.409  27.934  1.00  0.00    -0.376 OA
BRANCH  35  36
ATOM     36  C   UNL A   1      41.895  22.728  28.251  1.00  0.00     0.202 C 
BRANCH  36  37
ATOM     37  C   UNL A   1      43.201  23.484  27.999  1.00  0.00     0.261 C 
BRANCH  37  38
ATOM     38  O   UNL A   1      43.780  24.080  29.151  1.00  0.00    -0.460 OA
BRANCH  38  39
ATOM     39  C   UNL A   1      44.137  25.371  29.027  1.00  0.00     0.338 C 
ATOM     40  O   UNL A   1      45.187  25.822  28.613  1.00  0.00    -0.246 OA
BRANCH  39  41
ATOM     41  C   UNL A   1      43.086  26.204  29.604  1.00  0.00     0.060 A 
ATOM     42  C   UNL A   1      42.008  26.478  28.764  1.00  0.00     0.016 A 
ATOM     43  C   UNL A   1      43.368  26.958  30.753  1.00  0.00     0.016 A 
ATOM     44  C   UNL A   1      41.371  27.680  28.924  1.00  0.00     0.010 A 
ATOM     45  C   UNL A   1      42.739  28.167  30.902  1.00  0.00     0.010 A 
ATOM     46  C   UNL A   1      41.824  28.546  29.926  1.00  0.00    -0.014 A 
BRANCH  46  47
ATOM     47  C   UNL A   1      41.262  29.872  29.940  1.00  0.00     0.031 A 
ATOM     48  C   UNL A   1      42.223  30.906  29.524  1.00  0.00     0.074 A 
ATOM     49  C   UNL A   1      39.981  30.106  30.271  1.00  0.00     0.049 A 
ATOM     50  N   UNL A   1      42.730  31.845  30.247  1.00  0.00    -0.248 NA
ATOM     51  C   UNL A   1      42.817  30.773  28.186  1.00  0.00     0.031 C 
ATOM     52  C   UNL A   1      38.891  29.140  30.424  1.00  0.00     0.029 A 
ATOM     53  N   UNL A   1      39.368  31.303  30.452  1.00  0.00    -0.354 N 
ATOM     54  C   UNL A   1      43.582  32.541  29.401  1.00  0.00     0.074 A 
ATOM     55  C   UNL A   1      43.733  31.739  28.216  1.00  0.00     0.031 C 
ATOM     56  C   UNL A   1      37.714  29.809  30.458  1.00  0.00     0.029 A 
ATOM     57  C   UNL A   1      37.985  31.238  30.458  1.00  0.00     0.049 A 
ATOM     58  H   UNL A   1      39.864  32.145  30.569  1.00  0.00     0.167 HD
ATOM     59  C   UNL A   1      43.881  33.843  29.643  1.00  0.00     0.037 A 
ATOM     60  C   UNL A   1      37.143  32.298  30.382  1.00  0.00     0.037 A 
ATOM     61  C   UNL A   1      43.650  34.176  31.027  1.00  0.00     0.049 A 
ATOM     62  C   UNL A   1      37.915  33.510  30.762  1.00  0.00     0.074 A 
ATOM     63  C   UNL A   1      44.166  33.729  32.229  1.00  0.00     0.029 A 
ATOM     64  N   UNL A   1      42.501  34.857  31.343  1.00  0.00    -0.354 N 
ATOM     65  N   UNL A   1      38.333  33.765  31.971  1.00  0.00    -0.248 NA
ATOM     66  C   UNL A   1      38.584  34.257  29.706  1.00  0.00     0.031 C 
ATOM     67  C   UNL A   1      43.080  33.785  33.151  1.00  0.00     0.029 A 
ATOM     68  C   UNL A   1      41.971  34.297  32.475  1.00  0.00     0.049 A 
ATOM     69  H   UNL A   1      42.123  35.616  30.842  1.00  0.00     0.167 HD
ATOM     70  C   UNL A   1      39.576  34.356  31.799  1.00  0.00     0.074 A 
ATOM     71  C   UNL A   1      39.621  34.742  30.393  1.00  0.00     0.031 C 
ATOM     72  C   UNL A   1      40.553  34.215  32.741  1.00  0.00     0.037 A 
BRANCH  59  73
ATOM     73  C   UNL A   1      43.978  34.888  28.555  1.00  0.00     0.064 A 
ATOM     74  C   UNL A   1      45.236  35.456  28.280  1.00  0.00     0.173 A 
ATOM     75  C   UNL A   1      42.871  35.570  27.998  1.00  0.00     0.173 A 
ATOM     76  F   UNL A   1      46.359  34.899  28.760  1.00  0.00    -0.203 F 
ATOM     77  C   UNL A   1      45.366  36.667  27.596  1.00  0.00     0.198 A 
ATOM     78  C   UNL A   1      43.011  36.748  27.268  1.00  0.00     0.198 A 
ATOM     79  F   UNL A   1      41.606  35.201  28.218  1.00  0.00    -0.203 F 
ATOM     80  F   UNL A   1      46.572  37.239  27.486  1.00  0.00    -0.200 F 
ATOM     81  C   UNL A   1      44.253  37.317  27.100  1.00  0.00     0.200 A 
ATOM     82  F   UNL A   1      41.914  37.368  26.807  1.00  0.00    -0.200 F 
ATOM     83  F   UNL A   1      44.367  38.512  26.507  1.00  0.00    -0.200 F 
ENDBRANCH  59  73
BRANCH  60  84
ATOM     84  C   UNL A   1      35.817  32.379  29.730  1.00  0.00     0.064 A 
ATOM     85  C   UNL A   1      34.940  33.438  30.017  1.00  0.00     0.173 A 
ATOM     86  C   UNL A   1      35.493  31.584  28.614  1.00  0.00     0.173 A 
ATOM     87  F   UNL A   1      35.198  34.270  31.037  1.00  0.00    -0.203 F 
ATOM     88  C   UNL A   1      33.825  33.705  29.216  1.00  0.00     0.198 A 
ATOM     89  C   UNL A   1      34.374  31.843  27.822  1.00  0.00     0.198 A 
ATOM     90  F   UNL A   1      36.307  30.599  28.207  1.00  0.00    -0.203 F 
ATOM     91  F   UNL A   1      33.052  34.767  29.481  1.00  0.00    -0.200 F 
ATOM     92  C   UNL A   1      33.549  32.913  28.114  1.00  0.00     0.200 A 
ATOM     93  F   UNL A   1      34.138  31.090  26.739  1.00  0.00    -0.200 F 
ATOM     94  F   UNL A   1      32.518  33.205  27.310  1.00  0.00    -0.200 F 
ENDBRANCH  60  84
BRANCH  72  95
ATOM     95  C   UNL A   1      40.145  33.703  34.094  1.00  0.00     0.064 A 
ATOM     96  C   UNL A   1      39.728  34.526  35.154  1.00  0.00     0.173 A 
ATOM     97  C   UNL A   1      40.052  32.317  34.275  1.00  0.00     0.173 A 
ATOM     98  F   UNL A   1      39.689  35.858  35.022  1.00  0.00    -0.203 F 
ATOM     99  C   UNL A   1      39.285  33.979  36.358  1.00  0.00     0.198 A 
ATOM    100  C   UNL A   1      39.572  31.774  35.462  1.00  0.00     0.198 A 
ATOM    101  F   UNL A   1      40.386  31.484  33.276  1.00  0.00    -0.203 F 
ATOM    102  F   UNL A   1      38.911  34.783  37.364  1.00  0.00    -0.200 F 
ATOM    103  C   UNL A   1      39.200  32.604  36.508  1.00  0.00     0.200 A 
ATOM    104  F   UNL A   1      39.443  30.445  35.584  1.00  0.00    -0.200 F 
ATOM    105  F   UNL A   1      38.736  32.079  37.650  1.00  0.00    -0.200 F 
ENDBRANCH  72  95
ENDBRANCH  46  47
ENDBRANCH  39  41
ENDBRANCH  38  39
ENDBRANCH  37  38
ENDBRANCH  36  37
ENDBRANCH  35  36
ENDBRANCH  34  35
ENDBRANCH  33  34
ENDBRANCH  32  33
ENDBRANCH   1  32
TORSDOF 24
ENDMDL
MODEL 3
REMARK VINA RESULT:     -10.5      2.111      4.730
REMARK SMILES Cc1nn(CC(=O)OCCOCCOCCOCCOC(=O)c2ccc(-c3c4nc(c(-c5c(F)c(F)c(F)c(F)c5F)c5ccc([nH]5)c(-c5c(F)c(F)c(F)c(F)c5F)c5nc(c(-c6c(F)c(F)c(F)c(F)c6F)c6ccc3[nH]6)C=C5)C=C4)cc2)c(C)c1NC(=O)C(=O)Nc1ccc(F)cc1
REMARK SMILES IDX 13 1 12 2 11 3 10 4 9 5 8 6 6 7 7 8 5 9 4 10 1 11 2 12 3 13
REMARK SMILES IDX 88 14 86 15 87 16 89 17 90 18 91 20 92 21 93 22 94 23 95 25
REMARK SMILES IDX 96 26 101 27 97 28 100 29 98 30 99 31 14 32 15 33 16 34
REMARK SMILES IDX 17 35 18 36 19 37 20 38 21 39 22 40 23 41 24 42 85 43 25 44
REMARK SMILES IDX 84 45 26 46 27 47 28 48 78 49 29 50 83 51 77 52 79 53 30 54
REMARK SMILES IDX 82 55 76 56 75 57 31 59 63 60 43 61 62 62 44 63 47 64 61 65
REMARK SMILES IDX 80 66 45 67 46 68 60 70 81 71 48 72 32 73 33 74 41 75 34 76
REMARK SMILES IDX 35 77 39 78 42 79 36 80 37 81 40 82 38 83 64 84 65 85 73 86
REMARK SMILES IDX 66 87 67 88 71 89 74 90 68 91 69 92 72 93 70 94 49 95 50 96
REMARK SMILES IDX 58 97 51 98 52 99 56 100 59 101 53 102 54 103 57 104 55 105
REMARK H PARENT 89 19 94 24 79 58 47 69
REMARK Flexibility Score: inf
ROOT
ATOM      1  C   UNL A   1      30.832  26.580  26.385  1.00  0.00     0.188 C 
ENDROOT
BRANCH   1   2
ATOM      2  C   UNL A   1      30.854  25.056  26.165  1.00  0.00     0.188 C 
BRANCH   2   3
ATOM      3  O   UNL A   1      31.249  24.185  27.220  1.00  0.00    -0.376 OA
BRANCH   3   4
ATOM      4  C   UNL A   1      32.487  23.494  27.127  1.00  0.00     0.202 C 
BRANCH   4   5
ATOM      5  C   UNL A   1      32.449  21.974  26.893  1.00  0.00     0.261 C 
BRANCH   5   6
ATOM      6  O   UNL A   1      31.582  21.555  25.816  1.00  0.00    -0.462 OA
BRANCH   6   7
ATOM      7  C   UNL A   1      32.066  20.635  24.941  1.00  0.00     0.327 C 
ATOM      8  O   UNL A   1      32.055  19.425  25.156  1.00  0.00    -0.250 OA
BRANCH   7   9
ATOM      9  C   UNL A   1      32.515  21.186  23.610  1.00  0.00     0.267 C 
BRANCH   9  10
ATOM     10  N   UNL A   1      33.324  22.402  23.600  1.00  0.00    -0.256 N 
ATOM     11  C   UNL A   1      36.501  23.873  24.198  1.00  0.00     0.071 C 
ATOM     12  C   UNL A   1      35.063  23.566  23.986  1.00  0.00     0.083 A 
ATOM     13  N   UNL A   1      34.652  22.302  23.860  1.00  0.00    -0.175 NA
ATOM     14  C   UNL A   1      33.963  24.462  23.994  1.00  0.00     0.086 A 
ATOM     15  C   UNL A   1      32.884  23.705  23.572  1.00  0.00     0.060 A 
ATOM     16  C   UNL A   1      31.504  24.049  23.148  1.00  0.00     0.069 C 
BRANCH  14  17
ATOM     17  N   UNL A   1      34.038  25.794  24.353  1.00  0.00    -0.315 N 
ATOM     18  C   UNL A   1      33.690  26.887  23.585  1.00  0.00     0.314 C 
ATOM     19  H   UNL A   1      34.378  25.984  25.256  1.00  0.00     0.170 HD
ATOM     20  O   UNL A   1      33.632  28.002  24.096  1.00  0.00    -0.263 OA
BRANCH  18  21
ATOM     21  C   UNL A   1      33.213  26.660  22.149  1.00  0.00     0.314 C 
ATOM     22  O   UNL A   1      33.787  25.826  21.448  1.00  0.00    -0.263 OA
ATOM     23  N   UNL A   1      32.138  27.340  21.614  1.00  0.00    -0.318 N 
ATOM     24  H   UNL A   1      32.168  27.489  20.640  1.00  0.00     0.170 HD
BRANCH  23  25
ATOM     25  C   UNL A   1      31.012  27.847  22.273  1.00  0.00     0.041 A 
ATOM     26  C   UNL A   1      30.822  29.230  22.134  1.00  0.00     0.029 A 
ATOM     27  C   UNL A   1      30.056  27.085  22.943  1.00  0.00     0.029 A 
ATOM     28  C   UNL A   1      29.623  29.818  22.525  1.00  0.00     0.041 A 
ATOM     29  C   UNL A   1      28.859  27.680  23.352  1.00  0.00     0.041 A 
ATOM     30  C   UNL A   1      28.641  29.032  23.110  1.00  0.00     0.123 A 
ATOM     31  F   UNL A   1      27.466  29.583  23.436  1.00  0.00    -0.207 F 
ENDBRANCH  23  25
ENDBRANCH  18  21
ENDBRANCH  14  17
ENDBRANCH   9  10
ENDBRANCH   7   9
ENDBRANCH   6   7
ENDBRANCH   5   6
ENDBRANCH   4   5
ENDBRANCH   3   4
ENDBRANCH   2   3
ENDBRANCH   1   2
BRANCH   1  32
ATOM     32  O   UNL A   1      31.493  27.058  27.542  1.00  0.00    -0.377 OA
BRANCH  32  33
ATOM     33  C   UNL A   1      31.960  28.395  27.475  1.00  0.00     0.188 C 
BRANCH  33  34
ATOM     34  C   UNL A   1      33.479  28.577  27.292  1.00  0.00     0.188 C 
BRANCH  34  35
ATOM     35  O   UNL A   1      33.879  29.880  26.869  1.00  0.00    -0.376 OA
BRANCH  35  36
ATOM     36  C   UNL A   1      33.616  31.015  27.681  1.00  0.00     0.202 C 
BRANCH  36  37
ATOM     37  C   UNL A   1      34.778  31.986  27.908  1.00  0.00     0.261 C 
BRANCH  37  38
ATOM     38  O   UNL A   1      34.945  32.415  29.251  1.00  0.00    -0.460 OA
BRANCH  38  39
ATOM     39  C   UNL A   1      35.619  31.573  30.055  1.00  0.00     0.338 C 
ATOM     40  O   UNL A   1      35.430  31.350  31.236  1.00  0.00    -0.246 OA
BRANCH  39  41
ATOM     41  C   UNL A   1      36.751  31.024  29.314  1.00  0.00     0.060 A 
ATOM     42  C   UNL A   1      36.723  29.644  29.113  1.00  0.00     0.016 A 
ATOM     43  C   UNL A   1      37.920  31.789  29.189  1.00  0.00     0.016 A 
ATOM     44  C   UNL A   1      37.925  28.989  29.053  1.00  0.00     0.010 A 
ATOM     45  C   UNL A   1      39.122  31.131  29.145  1.00  0.00     0.010 A 
ATOM     46  C   UNL A   1      39.099  29.741  29.179  1.00  0.00    -0.014 A 
BRANCH  46  47
ATOM     47  C   UNL A   1      40.330  29.003  29.307  1.00  0.00     0.031 A 
ATOM     48  C   UNL A   1      40.761  28.845  30.705  1.00  0.00     0.074 A 
ATOM     49  C   UNL A   1      40.977  28.495  28.244  1.00  0.00     0.049 A 
ATOM     50  N   UNL A   1      41.799  29.359  31.270  1.00  0.00    -0.248 NA
ATOM     51  C   UNL A   1      39.832  28.171  31.624  1.00  0.00     0.031 C 
ATOM     52  C   UNL A   1      40.496  28.357  26.868  1.00  0.00     0.029 A 
ATOM     53  N   UNL A   1      42.198  27.903  28.212  1.00  0.00    -0.354 N 
ATOM     54  C   UNL A   1      41.753  28.924  32.588  1.00  0.00     0.074 A 
ATOM     55  C   UNL A   1      40.446  28.359  32.790  1.00  0.00     0.031 C 
ATOM     56  C   UNL A   1      41.328  27.528  26.194  1.00  0.00     0.029 A 
ATOM     57  C   UNL A   1      42.452  27.189  27.052  1.00  0.00     0.049 A 
ATOM     58  H   UNL A   1      42.846  27.974  28.948  1.00  0.00     0.167 HD
ATOM     59  C   UNL A   1      42.891  28.832  33.323  1.00  0.00     0.037 A 
ATOM     60  C   UNL A   1      43.477  26.323  26.866  1.00  0.00     0.037 A 
ATOM     61  C   UNL A   1      43.930  29.668  32.773  1.00  0.00     0.049 A 
ATOM     62  C   UNL A   1      44.507  26.621  27.896  1.00  0.00     0.074 A 
ATOM     63  C   UNL A   1      44.063  31.026  32.551  1.00  0.00     0.029 A 
ATOM     64  N   UNL A   1      44.910  29.068  32.023  1.00  0.00    -0.354 N 
ATOM     65  N   UNL A   1      45.247  27.694  27.905  1.00  0.00    -0.248 NA
ATOM     66  C   UNL A   1      44.436  25.908  29.164  1.00  0.00     0.031 C 
ATOM     67  C   UNL A   1      44.823  31.140  31.350  1.00  0.00     0.029 A 
ATOM     68  C   UNL A   1      45.145  29.850  30.924  1.00  0.00     0.049 A 
ATOM     69  H   UNL A   1      45.365  28.221  32.238  1.00  0.00     0.167 HD
ATOM     70  C   UNL A   1      45.374  28.026  29.246  1.00  0.00     0.074 A 
ATOM     71  C   UNL A   1      44.962  26.831  29.973  1.00  0.00     0.031 C 
ATOM     72  C   UNL A   1      45.526  29.326  29.632  1.00  0.00     0.037 A 
BRANCH  59  73
ATOM     73  C   UNL A   1      43.177  27.688  34.269  1.00  0.00     0.064 A 
ATOM     74  C   UNL A   1      43.325  27.972  35.640  1.00  0.00     0.173 A 
ATOM     75  C   UNL A   1      43.613  26.405  33.866  1.00  0.00     0.173 A 
ATOM     76  F   UNL A   1      42.949  29.160  36.138  1.00  0.00    -0.203 F 
ATOM     77  C   UNL A   1      43.958  27.084  36.513  1.00  0.00     0.198 A 
ATOM     78  C   UNL A   1      44.193  25.501  34.753  1.00  0.00     0.198 A 
ATOM     79  F   UNL A   1      43.605  26.002  32.592  1.00  0.00    -0.203 F 
ATOM     80  F   UNL A   1      44.203  27.460  37.775  1.00  0.00    -0.200 F 
ATOM     81  C   UNL A   1      44.401  25.855  36.067  1.00  0.00     0.200 A 
ATOM     82  F   UNL A   1      44.627  24.318  34.294  1.00  0.00    -0.200 F 
ATOM     83  F   UNL A   1      45.071  25.032  36.884  1.00  0.00    -0.200 F 
ENDBRANCH  59  73
BRANCH  60  84
ATOM     84  C   UNL A   1      43.502  25.081  26.061  1.00  0.00     0.064 A 
ATOM     85  C   UNL A   1      44.537  24.843  25.141  1.00  0.00     0.173 A 
ATOM     86  C   UNL A   1      42.676  23.983  26.370  1.00  0.00     0.173 A 
ATOM     87  F   UNL A   1      45.396  25.823  24.824  1.00  0.00    -0.203 F 
ATOM     88  C   UNL A   1      44.752  23.576  24.591  1.00  0.00     0.198 A 
ATOM     89  C   UNL A   1      42.883  22.723  25.811  1.00  0.00     0.198 A 
ATOM     90  F   UNL A   1      41.711  24.085  27.296  1.00  0.00    -0.203 F 
ATOM     91  F   UNL A   1      45.793  23.372  23.771  1.00  0.00    -0.200 F 
ATOM     92  C   UNL A   1      43.931  22.515  24.934  1.00  0.00     0.200 A 
ATOM     93  F   UNL A   1      42.103  21.697  26.179  1.00  0.00    -0.200 F 
ATOM     94  F   UNL A   1      44.174  21.287  24.456  1.00  0.00    -0.200 F 
ENDBRANCH  60  84
BRANCH  72  95
ATOM     95  C   UNL A   1      45.887  30.329  28.572  1.00  0.00     0.064 A 
ATOM     96  C   UNL A   1      44.952  30.965  27.738  1.00  0.00     0.173 A 
ATOM     97  C   UNL A   1      47.221  30.753  28.491  1.00  0.00     0.173 A 
ATOM     98  F   UNL A   1      43.644  30.689  27.828  1.00  0.00    -0.203 F 
ATOM     99  C   UNL A   1      45.348  31.945  26.829  1.00  0.00     0.198 A 
ATOM    100  C   UNL A   1      47.606  31.760  27.613  1.00  0.00     0.198 A 
ATOM    101  F   UNL A   1      48.147  30.218  29.303  1.00  0.00    -0.203 F 
ATOM    102  F   UNL A   1      44.442  32.525  26.029  1.00  0.00    -0.200 F 
ATOM    103  C   UNL A   1      46.673  32.348  26.773  1.00  0.00     0.200 A 
ATOM    104  F   UNL A   1      48.878  32.182  27.599  1.00  0.00    -0.200 F 
ATOM    105  F   UNL A   1      47.046  33.320  25.930  1.00  0.00    -0.200 F 
ENDBRANCH  72  95
ENDBRANCH  46  47
ENDBRANCH  39  41
ENDBRANCH  38  39
ENDBRANCH  37  38
ENDBRANCH  36  37
ENDBRANCH  35  36
ENDBRANCH  34  35
ENDBRANCH  33  34
ENDBRANCH  32  33
ENDBRANCH   1  32
TORSDOF 24
ENDMDL
