MODEL 1
REMARK VINA RESULT:     -10.8      0.000      0.000
REMARK SMILES Cc1ccccc1[C@@H](Cc1c(Cl)cccc1Cl)C(=O)OCCOCCOCCOCCOC(=O)c1ccc(-c2c3nc(c(-c4c(F)c(F)c(F)c(F)c4F)c4ccc([nH]4)c(-c4c(F)c(F)c(F)c(F)c4F)c4nc(c(-c5c(F)c(F)c(F)c(F)c5F)c5ccc2[nH]5)C=C4)C=C3)cc1
REMARK SMILES IDX 26 1 25 2 24 3 23 4 22 5 21 6 20 7 18 8 19 9 8 10 7 11 1 12
REMARK SMILES IDX 2 13 3 14 4 15 6 16 5 17 9 18 10 19 11 20 16 21 12 22 13 23
REMARK SMILES IDX 15 24 17 25 14 26 27 27 28 28 29 29 30 30 31 31 32 32 33 33
REMARK SMILES IDX 34 34 35 35 36 36 97 37 37 38 96 39 38 40 39 41 40 42 90 43
REMARK SMILES IDX 41 44 95 45 89 46 91 47 42 48 94 49 88 50 87 51 43 53 75 54
REMARK SMILES IDX 55 55 74 56 56 57 59 58 73 59 92 60 57 61 58 62 72 64 93 65
REMARK SMILES IDX 60 66 44 67 45 68 53 69 46 70 47 71 51 72 54 73 48 74 49 75
REMARK SMILES IDX 52 76 50 77 76 78 77 79 85 80 78 81 79 82 83 83 86 84 80 85
REMARK SMILES IDX 81 86 84 87 82 88 61 89 62 90 70 91 63 92 64 93 68 94 71 95
REMARK SMILES IDX 65 96 66 97 69 98 67 99
REMARK H PARENT 91 52 59 63
REMARK Flexibility Score: inf
ROOT
ATOM      1  O   UNL A   1      38.186  22.633  25.259  1.00  0.00    -0.377 OA
ENDROOT
BRANCH   1   2
ATOM      2  C   UNL A   1      36.815  22.825  25.557  1.00  0.00     0.188 C 
BRANCH   2   3
ATOM      3  C   UNL A   1      35.960  21.599  25.914  1.00  0.00     0.188 C 
BRANCH   3   4
ATOM      4  O   UNL A   1      34.561  21.710  26.078  1.00  0.00    -0.376 OA
BRANCH   4   5
ATOM      5  C   UNL A   1      34.068  21.640  27.406  1.00  0.00     0.202 C 
BRANCH   5   6
ATOM      6  C   UNL A   1      32.875  22.491  27.810  1.00  0.00     0.261 C 
BRANCH   6   7
ATOM      7  O   UNL A   1      31.784  22.359  26.881  1.00  0.00    -0.463 OA
BRANCH   7   8
ATOM      8  C   UNL A   1      30.986  23.448  26.838  1.00  0.00     0.313 C 
ATOM      9  O   UNL A   1      29.874  23.486  27.358  1.00  0.00    -0.252 OA
BRANCH   8  10
ATOM     10  C   UNL A   1      31.587  24.643  26.115  1.00  0.00     0.134 C 
BRANCH  10  11
ATOM     11  C   UNL A   1      32.316  24.243  24.818  1.00  0.00    -0.031 A 
ATOM     12  C   UNL A   1      34.445  25.545  25.489  1.00  0.00     0.044 C 
ATOM     13  C   UNL A   1      33.604  24.761  24.512  1.00  0.00    -0.047 A 
ATOM     14  C   UNL A   1      34.227  24.425  23.288  1.00  0.00     0.004 A 
ATOM     15  C   UNL A   1      33.645  23.513  22.412  1.00  0.00     0.000 A 
ATOM     16  C   UNL A   1      31.767  23.298  23.923  1.00  0.00     0.005 A 
ATOM     17  C   UNL A   1      32.426  22.934  22.740  1.00  0.00     0.000 A 
ENDBRANCH  10  11
BRANCH  10  18
ATOM     18  C   UNL A   1      30.636  25.866  26.005  1.00  0.00     0.058 C 
BRANCH  18  19
ATOM     19  C   UNL A   1      31.100  27.183  25.392  1.00  0.00    -0.010 A 
ATOM     20  C   UNL A   1      31.669  28.164  26.236  1.00  0.00     0.045 A 
ATOM     21  C   UNL A   1      31.045  27.505  24.025  1.00  0.00     0.045 A 
ATOM     22  Cl  UNL A   1      31.565  28.068  27.964  1.00  0.00    -0.084 Cl
ATOM     23  C   UNL A   1      32.338  29.277  25.715  1.00  0.00     0.021 A 
ATOM     24  C   UNL A   1      31.819  28.545  23.497  1.00  0.00     0.021 A 
ATOM     25  Cl  UNL A   1      29.908  26.803  22.933  1.00  0.00    -0.084 Cl
ATOM     26  C   UNL A   1      32.487  29.420  24.342  1.00  0.00     0.003 A 
ENDBRANCH  18  19
ENDBRANCH  10  18
ENDBRANCH   8  10
ENDBRANCH   7   8
ENDBRANCH   6   7
ENDBRANCH   5   6
ENDBRANCH   4   5
ENDBRANCH   3   4
ENDBRANCH   2   3
ENDBRANCH   1   2
BRANCH   1  27
ATOM     27  C   UNL A   1      38.814  21.477  25.814  1.00  0.00     0.188 C 
BRANCH  27  28
ATOM     28  C   UNL A   1      40.017  21.657  26.706  1.00  0.00     0.188 C 
BRANCH  28  29
ATOM     29  O   UNL A   1      39.805  22.868  27.421  1.00  0.00    -0.376 OA
BRANCH  29  30
ATOM     30  C   UNL A   1      40.891  23.777  27.413  1.00  0.00     0.202 C 
BRANCH  30  31
ATOM     31  C   UNL A   1      40.577  24.988  26.541  1.00  0.00     0.261 C 
BRANCH  31  32
ATOM     32  O   UNL A   1      39.619  25.818  27.239  1.00  0.00    -0.460 OA
BRANCH  32  33
ATOM     33  C   UNL A   1      40.027  27.086  27.507  1.00  0.00     0.338 C 
ATOM     34  O   UNL A   1      40.418  27.887  26.655  1.00  0.00    -0.246 OA
BRANCH  33  35
ATOM     35  C   UNL A   1      40.207  27.300  28.975  1.00  0.00     0.060 A 
ATOM     36  C   UNL A   1      39.126  27.144  29.861  1.00  0.00     0.016 A 
ATOM     37  C   UNL A   1      41.337  27.976  29.411  1.00  0.00     0.016 A 
ATOM     38  C   UNL A   1      39.117  27.804  31.108  1.00  0.00     0.010 A 
ATOM     39  C   UNL A   1      41.251  28.738  30.564  1.00  0.00     0.010 A 
ATOM     40  C   UNL A   1      40.143  28.689  31.428  1.00  0.00    -0.014 A 
BRANCH  40  41
ATOM     41  C   UNL A   1      40.138  29.651  32.561  1.00  0.00     0.031 A 
ATOM     42  C   UNL A   1      41.005  29.328  33.758  1.00  0.00     0.074 A 
ATOM     43  C   UNL A   1      39.672  30.927  32.396  1.00  0.00     0.049 A 
ATOM     44  N   UNL A   1      41.141  30.079  34.797  1.00  0.00    -0.248 NA
ATOM     45  C   UNL A   1      41.888  28.163  33.844  1.00  0.00     0.031 C 
ATOM     46  C   UNL A   1      40.047  32.108  33.183  1.00  0.00     0.029 A 
ATOM     47  N   UNL A   1      38.844  31.513  31.413  1.00  0.00    -0.354 N 
ATOM     48  C   UNL A   1      42.292  29.723  35.479  1.00  0.00     0.074 A 
ATOM     49  C   UNL A   1      42.705  28.498  34.850  1.00  0.00     0.031 C 
ATOM     50  C   UNL A   1      39.346  33.191  32.824  1.00  0.00     0.029 A 
ATOM     51  C   UNL A   1      38.302  32.701  31.967  1.00  0.00     0.049 A 
ATOM     52  H   UNL A   1      38.676  31.162  30.508  1.00  0.00     0.167 HD
ATOM     53  C   UNL A   1      42.798  30.604  36.402  1.00  0.00     0.037 A 
ATOM     54  C   UNL A   1      36.975  32.823  32.243  1.00  0.00     0.037 A 
ATOM     55  C   UNL A   1      41.864  31.733  36.564  1.00  0.00     0.049 A 
ATOM     56  C   UNL A   1      36.805  32.911  33.747  1.00  0.00     0.074 A 
ATOM     57  C   UNL A   1      41.952  33.062  36.193  1.00  0.00     0.029 A 
ATOM     58  N   UNL A   1      40.508  31.506  36.854  1.00  0.00    -0.354 N 
ATOM     59  N   UNL A   1      37.578  32.283  34.604  1.00  0.00    -0.248 NA
ATOM     60  C   UNL A   1      35.948  33.906  34.386  1.00  0.00     0.031 C 
ATOM     61  C   UNL A   1      40.644  33.596  36.141  1.00  0.00     0.029 A 
ATOM     62  C   UNL A   1      39.748  32.621  36.540  1.00  0.00     0.049 A 
ATOM     63  H   UNL A   1      40.148  30.670  37.229  1.00  0.00     0.167 HD
ATOM     64  C   UNL A   1      37.457  32.886  35.832  1.00  0.00     0.074 A 
ATOM     65  C   UNL A   1      36.374  33.844  35.661  1.00  0.00     0.031 C 
ATOM     66  C   UNL A   1      38.338  32.752  36.875  1.00  0.00     0.037 A 
BRANCH  53  67
ATOM     67  C   UNL A   1      44.234  30.627  36.965  1.00  0.00     0.064 A 
ATOM     68  C   UNL A   1      45.359  30.441  36.117  1.00  0.00     0.173 A 
ATOM     69  C   UNL A   1      44.587  30.775  38.324  1.00  0.00     0.173 A 
ATOM     70  F   UNL A   1      45.236  30.386  34.785  1.00  0.00    -0.203 F 
ATOM     71  C   UNL A   1      46.676  30.316  36.590  1.00  0.00     0.198 A 
ATOM     72  C   UNL A   1      45.905  30.643  38.800  1.00  0.00     0.198 A 
ATOM     73  F   UNL A   1      43.689  31.109  39.251  1.00  0.00    -0.203 F 
ATOM     74  F   UNL A   1      47.678  30.109  35.722  1.00  0.00    -0.200 F 
ATOM     75  C   UNL A   1      46.949  30.399  37.936  1.00  0.00     0.200 A 
ATOM     76  F   UNL A   1      46.151  30.767  40.113  1.00  0.00    -0.200 F 
ATOM     77  F   UNL A   1      48.203  30.277  38.391  1.00  0.00    -0.200 F 
ENDBRANCH  53  67
BRANCH  54  78
ATOM     78  C   UNL A   1      36.167  32.182  31.165  1.00  0.00     0.064 A 
ATOM     79  C   UNL A   1      36.002  32.983  30.007  1.00  0.00     0.173 A 
ATOM     80  C   UNL A   1      36.195  30.794  30.978  1.00  0.00     0.173 A 
ATOM     81  F   UNL A   1      35.929  34.320  30.126  1.00  0.00    -0.203 F 
ATOM     82  C   UNL A   1      36.140  32.445  28.727  1.00  0.00     0.198 A 
ATOM     83  C   UNL A   1      36.290  30.256  29.686  1.00  0.00     0.198 A 
ATOM     84  F   UNL A   1      36.319  29.973  32.029  1.00  0.00    -0.203 F 
ATOM     85  F   UNL A   1      36.211  33.257  27.662  1.00  0.00    -0.200 F 
ATOM     86  C   UNL A   1      36.341  31.087  28.574  1.00  0.00     0.200 A 
ATOM     87  F   UNL A   1      36.459  28.935  29.523  1.00  0.00    -0.200 F 
ATOM     88  F   UNL A   1      36.644  30.586  27.367  1.00  0.00    -0.200 F 
ENDBRANCH  54  78
BRANCH  66  89
ATOM     89  C   UNL A   1      38.012  33.037  38.324  1.00  0.00     0.064 A 
ATOM     90  C   UNL A   1      37.432  32.085  39.173  1.00  0.00     0.173 A 
ATOM     91  C   UNL A   1      38.452  34.231  38.955  1.00  0.00     0.173 A 
ATOM     92  F   UNL A   1      37.055  30.882  38.719  1.00  0.00    -0.203 F 
ATOM     93  C   UNL A   1      37.261  32.326  40.537  1.00  0.00     0.198 A 
ATOM     94  C   UNL A   1      38.340  34.438  40.324  1.00  0.00     0.198 A 
ATOM     95  F   UNL A   1      39.035  35.231  38.281  1.00  0.00    -0.203 F 
ATOM     96  F   UNL A   1      36.658  31.404  41.298  1.00  0.00    -0.200 F 
ATOM     97  C   UNL A   1      37.732  33.491  41.115  1.00  0.00     0.200 A 
ATOM     98  F   UNL A   1      38.846  35.554  40.869  1.00  0.00    -0.200 F 
ATOM     99  F   UNL A   1      37.616  33.691  42.433  1.00  0.00    -0.200 F 
ENDBRANCH  66  89
ENDBRANCH  40  41
ENDBRANCH  33  35
ENDBRANCH  32  33
ENDBRANCH  31  32
ENDBRANCH  30  31
ENDBRANCH  29  30
ENDBRANCH  28  29
ENDBRANCH  27  28
ENDBRANCH   1  27
TORSDOF 23
ENDMDL
MODEL 2
REMARK VINA RESULT:     -10.7      4.321      8.374
REMARK SMILES Cc1ccccc1[C@@H](Cc1c(Cl)cccc1Cl)C(=O)OCCOCCOCCOCCOC(=O)c1ccc(-c2c3nc(c(-c4c(F)c(F)c(F)c(F)c4F)c4ccc([nH]4)c(-c4c(F)c(F)c(F)c(F)c4F)c4nc(c(-c5c(F)c(F)c(F)c(F)c5F)c5ccc2[nH]5)C=C4)C=C3)cc1
REMARK SMILES IDX 26 1 25 2 24 3 23 4 22 5 21 6 20 7 18 8 19 9 8 10 7 11 1 12
REMARK SMILES IDX 2 13 3 14 4 15 6 16 5 17 9 18 10 19 11 20 16 21 12 22 13 23
REMARK SMILES IDX 15 24 17 25 14 26 27 27 28 28 29 29 30 30 31 31 32 32 33 33
REMARK SMILES IDX 34 34 35 35 36 36 97 37 37 38 96 39 38 40 39 41 40 42 90 43
REMARK SMILES IDX 41 44 95 45 89 46 91 47 42 48 94 49 88 50 87 51 43 53 75 54
REMARK SMILES IDX 55 55 74 56 56 57 59 58 73 59 92 60 57 61 58 62 72 64 93 65
REMARK SMILES IDX 60 66 44 67 45 68 53 69 46 70 47 71 51 72 54 73 48 74 49 75
REMARK SMILES IDX 52 76 50 77 76 78 77 79 85 80 78 81 79 82 83 83 86 84 80 85
REMARK SMILES IDX 81 86 84 87 82 88 61 89 62 90 70 91 63 92 64 93 68 94 71 95
REMARK SMILES IDX 65 96 66 97 69 98 67 99
REMARK H PARENT 91 52 59 63
REMARK Flexibility Score: inf
ROOT
ATOM      1  O   UNL A   1      34.852  20.984  26.294  1.00  0.00    -0.377 OA
ENDROOT
BRANCH   1   2
ATOM      2  C   UNL A   1      33.754  21.879  26.300  1.00  0.00     0.188 C 
BRANCH   2   3
ATOM      3  C   UNL A   1      33.382  22.578  27.616  1.00  0.00     0.188 C 
BRANCH   3   4
ATOM      4  O   UNL A   1      32.056  22.995  27.869  1.00  0.00    -0.376 OA
BRANCH   4   5
ATOM      5  C   UNL A   1      31.096  22.706  26.866  1.00  0.00     0.202 C 
BRANCH   5   6
ATOM      6  C   UNL A   1      29.951  23.676  26.620  1.00  0.00     0.261 C 
BRANCH   6   7
ATOM      7  O   UNL A   1      30.069  24.333  25.346  1.00  0.00    -0.463 OA
BRANCH   7   8
ATOM      8  C   UNL A   1      30.551  25.592  25.438  1.00  0.00     0.313 C 
ATOM      9  O   UNL A   1      30.446  26.277  26.452  1.00  0.00    -0.252 OA
BRANCH   8  10
ATOM     10  C   UNL A   1      31.263  26.090  24.190  1.00  0.00     0.134 C 
BRANCH  10  11
ATOM     11  C   UNL A   1      32.428  25.174  23.769  1.00  0.00    -0.031 A 
ATOM     12  C   UNL A   1      33.934  26.032  25.686  1.00  0.00     0.044 C 
ATOM     13  C   UNL A   1      33.688  25.245  24.423  1.00  0.00    -0.047 A 
ATOM     14  C   UNL A   1      34.759  24.436  23.979  1.00  0.00     0.004 A 
ATOM     15  C   UNL A   1      34.578  23.493  22.971  1.00  0.00     0.000 A 
ATOM     16  C   UNL A   1      32.269  24.187  22.771  1.00  0.00     0.005 A 
ATOM     17  C   UNL A   1      33.328  23.354  22.383  1.00  0.00     0.000 A 
ENDBRANCH  10  11
BRANCH  10  18
ATOM     18  C   UNL A   1      30.310  26.539  23.049  1.00  0.00     0.058 C 
BRANCH  18  19
ATOM     19  C   UNL A   1      29.494  27.823  23.151  1.00  0.00    -0.010 A 
ATOM     20  C   UNL A   1      30.152  29.062  22.979  1.00  0.00     0.045 A 
ATOM     21  C   UNL A   1      28.108  27.888  23.369  1.00  0.00     0.045 A 
ATOM     22  Cl  UNL A   1      31.880  29.199  22.984  1.00  0.00    -0.084 Cl
ATOM     23  C   UNL A   1      29.435  30.252  22.811  1.00  0.00     0.021 A 
ATOM     24  C   UNL A   1      27.384  29.049  23.076  1.00  0.00     0.021 A 
ATOM     25  Cl  UNL A   1      27.219  26.650  24.181  1.00  0.00    -0.084 Cl
ATOM     26  C   UNL A   1      28.048  30.230  22.773  1.00  0.00     0.003 A 
ENDBRANCH  18  19
ENDBRANCH  10  18
ENDBRANCH   8  10
ENDBRANCH   7   8
ENDBRANCH   6   7
ENDBRANCH   5   6
ENDBRANCH   4   5
ENDBRANCH   3   4
ENDBRANCH   2   3
ENDBRANCH   1   2
BRANCH   1  27
ATOM     27  C   UNL A   1      35.516  20.782  25.046  1.00  0.00     0.188 C 
BRANCH  27  28
ATOM     28  C   UNL A   1      36.962  20.352  25.049  1.00  0.00     0.188 C 
BRANCH  28  29
ATOM     29  O   UNL A   1      37.695  21.420  24.461  1.00  0.00    -0.376 OA
BRANCH  29  30
ATOM     30  C   UNL A   1      37.540  22.681  25.087  1.00  0.00     0.202 C 
BRANCH  30  31
ATOM     31  C   UNL A   1      38.231  22.699  26.446  1.00  0.00     0.261 C 
BRANCH  31  32
ATOM     32  O   UNL A   1      39.659  22.793  26.233  1.00  0.00    -0.460 OA
BRANCH  32  33
ATOM     33  C   UNL A   1      40.356  23.434  27.207  1.00  0.00     0.338 C 
ATOM     34  O   UNL A   1      41.067  22.870  28.042  1.00  0.00    -0.246 OA
BRANCH  33  35
ATOM     35  C   UNL A   1      39.944  24.866  27.317  1.00  0.00     0.060 A 
ATOM     36  C   UNL A   1      40.424  25.824  26.405  1.00  0.00     0.016 A 
ATOM     37  C   UNL A   1      39.374  25.301  28.505  1.00  0.00     0.016 A 
ATOM     38  C   UNL A   1      40.481  27.188  26.759  1.00  0.00     0.010 A 
ATOM     39  C   UNL A   1      39.575  26.613  28.897  1.00  0.00     0.010 A 
ATOM     40  C   UNL A   1      40.146  27.581  28.052  1.00  0.00    -0.014 A 
BRANCH  40  41
ATOM     41  C   UNL A   1      40.411  28.916  28.649  1.00  0.00     0.031 A 
ATOM     42  C   UNL A   1      39.276  29.916  28.662  1.00  0.00     0.074 A 
ATOM     43  C   UNL A   1      41.489  29.117  29.469  1.00  0.00     0.049 A 
ATOM     44  N   UNL A   1      39.334  31.095  29.179  1.00  0.00    -0.248 NA
ATOM     45  C   UNL A   1      37.924  29.633  28.176  1.00  0.00     0.031 C 
ATOM     46  C   UNL A   1      41.622  30.140  30.511  1.00  0.00     0.029 A 
ATOM     47  N   UNL A   1      42.682  28.384  29.658  1.00  0.00    -0.354 N 
ATOM     48  C   UNL A   1      38.053  31.567  29.405  1.00  0.00     0.074 A 
ATOM     49  C   UNL A   1      37.208  30.618  28.732  1.00  0.00     0.031 C 
ATOM     50  C   UNL A   1      42.837  30.125  31.075  1.00  0.00     0.029 A 
ATOM     51  C   UNL A   1      43.630  29.263  30.243  1.00  0.00     0.049 A 
ATOM     52  H   UNL A   1      42.829  27.438  29.428  1.00  0.00     0.167 HD
ATOM     53  C   UNL A   1      37.894  32.635  30.251  1.00  0.00     0.037 A 
ATOM     54  C   UNL A   1      44.741  29.671  29.571  1.00  0.00     0.037 A 
ATOM     55  C   UNL A   1      39.219  33.154  30.639  1.00  0.00     0.049 A 
ATOM     56  C   UNL A   1      44.617  31.158  29.300  1.00  0.00     0.074 A 
ATOM     57  C   UNL A   1      39.905  33.122  31.838  1.00  0.00     0.029 A 
ATOM     58  N   UNL A   1      40.170  33.490  29.662  1.00  0.00    -0.354 N 
ATOM     59  N   UNL A   1      43.474  31.762  29.067  1.00  0.00    -0.248 NA
ATOM     60  C   UNL A   1      45.710  32.096  29.541  1.00  0.00     0.031 C 
ATOM     61  C   UNL A   1      41.280  33.317  31.569  1.00  0.00     0.029 A 
ATOM     62  C   UNL A   1      41.442  33.531  30.212  1.00  0.00     0.049 A 
ATOM     63  H   UNL A   1      39.963  33.672  28.717  1.00  0.00     0.167 HD
ATOM     64  C   UNL A   1      43.631  33.107  29.291  1.00  0.00     0.074 A 
ATOM     65  C   UNL A   1      45.061  33.274  29.512  1.00  0.00     0.031 C 
ATOM     66  C   UNL A   1      42.614  34.005  29.492  1.00  0.00     0.037 A 
BRANCH  53  67
ATOM     67  C   UNL A   1      36.594  33.064  30.964  1.00  0.00     0.064 A 
ATOM     68  C   UNL A   1      35.579  33.779  30.272  1.00  0.00     0.173 A 
ATOM     69  C   UNL A   1      36.291  32.858  32.326  1.00  0.00     0.173 A 
ATOM     70  F   UNL A   1      35.636  33.982  28.949  1.00  0.00    -0.203 F 
ATOM     71  C   UNL A   1      34.441  34.312  30.899  1.00  0.00     0.198 A 
ATOM     72  C   UNL A   1      35.154  33.397  32.958  1.00  0.00     0.198 A 
ATOM     73  F   UNL A   1      37.045  32.080  33.104  1.00  0.00    -0.203 F 
ATOM     74  F   UNL A   1      33.546  35.004  30.176  1.00  0.00    -0.200 F 
ATOM     75  C   UNL A   1      34.235  34.137  32.247  1.00  0.00     0.200 A 
ATOM     76  F   UNL A   1      34.956  33.180  34.266  1.00  0.00    -0.200 F 
ATOM     77  F   UNL A   1      33.153  34.648  32.849  1.00  0.00    -0.200 F 
ENDBRANCH  53  67
BRANCH  54  78
ATOM     78  C   UNL A   1      45.305  28.538  28.781  1.00  0.00     0.064 A 
ATOM     79  C   UNL A   1      45.178  28.687  27.377  1.00  0.00     0.173 A 
ATOM     80  C   UNL A   1      46.418  27.825  29.245  1.00  0.00     0.173 A 
ATOM     81  F   UNL A   1      44.111  29.327  26.868  1.00  0.00    -0.203 F 
ATOM     82  C   UNL A   1      46.235  28.389  26.517  1.00  0.00     0.198 A 
ATOM     83  C   UNL A   1      47.459  27.489  28.369  1.00  0.00     0.198 A 
ATOM     84  F   UNL A   1      46.589  27.619  30.558  1.00  0.00    -0.203 F 
ATOM     85  F   UNL A   1      46.175  28.754  25.228  1.00  0.00    -0.200 F 
ATOM     86  C   UNL A   1      47.397  27.842  27.026  1.00  0.00     0.200 A 
ATOM     87  F   UNL A   1      48.582  26.933  28.847  1.00  0.00    -0.200 F 
ATOM     88  F   UNL A   1      48.477  27.711  26.241  1.00  0.00    -0.200 F 
ENDBRANCH  54  78
BRANCH  66  89
ATOM     89  C   UNL A   1      42.732  35.502  29.306  1.00  0.00     0.064 A 
ATOM     90  C   UNL A   1      43.376  36.334  30.232  1.00  0.00     0.173 A 
ATOM     91  C   UNL A   1      42.360  36.123  28.084  1.00  0.00     0.173 A 
ATOM     92  F   UNL A   1      43.855  35.853  31.387  1.00  0.00    -0.203 F 
ATOM     93  C   UNL A   1      43.588  37.689  29.978  1.00  0.00     0.198 A 
ATOM     94  C   UNL A   1      42.634  37.456  27.808  1.00  0.00     0.198 A 
ATOM     95  F   UNL A   1      41.746  35.459  27.095  1.00  0.00    -0.203 F 
ATOM     96  F   UNL A   1      44.165  38.452  30.915  1.00  0.00    -0.200 F 
ATOM     97  C   UNL A   1      43.237  38.244  28.761  1.00  0.00     0.200 A 
ATOM     98  F   UNL A   1      42.326  37.960  26.605  1.00  0.00    -0.200 F 
ATOM     99  F   UNL A   1      43.494  39.532  28.502  1.00  0.00    -0.200 F 
ENDBRANCH  66  89
ENDBRANCH  40  41
ENDBRANCH  33  35
ENDBRANCH  32  33
ENDBRANCH  31  32
ENDBRANCH  30  31
ENDBRANCH  29  30
ENDBRANCH  28  29
ENDBRANCH  27  28
ENDBRANCH   1  27
TORSDOF 23
ENDMDL
MODEL 3
REMARK VINA RESULT:     -10.3      4.317      8.325
REMARK SMILES Cc1ccccc1[C@@H](Cc1c(Cl)cccc1Cl)C(=O)OCCOCCOCCOCCOC(=O)c1ccc(-c2c3nc(c(-c4c(F)c(F)c(F)c(F)c4F)c4ccc([nH]4)c(-c4c(F)c(F)c(F)c(F)c4F)c4nc(c(-c5c(F)c(F)c(F)c(F)c5F)c5ccc2[nH]5)C=C4)C=C3)cc1
REMARK SMILES IDX 26 1 25 2 24 3 23 4 22 5 21 6 20 7 18 8 19 9 8 10 7 11 1 12
REMARK SMILES IDX 2 13 3 14 4 15 6 16 5 17 9 18 10 19 11 20 16 21 12 22 13 23
REMARK SMILES IDX 15 24 17 25 14 26 27 27 28 28 29 29 30 30 31 31 32 32 33 33
REMARK SMILES IDX 34 34 35 35 36 36 97 37 37 38 96 39 38 40 39 41 40 42 90 43
REMARK SMILES IDX 41 44 95 45 89 46 91 47 42 48 94 49 88 50 87 51 43 53 75 54
REMARK SMILES IDX 55 55 74 56 56 57 59 58 73 59 92 60 57 61 58 62 72 64 93 65
REMARK SMILES IDX 60 66 44 67 45 68 53 69 46 70 47 71 51 72 54 73 48 74 49 75
REMARK SMILES IDX 52 76 50 77 76 78 77 79 85 80 78 81 79 82 83 83 86 84 80 85
REMARK SMILES IDX 81 86 84 87 82 88 61 89 62 90 70 91 63 92 64 93 68 94 71 95
REMARK SMILES IDX 65 96 66 97 69 98 67 99
REMARK H PARENT 91 52 59 63
REMARK Flexibility Score: inf
ROOT
ATOM      1  O   UNL A   1      35.071  21.135  26.280  1.00  0.00    -0.377 OA
ENDROOT
BRANCH   1   2
ATOM      2  C   UNL A   1      33.788  21.733  26.244  1.00  0.00     0.188 C 
BRANCH   2   3
ATOM      3  C   UNL A   1      33.459  22.832  27.267  1.00  0.00     0.188 C 
BRANCH   3   4
ATOM      4  O   UNL A   1      32.161  22.955  27.810  1.00  0.00    -0.376 OA
BRANCH   4   5
ATOM      5  C   UNL A   1      31.076  22.737  26.923  1.00  0.00     0.202 C 
BRANCH   5   6
ATOM      6  C   UNL A   1      29.986  23.789  26.797  1.00  0.00     0.261 C 
BRANCH   6   7
ATOM      7  O   UNL A   1      30.009  24.434  25.511  1.00  0.00    -0.463 OA
BRANCH   7   8
ATOM      8  C   UNL A   1      30.496  25.693  25.555  1.00  0.00     0.313 C 
ATOM      9  O   UNL A   1      30.427  26.403  26.555  1.00  0.00    -0.252 OA
BRANCH   8  10
ATOM     10  C   UNL A   1      31.165  26.158  24.271  1.00  0.00     0.134 C 
BRANCH  10  11
ATOM     11  C   UNL A   1      32.372  25.283  23.883  1.00  0.00    -0.031 A 
ATOM     12  C   UNL A   1      33.855  26.325  25.725  1.00  0.00     0.044 C 
ATOM     13  C   UNL A   1      33.635  25.456  24.511  1.00  0.00    -0.047 A 
ATOM     14  C   UNL A   1      34.742  24.681  24.096  1.00  0.00     0.004 A 
ATOM     15  C   UNL A   1      34.598  23.674  23.145  1.00  0.00     0.000 A 
ATOM     16  C   UNL A   1      32.252  24.234  22.944  1.00  0.00     0.005 A 
ATOM     17  C   UNL A   1      33.349  23.437  22.586  1.00  0.00     0.000 A 
ENDBRANCH  10  11
BRANCH  10  18
ATOM     18  C   UNL A   1      30.176  26.493  23.122  1.00  0.00     0.058 C 
BRANCH  18  19
ATOM     19  C   UNL A   1      29.655  27.910  22.907  1.00  0.00    -0.010 A 
ATOM     20  C   UNL A   1      30.576  28.933  22.588  1.00  0.00     0.045 A 
ATOM     21  C   UNL A   1      28.304  28.294  22.962  1.00  0.00     0.045 A 
ATOM     22  Cl  UNL A   1      32.289  28.717  22.751  1.00  0.00    -0.084 Cl
ATOM     23  C   UNL A   1      30.149  30.186  22.136  1.00  0.00     0.021 A 
ATOM     24  C   UNL A   1      27.872  29.497  22.392  1.00  0.00     0.021 A 
ATOM     25  Cl  UNL A   1      27.116  27.445  23.882  1.00  0.00    -0.084 Cl
ATOM     26  C   UNL A   1      28.795  30.437  21.956  1.00  0.00     0.003 A 
ENDBRANCH  18  19
ENDBRANCH  10  18
ENDBRANCH   8  10
ENDBRANCH   7   8
ENDBRANCH   6   7
ENDBRANCH   5   6
ENDBRANCH   4   5
ENDBRANCH   3   4
ENDBRANCH   2   3
ENDBRANCH   1   2
BRANCH   1  27
ATOM     27  C   UNL A   1      35.653  20.777  25.027  1.00  0.00     0.188 C 
BRANCH  27  28
ATOM     28  C   UNL A   1      37.129  20.467  24.969  1.00  0.00     0.188 C 
BRANCH  28  29
ATOM     29  O   UNL A   1      37.753  21.611  24.399  1.00  0.00    -0.376 OA
BRANCH  29  30
ATOM     30  C   UNL A   1      37.512  22.834  25.072  1.00  0.00     0.202 C 
BRANCH  30  31
ATOM     31  C   UNL A   1      38.135  22.817  26.464  1.00  0.00     0.261 C 
BRANCH  31  32
ATOM     32  O   UNL A   1      39.571  22.718  26.322  1.00  0.00    -0.460 OA
BRANCH  32  33
ATOM     33  C   UNL A   1      40.300  23.367  27.267  1.00  0.00     0.338 C 
ATOM     34  O   UNL A   1      41.000  22.807  28.115  1.00  0.00    -0.246 OA
BRANCH  33  35
ATOM     35  C   UNL A   1      39.938  24.816  27.333  1.00  0.00     0.060 A 
ATOM     36  C   UNL A   1      40.440  25.724  26.383  1.00  0.00     0.016 A 
ATOM     37  C   UNL A   1      39.398  25.310  28.511  1.00  0.00     0.016 A 
ATOM     38  C   UNL A   1      40.548  27.097  26.689  1.00  0.00     0.010 A 
ATOM     39  C   UNL A   1      39.649  26.627  28.855  1.00  0.00     0.010 A 
ATOM     40  C   UNL A   1      40.242  27.546  27.971  1.00  0.00    -0.014 A 
BRANCH  40  41
ATOM     41  C   UNL A   1      40.560  28.890  28.519  1.00  0.00     0.031 A 
ATOM     42  C   UNL A   1      39.434  29.895  28.606  1.00  0.00     0.074 A 
ATOM     43  C   UNL A   1      41.702  29.100  29.243  1.00  0.00     0.049 A 
ATOM     44  N   UNL A   1      39.538  31.084  29.094  1.00  0.00    -0.248 NA
ATOM     45  C   UNL A   1      38.045  29.610  28.238  1.00  0.00     0.031 C 
ATOM     46  C   UNL A   1      41.924  30.142  30.252  1.00  0.00     0.029 A 
ATOM     47  N   UNL A   1      42.905  28.366  29.348  1.00  0.00    -0.354 N 
ATOM     48  C   UNL A   1      38.281  31.566  29.416  1.00  0.00     0.074 A 
ATOM     49  C   UNL A   1      37.381  30.609  28.832  1.00  0.00     0.031 C 
ATOM     50  C   UNL A   1      43.182  30.132  30.713  1.00  0.00     0.029 A 
ATOM     51  C   UNL A   1      43.901  29.250  29.836  1.00  0.00     0.049 A 
ATOM     52  H   UNL A   1      43.029  27.415  29.125  1.00  0.00     0.167 HD
ATOM     53  C   UNL A   1      38.197  32.651  30.252  1.00  0.00     0.037 A 
ATOM     54  C   UNL A   1      44.954  29.641  29.067  1.00  0.00     0.037 A 
ATOM     55  C   UNL A   1      39.550  33.170  30.519  1.00  0.00     0.049 A 
ATOM     56  C   UNL A   1      44.813  31.122  28.779  1.00  0.00     0.074 A 
ATOM     57  C   UNL A   1      40.333  33.157  31.658  1.00  0.00     0.029 A 
ATOM     58  N   UNL A   1      40.419  33.483  29.461  1.00  0.00    -0.354 N 
ATOM     59  N   UNL A   1      43.657  31.728  28.629  1.00  0.00    -0.248 NA
ATOM     60  C   UNL A   1      45.925  32.059  28.912  1.00  0.00     0.031 C 
ATOM     61  C   UNL A   1      41.681  33.340  31.273  1.00  0.00     0.029 A 
ATOM     62  C   UNL A   1      41.732  33.528  29.903  1.00  0.00     0.049 A 
ATOM     63  H   UNL A   1      40.136  33.648  28.533  1.00  0.00     0.167 HD
ATOM     64  C   UNL A   1      43.836  33.076  28.814  1.00  0.00     0.074 A 
ATOM     65  C   UNL A   1      45.280  33.240  28.914  1.00  0.00     0.031 C 
ATOM     66  C   UNL A   1      42.842  33.983  29.081  1.00  0.00     0.037 A 
BRANCH  53  67
ATOM     67  C   UNL A   1      36.961  33.099  31.060  1.00  0.00     0.064 A 
ATOM     68  C   UNL A   1      36.863  32.843  32.455  1.00  0.00     0.173 A 
ATOM     69  C   UNL A   1      35.817  33.737  30.536  1.00  0.00     0.173 A 
ATOM     70  F   UNL A   1      37.889  32.339  33.152  1.00  0.00    -0.203 F 
ATOM     71  C   UNL A   1      35.710  33.104  33.213  1.00  0.00     0.198 A 
ATOM     72  C   UNL A   1      34.657  33.993  31.293  1.00  0.00     0.198 A 
ATOM     73  F   UNL A   1      35.779  34.196  29.285  1.00  0.00    -0.203 F 
ATOM     74  F   UNL A   1      35.690  32.800  34.520  1.00  0.00    -0.200 F 
ATOM     75  C   UNL A   1      34.597  33.664  32.628  1.00  0.00     0.200 A 
ATOM     76  F   UNL A   1      33.599  34.576  30.709  1.00  0.00    -0.200 F 
ATOM     77  F   UNL A   1      33.495  33.910  33.348  1.00  0.00    -0.200 F 
ENDBRANCH  53  67
BRANCH  54  78
ATOM     78  C   UNL A   1      45.448  28.490  28.255  1.00  0.00     0.064 A 
ATOM     79  C   UNL A   1      46.101  27.484  29.011  1.00  0.00     0.173 A 
ATOM     80  C   UNL A   1      44.763  28.077  27.106  1.00  0.00     0.173 A 
ATOM     81  F   UNL A   1      46.808  27.822  30.102  1.00  0.00    -0.203 F 
ATOM     82  C   UNL A   1      45.848  26.131  28.787  1.00  0.00     0.198 A 
ATOM     83  C   UNL A   1      44.548  26.713  26.862  1.00  0.00     0.198 A 
ATOM     84  F   UNL A   1      44.146  28.976  26.327  1.00  0.00    -0.203 F 
ATOM     85  F   UNL A   1      46.293  25.212  29.657  1.00  0.00    -0.200 F 
ATOM     86  C   UNL A   1      45.024  25.752  27.744  1.00  0.00     0.200 A 
ATOM     87  F   UNL A   1      43.771  26.332  25.837  1.00  0.00    -0.200 F 
ATOM     88  F   UNL A   1      44.639  24.472  27.625  1.00  0.00    -0.200 F 
ENDBRANCH  54  78
BRANCH  66  89
ATOM     89  C   UNL A   1      42.950  35.475  28.857  1.00  0.00     0.064 A 
ATOM     90  C   UNL A   1      42.368  36.123  27.760  1.00  0.00     0.173 A 
ATOM     91  C   UNL A   1      43.492  36.330  29.854  1.00  0.00     0.173 A 
ATOM     92  F   UNL A   1      41.746  35.436  26.793  1.00  0.00    -0.203 F 
ATOM     93  C   UNL A   1      42.369  37.514  27.644  1.00  0.00     0.198 A 
ATOM     94  C   UNL A   1      43.430  37.715  29.766  1.00  0.00     0.198 A 
ATOM     95  F   UNL A   1      44.073  35.863  30.968  1.00  0.00    -0.203 F 
ATOM     96  F   UNL A   1      41.842  38.084  26.552  1.00  0.00    -0.200 F 
ATOM     97  C   UNL A   1      42.880  38.308  28.654  1.00  0.00     0.200 A 
ATOM     98  F   UNL A   1      43.890  38.464  30.779  1.00  0.00    -0.200 F 
ATOM     99  F   UNL A   1      42.827  39.642  28.562  1.00  0.00    -0.200 F 
ENDBRANCH  66  89
ENDBRANCH  40  41
ENDBRANCH  33  35
ENDBRANCH  32  33
ENDBRANCH  31  32
ENDBRANCH  30  31
ENDBRANCH  29  30
ENDBRANCH  28  29
ENDBRANCH  27  28
ENDBRANCH   1  27
TORSDOF 23
ENDMDL
