MODEL 1
REMARK VINA RESULT:      -9.1      0.000      0.000
REMARK SMILES CCCC1CN(c2cc(C(=O)OCCOCCOCCOCCOC(=O)c3ccc(-c4c5nc(c(-c6c(F)c(F)c(F)c(F)c6F)c6ccc([nH]6)c(-c6c(F)c(F)c(F)c(F)c6F)c6nc(c(-c7c(F)c(F)c(F)c(F)c7F)c7ccc4[nH]7)C=C6)C=C5)cc3)ccc2F)C1
REMARK SMILES IDX 17 1 16 2 15 3 14 4 13 5 12 6 10 7 11 8 9 9 7 10 8 11 92 12
REMARK SMILES IDX 91 13 93 14 90 15 6 16 4 17 5 18 94 19 3 20 2 21 1 22 18 23
REMARK SMILES IDX 19 24 20 25 21 26 22 27 23 28 24 29 25 30 26 31 27 32 28 33
REMARK SMILES IDX 89 34 29 35 88 36 30 37 31 38 32 39 82 40 33 41 87 42 81 43
REMARK SMILES IDX 83 44 34 45 86 46 80 47 79 48 35 50 67 51 47 52 66 53 48 54
REMARK SMILES IDX 51 55 65 56 84 57 49 58 50 59 64 61 85 62 52 63 36 64 37 65
REMARK SMILES IDX 45 66 38 67 39 68 43 69 46 70 40 71 41 72 44 73 42 74 68 75
REMARK SMILES IDX 69 76 77 77 70 78 71 79 75 80 78 81 72 82 73 83 76 84 74 85
REMARK SMILES IDX 53 86 54 87 62 88 55 89 56 90 60 91 63 92 57 93 58 94 61 95
REMARK SMILES IDX 59 96
REMARK H PARENT 83 49 51 60
REMARK Flexibility Score: inf
ROOT
ATOM      1  C   UNL A   1      39.079  22.953  26.808  1.00  0.00     0.188 C 
ENDROOT
BRANCH   1   2
ATOM      2  C   UNL A   1      38.144  23.997  26.163  1.00  0.00     0.188 C 
BRANCH   2   3
ATOM      3  O   UNL A   1      37.098  23.413  25.406  1.00  0.00    -0.376 OA
BRANCH   3   4
ATOM      4  C   UNL A   1      35.761  23.528  25.852  1.00  0.00     0.202 C 
BRANCH   4   5
ATOM      5  C   UNL A   1      34.706  22.485  25.451  1.00  0.00     0.261 C 
BRANCH   5   6
ATOM      6  O   UNL A   1      33.614  22.946  24.650  1.00  0.00    -0.460 OA
BRANCH   6   7
ATOM      7  C   UNL A   1      32.383  22.971  25.203  1.00  0.00     0.338 C 
ATOM      8  O   UNL A   1      31.818  22.053  25.774  1.00  0.00    -0.246 OA
BRANCH   7   9
ATOM      9  C   UNL A   1      31.914  24.380  25.174  1.00  0.00     0.062 A 
ATOM     10  C   UNL A   1      32.300  26.717  25.701  1.00  0.00     0.074 A 
ATOM     11  C   UNL A   1      32.706  25.381  25.766  1.00  0.00     0.044 A 
ATOM     12  C   UNL A   1      31.097  27.021  25.038  1.00  0.00     0.146 A 
ATOM     13  C   UNL A   1      30.325  26.041  24.427  1.00  0.00     0.042 A 
ATOM     14  F   UNL A   1      30.672  28.293  24.982  1.00  0.00    -0.205 F 
ATOM     15  C   UNL A   1      30.733  24.713  24.492  1.00  0.00     0.019 A 
BRANCH  10  16
ATOM     16  N   UNL A   1      32.990  27.761  26.321  1.00  0.00    -0.368 N 
ATOM     17  C   UNL A   1      34.037  29.341  27.053  1.00  0.00     0.028 C 
ATOM     18  C   UNL A   1      32.756  28.567  27.473  1.00  0.00     0.122 C 
ATOM     19  C   UNL A   1      33.744  28.772  25.656  1.00  0.00     0.122 C 
BRANCH  17  20
ATOM     20  C   UNL A   1      34.082  30.846  27.268  1.00  0.00     0.007 C 
BRANCH  20  21
ATOM     21  C   UNL A   1      35.364  31.294  27.981  1.00  0.00    -0.003 C 
ATOM     22  C   UNL A   1      35.532  32.807  28.040  1.00  0.00     0.004 C 
ENDBRANCH  20  21
ENDBRANCH  17  20
ENDBRANCH  10  16
ENDBRANCH   7   9
ENDBRANCH   6   7
ENDBRANCH   5   6
ENDBRANCH   4   5
ENDBRANCH   3   4
ENDBRANCH   2   3
ENDBRANCH   1   2
BRANCH   1  23
ATOM     23  O   UNL A   1      40.459  23.035  26.483  1.00  0.00    -0.377 OA
BRANCH  23  24
ATOM     24  C   UNL A   1      41.261  21.855  26.496  1.00  0.00     0.188 C 
BRANCH  24  25
ATOM     25  C   UNL A   1      40.663  20.425  26.496  1.00  0.00     0.188 C 
BRANCH  25  26
ATOM     26  O   UNL A   1      41.276  19.515  27.393  1.00  0.00    -0.376 OA
BRANCH  26  27
ATOM     27  C   UNL A   1      42.627  19.156  27.171  1.00  0.00     0.202 C 
BRANCH  27  28
ATOM     28  C   UNL A   1      42.958  18.548  25.802  1.00  0.00     0.261 C 
BRANCH  28  29
ATOM     29  O   UNL A   1      43.191  19.490  24.743  1.00  0.00    -0.460 OA
BRANCH  29  30
ATOM     30  C   UNL A   1      44.465  19.625  24.325  1.00  0.00     0.338 C 
ATOM     31  O   UNL A   1      45.116  18.828  23.666  1.00  0.00    -0.246 OA
BRANCH  30  32
ATOM     32  C   UNL A   1      44.909  20.994  24.641  1.00  0.00     0.060 A 
ATOM     33  C   UNL A   1      45.609  21.217  25.834  1.00  0.00     0.016 A 
ATOM     34  C   UNL A   1      44.620  22.053  23.778  1.00  0.00     0.016 A 
ATOM     35  C   UNL A   1      45.968  22.513  26.196  1.00  0.00     0.010 A 
ATOM     36  C   UNL A   1      44.967  23.355  24.148  1.00  0.00     0.010 A 
ATOM     37  C   UNL A   1      45.598  23.593  25.382  1.00  0.00    -0.014 A 
BRANCH  37  38
ATOM     38  C   UNL A   1      45.688  24.968  25.929  1.00  0.00     0.031 A 
ATOM     39  C   UNL A   1      47.014  25.676  25.872  1.00  0.00     0.074 A 
ATOM     40  C   UNL A   1      44.602  25.601  26.403  1.00  0.00     0.049 A 
ATOM     41  N   UNL A   1      47.328  26.886  26.257  1.00  0.00    -0.248 NA
ATOM     42  C   UNL A   1      48.138  24.916  25.303  1.00  0.00     0.031 C 
ATOM     43  C   UNL A   1      43.259  25.034  26.467  1.00  0.00     0.029 A 
ATOM     44  N   UNL A   1      44.461  26.867  26.912  1.00  0.00    -0.354 N 
ATOM     45  C   UNL A   1      48.680  27.030  25.977  1.00  0.00     0.074 A 
ATOM     46  C   UNL A   1      49.139  25.774  25.430  1.00  0.00     0.031 C 
ATOM     47  C   UNL A   1      42.423  25.954  26.979  1.00  0.00     0.029 A 
ATOM     48  C   UNL A   1      43.180  27.163  27.306  1.00  0.00     0.049 A 
ATOM     49  H   UNL A   1      45.208  27.505  26.987  1.00  0.00     0.167 HD
ATOM     50  C   UNL A   1      49.465  28.120  26.147  1.00  0.00     0.037 A 
ATOM     51  C   UNL A   1      42.678  28.277  27.874  1.00  0.00     0.037 A 
ATOM     52  C   UNL A   1      49.001  29.371  26.687  1.00  0.00     0.049 A 
ATOM     53  C   UNL A   1      43.587  29.455  28.120  1.00  0.00     0.074 A 
ATOM     54  C   UNL A   1      49.712  30.542  26.877  1.00  0.00     0.029 A 
ATOM     55  N   UNL A   1      47.708  29.611  27.130  1.00  0.00    -0.354 N 
ATOM     56  N   UNL A   1      44.858  29.594  27.833  1.00  0.00    -0.248 NA
ATOM     57  C   UNL A   1      42.989  30.632  28.766  1.00  0.00     0.031 C 
ATOM     58  C   UNL A   1      48.871  31.467  27.497  1.00  0.00     0.029 A 
ATOM     59  C   UNL A   1      47.612  30.901  27.626  1.00  0.00     0.049 A 
ATOM     60  H   UNL A   1      46.969  28.961  27.096  1.00  0.00     0.167 HD
ATOM     61  C   UNL A   1      45.207  30.876  28.238  1.00  0.00     0.074 A 
ATOM     62  C   UNL A   1      44.008  31.481  28.779  1.00  0.00     0.031 C 
ATOM     63  C   UNL A   1      46.413  31.493  28.164  1.00  0.00     0.037 A 
BRANCH  50  64
ATOM     64  C   UNL A   1      50.912  28.008  25.767  1.00  0.00     0.064 A 
ATOM     65  C   UNL A   1      51.887  27.778  26.751  1.00  0.00     0.173 A 
ATOM     66  C   UNL A   1      51.347  28.188  24.445  1.00  0.00     0.173 A 
ATOM     67  F   UNL A   1      51.526  27.600  28.032  1.00  0.00    -0.203 F 
ATOM     68  C   UNL A   1      53.240  27.749  26.429  1.00  0.00     0.198 A 
ATOM     69  C   UNL A   1      52.700  28.125  24.121  1.00  0.00     0.198 A 
ATOM     70  F   UNL A   1      50.457  28.396  23.463  1.00  0.00    -0.203 F 
ATOM     71  F   UNL A   1      54.153  27.565  27.393  1.00  0.00    -0.200 F 
ATOM     72  C   UNL A   1      53.646  27.918  25.114  1.00  0.00     0.200 A 
ATOM     73  F   UNL A   1      53.089  28.260  22.846  1.00  0.00    -0.200 F 
ATOM     74  F   UNL A   1      54.949  27.878  24.803  1.00  0.00    -0.200 F 
ENDBRANCH  50  64
BRANCH  51  75
ATOM     75  C   UNL A   1      41.236  28.331  28.226  1.00  0.00     0.064 A 
ATOM     76  C   UNL A   1      40.292  28.879  27.344  1.00  0.00     0.173 A 
ATOM     77  C   UNL A   1      40.776  27.870  29.467  1.00  0.00     0.173 A 
ATOM     78  F   UNL A   1      40.679  29.331  26.142  1.00  0.00    -0.203 F 
ATOM     79  C   UNL A   1      38.951  28.994  27.703  1.00  0.00     0.198 A 
ATOM     80  C   UNL A   1      39.429  27.960  29.814  1.00  0.00     0.198 A 
ATOM     81  F   UNL A   1      41.634  27.314  30.334  1.00  0.00    -0.203 F 
ATOM     82  F   UNL A   1      38.080  29.562  26.859  1.00  0.00    -0.200 F 
ATOM     83  C   UNL A   1      38.520  28.533  28.937  1.00  0.00     0.200 A 
ATOM     84  F   UNL A   1      39.012  27.490  30.998  1.00  0.00    -0.200 F 
ATOM     85  F   UNL A   1      37.230  28.640  29.282  1.00  0.00    -0.200 F 
ENDBRANCH  51  75
BRANCH  63  86
ATOM     86  C   UNL A   1      46.509  32.910  28.661  1.00  0.00     0.064 A 
ATOM     87  C   UNL A   1      46.278  33.986  27.788  1.00  0.00     0.173 A 
ATOM     88  C   UNL A   1      46.911  33.204  29.972  1.00  0.00     0.173 A 
ATOM     89  F   UNL A   1      45.902  33.760  26.521  1.00  0.00    -0.203 F 
ATOM     90  C   UNL A   1      46.468  35.301  28.204  1.00  0.00     0.198 A 
ATOM     91  C   UNL A   1      47.065  34.523  30.394  1.00  0.00     0.198 A 
ATOM     92  F   UNL A   1      47.135  32.214  30.849  1.00  0.00    -0.203 F 
ATOM     93  F   UNL A   1      46.284  36.308  27.339  1.00  0.00    -0.200 F 
ATOM     94  C   UNL A   1      46.854  35.568  29.508  1.00  0.00     0.200 A 
ATOM     95  F   UNL A   1      47.416  34.781  31.662  1.00  0.00    -0.200 F 
ATOM     96  F   UNL A   1      47.025  36.836  29.911  1.00  0.00    -0.200 F 
ENDBRANCH  63  86
ENDBRANCH  37  38
ENDBRANCH  30  32
ENDBRANCH  29  30
ENDBRANCH  28  29
ENDBRANCH  27  28
ENDBRANCH  26  27
ENDBRANCH  25  26
ENDBRANCH  24  25
ENDBRANCH  23  24
ENDBRANCH   1  23
TORSDOF 23
ENDMDL
MODEL 2
REMARK VINA RESULT:      -8.9      1.345      1.924
REMARK SMILES CCCC1CN(c2cc(C(=O)OCCOCCOCCOCCOC(=O)c3ccc(-c4c5nc(c(-c6c(F)c(F)c(F)c(F)c6F)c6ccc([nH]6)c(-c6c(F)c(F)c(F)c(F)c6F)c6nc(c(-c7c(F)c(F)c(F)c(F)c7F)c7ccc4[nH]7)C=C6)C=C5)cc3)ccc2F)C1
REMARK SMILES IDX 17 1 16 2 15 3 14 4 13 5 12 6 10 7 11 8 9 9 7 10 8 11 92 12
REMARK SMILES IDX 91 13 93 14 90 15 6 16 4 17 5 18 94 19 3 20 2 21 1 22 18 23
REMARK SMILES IDX 19 24 20 25 21 26 22 27 23 28 24 29 25 30 26 31 27 32 28 33
REMARK SMILES IDX 89 34 29 35 88 36 30 37 31 38 32 39 82 40 33 41 87 42 81 43
REMARK SMILES IDX 83 44 34 45 86 46 80 47 79 48 35 50 67 51 47 52 66 53 48 54
REMARK SMILES IDX 51 55 65 56 84 57 49 58 50 59 64 61 85 62 52 63 36 64 37 65
REMARK SMILES IDX 45 66 38 67 39 68 43 69 46 70 40 71 41 72 44 73 42 74 68 75
REMARK SMILES IDX 69 76 77 77 70 78 71 79 75 80 78 81 72 82 73 83 76 84 74 85
REMARK SMILES IDX 53 86 54 87 62 88 55 89 56 90 60 91 63 92 57 93 58 94 61 95
REMARK SMILES IDX 59 96
REMARK H PARENT 83 49 51 60
REMARK Flexibility Score: inf
ROOT
ATOM      1  C   UNL A   1      39.217  23.060  27.034  1.00  0.00     0.188 C 
ENDROOT
BRANCH   1   2
ATOM      2  C   UNL A   1      38.299  24.133  26.414  1.00  0.00     0.188 C 
BRANCH   2   3
ATOM      3  O   UNL A   1      37.450  23.621  25.401  1.00  0.00    -0.376 OA
BRANCH   3   4
ATOM      4  C   UNL A   1      36.083  23.395  25.681  1.00  0.00     0.202 C 
BRANCH   4   5
ATOM      5  C   UNL A   1      35.368  22.141  25.156  1.00  0.00     0.261 C 
BRANCH   5   6
ATOM      6  O   UNL A   1      34.403  22.334  24.117  1.00  0.00    -0.460 OA
BRANCH   6   7
ATOM      7  C   UNL A   1      33.198  21.740  24.247  1.00  0.00     0.338 C 
ATOM      8  O   UNL A   1      32.944  20.556  24.095  1.00  0.00    -0.246 OA
BRANCH   7   9
ATOM      9  C   UNL A   1      32.268  22.750  24.813  1.00  0.00     0.062 A 
ATOM     10  C   UNL A   1      31.076  24.850  24.575  1.00  0.00     0.074 A 
ATOM     11  C   UNL A   1      31.989  23.917  24.077  1.00  0.00     0.044 A 
ATOM     12  C   UNL A   1      30.458  24.590  25.812  1.00  0.00     0.146 A 
ATOM     13  C   UNL A   1      30.707  23.427  26.530  1.00  0.00     0.042 A 
ATOM     14  F   UNL A   1      29.596  25.482  26.325  1.00  0.00    -0.205 F 
ATOM     15  C   UNL A   1      31.615  22.500  26.030  1.00  0.00     0.019 A 
BRANCH  10  16
ATOM     16  N   UNL A   1      30.796  26.064  23.943  1.00  0.00    -0.368 N 
ATOM     17  C   UNL A   1      30.213  27.810  23.082  1.00  0.00     0.028 C 
ATOM     18  C   UNL A   1      31.497  27.296  23.793  1.00  0.00     0.122 C 
ATOM     19  C   UNL A   1      29.513  26.679  23.852  1.00  0.00     0.122 C 
BRANCH  17  20
ATOM     20  C   UNL A   1      29.789  29.254  23.298  1.00  0.00     0.007 C 
BRANCH  20  21
ATOM     21  C   UNL A   1      29.419  29.954  21.984  1.00  0.00    -0.003 C 
ATOM     22  C   UNL A   1      28.720  31.294  22.184  1.00  0.00     0.004 C 
ENDBRANCH  20  21
ENDBRANCH  17  20
ENDBRANCH  10  16
ENDBRANCH   7   9
ENDBRANCH   6   7
ENDBRANCH   5   6
ENDBRANCH   4   5
ENDBRANCH   3   4
ENDBRANCH   2   3
ENDBRANCH   1   2
BRANCH   1  23
ATOM     23  O   UNL A   1      40.604  23.154  26.749  1.00  0.00    -0.377 OA
BRANCH  23  24
ATOM     24  C   UNL A   1      41.396  21.969  26.683  1.00  0.00     0.188 C 
BRANCH  24  25
ATOM     25  C   UNL A   1      40.786  20.548  26.580  1.00  0.00     0.188 C 
BRANCH  25  26
ATOM     26  O   UNL A   1      41.329  19.592  27.474  1.00  0.00    -0.376 OA
BRANCH  26  27
ATOM     27  C   UNL A   1      42.594  19.032  27.177  1.00  0.00     0.202 C 
BRANCH  27  28
ATOM     28  C   UNL A   1      42.828  18.604  25.722  1.00  0.00     0.261 C 
BRANCH  28  29
ATOM     29  O   UNL A   1      43.147  19.663  24.807  1.00  0.00    -0.460 OA
BRANCH  29  30
ATOM     30  C   UNL A   1      44.437  19.766  24.429  1.00  0.00     0.338 C 
ATOM     31  O   UNL A   1      45.080  18.968  23.763  1.00  0.00    -0.246 OA
BRANCH  30  32
ATOM     32  C   UNL A   1      44.918  21.109  24.802  1.00  0.00     0.060 A 
ATOM     33  C   UNL A   1      45.368  21.325  26.111  1.00  0.00     0.016 A 
ATOM     34  C   UNL A   1      44.907  22.152  23.873  1.00  0.00     0.016 A 
ATOM     35  C   UNL A   1      45.750  22.603  26.511  1.00  0.00     0.010 A 
ATOM     36  C   UNL A   1      45.275  23.436  24.279  1.00  0.00     0.010 A 
ATOM     37  C   UNL A   1      45.651  23.675  25.613  1.00  0.00    -0.014 A 
BRANCH  37  38
ATOM     38  C   UNL A   1      45.739  25.059  26.135  1.00  0.00     0.031 A 
ATOM     39  C   UNL A   1      47.062  25.770  26.061  1.00  0.00     0.074 A 
ATOM     40  C   UNL A   1      44.653  25.697  26.604  1.00  0.00     0.049 A 
ATOM     41  N   UNL A   1      47.374  26.988  26.423  1.00  0.00    -0.248 NA
ATOM     42  C   UNL A   1      48.186  25.005  25.499  1.00  0.00     0.031 C 
ATOM     43  C   UNL A   1      43.311  25.126  26.683  1.00  0.00     0.029 A 
ATOM     44  N   UNL A   1      44.509  26.972  27.090  1.00  0.00    -0.354 N 
ATOM     45  C   UNL A   1      48.724  27.132  26.134  1.00  0.00     0.074 A 
ATOM     46  C   UNL A   1      49.185  25.868  25.607  1.00  0.00     0.031 C 
ATOM     47  C   UNL A   1      42.475  26.053  27.182  1.00  0.00     0.029 A 
ATOM     48  C   UNL A   1      43.229  27.269  27.485  1.00  0.00     0.049 A 
ATOM     49  H   UNL A   1      45.254  27.613  27.151  1.00  0.00     0.167 HD
ATOM     50  C   UNL A   1      49.506  28.228  26.282  1.00  0.00     0.037 A 
ATOM     51  C   UNL A   1      42.726  28.392  28.036  1.00  0.00     0.037 A 
ATOM     52  C   UNL A   1      49.040  29.485  26.801  1.00  0.00     0.049 A 
ATOM     53  C   UNL A   1      43.632  29.577  28.257  1.00  0.00     0.074 A 
ATOM     54  C   UNL A   1      49.748  30.662  26.967  1.00  0.00     0.029 A 
ATOM     55  N   UNL A   1      47.748  29.730  27.246  1.00  0.00    -0.354 N 
ATOM     56  N   UNL A   1      44.901  29.715  27.961  1.00  0.00    -0.248 NA
ATOM     57  C   UNL A   1      43.033  30.764  28.885  1.00  0.00     0.031 C 
ATOM     58  C   UNL A   1      48.906  31.596  27.575  1.00  0.00     0.029 A 
ATOM     59  C   UNL A   1      47.650  31.028  27.719  1.00  0.00     0.049 A 
ATOM     60  H   UNL A   1      47.011  29.077  27.227  1.00  0.00     0.167 HD
ATOM     61  C   UNL A   1      45.248  31.005  28.342  1.00  0.00     0.074 A 
ATOM     62  C   UNL A   1      44.049  31.616  28.878  1.00  0.00     0.031 C 
ATOM     63  C   UNL A   1      46.451  31.625  28.253  1.00  0.00     0.037 A 
BRANCH  50  64
ATOM     64  C   UNL A   1      50.952  28.114  25.897  1.00  0.00     0.064 A 
ATOM     65  C   UNL A   1      51.929  27.883  26.878  1.00  0.00     0.173 A 
ATOM     66  C   UNL A   1      51.383  28.291  24.574  1.00  0.00     0.173 A 
ATOM     67  F   UNL A   1      51.572  27.708  28.160  1.00  0.00    -0.203 F 
ATOM     68  C   UNL A   1      53.281  27.853  26.552  1.00  0.00     0.198 A 
ATOM     69  C   UNL A   1      52.735  28.227  24.245  1.00  0.00     0.198 A 
ATOM     70  F   UNL A   1      50.490  28.499  23.594  1.00  0.00    -0.203 F 
ATOM     71  F   UNL A   1      54.197  27.669  27.514  1.00  0.00    -0.200 F 
ATOM     72  C   UNL A   1      53.683  28.020  25.235  1.00  0.00     0.200 A 
ATOM     73  F   UNL A   1      53.120  28.360  22.969  1.00  0.00    -0.200 F 
ATOM     74  F   UNL A   1      54.985  27.978  24.920  1.00  0.00    -0.200 F 
ENDBRANCH  50  64
BRANCH  51  75
ATOM     75  C   UNL A   1      41.285  28.447  28.393  1.00  0.00     0.064 A 
ATOM     76  C   UNL A   1      40.335  28.968  27.502  1.00  0.00     0.173 A 
ATOM     77  C   UNL A   1      40.833  28.015  29.647  1.00  0.00     0.173 A 
ATOM     78  F   UNL A   1      40.714  29.392  26.287  1.00  0.00    -0.203 F 
ATOM     79  C   UNL A   1      38.994  29.085  27.864  1.00  0.00     0.198 A 
ATOM     80  C   UNL A   1      39.488  28.107  29.998  1.00  0.00     0.198 A 
ATOM     81  F   UNL A   1      41.698  27.485  30.523  1.00  0.00    -0.203 F 
ATOM     82  F   UNL A   1      38.116  29.628  27.011  1.00  0.00    -0.200 F 
ATOM     83  C   UNL A   1      38.571  28.653  29.112  1.00  0.00     0.200 A 
ATOM     84  F   UNL A   1      39.078  27.665  31.195  1.00  0.00    -0.200 F 
ATOM     85  F   UNL A   1      37.283  28.762  29.459  1.00  0.00    -0.200 F 
ENDBRANCH  51  75
BRANCH  63  86
ATOM     86  C   UNL A   1      46.544  33.050  28.724  1.00  0.00     0.064 A 
ATOM     87  C   UNL A   1      46.261  34.109  27.845  1.00  0.00     0.173 A 
ATOM     88  C   UNL A   1      46.995  33.371  30.013  1.00  0.00     0.173 A 
ATOM     89  F   UNL A   1      45.837  33.858  26.598  1.00  0.00    -0.203 F 
ATOM     90  C   UNL A   1      46.446  35.433  28.233  1.00  0.00     0.198 A 
ATOM     91  C   UNL A   1      47.145  34.698  30.409  1.00  0.00     0.198 A 
ATOM     92  F   UNL A   1      47.271  32.398  30.894  1.00  0.00    -0.203 F 
ATOM     93  F   UNL A   1      46.211  36.424  27.362  1.00  0.00    -0.200 F 
ATOM     94  C   UNL A   1      46.881  35.727  29.516  1.00  0.00     0.200 A 
ATOM     95  F   UNL A   1      47.542  34.982  31.657  1.00  0.00    -0.200 F 
ATOM     96  F   UNL A   1      47.047  37.003  29.893  1.00  0.00    -0.200 F 
ENDBRANCH  63  86
ENDBRANCH  37  38
ENDBRANCH  30  32
ENDBRANCH  29  30
ENDBRANCH  28  29
ENDBRANCH  27  28
ENDBRANCH  26  27
ENDBRANCH  25  26
ENDBRANCH  24  25
ENDBRANCH  23  24
ENDBRANCH   1  23
TORSDOF 23
ENDMDL
MODEL 3
REMARK VINA RESULT:      -8.6      5.342      8.578
REMARK SMILES CCCC1CN(c2cc(C(=O)OCCOCCOCCOCCOC(=O)c3ccc(-c4c5nc(c(-c6c(F)c(F)c(F)c(F)c6F)c6ccc([nH]6)c(-c6c(F)c(F)c(F)c(F)c6F)c6nc(c(-c7c(F)c(F)c(F)c(F)c7F)c7ccc4[nH]7)C=C6)C=C5)cc3)ccc2F)C1
REMARK SMILES IDX 17 1 16 2 15 3 14 4 13 5 12 6 10 7 11 8 9 9 7 10 8 11 92 12
REMARK SMILES IDX 91 13 93 14 90 15 6 16 4 17 5 18 94 19 3 20 2 21 1 22 18 23
REMARK SMILES IDX 19 24 20 25 21 26 22 27 23 28 24 29 25 30 26 31 27 32 28 33
REMARK SMILES IDX 89 34 29 35 88 36 30 37 31 38 32 39 82 40 33 41 87 42 81 43
REMARK SMILES IDX 83 44 34 45 86 46 80 47 79 48 35 50 67 51 47 52 66 53 48 54
REMARK SMILES IDX 51 55 65 56 84 57 49 58 50 59 64 61 85 62 52 63 36 64 37 65
REMARK SMILES IDX 45 66 38 67 39 68 43 69 46 70 40 71 41 72 44 73 42 74 68 75
REMARK SMILES IDX 69 76 77 77 70 78 71 79 75 80 78 81 72 82 73 83 76 84 74 85
REMARK SMILES IDX 53 86 54 87 62 88 55 89 56 90 60 91 63 92 57 93 58 94 61 95
REMARK SMILES IDX 59 96
REMARK H PARENT 83 49 51 60
REMARK Flexibility Score: inf
ROOT
ATOM      1  C   UNL A   1      41.807  18.676  25.794  1.00  0.00     0.188 C 
ENDROOT
BRANCH   1   2
ATOM      2  C   UNL A   1      40.570  19.559  26.057  1.00  0.00     0.188 C 
BRANCH   2   3
ATOM      3  O   UNL A   1      40.857  20.946  26.008  1.00  0.00    -0.376 OA
BRANCH   3   4
ATOM      4  C   UNL A   1      40.725  21.731  27.177  1.00  0.00     0.202 C 
BRANCH   4   5
ATOM      5  C   UNL A   1      39.776  22.939  27.210  1.00  0.00     0.261 C 
BRANCH   5   6
ATOM      6  O   UNL A   1      38.612  22.870  26.381  1.00  0.00    -0.460 OA
BRANCH   6   7
ATOM      7  C   UNL A   1      37.813  23.955  26.312  1.00  0.00     0.338 C 
ATOM      8  O   UNL A   1      38.152  25.123  26.423  1.00  0.00    -0.246 OA
BRANCH   7   9
ATOM      9  C   UNL A   1      36.474  23.491  25.871  1.00  0.00     0.062 A 
ATOM     10  C   UNL A   1      34.980  21.660  25.318  1.00  0.00     0.074 A 
ATOM     11  C   UNL A   1      36.250  22.114  25.684  1.00  0.00     0.044 A 
ATOM     12  C   UNL A   1      33.953  22.607  25.144  1.00  0.00     0.146 A 
ATOM     13  C   UNL A   1      34.160  23.964  25.354  1.00  0.00     0.042 A 
ATOM     14  F   UNL A   1      32.731  22.200  24.770  1.00  0.00    -0.205 F 
ATOM     15  C   UNL A   1      35.425  24.412  25.721  1.00  0.00     0.019 A 
BRANCH  10  16
ATOM     16  N   UNL A   1      34.691  20.321  25.046  1.00  0.00    -0.368 N 
ATOM     17  C   UNL A   1      34.144  18.433  24.530  1.00  0.00     0.028 C 
ATOM     18  C   UNL A   1      35.477  19.138  24.912  1.00  0.00     0.122 C 
ATOM     19  C   UNL A   1      33.670  19.850  24.170  1.00  0.00     0.122 C 
BRANCH  17  20
ATOM     20  C   UNL A   1      34.174  17.347  23.466  1.00  0.00     0.007 C 
BRANCH  20  21
ATOM     21  C   UNL A   1      33.370  16.108  23.876  1.00  0.00    -0.003 C 
ATOM     22  C   UNL A   1      33.346  15.867  25.381  1.00  0.00     0.004 C 
ENDBRANCH  20  21
ENDBRANCH  17  20
ENDBRANCH  10  16
ENDBRANCH   7   9
ENDBRANCH   6   7
ENDBRANCH   5   6
ENDBRANCH   4   5
ENDBRANCH   3   4
ENDBRANCH   2   3
ENDBRANCH   1   2
BRANCH   1  23
ATOM     23  O   UNL A   1      42.847  19.240  25.011  1.00  0.00    -0.377 OA
BRANCH  23  24
ATOM     24  C   UNL A   1      44.192  18.798  25.194  1.00  0.00     0.188 C 
BRANCH  24  25
ATOM     25  C   UNL A   1      45.361  19.242  24.279  1.00  0.00     0.188 C 
BRANCH  25  26
ATOM     26  O   UNL A   1      45.565  20.642  24.198  1.00  0.00    -0.376 OA
BRANCH  26  27
ATOM     27  C   UNL A   1      46.052  21.320  25.340  1.00  0.00     0.202 C 
BRANCH  27  28
ATOM     28  C   UNL A   1      45.679  22.803  25.466  1.00  0.00     0.261 C 
BRANCH  28  29
ATOM     29  O   UNL A   1      44.397  23.073  26.056  1.00  0.00    -0.460 OA
BRANCH  29  30
ATOM     30  C   UNL A   1      43.797  24.224  25.693  1.00  0.00     0.338 C 
ATOM     31  O   UNL A   1      43.340  24.508  24.595  1.00  0.00    -0.246 OA
BRANCH  30  32
ATOM     32  C   UNL A   1      43.609  25.045  26.903  1.00  0.00     0.060 A 
ATOM     33  C   UNL A   1      42.884  24.509  27.975  1.00  0.00     0.016 A 
ATOM     34  C   UNL A   1      44.128  26.339  26.972  1.00  0.00     0.016 A 
ATOM     35  C   UNL A   1      42.623  25.292  29.096  1.00  0.00     0.010 A 
ATOM     36  C   UNL A   1      43.853  27.130  28.090  1.00  0.00     0.010 A 
ATOM     37  C   UNL A   1      43.057  26.624  29.134  1.00  0.00    -0.014 A 
BRANCH  37  38
ATOM     38  C   UNL A   1      42.498  27.533  30.164  1.00  0.00     0.031 A 
ATOM     39  C   UNL A   1      43.240  27.686  31.463  1.00  0.00     0.074 A 
ATOM     40  C   UNL A   1      41.393  28.259  29.925  1.00  0.00     0.049 A 
ATOM     41  N   UNL A   1      42.964  28.442  32.494  1.00  0.00    -0.248 NA
ATOM     42  C   UNL A   1      44.460  26.878  31.620  1.00  0.00     0.031 C 
ATOM     43  C   UNL A   1      40.616  28.228  28.689  1.00  0.00     0.029 A 
ATOM     44  N   UNL A   1      40.740  29.173  30.713  1.00  0.00    -0.354 N 
ATOM     45  C   UNL A   1      43.973  28.200  33.417  1.00  0.00     0.074 A 
ATOM     46  C   UNL A   1      44.844  27.199  32.846  1.00  0.00     0.031 C 
ATOM     47  C   UNL A   1      39.593  29.093  28.798  1.00  0.00     0.029 A 
ATOM     48  C   UNL A   1      39.627  29.714  30.122  1.00  0.00     0.049 A 
ATOM     49  H   UNL A   1      41.042  29.418  31.618  1.00  0.00     0.167 HD
ATOM     50  C   UNL A   1      44.163  28.776  34.628  1.00  0.00     0.037 A 
ATOM     51  C   UNL A   1      38.733  30.604  30.598  1.00  0.00     0.037 A 
ATOM     52  C   UNL A   1      43.296  29.777  35.189  1.00  0.00     0.049 A 
ATOM     53  C   UNL A   1      38.925  31.178  31.978  1.00  0.00     0.074 A 
ATOM     54  C   UNL A   1      43.416  30.439  36.398  1.00  0.00     0.029 A 
ATOM     55  N   UNL A   1      42.144  30.257  34.583  1.00  0.00    -0.354 N 
ATOM     56  N   UNL A   1      39.892  30.964  32.837  1.00  0.00    -0.248 NA
ATOM     57  C   UNL A   1      37.904  32.123  32.454  1.00  0.00     0.031 C 
ATOM     58  C   UNL A   1      42.303  31.267  36.555  1.00  0.00     0.029 A 
ATOM     59  C   UNL A   1      41.525  31.180  35.411  1.00  0.00     0.049 A 
ATOM     60  H   UNL A   1      41.815  29.983  33.697  1.00  0.00     0.167 HD
ATOM     61  C   UNL A   1      39.611  31.760  33.940  1.00  0.00     0.074 A 
ATOM     62  C   UNL A   1      38.390  32.475  33.637  1.00  0.00     0.031 C 
ATOM     63  C   UNL A   1      40.307  31.886  35.098  1.00  0.00     0.037 A 
BRANCH  50  64
ATOM     64  C   UNL A   1      45.340  28.324  35.441  1.00  0.00     0.064 A 
ATOM     65  C   UNL A   1      45.210  27.258  36.344  1.00  0.00     0.173 A 
ATOM     66  C   UNL A   1      46.580  28.979  35.377  1.00  0.00     0.173 A 
ATOM     67  F   UNL A   1      44.046  26.597  36.447  1.00  0.00    -0.203 F 
ATOM     68  C   UNL A   1      46.268  26.876  37.164  1.00  0.00     0.198 A 
ATOM     69  C   UNL A   1      47.648  28.573  36.175  1.00  0.00     0.198 A 
ATOM     70  F   UNL A   1      46.764  29.995  34.521  1.00  0.00    -0.203 F 
ATOM     71  F   UNL A   1      46.106  25.878  38.044  1.00  0.00    -0.200 F 
ATOM     72  C   UNL A   1      47.487  27.531  37.075  1.00  0.00     0.200 A 
ATOM     73  F   UNL A   1      48.833  29.188  36.068  1.00  0.00    -0.200 F 
ATOM     74  F   UNL A   1      48.510  27.154  37.855  1.00  0.00    -0.200 F 
ENDBRANCH  50  64
BRANCH  51  75
ATOM     75  C   UNL A   1      37.588  31.015  29.745  1.00  0.00     0.064 A 
ATOM     76  C   UNL A   1      36.514  30.145  29.501  1.00  0.00     0.173 A 
ATOM     77  C   UNL A   1      37.562  32.271  29.124  1.00  0.00     0.173 A 
ATOM     78  F   UNL A   1      36.488  28.933  30.074  1.00  0.00    -0.203 F 
ATOM     79  C   UNL A   1      35.476  30.505  28.644  1.00  0.00     0.198 A 
ATOM     80  C   UNL A   1      36.510  32.640  28.289  1.00  0.00     0.198 A 
ATOM     81  F   UNL A   1      38.552  33.148  29.347  1.00  0.00    -0.203 F 
ATOM     82  F   UNL A   1      34.486  29.637  28.394  1.00  0.00    -0.200 F 
ATOM     83  C   UNL A   1      35.473  31.752  28.039  1.00  0.00     0.200 A 
ATOM     84  F   UNL A   1      36.497  33.856  27.727  1.00  0.00    -0.200 F 
ATOM     85  F   UNL A   1      34.474  32.099  27.218  1.00  0.00    -0.200 F 
ENDBRANCH  51  75
BRANCH  63  86
ATOM     86  C   UNL A   1      39.786  32.848  36.130  1.00  0.00     0.064 A 
ATOM     87  C   UNL A   1      40.340  34.133  36.247  1.00  0.00     0.173 A 
ATOM     88  C   UNL A   1      38.802  32.471  37.057  1.00  0.00     0.173 A 
ATOM     89  F   UNL A   1      41.291  34.540  35.395  1.00  0.00    -0.203 F 
ATOM     90  C   UNL A   1      39.943  34.996  37.266  1.00  0.00     0.198 A 
ATOM     91  C   UNL A   1      38.383  33.351  38.053  1.00  0.00     0.198 A 
ATOM     92  F   UNL A   1      38.234  31.258  36.984  1.00  0.00    -0.203 F 
ATOM     93  F   UNL A   1      40.519  36.201  37.383  1.00  0.00    -0.200 F 
ATOM     94  C   UNL A   1      38.961  34.607  38.163  1.00  0.00     0.200 A 
ATOM     95  F   UNL A   1      37.416  32.983  38.905  1.00  0.00    -0.200 F 
ATOM     96  F   UNL A   1      38.571  35.443  39.135  1.00  0.00    -0.200 F 
ENDBRANCH  63  86
ENDBRANCH  37  38
ENDBRANCH  30  32
ENDBRANCH  29  30
ENDBRANCH  28  29
ENDBRANCH  27  28
ENDBRANCH  26  27
ENDBRANCH  25  26
ENDBRANCH  24  25
ENDBRANCH  23  24
ENDBRANCH   1  23
TORSDOF 23
ENDMDL
