MODEL 1
REMARK VINA RESULT:     -11.1      0.000      0.000
REMARK SMILES Cc1cc(Cl)c2c(c1)C=C(C(=O)OCCOCCOCCOCCOC(=O)c1ccc(-c3c4nc(c(-c5c(F)c(F)c(F)c(F)c5F)c5ccc([nH]5)c(-c5c(F)c(F)c(F)c(F)c5F)c5nc(c(-c6c(F)c(F)c(F)c(F)c6F)c6ccc3[nH]6)C=C5)C=C4)cc1)[C@@H](C(F)(F)F)O2
REMARK SMILES IDX 20 1 19 2 18 3 17 4 16 5 15 6 14 7 13 8 11 9 12 10 10 11
REMARK SMILES IDX 1 12 2 13 3 14 8 15 4 16 7 17 5 18 6 19 9 20 96 21 91 22
REMARK SMILES IDX 92 23 93 24 94 25 95 26 21 27 22 28 23 29 24 30 25 31 26 32
REMARK SMILES IDX 27 33 28 34 29 35 90 36 30 37 89 38 31 39 32 40 33 41 83 42
REMARK SMILES IDX 34 43 88 44 82 45 84 46 35 47 87 48 81 49 80 50 36 52 68 53
REMARK SMILES IDX 48 54 67 55 49 56 52 57 66 58 85 59 50 60 51 61 65 63 86 64
REMARK SMILES IDX 53 65 37 66 38 67 46 68 39 69 40 70 44 71 47 72 41 73 42 74
REMARK SMILES IDX 45 75 43 76 69 77 70 78 78 79 71 80 72 81 76 82 79 83 73 84
REMARK SMILES IDX 74 85 77 86 75 87 54 88 55 89 63 90 56 91 57 92 61 93 64 94
REMARK SMILES IDX 58 95 59 96 62 97 60 98
REMARK H PARENT 84 51 52 62
REMARK Flexibility Score: inf
ROOT
ATOM      1  C   UNL A   1      33.979  31.687  28.041  1.00  0.00     0.188 C 
ENDROOT
BRANCH   1   2
ATOM      2  O   UNL A   1      33.831  30.708  27.013  1.00  0.00    -0.377 OA
BRANCH   2   3
ATOM      3  C   UNL A   1      32.520  30.466  26.524  1.00  0.00     0.188 C 
BRANCH   3   4
ATOM      4  C   UNL A   1      32.499  29.612  25.242  1.00  0.00     0.188 C 
BRANCH   4   5
ATOM      5  O   UNL A   1      33.667  28.852  25.001  1.00  0.00    -0.376 OA
BRANCH   5   6
ATOM      6  C   UNL A   1      34.089  28.473  23.701  1.00  0.00     0.202 C 
BRANCH   6   7
ATOM      7  C   UNL A   1      33.188  28.177  22.485  1.00  0.00     0.261 C 
BRANCH   7   8
ATOM      8  O   UNL A   1      32.350  27.028  22.534  1.00  0.00    -0.460 OA
BRANCH   8   9
ATOM      9  C   UNL A   1      32.875  25.874  22.087  1.00  0.00     0.338 C 
ATOM     10  O   UNL A   1      33.198  25.610  20.943  1.00  0.00    -0.246 OA
BRANCH   9  11
ATOM     11  C   UNL A   1      33.166  25.029  23.265  1.00  0.00     0.087 C 
ATOM     12  C   UNL A   1      36.675  20.280  24.937  1.00  0.00     0.044 C 
ATOM     13  C   UNL A   1      35.659  21.364  25.136  1.00  0.00    -0.049 A 
ATOM     14  C   UNL A   1      34.866  21.418  26.288  1.00  0.00     0.028 A 
ATOM     15  C   UNL A   1      35.472  22.327  24.139  1.00  0.00     0.015 A 
ATOM     16  C   UNL A   1      33.906  22.426  26.438  1.00  0.00     0.084 A 
ATOM     17  C   UNL A   1      34.474  23.300  24.264  1.00  0.00     0.019 A 
ATOM     18  Cl  UNL A   1      32.949  22.432  27.876  1.00  0.00    -0.080 Cl
ATOM     19  C   UNL A   1      33.702  23.372  25.427  1.00  0.00     0.146 A 
ATOM     20  C   UNL A   1      34.188  24.175  23.144  1.00  0.00     0.027 C 
ATOM     21  O   UNL A   1      32.742  24.328  25.621  1.00  0.00    -0.474 OA
ATOM     22  C   UNL A   1      32.368  25.208  24.528  1.00  0.00     0.316 C 
BRANCH  22  23
ATOM     23  C   UNL A   1      30.861  25.065  24.280  1.00  0.00     0.430 C 
ATOM     24  F   UNL A   1      30.262  24.341  25.255  1.00  0.00    -0.167 F 
ATOM     25  F   UNL A   1      30.239  26.268  24.254  1.00  0.00    -0.167 F 
ATOM     26  F   UNL A   1      30.605  24.454  23.101  1.00  0.00    -0.167 F 
ENDBRANCH  22  23
ENDBRANCH   9  11
ENDBRANCH   8   9
ENDBRANCH   7   8
ENDBRANCH   6   7
ENDBRANCH   5   6
ENDBRANCH   4   5
ENDBRANCH   3   4
ENDBRANCH   2   3
ENDBRANCH   1   2
BRANCH   1  27
ATOM     27  C   UNL A   1      33.472  33.136  27.848  1.00  0.00     0.188 C 
BRANCH  27  28
ATOM     28  O   UNL A   1      34.214  34.115  28.563  1.00  0.00    -0.376 OA
BRANCH  28  29
ATOM     29  C   UNL A   1      33.710  34.606  29.791  1.00  0.00     0.202 C 
BRANCH  29  30
ATOM     30  C   UNL A   1      34.467  34.193  31.060  1.00  0.00     0.261 C 
BRANCH  30  31
ATOM     31  O   UNL A   1      34.713  32.789  31.208  1.00  0.00    -0.460 OA
BRANCH  31  32
ATOM     32  C   UNL A   1      35.535  32.411  32.208  1.00  0.00     0.338 C 
ATOM     33  O   UNL A   1      35.362  32.561  33.407  1.00  0.00    -0.246 OA
BRANCH  32  34
ATOM     34  C   UNL A   1      36.621  31.609  31.615  1.00  0.00     0.060 A 
ATOM     35  C   UNL A   1      37.511  30.933  32.460  1.00  0.00     0.016 A 
ATOM     36  C   UNL A   1      36.760  31.535  30.227  1.00  0.00     0.016 A 
ATOM     37  C   UNL A   1      38.576  30.215  31.917  1.00  0.00     0.010 A 
ATOM     38  C   UNL A   1      37.840  30.838  29.686  1.00  0.00     0.010 A 
ATOM     39  C   UNL A   1      38.772  30.209  30.531  1.00  0.00    -0.014 A 
BRANCH  39  40
ATOM     40  C   UNL A   1      40.050  29.727  29.961  1.00  0.00     0.031 A 
ATOM     41  C   UNL A   1      41.187  30.703  29.848  1.00  0.00     0.074 A 
ATOM     42  C   UNL A   1      40.195  28.458  29.546  1.00  0.00     0.049 A 
ATOM     43  N   UNL A   1      42.348  30.565  29.264  1.00  0.00    -0.248 NA
ATOM     44  C   UNL A   1      40.984  32.018  30.483  1.00  0.00     0.031 C 
ATOM     45  C   UNL A   1      39.188  27.408  29.669  1.00  0.00     0.029 A 
ATOM     46  N   UNL A   1      41.251  27.845  28.919  1.00  0.00    -0.354 N 
ATOM     47  C   UNL A   1      43.007  31.773  29.452  1.00  0.00     0.074 A 
ATOM     48  C   UNL A   1      42.113  32.641  30.184  1.00  0.00     0.031 C 
ATOM     49  C   UNL A   1      39.667  26.281  29.113  1.00  0.00     0.029 A 
ATOM     50  C   UNL A   1      40.992  26.546  28.556  1.00  0.00     0.049 A 
ATOM     51  H   UNL A   1      42.111  28.293  28.747  1.00  0.00     0.167 HD
ATOM     52  C   UNL A   1      44.252  32.120  29.050  1.00  0.00     0.037 A 
ATOM     53  C   UNL A   1      41.730  25.687  27.826  1.00  0.00     0.037 A 
ATOM     54  C   UNL A   1      45.132  31.250  28.316  1.00  0.00     0.049 A 
ATOM     55  C   UNL A   1      43.076  26.131  27.309  1.00  0.00     0.074 A 
ATOM     56  C   UNL A   1      46.408  31.509  27.850  1.00  0.00     0.029 A 
ATOM     57  N   UNL A   1      44.824  29.950  27.938  1.00  0.00    -0.354 N 
ATOM     58  N   UNL A   1      43.691  27.278  27.471  1.00  0.00    -0.248 NA
ATOM     59  C   UNL A   1      43.832  25.156  26.508  1.00  0.00     0.031 C 
ATOM     60  C   UNL A   1      46.850  30.388  27.142  1.00  0.00     0.029 A 
ATOM     61  C   UNL A   1      45.879  29.402  27.229  1.00  0.00     0.049 A 
ATOM     62  H   UNL A   1      43.979  29.487  28.143  1.00  0.00     0.167 HD
ATOM     63  C   UNL A   1      44.917  27.150  26.829  1.00  0.00     0.074 A 
ATOM     64  C   UNL A   1      44.962  25.810  26.283  1.00  0.00     0.031 C 
ATOM     65  C   UNL A   1      45.917  28.059  26.706  1.00  0.00     0.037 A 
BRANCH  52  66
ATOM     66  C   UNL A   1      44.736  33.504  29.371  1.00  0.00     0.064 A 
ATOM     67  C   UNL A   1      45.529  33.764  30.499  1.00  0.00     0.173 A 
ATOM     68  C   UNL A   1      44.472  34.567  28.495  1.00  0.00     0.173 A 
ATOM     69  F   UNL A   1      45.794  32.786  31.378  1.00  0.00    -0.203 F 
ATOM     70  C   UNL A   1      46.037  35.037  30.738  1.00  0.00     0.198 A 
ATOM     71  C   UNL A   1      45.007  35.833  28.721  1.00  0.00     0.198 A 
ATOM     72  F   UNL A   1      43.716  34.373  27.404  1.00  0.00    -0.203 F 
ATOM     73  F   UNL A   1      46.769  35.270  31.837  1.00  0.00    -0.200 F 
ATOM     74  C   UNL A   1      45.787  36.067  29.842  1.00  0.00     0.200 A 
ATOM     75  F   UNL A   1      44.776  36.821  27.847  1.00  0.00    -0.200 F 
ATOM     76  F   UNL A   1      46.299  37.286  30.061  1.00  0.00    -0.200 F 
ENDBRANCH  52  66
BRANCH  53  77
ATOM     77  C   UNL A   1      41.212  24.324  27.537  1.00  0.00     0.064 A 
ATOM     78  C   UNL A   1      41.781  23.193  28.137  1.00  0.00     0.173 A 
ATOM     79  C   UNL A   1      40.140  24.122  26.654  1.00  0.00     0.173 A 
ATOM     80  F   UNL A   1      42.826  23.330  28.966  1.00  0.00    -0.203 F 
ATOM     81  C   UNL A   1      41.306  21.913  27.859  1.00  0.00     0.198 A 
ATOM     82  C   UNL A   1      39.644  22.844  26.402  1.00  0.00     0.198 A 
ATOM     83  F   UNL A   1      39.560  25.170  26.049  1.00  0.00    -0.203 F 
ATOM     84  F   UNL A   1      41.898  20.847  28.413  1.00  0.00    -0.200 F 
ATOM     85  C   UNL A   1      40.232  21.740  26.999  1.00  0.00     0.200 A 
ATOM     86  F   UNL A   1      38.597  22.684  25.581  1.00  0.00    -0.200 F 
ATOM     87  F   UNL A   1      39.770  20.509  26.740  1.00  0.00    -0.200 F 
ENDBRANCH  53  77
BRANCH  65  88
ATOM     88  C   UNL A   1      47.173  27.624  26.005  1.00  0.00     0.064 A 
ATOM     89  C   UNL A   1      48.259  27.072  26.699  1.00  0.00     0.173 A 
ATOM     90  C   UNL A   1      47.268  27.715  24.606  1.00  0.00     0.173 A 
ATOM     91  F   UNL A   1      48.224  26.969  28.037  1.00  0.00    -0.203 F 
ATOM     92  C   UNL A   1      49.405  26.661  26.025  1.00  0.00     0.198 A 
ATOM     93  C   UNL A   1      48.400  27.266  23.932  1.00  0.00     0.198 A 
ATOM     94  F   UNL A   1      46.253  28.221  23.890  1.00  0.00    -0.203 F 
ATOM     95  F   UNL A   1      50.454  26.188  26.715  1.00  0.00    -0.200 F 
ATOM     96  C   UNL A   1      49.472  26.750  24.642  1.00  0.00     0.200 A 
ATOM     97  F   UNL A   1      48.451  27.334  22.594  1.00  0.00    -0.200 F 
ATOM     98  F   UNL A   1      50.572  26.343  23.995  1.00  0.00    -0.200 F 
ENDBRANCH  65  88
ENDBRANCH  39  40
ENDBRANCH  32  34
ENDBRANCH  31  32
ENDBRANCH  30  31
ENDBRANCH  29  30
ENDBRANCH  28  29
ENDBRANCH  27  28
ENDBRANCH   1  27
TORSDOF 21
ENDMDL
MODEL 2
REMARK VINA RESULT:     -10.9      4.291      6.567
REMARK SMILES Cc1cc(Cl)c2c(c1)C=C(C(=O)OCCOCCOCCOCCOC(=O)c1ccc(-c3c4nc(c(-c5c(F)c(F)c(F)c(F)c5F)c5ccc([nH]5)c(-c5c(F)c(F)c(F)c(F)c5F)c5nc(c(-c6c(F)c(F)c(F)c(F)c6F)c6ccc3[nH]6)C=C5)C=C4)cc1)[C@@H](C(F)(F)F)O2
REMARK SMILES IDX 20 1 19 2 18 3 17 4 16 5 15 6 14 7 13 8 11 9 12 10 10 11
REMARK SMILES IDX 1 12 2 13 3 14 8 15 4 16 7 17 5 18 6 19 9 20 96 21 91 22
REMARK SMILES IDX 92 23 93 24 94 25 95 26 21 27 22 28 23 29 24 30 25 31 26 32
REMARK SMILES IDX 27 33 28 34 29 35 90 36 30 37 89 38 31 39 32 40 33 41 83 42
REMARK SMILES IDX 34 43 88 44 82 45 84 46 35 47 87 48 81 49 80 50 36 52 68 53
REMARK SMILES IDX 48 54 67 55 49 56 52 57 66 58 85 59 50 60 51 61 65 63 86 64
REMARK SMILES IDX 53 65 37 66 38 67 46 68 39 69 40 70 44 71 47 72 41 73 42 74
REMARK SMILES IDX 45 75 43 76 69 77 70 78 78 79 71 80 72 81 76 82 79 83 73 84
REMARK SMILES IDX 74 85 77 86 75 87 54 88 55 89 63 90 56 91 57 92 61 93 64 94
REMARK SMILES IDX 58 95 59 96 62 97 60 98
REMARK H PARENT 84 51 52 62
REMARK Flexibility Score: inf
ROOT
ATOM      1  C   UNL A   1      32.034  28.165  26.036  1.00  0.00     0.188 C 
ENDROOT
BRANCH   1   2
ATOM      2  O   UNL A   1      33.162  27.738  25.272  1.00  0.00    -0.377 OA
BRANCH   2   3
ATOM      3  C   UNL A   1      33.696  28.653  24.326  1.00  0.00     0.188 C 
BRANCH   3   4
ATOM      4  C   UNL A   1      33.179  28.414  22.894  1.00  0.00     0.188 C 
BRANCH   4   5
ATOM      5  O   UNL A   1      31.773  28.373  22.755  1.00  0.00    -0.376 OA
BRANCH   5   6
ATOM      6  C   UNL A   1      31.066  27.206  22.369  1.00  0.00     0.202 C 
BRANCH   6   7
ATOM      7  C   UNL A   1      30.775  25.969  23.243  1.00  0.00     0.261 C 
BRANCH   7   8
ATOM      8  O   UNL A   1      31.875  25.171  23.666  1.00  0.00    -0.460 OA
BRANCH   8   9
ATOM      9  C   UNL A   1      31.676  24.382  24.737  1.00  0.00     0.338 C 
ATOM     10  O   UNL A   1      30.641  24.242  25.361  1.00  0.00    -0.246 OA
BRANCH   9  11
ATOM     11  C   UNL A   1      32.895  23.566  24.923  1.00  0.00     0.087 C 
ATOM     12  C   UNL A   1      38.796  24.155  26.501  1.00  0.00     0.044 C 
ATOM     13  C   UNL A   1      37.561  23.414  26.082  1.00  0.00    -0.049 A 
ATOM     14  C   UNL A   1      37.618  22.080  25.662  1.00  0.00     0.028 A 
ATOM     15  C   UNL A   1      36.329  24.074  26.077  1.00  0.00     0.015 A 
ATOM     16  C   UNL A   1      36.455  21.419  25.252  1.00  0.00     0.084 A 
ATOM     17  C   UNL A   1      35.176  23.430  25.613  1.00  0.00     0.019 A 
ATOM     18  Cl  UNL A   1      36.591  19.776  24.733  1.00  0.00    -0.080 Cl
ATOM     19  C   UNL A   1      35.226  22.090  25.222  1.00  0.00     0.146 A 
ATOM     20  C   UNL A   1      33.950  24.189  25.457  1.00  0.00     0.027 C 
ATOM     21  O   UNL A   1      34.124  21.399  24.799  1.00  0.00    -0.474 OA
ATOM     22  C   UNL A   1      32.873  22.102  24.574  1.00  0.00     0.316 C 
BRANCH  22  23
ATOM     23  C   UNL A   1      32.433  21.863  23.124  1.00  0.00     0.430 C 
ATOM     24  F   UNL A   1      32.528  20.556  22.784  1.00  0.00    -0.167 F 
ATOM     25  F   UNL A   1      31.143  22.223  22.924  1.00  0.00    -0.167 F 
ATOM     26  F   UNL A   1      33.187  22.568  22.251  1.00  0.00    -0.167 F 
ENDBRANCH  22  23
ENDBRANCH   9  11
ENDBRANCH   8   9
ENDBRANCH   7   8
ENDBRANCH   6   7
ENDBRANCH   5   6
ENDBRANCH   4   5
ENDBRANCH   3   4
ENDBRANCH   2   3
ENDBRANCH   1   2
BRANCH   1  27
ATOM     27  C   UNL A   1      32.155  29.307  27.074  1.00  0.00     0.188 C 
BRANCH  27  28
ATOM     28  O   UNL A   1      32.423  30.583  26.510  1.00  0.00    -0.376 OA
BRANCH  28  29
ATOM     29  C   UNL A   1      31.403  31.565  26.502  1.00  0.00     0.202 C 
BRANCH  29  30
ATOM     30  C   UNL A   1      31.807  32.980  26.937  1.00  0.00     0.261 C 
BRANCH  30  31
ATOM     31  O   UNL A   1      33.211  33.264  26.901  1.00  0.00    -0.460 OA
BRANCH  31  32
ATOM     32  C   UNL A   1      33.753  33.825  28.001  1.00  0.00     0.338 C 
ATOM     33  O   UNL A   1      33.315  34.763  28.648  1.00  0.00    -0.246 OA
BRANCH  32  34
ATOM     34  C   UNL A   1      34.896  32.989  28.413  1.00  0.00     0.060 A 
ATOM     35  C   UNL A   1      34.671  31.656  28.779  1.00  0.00     0.016 A 
ATOM     36  C   UNL A   1      36.183  33.530  28.444  1.00  0.00     0.016 A 
ATOM     37  C   UNL A   1      35.733  30.868  29.223  1.00  0.00     0.010 A 
ATOM     38  C   UNL A   1      37.240  32.749  28.912  1.00  0.00     0.010 A 
ATOM     39  C   UNL A   1      37.010  31.429  29.339  1.00  0.00    -0.014 A 
BRANCH  39  40
ATOM     40  C   UNL A   1      38.069  30.720  30.092  1.00  0.00     0.031 A 
ATOM     41  C   UNL A   1      38.248  31.056  31.546  1.00  0.00     0.074 A 
ATOM     42  C   UNL A   1      38.858  29.809  29.499  1.00  0.00     0.049 A 
ATOM     43  N   UNL A   1      39.183  30.681  32.378  1.00  0.00    -0.248 NA
ATOM     44  C   UNL A   1      37.229  31.939  32.142  1.00  0.00     0.031 C 
ATOM     45  C   UNL A   1      38.732  29.354  28.117  1.00  0.00     0.029 A 
ATOM     46  N   UNL A   1      39.936  29.116  29.990  1.00  0.00    -0.354 N 
ATOM     47  C   UNL A   1      38.873  31.287  33.589  1.00  0.00     0.074 A 
ATOM     48  C   UNL A   1      37.676  32.072  33.382  1.00  0.00     0.031 C 
ATOM     49  C   UNL A   1      39.712  28.470  27.862  1.00  0.00     0.029 A 
ATOM     50  C   UNL A   1      40.558  28.336  29.047  1.00  0.00     0.049 A 
ATOM     51  H   UNL A   1      40.234  29.173  30.926  1.00  0.00     0.167 HD
ATOM     52  C   UNL A   1      39.529  31.190  34.768  1.00  0.00     0.037 A 
ATOM     53  C   UNL A   1      41.700  27.625  29.127  1.00  0.00     0.037 A 
ATOM     54  C   UNL A   1      40.723  30.410  34.962  1.00  0.00     0.049 A 
ATOM     55  C   UNL A   1      42.465  27.609  30.428  1.00  0.00     0.074 A 
ATOM     56  C   UNL A   1      41.473  30.255  36.113  1.00  0.00     0.029 A 
ATOM     57  N   UNL A   1      41.343  29.656  33.975  1.00  0.00    -0.354 N 
ATOM     58  N   UNL A   1      42.181  28.196  31.565  1.00  0.00    -0.248 NA
ATOM     59  C   UNL A   1      43.710  26.827  30.454  1.00  0.00     0.031 C 
ATOM     60  C   UNL A   1      42.577  29.454  35.810  1.00  0.00     0.029 A 
ATOM     61  C   UNL A   1      42.477  29.049  34.489  1.00  0.00     0.049 A 
ATOM     62  H   UNL A   1      41.025  29.568  33.048  1.00  0.00     0.167 HD
ATOM     63  C   UNL A   1      43.186  27.824  32.451  1.00  0.00     0.074 A 
ATOM     64  C   UNL A   1      44.082  26.953  31.719  1.00  0.00     0.031 C 
ATOM     65  C   UNL A   1      43.350  28.169  33.752  1.00  0.00     0.037 A 
BRANCH  52  66
ATOM     66  C   UNL A   1      38.991  31.958  35.940  1.00  0.00     0.064 A 
ATOM     67  C   UNL A   1      38.178  31.351  36.908  1.00  0.00     0.173 A 
ATOM     68  C   UNL A   1      39.362  33.296  36.139  1.00  0.00     0.173 A 
ATOM     69  F   UNL A   1      37.778  30.080  36.754  1.00  0.00    -0.203 F 
ATOM     70  C   UNL A   1      37.754  32.056  38.031  1.00  0.00     0.198 A 
ATOM     71  C   UNL A   1      38.962  33.990  37.278  1.00  0.00     0.198 A 
ATOM     72  F   UNL A   1      40.136  33.925  35.242  1.00  0.00    -0.203 F 
ATOM     73  F   UNL A   1      36.954  31.465  38.929  1.00  0.00    -0.200 F 
ATOM     74  C   UNL A   1      38.157  33.370  38.222  1.00  0.00     0.200 A 
ATOM     75  F   UNL A   1      39.365  35.253  37.467  1.00  0.00    -0.200 F 
ATOM     76  F   UNL A   1      37.770  34.039  39.317  1.00  0.00    -0.200 F 
ENDBRANCH  52  66
BRANCH  53  77
ATOM     77  C   UNL A   1      42.193  26.875  27.942  1.00  0.00     0.064 A 
ATOM     78  C   UNL A   1      42.960  27.508  26.955  1.00  0.00     0.173 A 
ATOM     79  C   UNL A   1      41.907  25.512  27.769  1.00  0.00     0.173 A 
ATOM     80  F   UNL A   1      43.236  28.816  27.060  1.00  0.00    -0.203 F 
ATOM     81  C   UNL A   1      43.412  26.812  25.836  1.00  0.00     0.198 A 
ATOM     82  C   UNL A   1      42.388  24.808  26.666  1.00  0.00     0.198 A 
ATOM     83  F   UNL A   1      41.173  24.857  28.681  1.00  0.00    -0.203 F 
ATOM     84  F   UNL A   1      44.105  27.453  24.887  1.00  0.00    -0.200 F 
ATOM     85  C   UNL A   1      43.134  25.460  25.698  1.00  0.00     0.200 A 
ATOM     86  F   UNL A   1      42.127  23.499  26.543  1.00  0.00    -0.200 F 
ATOM     87  F   UNL A   1      43.579  24.789  24.626  1.00  0.00    -0.200 F 
ENDBRANCH  53  77
BRANCH  65  88
ATOM     88  C   UNL A   1      44.507  27.562  34.494  1.00  0.00     0.064 A 
ATOM     89  C   UNL A   1      45.753  28.200  34.581  1.00  0.00     0.173 A 
ATOM     90  C   UNL A   1      44.348  26.342  35.173  1.00  0.00     0.173 A 
ATOM     91  F   UNL A   1      45.962  29.364  33.946  1.00  0.00    -0.203 F 
ATOM     92  C   UNL A   1      46.804  27.625  35.289  1.00  0.00     0.198 A 
ATOM     93  C   UNL A   1      45.390  25.790  35.912  1.00  0.00     0.198 A 
ATOM     94  F   UNL A   1      43.174  25.696  35.137  1.00  0.00    -0.203 F 
ATOM     95  F   UNL A   1      48.003  28.225  35.312  1.00  0.00    -0.200 F 
ATOM     96  C   UNL A   1      46.620  26.425  35.961  1.00  0.00     0.200 A 
ATOM     97  F   UNL A   1      45.201  24.641  36.578  1.00  0.00    -0.200 F 
ATOM     98  F   UNL A   1      47.631  25.879  36.650  1.00  0.00    -0.200 F 
ENDBRANCH  65  88
ENDBRANCH  39  40
ENDBRANCH  32  34
ENDBRANCH  31  32
ENDBRANCH  30  31
ENDBRANCH  29  30
ENDBRANCH  28  29
ENDBRANCH  27  28
ENDBRANCH   1  27
TORSDOF 21
ENDMDL
MODEL 3
REMARK VINA RESULT:     -10.9      1.255      7.277
REMARK SMILES Cc1cc(Cl)c2c(c1)C=C(C(=O)OCCOCCOCCOCCOC(=O)c1ccc(-c3c4nc(c(-c5c(F)c(F)c(F)c(F)c5F)c5ccc([nH]5)c(-c5c(F)c(F)c(F)c(F)c5F)c5nc(c(-c6c(F)c(F)c(F)c(F)c6F)c6ccc3[nH]6)C=C5)C=C4)cc1)[C@@H](C(F)(F)F)O2
REMARK SMILES IDX 20 1 19 2 18 3 17 4 16 5 15 6 14 7 13 8 11 9 12 10 10 11
REMARK SMILES IDX 1 12 2 13 3 14 8 15 4 16 7 17 5 18 6 19 9 20 96 21 91 22
REMARK SMILES IDX 92 23 93 24 94 25 95 26 21 27 22 28 23 29 24 30 25 31 26 32
REMARK SMILES IDX 27 33 28 34 29 35 90 36 30 37 89 38 31 39 32 40 33 41 83 42
REMARK SMILES IDX 34 43 88 44 82 45 84 46 35 47 87 48 81 49 80 50 36 52 68 53
REMARK SMILES IDX 48 54 67 55 49 56 52 57 66 58 85 59 50 60 51 61 65 63 86 64
REMARK SMILES IDX 53 65 37 66 38 67 46 68 39 69 40 70 44 71 47 72 41 73 42 74
REMARK SMILES IDX 45 75 43 76 69 77 70 78 78 79 71 80 72 81 76 82 79 83 73 84
REMARK SMILES IDX 74 85 77 86 75 87 54 88 55 89 63 90 56 91 57 92 61 93 64 94
REMARK SMILES IDX 58 95 59 96 62 97 60 98
REMARK H PARENT 84 51 52 62
REMARK Flexibility Score: inf
ROOT
ATOM      1  C   UNL A   1      35.239  31.644  28.969  1.00  0.00     0.188 C 
ENDROOT
BRANCH   1   2
ATOM      2  O   UNL A   1      35.087  31.235  27.610  1.00  0.00    -0.377 OA
BRANCH   2   3
ATOM      3  C   UNL A   1      34.185  30.171  27.344  1.00  0.00     0.188 C 
BRANCH   3   4
ATOM      4  C   UNL A   1      32.737  30.646  27.114  1.00  0.00     0.188 C 
BRANCH   4   5
ATOM      5  O   UNL A   1      31.783  29.619  26.935  1.00  0.00    -0.376 OA
BRANCH   5   6
ATOM      6  C   UNL A   1      32.122  28.316  26.486  1.00  0.00     0.202 C 
BRANCH   6   7
ATOM      7  C   UNL A   1      32.474  27.896  25.045  1.00  0.00     0.261 C 
BRANCH   7   8
ATOM      8  O   UNL A   1      33.595  27.041  24.851  1.00  0.00    -0.460 OA
BRANCH   8   9
ATOM      9  C   UNL A   1      33.621  26.325  23.712  1.00  0.00     0.338 C 
ATOM     10  O   UNL A   1      33.789  26.750  22.584  1.00  0.00    -0.246 OA
BRANCH   9  11
ATOM     11  C   UNL A   1      33.591  24.894  24.082  1.00  0.00     0.087 C 
ATOM     12  C   UNL A   1      37.353  20.093  24.754  1.00  0.00     0.044 C 
ATOM     13  C   UNL A   1      36.035  20.808  24.768  1.00  0.00    -0.049 A 
ATOM     14  C   UNL A   1      34.828  20.111  24.889  1.00  0.00     0.028 A 
ATOM     15  C   UNL A   1      36.003  22.199  24.626  1.00  0.00     0.015 A 
ATOM     16  C   UNL A   1      33.611  20.800  24.874  1.00  0.00     0.084 A 
ATOM     17  C   UNL A   1      34.783  22.881  24.555  1.00  0.00     0.019 A 
ATOM     18  Cl  UNL A   1      32.153  19.882  25.015  1.00  0.00    -0.080 Cl
ATOM     19  C   UNL A   1      33.579  22.189  24.705  1.00  0.00     0.146 A 
ATOM     20  C   UNL A   1      34.777  24.296  24.235  1.00  0.00     0.027 C 
ATOM     21  O   UNL A   1      32.360  22.810  24.685  1.00  0.00    -0.474 OA
ATOM     22  C   UNL A   1      32.270  24.214  24.326  1.00  0.00     0.316 C 
BRANCH  22  23
ATOM     23  C   UNL A   1      31.324  24.351  23.126  1.00  0.00     0.430 C 
ATOM     24  F   UNL A   1      31.989  24.240  21.952  1.00  0.00    -0.167 F 
ATOM     25  F   UNL A   1      30.371  23.389  23.124  1.00  0.00    -0.167 F 
ATOM     26  F   UNL A   1      30.689  25.546  23.125  1.00  0.00    -0.167 F 
ENDBRANCH  22  23
ENDBRANCH   9  11
ENDBRANCH   8   9
ENDBRANCH   7   8
ENDBRANCH   6   7
ENDBRANCH   5   6
ENDBRANCH   4   5
ENDBRANCH   3   4
ENDBRANCH   2   3
ENDBRANCH   1   2
BRANCH   1  27
ATOM     27  C   UNL A   1      34.611  32.961  29.485  1.00  0.00     0.188 C 
BRANCH  27  28
ATOM     28  O   UNL A   1      34.213  32.923  30.849  1.00  0.00    -0.376 OA
BRANCH  28  29
ATOM     29  C   UNL A   1      34.868  33.757  31.785  1.00  0.00     0.202 C 
BRANCH  29  30
ATOM     30  C   UNL A   1      35.203  33.134  33.147  1.00  0.00     0.261 C 
BRANCH  30  31
ATOM     31  O   UNL A   1      35.923  31.895  33.103  1.00  0.00    -0.460 OA
BRANCH  31  32
ATOM     32  C   UNL A   1      37.153  31.880  33.655  1.00  0.00     0.338 C 
ATOM     33  O   UNL A   1      37.456  32.177  34.800  1.00  0.00    -0.246 OA
BRANCH  32  34
ATOM     34  C   UNL A   1      38.073  31.260  32.683  1.00  0.00     0.060 A 
ATOM     35  C   UNL A   1      39.194  30.563  33.151  1.00  0.00     0.016 A 
ATOM     36  C   UNL A   1      37.827  31.379  31.313  1.00  0.00     0.016 A 
ATOM     37  C   UNL A   1      40.103  30.018  32.245  1.00  0.00     0.010 A 
ATOM     38  C   UNL A   1      38.750  30.856  30.407  1.00  0.00     0.010 A 
ATOM     39  C   UNL A   1      39.909  30.208  30.871  1.00  0.00    -0.014 A 
BRANCH  39  40
ATOM     40  C   UNL A   1      41.003  29.919  29.917  1.00  0.00     0.031 A 
ATOM     41  C   UNL A   1      41.074  28.541  29.320  1.00  0.00     0.074 A 
ATOM     42  C   UNL A   1      41.914  30.851  29.596  1.00  0.00     0.049 A 
ATOM     43  N   UNL A   1      42.005  28.003  28.577  1.00  0.00    -0.248 NA
ATOM     44  C   UNL A   1      39.937  27.647  29.604  1.00  0.00     0.031 C 
ATOM     45  C   UNL A   1      41.905  32.236  30.057  1.00  0.00     0.029 A 
ATOM     46  N   UNL A   1      43.039  30.760  28.813  1.00  0.00    -0.354 N 
ATOM     47  C   UNL A   1      41.572  26.711  28.312  1.00  0.00     0.074 A 
ATOM     48  C   UNL A   1      40.307  26.534  28.990  1.00  0.00     0.031 C 
ATOM     49  C   UNL A   1      42.989  32.864  29.566  1.00  0.00     0.029 A 
ATOM     50  C   UNL A   1      43.787  31.911  28.796  1.00  0.00     0.049 A 
ATOM     51  H   UNL A   1      43.284  29.949  28.313  1.00  0.00     0.167 HD
ATOM     52  C   UNL A   1      42.178  25.760  27.564  1.00  0.00     0.037 A 
ATOM     53  C   UNL A   1      44.996  32.150  28.250  1.00  0.00     0.037 A 
ATOM     54  C   UNL A   1      43.441  25.944  26.898  1.00  0.00     0.049 A 
ATOM     55  C   UNL A   1      45.695  31.043  27.501  1.00  0.00     0.074 A 
ATOM     56  C   UNL A   1      44.148  25.041  26.127  1.00  0.00     0.029 A 
ATOM     57  N   UNL A   1      44.187  27.115  26.929  1.00  0.00    -0.354 N 
ATOM     58  N   UNL A   1      45.294  29.817  27.267  1.00  0.00    -0.248 NA
ATOM     59  C   UNL A   1      47.016  31.358  26.937  1.00  0.00     0.031 C 
ATOM     60  C   UNL A   1      45.347  25.644  25.738  1.00  0.00     0.029 A 
ATOM     61  C   UNL A   1      45.355  26.948  26.204  1.00  0.00     0.049 A 
ATOM     62  H   UNL A   1      43.925  27.940  27.398  1.00  0.00     0.167 HD
ATOM     63  C   UNL A   1      46.291  29.227  26.497  1.00  0.00     0.074 A 
ATOM     64  C   UNL A   1      47.311  30.235  26.298  1.00  0.00     0.031 C 
ATOM     65  C   UNL A   1      46.354  27.967  26.000  1.00  0.00     0.037 A 
BRANCH  52  66
ATOM     66  C   UNL A   1      41.504  24.425  27.439  1.00  0.00     0.064 A 
ATOM     67  C   UNL A   1      40.347  24.255  26.664  1.00  0.00     0.173 A 
ATOM     68  C   UNL A   1      42.070  23.287  28.034  1.00  0.00     0.173 A 
ATOM     69  F   UNL A   1      39.756  25.313  26.091  1.00  0.00    -0.203 F 
ATOM     70  C   UNL A   1      39.781  22.995  26.492  1.00  0.00     0.198 A 
ATOM     71  C   UNL A   1      41.518  22.025  27.835  1.00  0.00     0.198 A 
ATOM     72  F   UNL A   1      43.174  23.396  28.787  1.00  0.00    -0.203 F 
ATOM     73  F   UNL A   1      38.659  22.858  25.771  1.00  0.00    -0.200 F 
ATOM     74  C   UNL A   1      40.374  21.879  27.066  1.00  0.00     0.200 A 
ATOM     75  F   UNL A   1      42.101  20.948  28.379  1.00  0.00    -0.200 F 
ATOM     76  F   UNL A   1      39.842  20.664  26.878  1.00  0.00    -0.200 F 
ENDBRANCH  52  66
BRANCH  53  77
ATOM     77  C   UNL A   1      45.624  33.490  28.396  1.00  0.00     0.064 A 
ATOM     78  C   UNL A   1      46.425  33.794  29.504  1.00  0.00     0.173 A 
ATOM     79  C   UNL A   1      45.436  34.494  27.433  1.00  0.00     0.173 A 
ATOM     80  F   UNL A   1      46.612  32.879  30.466  1.00  0.00    -0.203 F 
ATOM     81  C   UNL A   1      47.005  35.053  29.651  1.00  0.00     0.198 A 
ATOM     82  C   UNL A   1      46.043  35.741  27.564  1.00  0.00     0.198 A 
ATOM     83  F   UNL A   1      44.674  34.257  26.354  1.00  0.00    -0.203 F 
ATOM     84  F   UNL A   1      47.729  35.330  30.743  1.00  0.00    -0.200 F 
ATOM     85  C   UNL A   1      46.821  36.022  28.676  1.00  0.00     0.200 A 
ATOM     86  F   UNL A   1      45.873  36.670  26.613  1.00  0.00    -0.200 F 
ATOM     87  F   UNL A   1      47.388  37.229  28.813  1.00  0.00    -0.200 F 
ENDBRANCH  53  77
BRANCH  65  88
ATOM     88  C   UNL A   1      47.535  27.616  25.139  1.00  0.00     0.064 A 
ATOM     89  C   UNL A   1      47.513  27.775  23.746  1.00  0.00     0.173 A 
ATOM     90  C   UNL A   1      48.727  27.160  25.727  1.00  0.00     0.173 A 
ATOM     91  F   UNL A   1      46.399  28.200  23.131  1.00  0.00    -0.203 F 
ATOM     92  C   UNL A   1      48.626  27.458  22.972  1.00  0.00     0.198 A 
ATOM     93  C   UNL A   1      49.849  26.882  24.954  1.00  0.00     0.198 A 
ATOM     94  F   UNL A   1      48.808  27.004  27.057  1.00  0.00    -0.203 F 
ATOM     95  F   UNL A   1      48.564  27.565  21.636  1.00  0.00    -0.200 F 
ATOM     96  C   UNL A   1      49.796  27.020  23.576  1.00  0.00     0.200 A 
ATOM     97  F   UNL A   1      50.985  26.480  25.544  1.00  0.00    -0.200 F 
ATOM     98  F   UNL A   1      50.869  26.727  22.829  1.00  0.00    -0.200 F 
ENDBRANCH  65  88
ENDBRANCH  39  40
ENDBRANCH  32  34
ENDBRANCH  31  32
ENDBRANCH  30  31
ENDBRANCH  29  30
ENDBRANCH  28  29
ENDBRANCH  27  28
ENDBRANCH   1  27
TORSDOF 21
ENDMDL
