MODEL 1
REMARK VINA RESULT:     -11.9      0.000      0.000
REMARK SMILES Cc1ccc(-c2cc(Cl)cc3c2O[C@@H](C(F)(F)F)C(C(=O)OCCOCCOCCOCCOC(=O)c2ccc(-c4c5nc(c(-c6c(F)c(F)c(F)c(F)c6F)c6ccc([nH]6)c(-c6c(F)c(F)c(F)c(F)c6F)c6nc(c(-c7c(F)c(F)c(F)c(F)c7F)c7ccc4[nH]7)C=C6)C=C5)cc2)=C3)cc1
REMARK SMILES IDX 29 1 28 2 27 3 26 4 25 5 24 6 23 7 22 8 20 9 21 10 19 11
REMARK SMILES IDX 6 12 7 13 12 14 8 15 11 16 13 17 9 18 10 19 100 20 14 21
REMARK SMILES IDX 5 22 1 23 2 24 3 25 102 26 4 27 101 28 15 29 16 30 17 31
REMARK SMILES IDX 18 32 30 33 31 34 32 35 33 36 34 37 35 38 36 39 37 40 38 41
REMARK SMILES IDX 99 42 39 43 98 44 40 45 41 46 42 47 92 48 43 49 97 50 91 51
REMARK SMILES IDX 93 52 44 53 96 54 90 55 89 56 45 58 77 59 57 60 76 61 58 62
REMARK SMILES IDX 61 63 75 64 94 65 59 66 60 67 74 69 95 70 62 71 46 72 47 73
REMARK SMILES IDX 55 74 48 75 49 76 53 77 56 78 50 79 51 80 54 81 52 82 78 83
REMARK SMILES IDX 79 84 87 85 80 86 81 87 85 88 88 89 82 90 83 91 86 92 84 93
REMARK SMILES IDX 63 94 64 95 72 96 65 97 66 98 70 99 73 100 67 101 68 102
REMARK SMILES IDX 71 103 69 104
REMARK H PARENT 93 57 61 68
REMARK Flexibility Score: inf
ROOT
ATOM      1  C   UNL A   1      35.533  23.897  25.068  1.00  0.00     0.188 C 
ENDROOT
BRANCH   1   2
ATOM      2  O   UNL A   1      34.595  22.831  25.072  1.00  0.00    -0.377 OA
BRANCH   2   3
ATOM      3  C   UNL A   1      34.178  22.347  23.803  1.00  0.00     0.188 C 
BRANCH   3   4
ATOM      4  C   UNL A   1      32.798  22.723  23.256  1.00  0.00     0.188 C 
BRANCH   4   5
ATOM      5  O   UNL A   1      32.568  23.930  22.546  1.00  0.00    -0.376 OA
BRANCH   5   6
ATOM      6  C   UNL A   1      33.592  24.851  22.224  1.00  0.00     0.202 C 
BRANCH   6   7
ATOM      7  C   UNL A   1      33.284  26.348  21.839  1.00  0.00     0.261 C 
BRANCH   7   8
ATOM      8  O   UNL A   1      32.745  27.111  22.943  1.00  0.00    -0.460 OA
BRANCH   8   9
ATOM      9  C   UNL A   1      31.993  28.221  22.671  1.00  0.00     0.338 C 
ATOM     10  O   UNL A   1      32.404  29.300  22.318  1.00  0.00    -0.246 OA
BRANCH   9  11
ATOM     11  C   UNL A   1      30.530  27.773  22.558  1.00  0.00     0.087 C 
ATOM     12  C   UNL A   1      31.818  27.765  26.337  1.00  0.00     0.026 A 
ATOM     13  C   UNL A   1      32.036  26.475  26.873  1.00  0.00     0.033 A 
ATOM     14  C   UNL A   1      30.887  27.808  25.201  1.00  0.00     0.135 A 
ATOM     15  C   UNL A   1      31.507  25.313  26.312  1.00  0.00     0.042 A 
ATOM     16  C   UNL A   1      30.553  26.581  24.543  1.00  0.00     0.019 A 
ATOM     17  O   UNL A   1      30.301  28.963  24.576  1.00  0.00    -0.475 OA
ATOM     18  Cl  UNL A   1      31.902  23.793  27.005  1.00  0.00    -0.084 Cl
ATOM     19  C   UNL A   1      30.791  25.355  25.132  1.00  0.00     0.032 A 
ATOM     20  C   UNL A   1      30.172  26.590  23.097  1.00  0.00     0.027 C 
ATOM     21  C   UNL A   1      29.668  28.811  23.213  1.00  0.00     0.316 C 
BRANCH  12  22
ATOM     22  C   UNL A   1      32.918  28.716  26.900  1.00  0.00    -0.015 A 
ATOM     23  C   UNL A   1      35.860  31.861  27.999  1.00  0.00     0.044 C 
ATOM     24  C   UNL A   1      34.878  30.794  27.578  1.00  0.00    -0.051 A 
ATOM     25  C   UNL A   1      35.263  29.493  27.269  1.00  0.00     0.004 A 
ATOM     26  C   UNL A   1      33.522  31.070  27.487  1.00  0.00     0.004 A 
ATOM     27  C   UNL A   1      34.310  28.492  26.901  1.00  0.00     0.009 A 
ATOM     28  C   UNL A   1      32.572  30.068  27.180  1.00  0.00     0.009 A 
ENDBRANCH  12  22
BRANCH  21  29
ATOM     29  C   UNL A   1      29.384  29.965  22.174  1.00  0.00     0.430 C 
ATOM     30  F   UNL A   1      28.119  29.780  21.676  1.00  0.00    -0.167 F 
ATOM     31  F   UNL A   1      29.373  31.193  22.733  1.00  0.00    -0.167 F 
ATOM     32  F   UNL A   1      30.160  30.024  21.077  1.00  0.00    -0.167 F 
ENDBRANCH  21  29
ENDBRANCH   9  11
ENDBRANCH   8   9
ENDBRANCH   7   8
ENDBRANCH   6   7
ENDBRANCH   5   6
ENDBRANCH   4   5
ENDBRANCH   3   4
ENDBRANCH   2   3
ENDBRANCH   1   2
BRANCH   1  33
ATOM     33  C   UNL A   1      36.965  23.569  25.389  1.00  0.00     0.188 C 
BRANCH  33  34
ATOM     34  O   UNL A   1      36.960  22.191  25.727  1.00  0.00    -0.376 OA
BRANCH  34  35
ATOM     35  C   UNL A   1      38.176  21.497  25.529  1.00  0.00     0.202 C 
BRANCH  35  36
ATOM     36  C   UNL A   1      39.347  22.270  26.129  1.00  0.00     0.261 C 
BRANCH  36  37
ATOM     37  O   UNL A   1      40.227  21.306  26.757  1.00  0.00    -0.460 OA
BRANCH  37  38
ATOM     38  C   UNL A   1      41.479  21.217  26.226  1.00  0.00     0.338 C 
ATOM     39  O   UNL A   1      41.925  20.234  25.657  1.00  0.00    -0.246 OA
BRANCH  38  40
ATOM     40  C   UNL A   1      42.330  22.373  26.669  1.00  0.00     0.060 A 
ATOM     41  C   UNL A   1      42.436  22.684  28.037  1.00  0.00     0.016 A 
ATOM     42  C   UNL A   1      42.792  23.300  25.741  1.00  0.00     0.016 A 
ATOM     43  C   UNL A   1      42.870  23.961  28.463  1.00  0.00     0.010 A 
ATOM     44  C   UNL A   1      43.178  24.570  26.167  1.00  0.00     0.010 A 
ATOM     45  C   UNL A   1      43.181  24.946  27.525  1.00  0.00    -0.014 A 
BRANCH  45  46
ATOM     46  C   UNL A   1      43.352  26.406  27.805  1.00  0.00     0.031 A 
ATOM     47  C   UNL A   1      42.105  27.264  27.957  1.00  0.00     0.074 A 
ATOM     48  C   UNL A   1      44.539  26.828  28.340  1.00  0.00     0.049 A 
ATOM     49  N   UNL A   1      42.056  28.457  28.448  1.00  0.00    -0.248 NA
ATOM     50  C   UNL A   1      40.763  26.812  27.601  1.00  0.00     0.031 C 
ATOM     51  C   UNL A   1      44.756  27.995  29.208  1.00  0.00     0.029 A 
ATOM     52  N   UNL A   1      45.807  26.217  28.402  1.00  0.00    -0.354 N 
ATOM     53  C   UNL A   1      40.745  28.807  28.766  1.00  0.00     0.074 A 
ATOM     54  C   UNL A   1      39.979  27.761  28.141  1.00  0.00     0.031 C 
ATOM     55  C   UNL A   1      46.030  28.090  29.613  1.00  0.00     0.029 A 
ATOM     56  C   UNL A   1      46.749  27.221  28.741  1.00  0.00     0.049 A 
ATOM     57  H   UNL A   1      46.004  25.267  28.241  1.00  0.00     0.167 HD
ATOM     58  C   UNL A   1      40.520  29.889  29.598  1.00  0.00     0.037 A 
ATOM     59  C   UNL A   1      47.610  27.708  27.808  1.00  0.00     0.037 A 
ATOM     60  C   UNL A   1      41.791  30.618  29.833  1.00  0.00     0.049 A 
ATOM     61  C   UNL A   1      47.180  29.146  27.450  1.00  0.00     0.074 A 
ATOM     62  C   UNL A   1      42.494  31.082  30.931  1.00  0.00     0.029 A 
ATOM     63  N   UNL A   1      42.659  30.817  28.754  1.00  0.00    -0.354 N 
ATOM     64  N   UNL A   1      45.930  29.576  27.517  1.00  0.00    -0.248 NA
ATOM     65  C   UNL A   1      48.110  30.267  27.331  1.00  0.00     0.031 C 
ATOM     66  C   UNL A   1      43.840  31.346  30.535  1.00  0.00     0.029 A 
ATOM     67  C   UNL A   1      43.922  31.196  29.156  1.00  0.00     0.049 A 
ATOM     68  H   UNL A   1      42.397  30.701  27.811  1.00  0.00     0.167 HD
ATOM     69  C   UNL A   1      45.904  30.941  27.690  1.00  0.00     0.074 A 
ATOM     70  C   UNL A   1      47.289  31.330  27.468  1.00  0.00     0.031 C 
ATOM     71  C   UNL A   1      44.865  31.706  28.174  1.00  0.00     0.037 A 
BRANCH  58  72
ATOM     72  C   UNL A   1      39.225  30.215  30.408  1.00  0.00     0.064 A 
ATOM     73  C   UNL A   1      38.626  31.505  30.383  1.00  0.00     0.173 A 
ATOM     74  C   UNL A   1      38.569  29.347  31.299  1.00  0.00     0.173 A 
ATOM     75  F   UNL A   1      38.896  32.381  29.410  1.00  0.00    -0.203 F 
ATOM     76  C   UNL A   1      37.656  31.940  31.307  1.00  0.00     0.198 A 
ATOM     77  C   UNL A   1      37.585  29.771  32.221  1.00  0.00     0.198 A 
ATOM     78  F   UNL A   1      38.847  28.041  31.334  1.00  0.00    -0.203 F 
ATOM     79  F   UNL A   1      37.194  33.199  31.253  1.00  0.00    -0.200 F 
ATOM     80  C   UNL A   1      37.163  31.081  32.257  1.00  0.00     0.200 A 
ATOM     81  F   UNL A   1      37.075  28.893  33.098  1.00  0.00    -0.200 F 
ATOM     82  F   UNL A   1      36.261  31.491  33.160  1.00  0.00    -0.200 F 
ENDBRANCH  58  72
BRANCH  59  83
ATOM     83  C   UNL A   1      48.275  26.529  27.150  1.00  0.00     0.064 A 
ATOM     84  C   UNL A   1      48.176  26.544  25.726  1.00  0.00     0.173 A 
ATOM     85  C   UNL A   1      49.466  25.994  27.672  1.00  0.00     0.173 A 
ATOM     86  F   UNL A   1      47.064  27.023  25.145  1.00  0.00    -0.203 F 
ATOM     87  C   UNL A   1      49.283  26.301  24.902  1.00  0.00     0.198 A 
ATOM     88  C   UNL A   1      50.565  25.720  26.835  1.00  0.00     0.198 A 
ATOM     89  F   UNL A   1      49.649  25.932  28.999  1.00  0.00    -0.203 F 
ATOM     90  F   UNL A   1      49.215  26.556  23.586  1.00  0.00    -0.200 F 
ATOM     91  C   UNL A   1      50.490  25.936  25.466  1.00  0.00     0.200 A 
ATOM     92  F   UNL A   1      51.743  25.367  27.370  1.00  0.00    -0.200 F 
ATOM     93  F   UNL A   1      51.596  25.876  24.705  1.00  0.00    -0.200 F 
ENDBRANCH  59  83
BRANCH  71  94
ATOM     94  C   UNL A   1      44.527  33.103  27.670  1.00  0.00     0.064 A 
ATOM     95  C   UNL A   1      44.012  33.323  26.391  1.00  0.00     0.173 A 
ATOM     96  C   UNL A   1      44.420  34.210  28.568  1.00  0.00     0.173 A 
ATOM     97  F   UNL A   1      43.985  32.352  25.472  1.00  0.00    -0.203 F 
ATOM     98  C   UNL A   1      43.438  34.544  26.035  1.00  0.00     0.198 A 
ATOM     99  C   UNL A   1      43.774  35.392  28.233  1.00  0.00     0.198 A 
ATOM    100  F   UNL A   1      44.888  34.181  29.822  1.00  0.00    -0.203 F 
ATOM    101  F   UNL A   1      42.981  34.710  24.788  1.00  0.00    -0.200 F 
ATOM    102  C   UNL A   1      43.291  35.562  26.960  1.00  0.00     0.200 A 
ATOM    103  F   UNL A   1      43.593  36.340  29.164  1.00  0.00    -0.200 F 
ATOM    104  F   UNL A   1      42.673  36.702  26.625  1.00  0.00    -0.200 F 
ENDBRANCH  71  94
ENDBRANCH  45  46
ENDBRANCH  38  40
ENDBRANCH  37  38
ENDBRANCH  36  37
ENDBRANCH  35  36
ENDBRANCH  34  35
ENDBRANCH  33  34
ENDBRANCH   1  33
TORSDOF 22
ENDMDL
MODEL 2
REMARK VINA RESULT:     -11.9      1.788      3.146
REMARK SMILES Cc1ccc(-c2cc(Cl)cc3c2O[C@@H](C(F)(F)F)C(C(=O)OCCOCCOCCOCCOC(=O)c2ccc(-c4c5nc(c(-c6c(F)c(F)c(F)c(F)c6F)c6ccc([nH]6)c(-c6c(F)c(F)c(F)c(F)c6F)c6nc(c(-c7c(F)c(F)c(F)c(F)c7F)c7ccc4[nH]7)C=C6)C=C5)cc2)=C3)cc1
REMARK SMILES IDX 29 1 28 2 27 3 26 4 25 5 24 6 23 7 22 8 20 9 21 10 19 11
REMARK SMILES IDX 6 12 7 13 12 14 8 15 11 16 13 17 9 18 10 19 100 20 14 21
REMARK SMILES IDX 5 22 1 23 2 24 3 25 102 26 4 27 101 28 15 29 16 30 17 31
REMARK SMILES IDX 18 32 30 33 31 34 32 35 33 36 34 37 35 38 36 39 37 40 38 41
REMARK SMILES IDX 99 42 39 43 98 44 40 45 41 46 42 47 92 48 43 49 97 50 91 51
REMARK SMILES IDX 93 52 44 53 96 54 90 55 89 56 45 58 77 59 57 60 76 61 58 62
REMARK SMILES IDX 61 63 75 64 94 65 59 66 60 67 74 69 95 70 62 71 46 72 47 73
REMARK SMILES IDX 55 74 48 75 49 76 53 77 56 78 50 79 51 80 54 81 52 82 78 83
REMARK SMILES IDX 79 84 87 85 80 86 81 87 85 88 88 89 82 90 83 91 86 92 84 93
REMARK SMILES IDX 63 94 64 95 72 96 65 97 66 98 70 99 73 100 67 101 68 102
REMARK SMILES IDX 71 103 69 104
REMARK H PARENT 93 57 61 68
REMARK Flexibility Score: inf
ROOT
ATOM      1  C   UNL A   1      35.647  23.695  25.695  1.00  0.00     0.188 C 
ENDROOT
BRANCH   1   2
ATOM      2  O   UNL A   1      34.713  23.014  26.519  1.00  0.00    -0.377 OA
BRANCH   2   3
ATOM      3  C   UNL A   1      33.391  22.891  26.012  1.00  0.00     0.188 C 
BRANCH   3   4
ATOM      4  C   UNL A   1      32.197  22.932  26.969  1.00  0.00     0.188 C 
BRANCH   4   5
ATOM      5  O   UNL A   1      31.488  24.130  27.245  1.00  0.00    -0.376 OA
BRANCH   5   6
ATOM      6  C   UNL A   1      30.895  24.933  26.243  1.00  0.00     0.202 C 
BRANCH   6   7
ATOM      7  C   UNL A   1      30.628  26.472  26.449  1.00  0.00     0.261 C 
BRANCH   7   8
ATOM      8  O   UNL A   1      31.575  27.089  27.351  1.00  0.00    -0.460 OA
BRANCH   8   9
ATOM      9  C   UNL A   1      32.192  28.247  26.966  1.00  0.00     0.338 C 
ATOM     10  O   UNL A   1      31.707  29.354  26.960  1.00  0.00    -0.246 OA
BRANCH   9  11
ATOM     11  C   UNL A   1      33.697  27.962  26.869  1.00  0.00     0.087 C 
ATOM     12  C   UNL A   1      32.018  28.418  23.276  1.00  0.00     0.026 A 
ATOM     13  C   UNL A   1      31.875  27.217  22.545  1.00  0.00     0.033 A 
ATOM     14  C   UNL A   1      33.057  28.385  24.315  1.00  0.00     0.135 A 
ATOM     15  C   UNL A   1      32.575  26.049  22.847  1.00  0.00     0.042 A 
ATOM     16  C   UNL A   1      33.581  27.115  24.718  1.00  0.00     0.019 A 
ATOM     17  O   UNL A   1      33.587  29.483  25.077  1.00  0.00    -0.475 OA
ATOM     18  Cl  UNL A   1      32.262  24.627  21.938  1.00  0.00    -0.084 Cl
ATOM     19  C   UNL A   1      33.406  25.982  23.948  1.00  0.00     0.032 A 
ATOM     20  C   UNL A   1      34.112  26.932  26.104  1.00  0.00     0.027 C 
ATOM     21  C   UNL A   1      34.375  29.187  26.331  1.00  0.00     0.316 C 
BRANCH  12  22
ATOM     22  C   UNL A   1      30.774  29.314  22.987  1.00  0.00    -0.015 A 
ATOM     23  C   UNL A   1      27.653  32.227  21.751  1.00  0.00     0.044 C 
ATOM     24  C   UNL A   1      28.743  31.276  22.184  1.00  0.00    -0.051 A 
ATOM     25  C   UNL A   1      29.081  31.071  23.518  1.00  0.00     0.004 A 
ATOM     26  C   UNL A   1      29.464  30.545  21.251  1.00  0.00     0.004 A 
ATOM     27  C   UNL A   1      30.098  30.143  23.905  1.00  0.00     0.009 A 
ATOM     28  C   UNL A   1      30.429  29.585  21.634  1.00  0.00     0.009 A 
ENDBRANCH  12  22
BRANCH  21  29
ATOM     29  C   UNL A   1      34.651  30.181  27.525  1.00  0.00     0.430 C 
ATOM     30  F   UNL A   1      35.100  29.444  28.591  1.00  0.00    -0.167 F 
ATOM     31  F   UNL A   1      35.634  31.067  27.262  1.00  0.00    -0.167 F 
ATOM     32  F   UNL A   1      33.607  30.868  28.021  1.00  0.00    -0.167 F 
ENDBRANCH  21  29
ENDBRANCH   9  11
ENDBRANCH   8   9
ENDBRANCH   7   8
ENDBRANCH   6   7
ENDBRANCH   5   6
ENDBRANCH   4   5
ENDBRANCH   3   4
ENDBRANCH   2   3
ENDBRANCH   1   2
BRANCH   1  33
ATOM     33  C   UNL A   1      37.093  23.292  25.797  1.00  0.00     0.188 C 
BRANCH  33  34
ATOM     34  O   UNL A   1      37.113  21.910  25.478  1.00  0.00    -0.376 OA
BRANCH  34  35
ATOM     35  C   UNL A   1      38.385  21.294  25.459  1.00  0.00     0.202 C 
BRANCH  35  36
ATOM     36  C   UNL A   1      39.399  22.116  26.250  1.00  0.00     0.261 C 
BRANCH  36  37
ATOM     37  O   UNL A   1      40.340  21.189  26.845  1.00  0.00    -0.460 OA
BRANCH  37  38
ATOM     38  C   UNL A   1      41.573  21.147  26.266  1.00  0.00     0.338 C 
ATOM     39  O   UNL A   1      42.024  20.190  25.660  1.00  0.00    -0.246 OA
BRANCH  38  40
ATOM     40  C   UNL A   1      42.407  22.318  26.702  1.00  0.00     0.060 A 
ATOM     41  C   UNL A   1      42.491  22.652  28.066  1.00  0.00     0.016 A 
ATOM     42  C   UNL A   1      42.873  23.235  25.767  1.00  0.00     0.016 A 
ATOM     43  C   UNL A   1      42.907  23.940  28.478  1.00  0.00     0.010 A 
ATOM     44  C   UNL A   1      43.242  24.515  26.177  1.00  0.00     0.010 A 
ATOM     45  C   UNL A   1      43.223  24.912  27.528  1.00  0.00    -0.014 A 
BRANCH  45  46
ATOM     46  C   UNL A   1      43.377  26.378  27.787  1.00  0.00     0.031 A 
ATOM     47  C   UNL A   1      42.119  27.227  27.909  1.00  0.00     0.074 A 
ATOM     48  C   UNL A   1      44.552  26.820  28.332  1.00  0.00     0.049 A 
ATOM     49  N   UNL A   1      42.054  28.427  28.381  1.00  0.00    -0.248 NA
ATOM     50  C   UNL A   1      40.787  26.757  27.543  1.00  0.00     0.031 C 
ATOM     51  C   UNL A   1      44.747  28.002  29.183  1.00  0.00     0.029 A 
ATOM     52  N   UNL A   1      45.825  26.222  28.420  1.00  0.00    -0.354 N 
ATOM     53  C   UNL A   1      40.735  28.770  28.676  1.00  0.00     0.074 A 
ATOM     54  C   UNL A   1      39.987  27.706  28.058  1.00  0.00     0.031 C 
ATOM     55  C   UNL A   1      46.015  28.116  29.603  1.00  0.00     0.029 A 
ATOM     56  C   UNL A   1      46.753  27.240  28.755  1.00  0.00     0.049 A 
ATOM     57  H   UNL A   1      46.033  25.271  28.276  1.00  0.00     0.167 HD
ATOM     58  C   UNL A   1      40.489  29.863  29.487  1.00  0.00     0.037 A 
ATOM     59  C   UNL A   1      47.622  27.721  27.826  1.00  0.00     0.037 A 
ATOM     60  C   UNL A   1      41.750  30.607  29.728  1.00  0.00     0.049 A 
ATOM     61  C   UNL A   1      47.184  29.149  27.439  1.00  0.00     0.074 A 
ATOM     62  C   UNL A   1      42.433  31.095  30.827  1.00  0.00     0.029 A 
ATOM     63  N   UNL A   1      42.630  30.798  28.657  1.00  0.00    -0.354 N 
ATOM     64  N   UNL A   1      45.928  29.568  27.483  1.00  0.00    -0.248 NA
ATOM     65  C   UNL A   1      48.104  30.276  27.314  1.00  0.00     0.031 C 
ATOM     66  C   UNL A   1      43.783  31.366  30.444  1.00  0.00     0.029 A 
ATOM     67  C   UNL A   1      43.885  31.195  29.070  1.00  0.00     0.049 A 
ATOM     68  H   UNL A   1      42.382  30.664  27.712  1.00  0.00     0.167 HD
ATOM     69  C   UNL A   1      45.888  30.935  27.634  1.00  0.00     0.074 A 
ATOM     70  C   UNL A   1      47.272  31.334  27.423  1.00  0.00     0.031 C 
ATOM     71  C   UNL A   1      44.836  31.697  28.092  1.00  0.00     0.037 A 
BRANCH  58  72
ATOM     72  C   UNL A   1      39.180  30.189  30.275  1.00  0.00     0.064 A 
ATOM     73  C   UNL A   1      38.125  30.950  29.699  1.00  0.00     0.173 A 
ATOM     74  C   UNL A   1      38.926  29.872  31.622  1.00  0.00     0.173 A 
ATOM     75  F   UNL A   1      38.019  31.107  28.376  1.00  0.00    -0.203 F 
ATOM     76  C   UNL A   1      37.075  31.525  30.440  1.00  0.00     0.198 A 
ATOM     77  C   UNL A   1      37.867  30.433  32.370  1.00  0.00     0.198 A 
ATOM     78  F   UNL A   1      39.692  29.006  32.291  1.00  0.00    -0.203 F 
ATOM     79  F   UNL A   1      36.158  32.288  29.825  1.00  0.00    -0.200 F 
ATOM     80  C   UNL A   1      36.969  31.299  31.790  1.00  0.00     0.200 A 
ATOM     81  F   UNL A   1      37.752  30.144  33.676  1.00  0.00    -0.200 F 
ATOM     82  F   UNL A   1      35.990  31.865  32.512  1.00  0.00    -0.200 F 
ENDBRANCH  58  72
BRANCH  59  83
ATOM     83  C   UNL A   1      48.307  26.538  27.196  1.00  0.00     0.064 A 
ATOM     84  C   UNL A   1      48.102  26.448  25.786  1.00  0.00     0.173 A 
ATOM     85  C   UNL A   1      49.563  26.107  27.657  1.00  0.00     0.173 A 
ATOM     86  F   UNL A   1      46.923  26.824  25.263  1.00  0.00    -0.203 F 
ATOM     87  C   UNL A   1      49.157  26.212  24.895  1.00  0.00     0.198 A 
ATOM     88  C   UNL A   1      50.611  25.837  26.756  1.00  0.00     0.198 A 
ATOM     89  F   UNL A   1      49.847  26.147  28.966  1.00  0.00    -0.203 F 
ATOM     90  F   UNL A   1      48.976  26.370  23.575  1.00  0.00    -0.200 F 
ATOM     91  C   UNL A   1      50.423  25.953  25.385  1.00  0.00     0.200 A 
ATOM     92  F   UNL A   1      51.845  25.588  27.220  1.00  0.00    -0.200 F 
ATOM     93  F   UNL A   1      51.471  25.902  24.547  1.00  0.00    -0.200 F 
ENDBRANCH  59  83
BRANCH  71  94
ATOM     94  C   UNL A   1      44.491  33.083  27.562  1.00  0.00     0.064 A 
ATOM     95  C   UNL A   1      43.983  33.277  26.276  1.00  0.00     0.173 A 
ATOM     96  C   UNL A   1      44.372  34.206  28.439  1.00  0.00     0.173 A 
ATOM     97  F   UNL A   1      43.967  32.290  25.373  1.00  0.00    -0.203 F 
ATOM     98  C   UNL A   1      43.402  34.488  25.895  1.00  0.00     0.198 A 
ATOM     99  C   UNL A   1      43.719  35.377  28.080  1.00  0.00     0.198 A 
ATOM    100  F   UNL A   1      44.833  34.202  29.696  1.00  0.00    -0.203 F 
ATOM    101  F   UNL A   1      42.952  34.629  24.642  1.00  0.00    -0.200 F 
ATOM    102  C   UNL A   1      43.243  35.521  26.800  1.00  0.00     0.200 A 
ATOM    103  F   UNL A   1      43.527  36.340  28.992  1.00  0.00    -0.200 F 
ATOM    104  F   UNL A   1      42.619  36.651  26.442  1.00  0.00    -0.200 F 
ENDBRANCH  71  94
ENDBRANCH  45  46
ENDBRANCH  38  40
ENDBRANCH  37  38
ENDBRANCH  36  37
ENDBRANCH  35  36
ENDBRANCH  34  35
ENDBRANCH  33  34
ENDBRANCH   1  33
TORSDOF 22
ENDMDL
MODEL 3
REMARK VINA RESULT:     -10.6      2.539      8.092
REMARK SMILES Cc1ccc(-c2cc(Cl)cc3c2O[C@@H](C(F)(F)F)C(C(=O)OCCOCCOCCOCCOC(=O)c2ccc(-c4c5nc(c(-c6c(F)c(F)c(F)c(F)c6F)c6ccc([nH]6)c(-c6c(F)c(F)c(F)c(F)c6F)c6nc(c(-c7c(F)c(F)c(F)c(F)c7F)c7ccc4[nH]7)C=C6)C=C5)cc2)=C3)cc1
REMARK SMILES IDX 29 1 28 2 27 3 26 4 25 5 24 6 23 7 22 8 20 9 21 10 19 11
REMARK SMILES IDX 6 12 7 13 12 14 8 15 11 16 13 17 9 18 10 19 100 20 14 21
REMARK SMILES IDX 5 22 1 23 2 24 3 25 102 26 4 27 101 28 15 29 16 30 17 31
REMARK SMILES IDX 18 32 30 33 31 34 32 35 33 36 34 37 35 38 36 39 37 40 38 41
REMARK SMILES IDX 99 42 39 43 98 44 40 45 41 46 42 47 92 48 43 49 97 50 91 51
REMARK SMILES IDX 93 52 44 53 96 54 90 55 89 56 45 58 77 59 57 60 76 61 58 62
REMARK SMILES IDX 61 63 75 64 94 65 59 66 60 67 74 69 95 70 62 71 46 72 47 73
REMARK SMILES IDX 55 74 48 75 49 76 53 77 56 78 50 79 51 80 54 81 52 82 78 83
REMARK SMILES IDX 79 84 87 85 80 86 81 87 85 88 88 89 82 90 83 91 86 92 84 93
REMARK SMILES IDX 63 94 64 95 72 96 65 97 66 98 70 99 73 100 67 101 68 102
REMARK SMILES IDX 71 103 69 104
REMARK H PARENT 93 57 61 68
REMARK Flexibility Score: inf
ROOT
ATOM      1  C   UNL A   1      35.898  23.306  25.617  1.00  0.00     0.188 C 
ENDROOT
BRANCH   1   2
ATOM      2  O   UNL A   1      34.870  22.635  26.330  1.00  0.00    -0.377 OA
BRANCH   2   3
ATOM      3  C   UNL A   1      33.670  22.369  25.615  1.00  0.00     0.188 C 
BRANCH   3   4
ATOM      4  C   UNL A   1      32.348  22.211  26.369  1.00  0.00     0.188 C 
BRANCH   4   5
ATOM      5  O   UNL A   1      31.554  23.325  26.749  1.00  0.00    -0.376 OA
BRANCH   5   6
ATOM      6  C   UNL A   1      30.875  24.149  25.821  1.00  0.00     0.202 C 
BRANCH   6   7
ATOM      7  C   UNL A   1      30.580  25.670  26.108  1.00  0.00     0.261 C 
BRANCH   7   8
ATOM      8  O   UNL A   1      31.590  26.290  26.938  1.00  0.00    -0.460 OA
BRANCH   8   9
ATOM      9  C   UNL A   1      32.135  27.477  26.534  1.00  0.00     0.338 C 
ATOM     10  O   UNL A   1      31.579  28.549  26.498  1.00  0.00    -0.246 OA
BRANCH   9  11
ATOM     11  C   UNL A   1      33.656  27.289  26.459  1.00  0.00     0.087 C 
ATOM     12  C   UNL A   1      31.989  27.516  22.839  1.00  0.00     0.026 A 
ATOM     13  C   UNL A   1      31.933  26.285  22.147  1.00  0.00     0.033 A 
ATOM     14  C   UNL A   1      33.017  27.585  23.887  1.00  0.00     0.135 A 
ATOM     15  C   UNL A   1      32.705  25.176  22.493  1.00  0.00     0.042 A 
ATOM     16  C   UNL A   1      33.619  26.367  24.336  1.00  0.00     0.019 A 
ATOM     17  O   UNL A   1      33.466  28.740  24.616  1.00  0.00    -0.475 OA
ATOM     18  Cl  UNL A   1      32.496  23.707  21.629  1.00  0.00    -0.084 Cl
ATOM     19  C   UNL A   1      33.527  25.200  23.603  1.00  0.00     0.032 A 
ATOM     20  C   UNL A   1      34.146  26.265  25.732  1.00  0.00     0.027 C 
ATOM     21  C   UNL A   1      34.258  28.537  25.887  1.00  0.00     0.316 C 
BRANCH  12  22
ATOM     22  C   UNL A   1      30.693  28.318  22.509  1.00  0.00    -0.015 A 
ATOM     23  C   UNL A   1      27.306  31.130  21.896  1.00  0.00     0.044 C 
ATOM     24  C   UNL A   1      28.455  30.185  22.154  1.00  0.00    -0.051 A 
ATOM     25  C   UNL A   1      28.299  28.964  22.805  1.00  0.00     0.004 A 
ATOM     26  C   UNL A   1      29.741  30.496  21.738  1.00  0.00     0.004 A 
ATOM     27  C   UNL A   1      29.398  28.074  23.011  1.00  0.00     0.009 A 
ATOM     28  C   UNL A   1      30.817  29.592  21.889  1.00  0.00     0.009 A 
ENDBRANCH  12  22
BRANCH  21  29
ATOM     29  C   UNL A   1      34.456  29.586  27.049  1.00  0.00     0.430 C 
ATOM     30  F   UNL A   1      35.722  30.101  26.939  1.00  0.00    -0.167 F 
ATOM     31  F   UNL A   1      33.628  30.647  26.954  1.00  0.00    -0.167 F 
ATOM     32  F   UNL A   1      34.397  29.135  28.315  1.00  0.00    -0.167 F 
ENDBRANCH  21  29
ENDBRANCH   9  11
ENDBRANCH   8   9
ENDBRANCH   7   8
ENDBRANCH   6   7
ENDBRANCH   5   6
ENDBRANCH   4   5
ENDBRANCH   3   4
ENDBRANCH   2   3
ENDBRANCH   1   2
BRANCH   1  33
ATOM     33  C   UNL A   1      37.263  22.675  25.599  1.00  0.00     0.188 C 
BRANCH  33  34
ATOM     34  O   UNL A   1      37.047  21.344  25.157  1.00  0.00    -0.376 OA
BRANCH  34  35
ATOM     35  C   UNL A   1      38.163  20.479  25.218  1.00  0.00     0.202 C 
BRANCH  35  36
ATOM     36  C   UNL A   1      39.293  21.106  26.029  1.00  0.00     0.261 C 
BRANCH  36  37
ATOM     37  O   UNL A   1      40.030  20.027  26.654  1.00  0.00    -0.460 OA
BRANCH  37  38
ATOM     38  C   UNL A   1      41.286  20.339  27.079  1.00  0.00     0.338 C 
ATOM     39  O   UNL A   1      42.067  19.547  27.581  1.00  0.00    -0.246 OA
BRANCH  38  40
ATOM     40  C   UNL A   1      41.487  21.827  27.106  1.00  0.00     0.060 A 
ATOM     41  C   UNL A   1      41.931  22.497  25.951  1.00  0.00     0.016 A 
ATOM     42  C   UNL A   1      41.504  22.512  28.316  1.00  0.00     0.016 A 
ATOM     43  C   UNL A   1      42.513  23.785  26.033  1.00  0.00     0.010 A 
ATOM     44  C   UNL A   1      42.117  23.762  28.395  1.00  0.00     0.010 A 
ATOM     45  C   UNL A   1      42.675  24.404  27.273  1.00  0.00    -0.014 A 
BRANCH  45  46
ATOM     46  C   UNL A   1      43.531  25.599  27.554  1.00  0.00     0.031 A 
ATOM     47  C   UNL A   1      45.042  25.420  27.557  1.00  0.00     0.074 A 
ATOM     48  C   UNL A   1      42.992  26.842  27.362  1.00  0.00     0.049 A 
ATOM     49  N   UNL A   1      45.921  26.366  27.520  1.00  0.00    -0.248 NA
ATOM     50  C   UNL A   1      45.705  24.119  27.553  1.00  0.00     0.031 C 
ATOM     51  C   UNL A   1      43.709  28.074  27.001  1.00  0.00     0.029 A 
ATOM     52  N   UNL A   1      41.656  27.275  27.251  1.00  0.00    -0.354 N 
ATOM     53  C   UNL A   1      47.175  25.862  27.180  1.00  0.00     0.074 A 
ATOM     54  C   UNL A   1      46.983  24.439  27.288  1.00  0.00     0.031 C 
ATOM     55  C   UNL A   1      42.874  29.107  26.825  1.00  0.00     0.029 A 
ATOM     56  C   UNL A   1      41.648  28.684  27.416  1.00  0.00     0.049 A 
ATOM     57  H   UNL A   1      40.871  26.705  27.089  1.00  0.00     0.167 HD
ATOM     58  C   UNL A   1      48.163  26.738  26.766  1.00  0.00     0.037 A 
ATOM     59  C   UNL A   1      41.184  29.245  28.564  1.00  0.00     0.037 A 
ATOM     60  C   UNL A   1      47.716  28.137  26.971  1.00  0.00     0.049 A 
ATOM     61  C   UNL A   1      42.384  29.811  29.351  1.00  0.00     0.074 A 
ATOM     62  C   UNL A   1      47.647  29.291  26.210  1.00  0.00     0.029 A 
ATOM     63  N   UNL A   1      47.040  28.458  28.153  1.00  0.00    -0.354 N 
ATOM     64  N   UNL A   1      43.609  29.312  29.280  1.00  0.00    -0.248 NA
ATOM     65  C   UNL A   1      42.396  31.130  29.980  1.00  0.00     0.031 C 
ATOM     66  C   UNL A   1      46.752  30.205  26.845  1.00  0.00     0.029 A 
ATOM     67  C   UNL A   1      46.396  29.675  28.079  1.00  0.00     0.049 A 
ATOM     68  H   UNL A   1      47.025  27.879  28.951  1.00  0.00     0.167 HD
ATOM     69  C   UNL A   1      44.536  30.277  29.601  1.00  0.00     0.074 A 
ATOM     70  C   UNL A   1      43.718  31.362  30.125  1.00  0.00     0.031 C 
ATOM     71  C   UNL A   1      45.878  30.288  29.291  1.00  0.00     0.037 A 
BRANCH  58  72
ATOM     72  C   UNL A   1      49.460  26.399  25.965  1.00  0.00     0.064 A 
ATOM     73  C   UNL A   1      50.519  25.638  26.533  1.00  0.00     0.173 A 
ATOM     74  C   UNL A   1      49.778  26.861  24.674  1.00  0.00     0.173 A 
ATOM     75  F   UNL A   1      50.326  24.868  27.608  1.00  0.00    -0.203 F 
ATOM     76  C   UNL A   1      51.814  25.558  25.984  1.00  0.00     0.198 A 
ATOM     77  C   UNL A   1      51.070  26.774  24.109  1.00  0.00     0.198 A 
ATOM     78  F   UNL A   1      48.858  27.429  23.890  1.00  0.00    -0.203 F 
ATOM     79  F   UNL A   1      52.773  24.872  26.624  1.00  0.00    -0.200 F 
ATOM     80  C   UNL A   1      52.102  26.164  24.786  1.00  0.00     0.200 A 
ATOM     81  F   UNL A   1      51.307  27.322  22.907  1.00  0.00    -0.200 F 
ATOM     82  F   UNL A   1      53.338  26.120  24.268  1.00  0.00    -0.200 F 
ENDBRANCH  58  72
BRANCH  59  83
ATOM     83  C   UNL A   1      39.829  28.651  28.840  1.00  0.00     0.064 A 
ATOM     84  C   UNL A   1      39.815  27.765  29.958  1.00  0.00     0.173 A 
ATOM     85  C   UNL A   1      38.661  29.411  28.651  1.00  0.00     0.173 A 
ATOM     86  F   UNL A   1      40.885  26.989  30.201  1.00  0.00    -0.203 F 
ATOM     87  C   UNL A   1      38.831  27.838  30.953  1.00  0.00     0.198 A 
ATOM     88  C   UNL A   1      37.659  29.456  29.640  1.00  0.00     0.198 A 
ATOM     89  F   UNL A   1      38.577  30.268  27.624  1.00  0.00    -0.203 F 
ATOM     90  F   UNL A   1      38.979  27.159  32.101  1.00  0.00    -0.200 F 
ATOM     91  C   UNL A   1      37.778  28.721  30.812  1.00  0.00     0.200 A 
ATOM     92  F   UNL A   1      36.633  30.312  29.516  1.00  0.00    -0.200 F 
ATOM     93  F   UNL A   1      36.933  28.927  31.835  1.00  0.00    -0.200 F 
ENDBRANCH  59  83
BRANCH  71  94
ATOM     94  C   UNL A   1      46.963  30.835  30.210  1.00  0.00     0.064 A 
ATOM     95  C   UNL A   1      47.452  32.137  30.081  1.00  0.00     0.173 A 
ATOM     96  C   UNL A   1      47.308  30.173  31.429  1.00  0.00     0.173 A 
ATOM     97  F   UNL A   1      47.150  32.897  29.023  1.00  0.00    -0.203 F 
ATOM     98  C   UNL A   1      48.222  32.730  31.083  1.00  0.00     0.198 A 
ATOM     99  C   UNL A   1      48.002  30.797  32.455  1.00  0.00     0.198 A 
ATOM    100  F   UNL A   1      46.946  28.913  31.703  1.00  0.00    -0.203 F 
ATOM    101  F   UNL A   1      48.687  33.971  30.899  1.00  0.00    -0.200 F 
ATOM    102  C   UNL A   1      48.469  32.076  32.277  1.00  0.00     0.200 A 
ATOM    103  F   UNL A   1      48.178  30.163  33.623  1.00  0.00    -0.200 F 
ATOM    104  F   UNL A   1      49.147  32.684  33.258  1.00  0.00    -0.200 F 
ENDBRANCH  71  94
ENDBRANCH  45  46
ENDBRANCH  38  40
ENDBRANCH  37  38
ENDBRANCH  36  37
ENDBRANCH  35  36
ENDBRANCH  34  35
ENDBRANCH  33  34
ENDBRANCH   1  33
TORSDOF 22
ENDMDL
