MODEL 1
REMARK VINA RESULT:     -10.6      0.000      0.000
REMARK SMILES Cc1cccc2c(C(F)(F)F)cc(C(=O)OCCOCCOCCOCCOC(=O)c3ccc(-c4c5nc(c(-c6c(F)c(F)c(F)c(F)c6F)c6ccc([nH]6)c(-c6c(F)c(F)c(F)c(F)c6F)c6nc(c(-c7c(F)c(F)c(F)c(F)c7F)c7ccc4[nH]7)C=C6)C=C5)cc3)nc12
REMARK SMILES IDX 23 1 22 2 21 3 20 4 19 5 18 6 17 7 16 8 14 9 15 10 13 11
REMARK SMILES IDX 1 12 2 13 3 14 95 15 4 16 6 17 94 18 5 19 7 20 12 21 8 22
REMARK SMILES IDX 9 23 10 24 11 25 24 26 25 27 26 28 27 29 28 30 29 31 30 32
REMARK SMILES IDX 31 33 32 34 93 35 33 36 92 37 34 38 35 39 36 40 86 41 37 42
REMARK SMILES IDX 91 43 85 44 87 45 38 46 90 47 84 48 83 49 39 51 71 52 51 53
REMARK SMILES IDX 70 54 52 55 55 56 69 57 88 58 53 59 54 60 68 62 89 63 56 64
REMARK SMILES IDX 40 65 41 66 49 67 42 68 43 69 47 70 50 71 44 72 45 73 48 74
REMARK SMILES IDX 46 75 72 76 73 77 81 78 74 79 75 80 79 81 82 82 76 83 77 84
REMARK SMILES IDX 80 85 78 86 57 87 58 88 66 89 59 90 60 91 64 92 67 93 61 94
REMARK SMILES IDX 62 95 65 96 63 97
REMARK H PARENT 87 50 55 61
REMARK Flexibility Score: inf
ROOT
ATOM      1  C   UNL A   1      37.560  23.038  26.047  1.00  0.00     0.188 C 
ENDROOT
BRANCH   1   2
ATOM      2  O   UNL A   1      37.038  23.752  24.937  1.00  0.00    -0.377 OA
BRANCH   2   3
ATOM      3  C   UNL A   1      35.644  24.044  24.868  1.00  0.00     0.188 C 
BRANCH   3   4
ATOM      4  C   UNL A   1      34.593  23.056  24.301  1.00  0.00     0.188 C 
BRANCH   4   5
ATOM      5  O   UNL A   1      34.140  22.071  25.212  1.00  0.00    -0.376 OA
BRANCH   5   6
ATOM      6  C   UNL A   1      32.961  21.347  24.932  1.00  0.00     0.202 C 
BRANCH   6   7
ATOM      7  C   UNL A   1      31.668  21.832  25.600  1.00  0.00     0.261 C 
BRANCH   7   8
ATOM      8  O   UNL A   1      31.102  23.028  25.053  1.00  0.00    -0.459 OA
BRANCH   8   9
ATOM      9  C   UNL A   1      30.726  23.979  25.939  1.00  0.00     0.357 C 
ATOM     10  O   UNL A   1      30.127  23.792  26.986  1.00  0.00    -0.244 OA
BRANCH   9  11
ATOM     11  C   UNL A   1      31.352  25.277  25.556  1.00  0.00     0.149 A 
ATOM     12  C   UNL A   1      33.230  25.417  21.844  1.00  0.00     0.047 C 
ATOM     13  C   UNL A   1      33.093  26.640  22.717  1.00  0.00    -0.025 A 
ATOM     14  C   UNL A   1      33.603  27.860  22.250  1.00  0.00     0.005 A 
ATOM     15  C   UNL A   1      32.515  26.539  23.989  1.00  0.00     0.075 A 
ATOM     16  C   UNL A   1      33.578  28.980  23.062  1.00  0.00     0.001 A 
ATOM     17  C   UNL A   1      32.541  27.666  24.855  1.00  0.00     0.013 A 
ATOM     18  N   UNL A   1      31.946  25.373  24.348  1.00  0.00    -0.240 NA
ATOM     19  C   UNL A   1      33.083  28.876  24.359  1.00  0.00     0.011 A 
ATOM     20  C   UNL A   1      32.009  27.503  26.164  1.00  0.00     0.067 A 
ATOM     21  C   UNL A   1      31.385  26.289  26.494  1.00  0.00     0.049 A 
BRANCH  20  22
ATOM     22  C   UNL A   1      32.143  28.507  27.286  1.00  0.00     0.417 C 
ATOM     23  F   UNL A   1      33.444  28.703  27.646  1.00  0.00    -0.166 F 
ATOM     24  F   UNL A   1      31.684  29.735  26.909  1.00  0.00    -0.166 F 
ATOM     25  F   UNL A   1      31.496  28.206  28.440  1.00  0.00    -0.166 F 
ENDBRANCH  20  22
ENDBRANCH   9  11
ENDBRANCH   8   9
ENDBRANCH   7   8
ENDBRANCH   6   7
ENDBRANCH   5   6
ENDBRANCH   4   5
ENDBRANCH   3   4
ENDBRANCH   2   3
ENDBRANCH   1   2
BRANCH   1  26
ATOM     26  C   UNL A   1      38.595  21.938  25.738  1.00  0.00     0.188 C 
BRANCH  26  27
ATOM     27  O   UNL A   1      38.103  20.948  24.850  1.00  0.00    -0.376 OA
BRANCH  27  28
ATOM     28  C   UNL A   1      38.422  19.594  25.118  1.00  0.00     0.202 C 
BRANCH  28  29
ATOM     29  C   UNL A   1      39.602  19.260  26.046  1.00  0.00     0.261 C 
BRANCH  29  30
ATOM     30  O   UNL A   1      40.895  19.119  25.439  1.00  0.00    -0.460 OA
BRANCH  30  31
ATOM     31  C   UNL A   1      41.981  19.174  26.234  1.00  0.00     0.338 C 
ATOM     32  O   UNL A   1      42.733  18.258  26.529  1.00  0.00    -0.246 OA
BRANCH  31  33
ATOM     33  C   UNL A   1      42.222  20.598  26.548  1.00  0.00     0.060 A 
ATOM     34  C   UNL A   1      42.354  21.520  25.502  1.00  0.00     0.016 A 
ATOM     35  C   UNL A   1      42.293  21.022  27.877  1.00  0.00     0.016 A 
ATOM     36  C   UNL A   1      42.585  22.868  25.782  1.00  0.00     0.010 A 
ATOM     37  C   UNL A   1      42.550  22.367  28.157  1.00  0.00     0.010 A 
ATOM     38  C   UNL A   1      42.727  23.290  27.111  1.00  0.00    -0.014 A 
BRANCH  38  39
ATOM     39  C   UNL A   1      43.261  24.643  27.402  1.00  0.00     0.031 A 
ATOM     40  C   UNL A   1      42.316  25.674  27.955  1.00  0.00     0.074 A 
ATOM     41  C   UNL A   1      44.553  24.949  27.199  1.00  0.00     0.049 A 
ATOM     42  N   UNL A   1      42.524  26.936  28.226  1.00  0.00    -0.248 NA
ATOM     43  C   UNL A   1      40.945  25.216  28.234  1.00  0.00     0.031 C 
ATOM     44  C   UNL A   1      45.576  24.025  26.711  1.00  0.00     0.029 A 
ATOM     45  N   UNL A   1      45.224  26.135  27.370  1.00  0.00    -0.354 N 
ATOM     46  C   UNL A   1      41.313  27.422  28.702  1.00  0.00     0.074 A 
ATOM     47  C   UNL A   1      40.365  26.331  28.650  1.00  0.00     0.031 C 
ATOM     48  C   UNL A   1      46.743  24.685  26.608  1.00  0.00     0.029 A 
ATOM     49  C   UNL A   1      46.541  26.083  26.984  1.00  0.00     0.049 A 
ATOM     50  H   UNL A   1      44.800  26.946  27.733  1.00  0.00     0.167 HD
ATOM     51  C   UNL A   1      41.021  28.666  29.151  1.00  0.00     0.037 A 
ATOM     52  C   UNL A   1      47.465  27.063  26.919  1.00  0.00     0.037 A 
ATOM     53  C   UNL A   1      41.965  29.751  29.197  1.00  0.00     0.049 A 
ATOM     54  C   UNL A   1      47.089  28.462  27.344  1.00  0.00     0.074 A 
ATOM     55  C   UNL A   1      41.770  31.044  29.646  1.00  0.00     0.029 A 
ATOM     56  N   UNL A   1      43.282  29.667  28.768  1.00  0.00    -0.354 N 
ATOM     57  N   UNL A   1      45.951  28.910  27.817  1.00  0.00    -0.248 NA
ATOM     58  C   UNL A   1      48.131  29.493  27.225  1.00  0.00     0.031 C 
ATOM     59  C   UNL A   1      42.950  31.762  29.431  1.00  0.00     0.029 A 
ATOM     60  C   UNL A   1      43.903  30.898  28.914  1.00  0.00     0.049 A 
ATOM     61  H   UNL A   1      43.711  28.857  28.413  1.00  0.00     0.167 HD
ATOM     62  C   UNL A   1      46.150  30.260  28.084  1.00  0.00     0.074 A 
ATOM     63  C   UNL A   1      47.524  30.555  27.736  1.00  0.00     0.031 C 
ATOM     64  C   UNL A   1      45.276  31.173  28.575  1.00  0.00     0.037 A 
BRANCH  51  65
ATOM     65  C   UNL A   1      39.613  28.929  29.601  1.00  0.00     0.064 A 
ATOM     66  C   UNL A   1      38.628  29.397  28.717  1.00  0.00     0.173 A 
ATOM     67  C   UNL A   1      39.234  28.672  30.928  1.00  0.00     0.173 A 
ATOM     68  F   UNL A   1      38.941  29.672  27.442  1.00  0.00    -0.203 F 
ATOM     69  C   UNL A   1      37.323  29.617  29.151  1.00  0.00     0.198 A 
ATOM     70  C   UNL A   1      37.920  28.863  31.348  1.00  0.00     0.198 A 
ATOM     71  F   UNL A   1      40.135  28.223  31.814  1.00  0.00    -0.203 F 
ATOM     72  F   UNL A   1      36.411  30.108  28.300  1.00  0.00    -0.200 F 
ATOM     73  C   UNL A   1      36.969  29.342  30.462  1.00  0.00     0.200 A 
ATOM     74  F   UNL A   1      37.577  28.582  32.614  1.00  0.00    -0.200 F 
ATOM     75  F   UNL A   1      35.709  29.543  30.874  1.00  0.00    -0.200 F 
ENDBRANCH  51  65
BRANCH  52  76
ATOM     76  C   UNL A   1      48.834  26.771  26.413  1.00  0.00     0.064 A 
ATOM     77  C   UNL A   1      49.172  26.982  25.068  1.00  0.00     0.173 A 
ATOM     78  C   UNL A   1      49.821  26.232  27.252  1.00  0.00     0.173 A 
ATOM     79  F   UNL A   1      48.256  27.470  24.217  1.00  0.00    -0.203 F 
ATOM     80  C   UNL A   1      50.430  26.638  24.577  1.00  0.00     0.198 A 
ATOM     81  C   UNL A   1      51.090  25.921  26.767  1.00  0.00     0.198 A 
ATOM     82  F   UNL A   1      49.552  26.003  28.546  1.00  0.00    -0.203 F 
ATOM     83  F   UNL A   1      50.702  26.792  23.274  1.00  0.00    -0.200 F 
ATOM     84  C   UNL A   1      51.390  26.114  25.428  1.00  0.00     0.200 A 
ATOM     85  F   UNL A   1      52.018  25.424  27.597  1.00  0.00    -0.200 F 
ATOM     86  F   UNL A   1      52.598  25.780  24.955  1.00  0.00    -0.200 F 
ENDBRANCH  52  76
BRANCH  64  87
ATOM     87  C   UNL A   1      45.786  32.567  28.812  1.00  0.00     0.064 A 
ATOM     88  C   UNL A   1      46.402  32.937  30.017  1.00  0.00     0.173 A 
ATOM     89  C   UNL A   1      45.700  33.535  27.798  1.00  0.00     0.173 A 
ATOM     90  F   UNL A   1      46.500  32.055  31.023  1.00  0.00    -0.203 F 
ATOM     91  C   UNL A   1      46.881  34.230  30.210  1.00  0.00     0.198 A 
ATOM     92  C   UNL A   1      46.213  34.816  27.981  1.00  0.00     0.198 A 
ATOM     93  F   UNL A   1      45.131  33.233  26.621  1.00  0.00    -0.203 F 
ATOM     94  F   UNL A   1      47.414  34.576  31.389  1.00  0.00    -0.200 F 
ATOM     95  C   UNL A   1      46.794  35.166  29.190  1.00  0.00     0.200 A 
ATOM     96  F   UNL A   1      46.146  35.712  26.986  1.00  0.00    -0.200 F 
ATOM     97  F   UNL A   1      47.265  36.407  29.373  1.00  0.00    -0.200 F 
ENDBRANCH  64  87
ENDBRANCH  38  39
ENDBRANCH  31  33
ENDBRANCH  30  31
ENDBRANCH  29  30
ENDBRANCH  28  29
ENDBRANCH  27  28
ENDBRANCH  26  27
ENDBRANCH   1  26
TORSDOF 21
ENDMDL
MODEL 2
REMARK VINA RESULT:     -10.4      5.287      9.339
REMARK SMILES Cc1cccc2c(C(F)(F)F)cc(C(=O)OCCOCCOCCOCCOC(=O)c3ccc(-c4c5nc(c(-c6c(F)c(F)c(F)c(F)c6F)c6ccc([nH]6)c(-c6c(F)c(F)c(F)c(F)c6F)c6nc(c(-c7c(F)c(F)c(F)c(F)c7F)c7ccc4[nH]7)C=C6)C=C5)cc3)nc12
REMARK SMILES IDX 23 1 22 2 21 3 20 4 19 5 18 6 17 7 16 8 14 9 15 10 13 11
REMARK SMILES IDX 1 12 2 13 3 14 95 15 4 16 6 17 94 18 5 19 7 20 12 21 8 22
REMARK SMILES IDX 9 23 10 24 11 25 24 26 25 27 26 28 27 29 28 30 29 31 30 32
REMARK SMILES IDX 31 33 32 34 93 35 33 36 92 37 34 38 35 39 36 40 86 41 37 42
REMARK SMILES IDX 91 43 85 44 87 45 38 46 90 47 84 48 83 49 39 51 71 52 51 53
REMARK SMILES IDX 70 54 52 55 55 56 69 57 88 58 53 59 54 60 68 62 89 63 56 64
REMARK SMILES IDX 40 65 41 66 49 67 42 68 43 69 47 70 50 71 44 72 45 73 48 74
REMARK SMILES IDX 46 75 72 76 73 77 81 78 74 79 75 80 79 81 82 82 76 83 77 84
REMARK SMILES IDX 80 85 78 86 57 87 58 88 66 89 59 90 60 91 64 92 67 93 61 94
REMARK SMILES IDX 62 95 65 96 63 97
REMARK H PARENT 87 50 55 61
REMARK Flexibility Score: inf
ROOT
ATOM      1  C   UNL A   1      34.817  28.962  27.275  1.00  0.00     0.188 C 
ENDROOT
BRANCH   1   2
ATOM      2  O   UNL A   1      34.244  28.422  26.096  1.00  0.00    -0.377 OA
BRANCH   2   3
ATOM      3  C   UNL A   1      33.193  27.462  26.188  1.00  0.00     0.188 C 
BRANCH   3   4
ATOM      4  C   UNL A   1      31.702  27.805  25.937  1.00  0.00     0.188 C 
BRANCH   4   5
ATOM      5  O   UNL A   1      31.472  28.840  25.000  1.00  0.00    -0.376 OA
BRANCH   5   6
ATOM      6  C   UNL A   1      30.795  28.556  23.793  1.00  0.00     0.202 C 
BRANCH   6   7
ATOM      7  C   UNL A   1      31.628  27.967  22.648  1.00  0.00     0.261 C 
BRANCH   7   8
ATOM      8  O   UNL A   1      31.643  26.538  22.567  1.00  0.00    -0.459 OA
BRANCH   8   9
ATOM      9  C   UNL A   1      32.840  25.958  22.322  1.00  0.00     0.357 C 
ATOM     10  O   UNL A   1      33.664  26.328  21.500  1.00  0.00    -0.244 OA
BRANCH   9  11
ATOM     11  C   UNL A   1      33.107  24.927  23.365  1.00  0.00     0.149 A 
ATOM     12  C   UNL A   1      36.712  22.868  23.073  1.00  0.00     0.047 C 
ATOM     13  C   UNL A   1      35.766  22.663  24.229  1.00  0.00    -0.025 A 
ATOM     14  C   UNL A   1      36.127  21.761  25.241  1.00  0.00     0.005 A 
ATOM     15  C   UNL A   1      34.531  23.324  24.259  1.00  0.00     0.075 A 
ATOM     16  C   UNL A   1      35.243  21.479  26.268  1.00  0.00     0.001 A 
ATOM     17  C   UNL A   1      33.592  22.995  25.274  1.00  0.00     0.013 A 
ATOM     18  N   UNL A   1      34.278  24.258  23.323  1.00  0.00    -0.240 NA
ATOM     19  C   UNL A   1      33.980  22.064  26.267  1.00  0.00     0.011 A 
ATOM     20  C   UNL A   1      32.322  23.634  25.227  1.00  0.00     0.067 A 
ATOM     21  C   UNL A   1      32.102  24.633  24.265  1.00  0.00     0.049 A 
BRANCH  20  22
ATOM     22  C   UNL A   1      31.130  23.258  26.078  1.00  0.00     0.417 C 
ATOM     23  F   UNL A   1      31.422  23.288  27.411  1.00  0.00    -0.166 F 
ATOM     24  F   UNL A   1      30.105  24.143  25.914  1.00  0.00    -0.166 F 
ATOM     25  F   UNL A   1      30.600  22.029  25.858  1.00  0.00    -0.166 F 
ENDBRANCH  20  22
ENDBRANCH   9  11
ENDBRANCH   8   9
ENDBRANCH   7   8
ENDBRANCH   6   7
ENDBRANCH   5   6
ENDBRANCH   4   5
ENDBRANCH   3   4
ENDBRANCH   2   3
ENDBRANCH   1   2
BRANCH   1  26
ATOM     26  C   UNL A   1      34.454  30.422  27.616  1.00  0.00     0.188 C 
BRANCH  26  27
ATOM     27  O   UNL A   1      33.530  30.991  26.703  1.00  0.00    -0.376 OA
BRANCH  27  28
ATOM     28  C   UNL A   1      32.274  31.413  27.203  1.00  0.00     0.202 C 
BRANCH  28  29
ATOM     29  C   UNL A   1      31.938  32.913  27.247  1.00  0.00     0.261 C 
BRANCH  29  30
ATOM     30  O   UNL A   1      33.040  33.832  27.286  1.00  0.00    -0.460 OA
BRANCH  30  31
ATOM     31  C   UNL A   1      33.194  34.594  28.387  1.00  0.00     0.338 C 
ATOM     32  O   UNL A   1      32.461  35.488  28.779  1.00  0.00    -0.246 OA
BRANCH  31  33
ATOM     33  C   UNL A   1      34.324  34.029  29.155  1.00  0.00     0.060 A 
ATOM     34  C   UNL A   1      35.637  34.341  28.776  1.00  0.00     0.016 A 
ATOM     35  C   UNL A   1      34.082  33.214  30.263  1.00  0.00     0.016 A 
ATOM     36  C   UNL A   1      36.714  33.813  29.490  1.00  0.00     0.010 A 
ATOM     37  C   UNL A   1      35.161  32.666  30.961  1.00  0.00     0.010 A 
ATOM     38  C   UNL A   1      36.481  32.938  30.560  1.00  0.00    -0.014 A 
BRANCH  38  39
ATOM     39  C   UNL A   1      37.603  32.150  31.126  1.00  0.00     0.031 A 
ATOM     40  C   UNL A   1      38.071  32.480  32.517  1.00  0.00     0.074 A 
ATOM     41  C   UNL A   1      38.184  31.155  30.434  1.00  0.00     0.049 A 
ATOM     42  N   UNL A   1      39.068  31.984  33.202  1.00  0.00    -0.248 NA
ATOM     43  C   UNL A   1      37.308  33.519  33.229  1.00  0.00     0.031 C 
ATOM     44  C   UNL A   1      37.792  30.711  29.098  1.00  0.00     0.029 A 
ATOM     45  N   UNL A   1      39.243  30.344  30.763  1.00  0.00    -0.354 N 
ATOM     46  C   UNL A   1      39.055  32.651  34.420  1.00  0.00     0.074 A 
ATOM     47  C   UNL A   1      37.976  33.612  34.369  1.00  0.00     0.031 C 
ATOM     48  C   UNL A   1      38.610  29.715  28.715  1.00  0.00     0.029 A 
ATOM     49  C   UNL A   1      39.605  29.479  29.760  1.00  0.00     0.049 A 
ATOM     50  H   UNL A   1      39.699  30.380  31.635  1.00  0.00     0.167 HD
ATOM     51  C   UNL A   1      39.867  32.472  35.488  1.00  0.00     0.037 A 
ATOM     52  C   UNL A   1      40.639  28.618  29.689  1.00  0.00     0.037 A 
ATOM     53  C   UNL A   1      40.943  31.518  35.534  1.00  0.00     0.049 A 
ATOM     54  C   UNL A   1      41.583  28.498  30.861  1.00  0.00     0.074 A 
ATOM     55  C   UNL A   1      41.814  31.250  36.574  1.00  0.00     0.029 A 
ATOM     56  N   UNL A   1      41.300  30.681  34.486  1.00  0.00    -0.354 N 
ATOM     57  N   UNL A   1      41.552  29.112  32.020  1.00  0.00    -0.248 NA
ATOM     58  C   UNL A   1      42.708  27.562  30.715  1.00  0.00     0.031 C 
ATOM     59  C   UNL A   1      42.738  30.297  36.135  1.00  0.00     0.029 A 
ATOM     60  C   UNL A   1      42.399  29.918  34.845  1.00  0.00     0.049 A 
ATOM     61  H   UNL A   1      40.841  30.636  33.616  1.00  0.00     0.167 HD
ATOM     62  C   UNL A   1      42.625  28.614  32.749  1.00  0.00     0.074 A 
ATOM     63  C   UNL A   1      43.279  27.633  31.909  1.00  0.00     0.031 C 
ATOM     64  C   UNL A   1      43.033  28.936  34.002  1.00  0.00     0.037 A 
BRANCH  51  65
ATOM     65  C   UNL A   1      39.641  33.346  36.688  1.00  0.00     0.064 A 
ATOM     66  C   UNL A   1      38.755  32.982  37.713  1.00  0.00     0.173 A 
ATOM     67  C   UNL A   1      40.354  34.547  36.832  1.00  0.00     0.173 A 
ATOM     68  F   UNL A   1      38.039  31.852  37.617  1.00  0.00    -0.203 F 
ATOM     69  C   UNL A   1      38.574  33.798  38.826  1.00  0.00     0.198 A 
ATOM     70  C   UNL A   1      40.194  35.344  37.963  1.00  0.00     0.198 A 
ATOM     71  F   UNL A   1      41.215  34.941  35.883  1.00  0.00    -0.203 F 
ATOM     72  F   UNL A   1      37.687  33.454  39.770  1.00  0.00    -0.200 F 
ATOM     73  C   UNL A   1      39.300  34.973  38.955  1.00  0.00     0.200 A 
ATOM     74  F   UNL A   1      40.908  36.471  38.091  1.00  0.00    -0.200 F 
ATOM     75  F   UNL A   1      39.133  35.751  40.033  1.00  0.00    -0.200 F 
ENDBRANCH  51  65
BRANCH  52  76
ATOM     76  C   UNL A   1      40.861  27.810  28.458  1.00  0.00     0.064 A 
ATOM     77  C   UNL A   1      41.663  28.287  27.410  1.00  0.00     0.173 A 
ATOM     78  C   UNL A   1      40.239  26.564  28.284  1.00  0.00     0.173 A 
ATOM     79  F   UNL A   1      42.258  29.485  27.515  1.00  0.00    -0.203 F 
ATOM     80  C   UNL A   1      41.809  27.565  26.228  1.00  0.00     0.198 A 
ATOM     81  C   UNL A   1      40.415  25.827  27.114  1.00  0.00     0.198 A 
ATOM     82  F   UNL A   1      39.457  26.061  29.250  1.00  0.00    -0.203 F 
ATOM     83  F   UNL A   1      42.529  28.076  25.219  1.00  0.00    -0.200 F 
ATOM     84  C   UNL A   1      41.190  26.333  26.083  1.00  0.00     0.200 A 
ATOM     85  F   UNL A   1      39.824  24.632  26.983  1.00  0.00    -0.200 F 
ATOM     86  F   UNL A   1      41.329  25.641  24.943  1.00  0.00    -0.200 F 
ENDBRANCH  52  76
BRANCH  64  87
ATOM     87  C   UNL A   1      44.212  28.191  34.563  1.00  0.00     0.064 A 
ATOM     88  C   UNL A   1      44.072  26.940  35.183  1.00  0.00     0.173 A 
ATOM     89  C   UNL A   1      45.507  28.717  34.436  1.00  0.00     0.173 A 
ATOM     90  F   UNL A   1      42.856  26.397  35.341  1.00  0.00    -0.203 F 
ATOM     91  C   UNL A   1      45.180  26.261  35.683  1.00  0.00     0.198 A 
ATOM     92  C   UNL A   1      46.616  28.018  34.904  1.00  0.00     0.198 A 
ATOM     93  F   UNL A   1      45.700  29.905  33.842  1.00  0.00    -0.203 F 
ATOM     94  F   UNL A   1      45.016  25.094  36.320  1.00  0.00    -0.200 F 
ATOM     95  C   UNL A   1      46.452  26.796  35.536  1.00  0.00     0.200 A 
ATOM     96  F   UNL A   1      47.845  28.528  34.742  1.00  0.00    -0.200 F 
ATOM     97  F   UNL A   1      47.517  26.135  36.008  1.00  0.00    -0.200 F 
ENDBRANCH  64  87
ENDBRANCH  38  39
ENDBRANCH  31  33
ENDBRANCH  30  31
ENDBRANCH  29  30
ENDBRANCH  28  29
ENDBRANCH  27  28
ENDBRANCH  26  27
ENDBRANCH   1  26
TORSDOF 21
ENDMDL
MODEL 3
REMARK VINA RESULT:     -10.1      1.533      7.252
REMARK SMILES Cc1cccc2c(C(F)(F)F)cc(C(=O)OCCOCCOCCOCCOC(=O)c3ccc(-c4c5nc(c(-c6c(F)c(F)c(F)c(F)c6F)c6ccc([nH]6)c(-c6c(F)c(F)c(F)c(F)c6F)c6nc(c(-c7c(F)c(F)c(F)c(F)c7F)c7ccc4[nH]7)C=C6)C=C5)cc3)nc12
REMARK SMILES IDX 23 1 22 2 21 3 20 4 19 5 18 6 17 7 16 8 14 9 15 10 13 11
REMARK SMILES IDX 1 12 2 13 3 14 95 15 4 16 6 17 94 18 5 19 7 20 12 21 8 22
REMARK SMILES IDX 9 23 10 24 11 25 24 26 25 27 26 28 27 29 28 30 29 31 30 32
REMARK SMILES IDX 31 33 32 34 93 35 33 36 92 37 34 38 35 39 36 40 86 41 37 42
REMARK SMILES IDX 91 43 85 44 87 45 38 46 90 47 84 48 83 49 39 51 71 52 51 53
REMARK SMILES IDX 70 54 52 55 55 56 69 57 88 58 53 59 54 60 68 62 89 63 56 64
REMARK SMILES IDX 40 65 41 66 49 67 42 68 43 69 47 70 50 71 44 72 45 73 48 74
REMARK SMILES IDX 46 75 72 76 73 77 81 78 74 79 75 80 79 81 82 82 76 83 77 84
REMARK SMILES IDX 80 85 78 86 57 87 58 88 66 89 59 90 60 91 64 92 67 93 61 94
REMARK SMILES IDX 62 95 65 96 63 97
REMARK H PARENT 87 50 55 61
REMARK Flexibility Score: inf
ROOT
ATOM      1  C   UNL A   1      35.760  23.701  24.560  1.00  0.00     0.188 C 
ENDROOT
BRANCH   1   2
ATOM      2  O   UNL A   1      34.947  23.172  23.525  1.00  0.00    -0.377 OA
BRANCH   2   3
ATOM      3  C   UNL A   1      33.785  22.411  23.848  1.00  0.00     0.188 C 
BRANCH   3   4
ATOM      4  C   UNL A   1      33.839  21.020  24.530  1.00  0.00     0.188 C 
BRANCH   4   5
ATOM      5  O   UNL A   1      33.391  20.991  25.872  1.00  0.00    -0.376 OA
BRANCH   5   6
ATOM      6  C   UNL A   1      33.573  22.123  26.697  1.00  0.00     0.202 C 
BRANCH   6   7
ATOM      7  C   UNL A   1      32.313  22.891  27.116  1.00  0.00     0.261 C 
BRANCH   7   8
ATOM      8  O   UNL A   1      31.375  23.157  26.068  1.00  0.00    -0.459 OA
BRANCH   8   9
ATOM      9  C   UNL A   1      30.604  24.259  26.210  1.00  0.00     0.357 C 
ATOM     10  O   UNL A   1      29.548  24.326  26.819  1.00  0.00    -0.244 OA
BRANCH   9  11
ATOM     11  C   UNL A   1      31.349  25.446  25.700  1.00  0.00     0.149 A 
ATOM     12  C   UNL A   1      32.872  25.170  21.837  1.00  0.00     0.047 C 
ATOM     13  C   UNL A   1      32.973  26.439  22.647  1.00  0.00    -0.025 A 
ATOM     14  C   UNL A   1      33.585  27.559  22.068  1.00  0.00     0.005 A 
ATOM     15  C   UNL A   1      32.508  26.472  23.968  1.00  0.00     0.075 A 
ATOM     16  C   UNL A   1      33.778  28.709  22.813  1.00  0.00     0.001 A 
ATOM     17  C   UNL A   1      32.757  27.625  24.762  1.00  0.00     0.013 A 
ATOM     18  N   UNL A   1      31.834  25.408  24.441  1.00  0.00    -0.240 NA
ATOM     19  C   UNL A   1      33.397  28.731  24.152  1.00  0.00     0.011 A 
ATOM     20  C   UNL A   1      32.334  27.593  26.120  1.00  0.00     0.067 A 
ATOM     21  C   UNL A   1      31.597  26.487  26.573  1.00  0.00     0.049 A 
BRANCH  20  22
ATOM     22  C   UNL A   1      32.698  28.622  27.166  1.00  0.00     0.417 C 
ATOM     23  F   UNL A   1      32.230  28.284  28.402  1.00  0.00    -0.166 F 
ATOM     24  F   UNL A   1      34.050  28.727  27.308  1.00  0.00    -0.166 F 
ATOM     25  F   UNL A   1      32.247  29.883  26.947  1.00  0.00    -0.166 F 
ENDBRANCH  20  22
ENDBRANCH   9  11
ENDBRANCH   8   9
ENDBRANCH   7   8
ENDBRANCH   6   7
ENDBRANCH   5   6
ENDBRANCH   4   5
ENDBRANCH   3   4
ENDBRANCH   2   3
ENDBRANCH   1   2
BRANCH   1  26
ATOM     26  C   UNL A   1      37.091  22.973  24.835  1.00  0.00     0.188 C 
BRANCH  26  27
ATOM     27  O   UNL A   1      37.265  21.814  24.036  1.00  0.00    -0.376 OA
BRANCH  27  28
ATOM     28  C   UNL A   1      37.711  20.629  24.671  1.00  0.00     0.202 C 
BRANCH  28  29
ATOM     29  C   UNL A   1      38.540  20.723  25.962  1.00  0.00     0.261 C 
BRANCH  29  30
ATOM     30  O   UNL A   1      39.959  20.546  25.846  1.00  0.00    -0.460 OA
BRANCH  30  31
ATOM     31  C   UNL A   1      40.698  20.570  26.973  1.00  0.00     0.338 C 
ATOM     32  O   UNL A   1      41.226  19.623  27.534  1.00  0.00    -0.246 OA
BRANCH  31  33
ATOM     33  C   UNL A   1      40.922  21.989  27.319  1.00  0.00     0.060 A 
ATOM     34  C   UNL A   1      40.278  22.988  26.577  1.00  0.00     0.016 A 
ATOM     35  C   UNL A   1      41.747  22.328  28.394  1.00  0.00     0.016 A 
ATOM     36  C   UNL A   1      40.482  24.333  26.890  1.00  0.00     0.010 A 
ATOM     37  C   UNL A   1      41.971  23.675  28.691  1.00  0.00     0.010 A 
ATOM     38  C   UNL A   1      41.364  24.684  27.922  1.00  0.00    -0.014 A 
BRANCH  38  39
ATOM     39  C   UNL A   1      41.809  26.091  28.065  1.00  0.00     0.031 A 
ATOM     40  C   UNL A   1      43.151  26.471  27.501  1.00  0.00     0.074 A 
ATOM     41  C   UNL A   1      41.040  27.016  28.663  1.00  0.00     0.049 A 
ATOM     42  N   UNL A   1      43.787  27.613  27.556  1.00  0.00    -0.248 NA
ATOM     43  C   UNL A   1      43.876  25.413  26.779  1.00  0.00     0.031 C 
ATOM     44  C   UNL A   1      39.704  26.782  29.208  1.00  0.00     0.029 A 
ATOM     45  N   UNL A   1      41.283  28.343  28.921  1.00  0.00    -0.354 N 
ATOM     46  C   UNL A   1      44.984  27.409  26.884  1.00  0.00     0.074 A 
ATOM     47  C   UNL A   1      45.005  26.026  26.458  1.00  0.00     0.031 C 
ATOM     48  C   UNL A   1      39.250  27.926  29.750  1.00  0.00     0.029 A 
ATOM     49  C   UNL A   1      40.277  28.960  29.625  1.00  0.00     0.049 A 
ATOM     50  H   UNL A   1      42.100  28.808  28.630  1.00  0.00     0.167 HD
ATOM     51  C   UNL A   1      45.975  28.297  26.635  1.00  0.00     0.037 A 
ATOM     52  C   UNL A   1      40.212  30.207  30.132  1.00  0.00     0.037 A 
ATOM     53  C   UNL A   1      45.953  29.671  27.063  1.00  0.00     0.049 A 
ATOM     54  C   UNL A   1      41.368  31.154  29.915  1.00  0.00     0.074 A 
ATOM     55  C   UNL A   1      46.901  30.655  26.850  1.00  0.00     0.029 A 
ATOM     56  N   UNL A   1      44.931  30.250  27.802  1.00  0.00    -0.354 N 
ATOM     57  N   UNL A   1      42.487  30.964  29.256  1.00  0.00    -0.248 NA
ATOM     58  C   UNL A   1      41.251  32.492  30.514  1.00  0.00     0.031 C 
ATOM     59  C   UNL A   1      46.484  31.812  27.513  1.00  0.00     0.029 A 
ATOM     60  C   UNL A   1      45.242  31.572  28.079  1.00  0.00     0.049 A 
ATOM     61  H   UNL A   1      44.109  29.791  28.087  1.00  0.00     0.167 HD
ATOM     62  C   UNL A   1      43.186  32.163  29.331  1.00  0.00     0.074 A 
ATOM     63  C   UNL A   1      42.358  33.080  30.086  1.00  0.00     0.031 C 
ATOM     64  C   UNL A   1      44.402  32.478  28.822  1.00  0.00     0.037 A 
BRANCH  51  65
ATOM     65  C   UNL A   1      47.180  27.804  25.889  1.00  0.00     0.064 A 
ATOM     66  C   UNL A   1      47.225  27.781  24.486  1.00  0.00     0.173 A 
ATOM     67  C   UNL A   1      48.324  27.388  26.588  1.00  0.00     0.173 A 
ATOM     68  F   UNL A   1      46.154  28.155  23.770  1.00  0.00    -0.203 F 
ATOM     69  C   UNL A   1      48.360  27.337  23.813  1.00  0.00     0.198 A 
ATOM     70  C   UNL A   1      49.469  26.976  25.910  1.00  0.00     0.198 A 
ATOM     71  F   UNL A   1      48.336  27.391  27.929  1.00  0.00    -0.203 F 
ATOM     72  F   UNL A   1      48.363  27.279  22.474  1.00  0.00    -0.200 F 
ATOM     73  C   UNL A   1      49.483  26.944  24.525  1.00  0.00     0.200 A 
ATOM     74  F   UNL A   1      50.558  26.610  26.601  1.00  0.00    -0.200 F 
ATOM     75  F   UNL A   1      50.580  26.530  23.875  1.00  0.00    -0.200 F 
ENDBRANCH  51  65
BRANCH  52  76
ATOM     76  C   UNL A   1      39.022  30.638  30.915  1.00  0.00     0.064 A 
ATOM     77  C   UNL A   1      37.941  31.287  30.298  1.00  0.00     0.173 A 
ATOM     78  C   UNL A   1      38.960  30.453  32.305  1.00  0.00     0.173 A 
ATOM     79  F   UNL A   1      37.963  31.514  28.976  1.00  0.00    -0.203 F 
ATOM     80  C   UNL A   1      36.863  31.758  31.043  1.00  0.00     0.198 A 
ATOM     81  C   UNL A   1      37.863  30.894  33.043  1.00  0.00     0.198 A 
ATOM     82  F   UNL A   1      39.967  29.845  32.948  1.00  0.00    -0.203 F 
ATOM     83  F   UNL A   1      35.875  32.430  30.435  1.00  0.00    -0.200 F 
ATOM     84  C   UNL A   1      36.821  31.556  32.414  1.00  0.00     0.200 A 
ATOM     85  F   UNL A   1      37.823  30.687  34.366  1.00  0.00    -0.200 F 
ATOM     86  F   UNL A   1      35.784  32.013  33.130  1.00  0.00    -0.200 F 
ENDBRANCH  52  76
BRANCH  64  87
ATOM     87  C   UNL A   1      44.896  33.884  29.017  1.00  0.00     0.064 A 
ATOM     88  C   UNL A   1      44.573  34.915  28.121  1.00  0.00     0.173 A 
ATOM     89  C   UNL A   1      45.664  34.215  30.145  1.00  0.00     0.173 A 
ATOM     90  F   UNL A   1      43.851  34.652  27.021  1.00  0.00    -0.203 F 
ATOM     91  C   UNL A   1      45.029  36.214  28.329  1.00  0.00     0.198 A 
ATOM     92  C   UNL A   1      46.086  35.521  30.369  1.00  0.00     0.198 A 
ATOM     93  F   UNL A   1      45.992  33.271  31.040  1.00  0.00    -0.203 F 
ATOM     94  F   UNL A   1      44.756  37.169  27.431  1.00  0.00    -0.200 F 
ATOM     95  C   UNL A   1      45.778  36.518  29.457  1.00  0.00     0.200 A 
ATOM     96  F   UNL A   1      46.792  35.817  31.470  1.00  0.00    -0.200 F 
ATOM     97  F   UNL A   1      46.206  37.771  29.661  1.00  0.00    -0.200 F 
ENDBRANCH  64  87
ENDBRANCH  38  39
ENDBRANCH  31  33
ENDBRANCH  30  31
ENDBRANCH  29  30
ENDBRANCH  28  29
ENDBRANCH  27  28
ENDBRANCH  26  27
ENDBRANCH   1  26
TORSDOF 21
ENDMDL
