MODEL 1
REMARK VINA RESULT:     -11.2      0.000      0.000
REMARK SMILES O=C(OCCOCCOCCOCCOC(=O)c1ccc(-c2c3nc(c(-c4c(F)c(F)c(F)c(F)c4F)c4ccc([nH]4)c(-c4c(F)c(F)c(F)c(F)c4F)c4nc(c(-c5c(F)c(F)c(F)c(F)c5F)c5ccc2[nH]5)C=C4)C=C3)cc1)C1=Cc2cc(S(F)(F)(F)(F)F)ccc2O[C@@H]1C(F)(F)F
REMARK SMILES IDX 10 1 9 2 8 3 7 4 6 5 5 6 4 7 3 8 2 9 1 10 81 11 82 12 96 13
REMARK SMILES IDX 83 14 95 15 84 16 94 17 85 18 93 19 92 20 97 21 98 22 99 23
REMARK SMILES IDX 100 24 86 25 87 26 88 27 89 28 90 29 91 30 11 31 12 32 13 33
REMARK SMILES IDX 14 34 15 35 16 36 17 37 18 38 19 39 80 40 20 41 79 42 21 43
REMARK SMILES IDX 22 44 23 45 73 46 24 47 78 48 72 49 74 50 25 51 77 52 71 53
REMARK SMILES IDX 70 54 26 56 58 57 38 58 57 59 39 60 42 61 56 62 75 63 40 64
REMARK SMILES IDX 41 65 55 67 76 68 43 69 27 70 28 71 36 72 29 73 30 74 34 75
REMARK SMILES IDX 37 76 31 77 32 78 35 79 33 80 59 81 60 82 68 83 61 84 62 85
REMARK SMILES IDX 66 86 69 87 63 88 64 89 67 90 65 91 44 92 45 93 53 94 46 95
REMARK SMILES IDX 47 96 51 97 54 98 48 99 49 100 52 101 50 102
REMARK H PARENT 74 55 42 66
REMARK Flexibility Score: inf
ROOT
ATOM      1  C   UNL A   1      34.909  34.310  29.285  1.00  0.00     0.188 C 
ENDROOT
BRANCH   1   2
ATOM      2  O   UNL A   1      34.365  33.000  29.347  1.00  0.00    -0.377 OA
BRANCH   2   3
ATOM      3  C   UNL A   1      34.246  32.473  28.033  1.00  0.00     0.188 C 
BRANCH   3   4
ATOM      4  C   UNL A   1      34.985  31.146  27.951  1.00  0.00     0.188 C 
BRANCH   4   5
ATOM      5  O   UNL A   1      34.142  30.171  27.356  1.00  0.00    -0.376 OA
BRANCH   5   6
ATOM      6  C   UNL A   1      34.850  28.946  27.231  1.00  0.00     0.202 C 
BRANCH   6   7
ATOM      7  C   UNL A   1      34.064  27.994  26.345  1.00  0.00     0.261 C 
BRANCH   7   8
ATOM      8  O   UNL A   1      32.994  27.431  27.090  1.00  0.00    -0.460 OA
BRANCH   8   9
ATOM      9  C   UNL A   1      31.719  27.268  26.488  1.00  0.00     0.338 C 
ATOM     10  O   UNL A   1      30.670  27.282  27.207  1.00  0.00    -0.246 OA
BRANCH   9  11
ATOM     11  C   UNL A   1      31.606  27.078  24.984  1.00  0.00     0.087 C 
ATOM     12  C   UNL A   1      32.026  25.918  24.411  1.00  0.00     0.027 C 
ATOM     13  C   UNL A   1      31.025  28.185  24.119  1.00  0.00     0.316 C 
ATOM     14  C   UNL A   1      32.608  24.811  25.277  1.00  0.00     0.019 A 
ATOM     15  O   UNL A   1      30.856  25.255  26.818  1.00  0.00    -0.475 OA
ATOM     16  C   UNL A   1      33.799  24.199  24.920  1.00  0.00     0.036 A 
ATOM     17  C   UNL A   1      31.983  24.497  26.405  1.00  0.00     0.128 A 
ATOM     18  C   UNL A   1      34.104  23.049  25.686  1.00  0.00     0.107 A 
ATOM     19  C   UNL A   1      32.418  23.446  27.176  1.00  0.00     0.048 A 
ATOM     20  C   UNL A   1      33.554  22.759  26.851  1.00  0.00     0.028 A 
BRANCH  13  21
ATOM     21  C   UNL A   1      29.794  27.667  23.394  1.00  0.00     0.430 C 
ATOM     22  F   UNL A   1      28.865  28.619  23.360  1.00  0.00    -0.167 F 
ATOM     23  F   UNL A   1      30.122  27.324  22.151  1.00  0.00    -0.167 F 
ATOM     24  F   UNL A   1      29.315  26.604  24.035  1.00  0.00    -0.167 F 
ENDBRANCH  13  21
BRANCH  18  25
ATOM     25  S   UNL A   1      35.335  21.899  25.025  1.00  0.00     0.310 S 
ATOM     26  F   UNL A   1      34.733  20.680  25.841  1.00  0.00    -0.094 F 
ATOM     27  F   UNL A   1      36.251  22.192  26.274  1.00  0.00    -0.094 F 
ATOM     28  F   UNL A   1      36.390  20.913  24.448  1.00  0.00    -0.094 F 
ATOM     29  F   UNL A   1      34.346  21.512  23.857  1.00  0.00    -0.094 F 
ATOM     30  F   UNL A   1      34.209  22.811  25.658  1.00  0.00    -0.094 F 
ENDBRANCH  18  25
ENDBRANCH   9  11
ENDBRANCH   8   9
ENDBRANCH   7   8
ENDBRANCH   6   7
ENDBRANCH   5   6
ENDBRANCH   4   5
ENDBRANCH   3   4
ENDBRANCH   2   3
ENDBRANCH   1   2
BRANCH   1  31
ATOM     31  C   UNL A   1      34.255  35.180  30.345  1.00  0.00     0.188 C 
BRANCH  31  32
ATOM     32  O   UNL A   1      33.520  34.362  31.243  1.00  0.00    -0.376 OA
BRANCH  32  33
ATOM     33  C   UNL A   1      33.931  34.634  32.575  1.00  0.00     0.202 C 
BRANCH  33  34
ATOM     34  C   UNL A   1      34.072  33.327  33.339  1.00  0.00     0.261 C 
BRANCH  34  35
ATOM     35  O   UNL A   1      35.028  32.501  32.691  1.00  0.00    -0.460 OA
BRANCH  35  36
ATOM     36  C   UNL A   1      36.304  32.294  33.278  1.00  0.00     0.338 C 
ATOM     37  O   UNL A   1      36.498  32.596  34.498  1.00  0.00    -0.246 OA
BRANCH  36  38
ATOM     38  C   UNL A   1      37.438  31.713  32.449  1.00  0.00     0.060 A 
ATOM     39  C   UNL A   1      37.549  32.006  31.100  1.00  0.00     0.016 A 
ATOM     40  C   UNL A   1      38.366  31.002  33.079  1.00  0.00     0.016 A 
ATOM     41  C   UNL A   1      38.541  31.251  30.430  1.00  0.00     0.010 A 
ATOM     42  C   UNL A   1      39.384  30.405  32.377  1.00  0.00     0.010 A 
ATOM     43  C   UNL A   1      39.521  30.602  31.031  1.00  0.00    -0.014 A 
BRANCH  43  44
ATOM     44  C   UNL A   1      40.736  30.100  30.267  1.00  0.00     0.031 A 
ATOM     45  C   UNL A   1      41.780  31.008  30.077  1.00  0.00     0.074 A 
ATOM     46  C   UNL A   1      40.706  28.829  29.721  1.00  0.00     0.049 A 
ATOM     47  N   UNL A   1      42.909  30.817  29.393  1.00  0.00    -0.248 NA
ATOM     48  C   UNL A   1      41.798  32.371  30.628  1.00  0.00     0.031 C 
ATOM     49  C   UNL A   1      39.661  27.905  29.915  1.00  0.00     0.029 A 
ATOM     50  N   UNL A   1      41.649  28.234  28.912  1.00  0.00    -0.354 N 
ATOM     51  C   UNL A   1      43.675  31.908  29.452  1.00  0.00     0.074 A 
ATOM     52  C   UNL A   1      42.968  32.926  30.242  1.00  0.00     0.031 C 
ATOM     53  C   UNL A   1      39.964  26.775  29.225  1.00  0.00     0.029 A 
ATOM     54  C   UNL A   1      41.203  26.972  28.587  1.00  0.00     0.049 A 
ATOM     55  H   UNL A   1      42.495  28.641  28.617  1.00  0.00     0.167 HD
ATOM     56  C   UNL A   1      44.933  32.094  28.880  1.00  0.00     0.037 A 
ATOM     57  C   UNL A   1      41.826  26.033  27.781  1.00  0.00     0.037 A 
ATOM     58  C   UNL A   1      45.576  31.139  28.109  1.00  0.00     0.049 A 
ATOM     59  C   UNL A   1      43.060  26.241  27.161  1.00  0.00     0.074 A 
ATOM     60  C   UNL A   1      46.850  31.307  27.532  1.00  0.00     0.029 A 
ATOM     61  N   UNL A   1      45.119  29.886  27.764  1.00  0.00    -0.354 N 
ATOM     62  N   UNL A   1      43.842  27.317  27.252  1.00  0.00    -0.248 NA
ATOM     63  C   UNL A   1      43.714  25.266  26.278  1.00  0.00     0.031 C 
ATOM     64  C   UNL A   1      47.152  30.176  26.840  1.00  0.00     0.029 A 
ATOM     65  C   UNL A   1      46.072  29.283  26.974  1.00  0.00     0.049 A 
ATOM     66  H   UNL A   1      44.259  29.490  28.035  1.00  0.00     0.167 HD
ATOM     67  C   UNL A   1      44.952  27.141  26.534  1.00  0.00     0.074 A 
ATOM     68  C   UNL A   1      44.883  25.822  25.891  1.00  0.00     0.031 C 
ATOM     69  C   UNL A   1      46.023  28.026  26.391  1.00  0.00     0.037 A 
BRANCH  56  70
ATOM     70  C   UNL A   1      45.640  33.420  29.115  1.00  0.00     0.064 A 
ATOM     71  C   UNL A   1      45.474  34.483  28.242  1.00  0.00     0.173 A 
ATOM     72  C   UNL A   1      46.497  33.486  30.126  1.00  0.00     0.173 A 
ATOM     73  F   UNL A   1      44.464  34.565  27.381  1.00  0.00    -0.203 F 
ATOM     74  C   UNL A   1      46.478  35.474  28.350  1.00  0.00     0.198 A 
ATOM     75  C   UNL A   1      47.357  34.551  30.246  1.00  0.00     0.198 A 
ATOM     76  F   UNL A   1      46.524  32.512  31.033  1.00  0.00    -0.203 F 
ATOM     77  F   UNL A   1      46.615  36.330  27.340  1.00  0.00    -0.200 F 
ATOM     78  C   UNL A   1      47.290  35.610  29.383  1.00  0.00     0.200 A 
ATOM     79  F   UNL A   1      48.268  34.552  31.215  1.00  0.00    -0.200 F 
ATOM     80  F   UNL A   1      48.003  36.715  29.574  1.00  0.00    -0.200 F 
ENDBRANCH  56  70
BRANCH  57  81
ATOM     81  C   UNL A   1      41.127  24.701  27.561  1.00  0.00     0.064 A 
ATOM     82  C   UNL A   1      41.473  23.540  28.230  1.00  0.00     0.173 A 
ATOM     83  C   UNL A   1      40.102  24.731  26.716  1.00  0.00     0.173 A 
ATOM     84  F   UNL A   1      42.316  23.520  29.259  1.00  0.00    -0.203 F 
ATOM     85  C   UNL A   1      40.849  22.377  27.722  1.00  0.00     0.198 A 
ATOM     86  C   UNL A   1      39.450  23.572  26.367  1.00  0.00     0.198 A 
ATOM     87  F   UNL A   1      39.702  25.891  26.205  1.00  0.00    -0.203 F 
ATOM     88  F   UNL A   1      41.376  21.200  28.045  1.00  0.00    -0.200 F 
ATOM     89  C   UNL A   1      39.779  22.378  26.947  1.00  0.00     0.200 A 
ATOM     90  F   UNL A   1      38.485  23.613  25.453  1.00  0.00    -0.200 F 
ATOM     91  F   UNL A   1      39.061  21.278  26.741  1.00  0.00    -0.200 F 
ENDBRANCH  57  81
BRANCH  69  92
ATOM     92  C   UNL A   1      47.206  27.585  25.545  1.00  0.00     0.064 A 
ATOM     93  C   UNL A   1      48.243  26.852  26.100  1.00  0.00     0.173 A 
ATOM     94  C   UNL A   1      47.157  27.831  24.241  1.00  0.00     0.173 A 
ATOM     95  F   UNL A   1      48.207  26.368  27.338  1.00  0.00    -0.203 F 
ATOM     96  C   UNL A   1      49.342  26.664  25.229  1.00  0.00     0.198 A 
ATOM     97  C   UNL A   1      48.212  27.497  23.426  1.00  0.00     0.198 A 
ATOM     98  F   UNL A   1      46.077  28.405  23.720  1.00  0.00    -0.203 F 
ATOM     99  F   UNL A   1      50.503  26.301  25.767  1.00  0.00    -0.200 F 
ATOM    100  C   UNL A   1      49.296  26.823  23.918  1.00  0.00     0.200 A 
ATOM    101  F   UNL A   1      48.178  27.833  22.140  1.00  0.00    -0.200 F 
ATOM    102  F   UNL A   1      50.251  26.356  23.121  1.00  0.00    -0.200 F 
ENDBRANCH  69  92
ENDBRANCH  43  44
ENDBRANCH  36  38
ENDBRANCH  35  36
ENDBRANCH  34  35
ENDBRANCH  33  34
ENDBRANCH  32  33
ENDBRANCH  31  32
ENDBRANCH   1  31
TORSDOF 22
ENDMDL
MODEL 2
REMARK VINA RESULT:     -11.2      1.556      7.750
REMARK SMILES O=C(OCCOCCOCCOCCOC(=O)c1ccc(-c2c3nc(c(-c4c(F)c(F)c(F)c(F)c4F)c4ccc([nH]4)c(-c4c(F)c(F)c(F)c(F)c4F)c4nc(c(-c5c(F)c(F)c(F)c(F)c5F)c5ccc2[nH]5)C=C4)C=C3)cc1)C1=Cc2cc(S(F)(F)(F)(F)F)ccc2O[C@@H]1C(F)(F)F
REMARK SMILES IDX 10 1 9 2 8 3 7 4 6 5 5 6 4 7 3 8 2 9 1 10 81 11 82 12 96 13
REMARK SMILES IDX 83 14 95 15 84 16 94 17 85 18 93 19 92 20 97 21 98 22 99 23
REMARK SMILES IDX 100 24 86 25 87 26 88 27 89 28 90 29 91 30 11 31 12 32 13 33
REMARK SMILES IDX 14 34 15 35 16 36 17 37 18 38 19 39 80 40 20 41 79 42 21 43
REMARK SMILES IDX 22 44 23 45 73 46 24 47 78 48 72 49 74 50 25 51 77 52 71 53
REMARK SMILES IDX 70 54 26 56 58 57 38 58 57 59 39 60 42 61 56 62 75 63 40 64
REMARK SMILES IDX 41 65 55 67 76 68 43 69 27 70 28 71 36 72 29 73 30 74 34 75
REMARK SMILES IDX 37 76 31 77 32 78 35 79 33 80 59 81 60 82 68 83 61 84 62 85
REMARK SMILES IDX 66 86 69 87 63 88 64 89 67 90 65 91 44 92 45 93 53 94 46 95
REMARK SMILES IDX 47 96 51 97 54 98 48 99 49 100 52 101 50 102
REMARK H PARENT 74 55 42 66
REMARK Flexibility Score: inf
ROOT
ATOM      1  C   UNL A   1      33.856  34.992  29.008  1.00  0.00     0.188 C 
ENDROOT
BRANCH   1   2
ATOM      2  O   UNL A   1      33.568  33.602  29.055  1.00  0.00    -0.377 OA
BRANCH   2   3
ATOM      3  C   UNL A   1      34.237  32.943  27.990  1.00  0.00     0.188 C 
BRANCH   3   4
ATOM      4  C   UNL A   1      34.094  31.438  28.156  1.00  0.00     0.188 C 
BRANCH   4   5
ATOM      5  O   UNL A   1      34.317  30.800  26.907  1.00  0.00    -0.376 OA
BRANCH   5   6
ATOM      6  C   UNL A   1      33.341  29.787  26.713  1.00  0.00     0.202 C 
BRANCH   6   7
ATOM      7  C   UNL A   1      34.016  28.525  26.201  1.00  0.00     0.261 C 
BRANCH   7   8
ATOM      8  O   UNL A   1      33.323  27.386  26.691  1.00  0.00    -0.460 OA
BRANCH   8   9
ATOM      9  C   UNL A   1      33.260  26.203  25.909  1.00  0.00     0.338 C 
ATOM     10  O   UNL A   1      34.271  25.833  25.232  1.00  0.00    -0.246 OA
BRANCH   9  11
ATOM     11  C   UNL A   1      31.984  25.377  25.880  1.00  0.00     0.087 C 
ATOM     12  C   UNL A   1      30.928  25.784  25.126  1.00  0.00     0.027 C 
ATOM     13  C   UNL A   1      31.888  24.098  26.696  1.00  0.00     0.316 C 
ATOM     14  C   UNL A   1      31.024  27.063  24.310  1.00  0.00     0.019 A 
ATOM     15  O   UNL A   1      33.214  26.372  23.700  1.00  0.00    -0.475 OA
ATOM     16  C   UNL A   1      30.008  28.003  24.364  1.00  0.00     0.036 A 
ATOM     17  C   UNL A   1      32.127  27.281  23.604  1.00  0.00     0.128 A 
ATOM     18  C   UNL A   1      30.125  29.030  23.396  1.00  0.00     0.107 A 
ATOM     19  C   UNL A   1      32.226  28.378  22.783  1.00  0.00     0.048 A 
ATOM     20  C   UNL A   1      31.235  29.317  22.741  1.00  0.00     0.028 A 
BRANCH  13  21
ATOM     21  C   UNL A   1      31.627  22.924  25.766  1.00  0.00     0.430 C 
ATOM     22  F   UNL A   1      30.329  22.634  25.772  1.00  0.00    -0.167 F 
ATOM     23  F   UNL A   1      32.005  23.242  24.532  1.00  0.00    -0.167 F 
ATOM     24  F   UNL A   1      32.319  21.866  26.183  1.00  0.00    -0.167 F 
ENDBRANCH  13  21
BRANCH  18  25
ATOM     25  S   UNL A   1      28.652  30.017  23.034  1.00  0.00     0.310 S 
ATOM     26  F   UNL A   1      29.389  30.817  21.880  1.00  0.00    -0.094 F 
ATOM     27  F   UNL A   1      29.170  31.120  24.033  1.00  0.00    -0.094 F 
ATOM     28  F   UNL A   1      27.382  30.857  22.721  1.00  0.00    -0.094 F 
ATOM     29  F   UNL A   1      28.220  28.970  21.934  1.00  0.00    -0.094 F 
ATOM     30  F   UNL A   1      29.992  29.209  23.258  1.00  0.00    -0.094 F 
ENDBRANCH  18  25
ENDBRANCH   9  11
ENDBRANCH   8   9
ENDBRANCH   7   8
ENDBRANCH   6   7
ENDBRANCH   5   6
ENDBRANCH   4   5
ENDBRANCH   3   4
ENDBRANCH   2   3
ENDBRANCH   1   2
BRANCH   1  31
ATOM     31  C   UNL A   1      33.285  35.669  30.243  1.00  0.00     0.188 C 
BRANCH  31  32
ATOM     32  O   UNL A   1      33.104  34.706  31.271  1.00  0.00    -0.376 OA
BRANCH  32  33
ATOM     33  C   UNL A   1      34.029  34.956  32.320  1.00  0.00     0.202 C 
BRANCH  33  34
ATOM     34  C   UNL A   1      34.112  33.735  33.222  1.00  0.00     0.261 C 
BRANCH  34  35
ATOM     35  O   UNL A   1      34.893  32.731  32.589  1.00  0.00    -0.460 OA
BRANCH  35  36
ATOM     36  C   UNL A   1      36.119  32.313  33.171  1.00  0.00     0.338 C 
ATOM     37  O   UNL A   1      36.290  32.401  34.427  1.00  0.00    -0.246 OA
BRANCH  36  38
ATOM     38  C   UNL A   1      37.228  31.760  32.290  1.00  0.00     0.060 A 
ATOM     39  C   UNL A   1      37.175  31.901  30.914  1.00  0.00     0.016 A 
ATOM     40  C   UNL A   1      38.288  31.228  32.888  1.00  0.00     0.016 A 
ATOM     41  C   UNL A   1      38.180  31.180  30.224  1.00  0.00     0.010 A 
ATOM     42  C   UNL A   1      39.298  30.662  32.149  1.00  0.00     0.010 A 
ATOM     43  C   UNL A   1      39.282  30.713  30.782  1.00  0.00    -0.014 A 
BRANCH  43  44
ATOM     44  C   UNL A   1      40.468  30.254  29.949  1.00  0.00     0.031 A 
ATOM     45  C   UNL A   1      40.480  28.915  29.554  1.00  0.00     0.074 A 
ATOM     46  C   UNL A   1      41.505  31.140  29.716  1.00  0.00     0.049 A 
ATOM     47  N   UNL A   1      41.435  28.276  28.876  1.00  0.00    -0.248 NA
ATOM     48  C   UNL A   1      39.393  27.964  29.831  1.00  0.00     0.031 C 
ATOM     49  C   UNL A   1      41.497  32.494  30.105  1.00  0.00     0.029 A 
ATOM     50  N   UNL A   1      42.704  30.890  29.084  1.00  0.00    -0.354 N 
ATOM     51  C   UNL A   1      41.080  27.007  28.664  1.00  0.00     0.074 A 
ATOM     52  C   UNL A   1      39.764  26.786  29.281  1.00  0.00     0.031 C 
ATOM     53  C   UNL A   1      42.677  33.049  29.724  1.00  0.00     0.029 A 
ATOM     54  C   UNL A   1      43.443  32.052  29.090  1.00  0.00     0.049 A 
ATOM     55  H   UNL A   1      42.983  30.030  28.697  1.00  0.00     0.167 HD
ATOM     56  C   UNL A   1      41.800  26.027  27.982  1.00  0.00     0.037 A 
ATOM     57  C   UNL A   1      44.716  32.252  28.579  1.00  0.00     0.037 A 
ATOM     58  C   UNL A   1      43.055  26.237  27.432  1.00  0.00     0.049 A 
ATOM     59  C   UNL A   1      45.461  31.254  27.946  1.00  0.00     0.074 A 
ATOM     60  C   UNL A   1      43.792  25.262  26.733  1.00  0.00     0.029 A 
ATOM     61  N   UNL A   1      43.804  27.393  27.460  1.00  0.00    -0.354 N 
ATOM     62  N   UNL A   1      45.090  29.997  27.701  1.00  0.00    -0.248 NA
ATOM     63  C   UNL A   1      46.824  31.444  27.429  1.00  0.00     0.031 C 
ATOM     64  C   UNL A   1      44.973  25.818  26.353  1.00  0.00     0.029 A 
ATOM     65  C   UNL A   1      44.994  27.149  26.808  1.00  0.00     0.049 A 
ATOM     66  H   UNL A   1      43.537  28.245  27.873  1.00  0.00     0.167 HD
ATOM     67  C   UNL A   1      46.063  29.347  27.060  1.00  0.00     0.074 A 
ATOM     68  C   UNL A   1      47.194  30.266  26.882  1.00  0.00     0.031 C 
ATOM     69  C   UNL A   1      46.051  28.024  26.612  1.00  0.00     0.037 A 
BRANCH  56  70
ATOM     70  C   UNL A   1      41.174  24.649  27.832  1.00  0.00     0.064 A 
ATOM     71  C   UNL A   1      41.725  23.541  28.455  1.00  0.00     0.173 A 
ATOM     72  C   UNL A   1      40.144  24.532  27.003  1.00  0.00     0.173 A 
ATOM     73  F   UNL A   1      42.577  23.629  29.473  1.00  0.00    -0.203 F 
ATOM     74  C   UNL A   1      41.299  22.307  27.911  1.00  0.00     0.198 A 
ATOM     75  C   UNL A   1      39.693  23.292  26.619  1.00  0.00     0.198 A 
ATOM     76  F   UNL A   1      39.543  25.625  26.539  1.00  0.00    -0.203 F 
ATOM     77  F   UNL A   1      42.024  21.226  28.185  1.00  0.00    -0.200 F 
ATOM     78  C   UNL A   1      40.231  22.153  27.149  1.00  0.00     0.200 A 
ATOM     79  F   UNL A   1      38.719  23.200  25.718  1.00  0.00    -0.200 F 
ATOM     80  F   UNL A   1      39.707  20.954  26.911  1.00  0.00    -0.200 F 
ENDBRANCH  56  70
BRANCH  57  81
ATOM     81  C   UNL A   1      45.334  33.633  28.714  1.00  0.00     0.064 A 
ATOM     82  C   UNL A   1      45.118  34.656  27.806  1.00  0.00     0.173 A 
ATOM     83  C   UNL A   1      46.060  33.826  29.809  1.00  0.00     0.173 A 
ATOM     84  F   UNL A   1      44.205  34.587  26.841  1.00  0.00    -0.203 F 
ATOM     85  C   UNL A   1      45.954  35.781  27.999  1.00  0.00     0.198 A 
ATOM     86  C   UNL A   1      46.743  35.004  29.997  1.00  0.00     0.198 A 
ATOM     87  F   UNL A   1      46.125  32.872  30.734  1.00  0.00    -0.203 F 
ATOM     88  F   UNL A   1      46.078  36.639  26.991  1.00  0.00    -0.200 F 
ATOM     89  C   UNL A   1      46.622  36.036  29.109  1.00  0.00     0.200 A 
ATOM     90  F   UNL A   1      47.534  35.141  31.057  1.00  0.00    -0.200 F 
ATOM     91  F   UNL A   1      47.146  37.234  29.351  1.00  0.00    -0.200 F 
ENDBRANCH  57  81
BRANCH  69  92
ATOM     92  C   UNL A   1      47.272  27.512  25.865  1.00  0.00     0.064 A 
ATOM     93  C   UNL A   1      47.396  27.694  24.497  1.00  0.00     0.173 A 
ATOM     94  C   UNL A   1      48.257  26.986  26.582  1.00  0.00     0.173 A 
ATOM     95  F   UNL A   1      46.554  28.438  23.786  1.00  0.00    -0.203 F 
ATOM     96  C   UNL A   1      48.500  27.018  23.927  1.00  0.00     0.198 A 
ATOM     97  C   UNL A   1      49.370  26.466  25.966  1.00  0.00     0.198 A 
ATOM     98  F   UNL A   1      48.167  26.962  27.909  1.00  0.00    -0.203 F 
ATOM     99  F   UNL A   1      48.500  26.834  22.609  1.00  0.00    -0.200 F 
ATOM    100  C   UNL A   1      49.532  26.558  24.611  1.00  0.00     0.200 A 
ATOM    101  F   UNL A   1      50.303  25.864  26.698  1.00  0.00    -0.200 F 
ATOM    102  F   UNL A   1      50.666  26.203  24.016  1.00  0.00    -0.200 F 
ENDBRANCH  69  92
ENDBRANCH  43  44
ENDBRANCH  36  38
ENDBRANCH  35  36
ENDBRANCH  34  35
ENDBRANCH  33  34
ENDBRANCH  32  33
ENDBRANCH  31  32
ENDBRANCH   1  31
TORSDOF 22
ENDMDL
MODEL 3
REMARK VINA RESULT:     -11.2      4.246      8.883
REMARK SMILES O=C(OCCOCCOCCOCCOC(=O)c1ccc(-c2c3nc(c(-c4c(F)c(F)c(F)c(F)c4F)c4ccc([nH]4)c(-c4c(F)c(F)c(F)c(F)c4F)c4nc(c(-c5c(F)c(F)c(F)c(F)c5F)c5ccc2[nH]5)C=C4)C=C3)cc1)C1=Cc2cc(S(F)(F)(F)(F)F)ccc2O[C@@H]1C(F)(F)F
REMARK SMILES IDX 10 1 9 2 8 3 7 4 6 5 5 6 4 7 3 8 2 9 1 10 81 11 82 12 96 13
REMARK SMILES IDX 83 14 95 15 84 16 94 17 85 18 93 19 92 20 97 21 98 22 99 23
REMARK SMILES IDX 100 24 86 25 87 26 88 27 89 28 90 29 91 30 11 31 12 32 13 33
REMARK SMILES IDX 14 34 15 35 16 36 17 37 18 38 19 39 80 40 20 41 79 42 21 43
REMARK SMILES IDX 22 44 23 45 73 46 24 47 78 48 72 49 74 50 25 51 77 52 71 53
REMARK SMILES IDX 70 54 26 56 58 57 38 58 57 59 39 60 42 61 56 62 75 63 40 64
REMARK SMILES IDX 41 65 55 67 76 68 43 69 27 70 28 71 36 72 29 73 30 74 34 75
REMARK SMILES IDX 37 76 31 77 32 78 35 79 33 80 59 81 60 82 68 83 61 84 62 85
REMARK SMILES IDX 66 86 69 87 63 88 64 89 67 90 65 91 44 92 45 93 53 94 46 95
REMARK SMILES IDX 47 96 51 97 54 98 48 99 49 100 52 101 50 102
REMARK H PARENT 74 55 42 66
REMARK Flexibility Score: inf
ROOT
ATOM      1  C   UNL A   1      32.467  21.122  25.552  1.00  0.00     0.188 C 
ENDROOT
BRANCH   1   2
ATOM      2  O   UNL A   1      32.019  22.343  24.982  1.00  0.00    -0.377 OA
BRANCH   2   3
ATOM      3  C   UNL A   1      31.079  22.956  25.852  1.00  0.00     0.188 C 
BRANCH   3   4
ATOM      4  C   UNL A   1      31.789  23.976  26.728  1.00  0.00     0.188 C 
BRANCH   4   5
ATOM      5  O   UNL A   1      31.149  25.237  26.601  1.00  0.00    -0.376 OA
BRANCH   5   6
ATOM      6  C   UNL A   1      29.907  25.072  25.933  1.00  0.00     0.202 C 
BRANCH   6   7
ATOM      7  C   UNL A   1      29.611  26.308  25.100  1.00  0.00     0.261 C 
BRANCH   7   8
ATOM      8  O   UNL A   1      30.627  26.474  24.122  1.00  0.00    -0.460 OA
BRANCH   8   9
ATOM      9  C   UNL A   1      30.419  27.348  23.022  1.00  0.00     0.338 C 
ATOM     10  O   UNL A   1      30.741  26.981  21.849  1.00  0.00    -0.246 OA
BRANCH   9  11
ATOM     11  C   UNL A   1      29.809  28.723  23.248  1.00  0.00     0.087 C 
ATOM     12  C   UNL A   1      30.488  29.658  23.965  1.00  0.00     0.027 C 
ATOM     13  C   UNL A   1      28.441  29.051  22.673  1.00  0.00     0.316 C 
ATOM     14  C   UNL A   1      31.856  29.329  24.541  1.00  0.00     0.019 A 
ATOM     15  O   UNL A   1      32.348  28.283  22.465  1.00  0.00    -0.475 OA
ATOM     16  C   UNL A   1      32.145  29.617  25.865  1.00  0.00     0.036 A 
ATOM     17  C   UNL A   1      32.734  28.705  23.764  1.00  0.00     0.128 A 
ATOM     18  C   UNL A   1      33.511  29.463  26.200  1.00  0.00     0.107 A 
ATOM     19  C   UNL A   1      34.013  28.465  24.207  1.00  0.00     0.048 A 
ATOM     20  C   UNL A   1      34.385  28.778  25.485  1.00  0.00     0.028 A 
BRANCH  13  21
ATOM     21  C   UNL A   1      28.563  30.228  21.719  1.00  0.00     0.430 C 
ATOM     22  F   UNL A   1      28.289  31.356  22.370  1.00  0.00    -0.167 F 
ATOM     23  F   UNL A   1      29.801  30.284  21.238  1.00  0.00    -0.167 F 
ATOM     24  F   UNL A   1      27.703  30.077  20.716  1.00  0.00    -0.167 F 
ENDBRANCH  13  21
BRANCH  18  25
ATOM     25  S   UNL A   1      34.101  30.256  27.716  1.00  0.00     0.310 S 
ATOM     26  F   UNL A   1      35.465  30.695  27.037  1.00  0.00    -0.094 F 
ATOM     27  F   UNL A   1      34.815  28.911  28.120  1.00  0.00    -0.094 F 
ATOM     28  F   UNL A   1      34.599  30.945  29.018  1.00  0.00    -0.094 F 
ATOM     29  F   UNL A   1      33.499  31.633  27.228  1.00  0.00    -0.094 F 
ATOM     30  F   UNL A   1      33.685  29.603  26.338  1.00  0.00    -0.094 F 
ENDBRANCH  18  25
ENDBRANCH   9  11
ENDBRANCH   8   9
ENDBRANCH   7   8
ENDBRANCH   6   7
ENDBRANCH   5   6
ENDBRANCH   4   5
ENDBRANCH   3   4
ENDBRANCH   2   3
ENDBRANCH   1   2
BRANCH   1  31
ATOM     31  C   UNL A   1      33.973  21.010  25.389  1.00  0.00     0.188 C 
BRANCH  31  32
ATOM     32  O   UNL A   1      34.549  22.308  25.389  1.00  0.00    -0.376 OA
BRANCH  32  33
ATOM     33  C   UNL A   1      35.730  22.302  26.177  1.00  0.00     0.202 C 
BRANCH  33  34
ATOM     34  C   UNL A   1      36.617  23.468  25.770  1.00  0.00     0.261 C 
BRANCH  34  35
ATOM     35  O   UNL A   1      37.903  22.982  25.414  1.00  0.00    -0.460 OA
BRANCH  35  36
ATOM     36  C   UNL A   1      38.963  23.018  26.358  1.00  0.00     0.338 C 
ATOM     37  O   UNL A   1      39.561  21.944  26.684  1.00  0.00    -0.246 OA
BRANCH  36  38
ATOM     38  C   UNL A   1      39.383  24.340  26.980  1.00  0.00     0.060 A 
ATOM     39  C   UNL A   1      39.214  24.569  28.336  1.00  0.00     0.016 A 
ATOM     40  C   UNL A   1      40.001  25.222  26.204  1.00  0.00     0.016 A 
ATOM     41  C   UNL A   1      39.481  25.902  28.729  1.00  0.00     0.010 A 
ATOM     42  C   UNL A   1      40.356  26.456  26.692  1.00  0.00     0.010 A 
ATOM     43  C   UNL A   1      40.164  26.773  28.009  1.00  0.00    -0.014 A 
BRANCH  43  44
ATOM     44  C   UNL A   1      40.708  28.059  28.611  1.00  0.00     0.031 A 
ATOM     45  C   UNL A   1      42.078  28.100  28.877  1.00  0.00     0.074 A 
ATOM     46  C   UNL A   1      39.821  29.064  28.954  1.00  0.00     0.049 A 
ATOM     47  N   UNL A   1      42.765  29.088  29.453  1.00  0.00    -0.248 NA
ATOM     48  C   UNL A   1      43.015  27.017  28.544  1.00  0.00     0.031 C 
ATOM     49  C   UNL A   1      38.440  29.033  28.682  1.00  0.00     0.029 A 
ATOM     50  N   UNL A   1      40.097  30.249  29.602  1.00  0.00    -0.354 N 
ATOM     51  C   UNL A   1      44.060  28.772  29.518  1.00  0.00     0.074 A 
ATOM     52  C   UNL A   1      44.239  27.433  28.940  1.00  0.00     0.031 C 
ATOM     53  C   UNL A   1      37.888  30.176  29.169  1.00  0.00     0.029 A 
ATOM     54  C   UNL A   1      38.915  30.941  29.754  1.00  0.00     0.049 A 
ATOM     55  H   UNL A   1      40.984  30.547  29.905  1.00  0.00     0.167 HD
ATOM     56  C   UNL A   1      45.098  29.548  30.035  1.00  0.00     0.037 A 
ATOM     57  C   UNL A   1      38.723  32.169  30.365  1.00  0.00     0.037 A 
ATOM     58  C   UNL A   1      44.912  30.796  30.608  1.00  0.00     0.049 A 
ATOM     59  C   UNL A   1      39.755  32.920  30.935  1.00  0.00     0.074 A 
ATOM     60  C   UNL A   1      45.949  31.595  31.127  1.00  0.00     0.029 A 
ATOM     61  N   UNL A   1      43.728  31.477  30.781  1.00  0.00    -0.354 N 
ATOM     62  N   UNL A   1      41.054  32.622  30.965  1.00  0.00    -0.248 NA
ATOM     63  C   UNL A   1      39.559  34.208  31.615  1.00  0.00     0.031 C 
ATOM     64  C   UNL A   1      45.397  32.738  31.615  1.00  0.00     0.029 A 
ATOM     65  C   UNL A   1      44.006  32.671  31.410  1.00  0.00     0.049 A 
ATOM     66  H   UNL A   1      42.836  31.165  30.505  1.00  0.00     0.167 HD
ATOM     67  C   UNL A   1      41.735  33.591  31.579  1.00  0.00     0.074 A 
ATOM     68  C   UNL A   1      40.782  34.622  32.012  1.00  0.00     0.031 C 
ATOM     69  C   UNL A   1      43.113  33.660  31.793  1.00  0.00     0.037 A 
BRANCH  56  70
ATOM     70  C   UNL A   1      46.511  28.992  29.967  1.00  0.00     0.064 A 
ATOM     71  C   UNL A   1      47.316  29.217  28.861  1.00  0.00     0.173 A 
ATOM     72  C   UNL A   1      46.906  28.202  30.957  1.00  0.00     0.173 A 
ATOM     73  F   UNL A   1      47.082  30.183  27.978  1.00  0.00    -0.203 F 
ATOM     74  C   UNL A   1      48.410  28.326  28.759  1.00  0.00     0.198 A 
ATOM     75  C   UNL A   1      48.058  27.461  30.844  1.00  0.00     0.198 A 
ATOM     76  F   UNL A   1      46.180  28.125  32.070  1.00  0.00    -0.203 F 
ATOM     77  F   UNL A   1      49.016  28.223  27.579  1.00  0.00    -0.200 F 
ATOM     78  C   UNL A   1      48.872  27.589  29.753  1.00  0.00     0.200 A 
ATOM     79  F   UNL A   1      48.386  26.609  31.811  1.00  0.00    -0.200 F 
ATOM     80  F   UNL A   1      50.064  27.002  29.695  1.00  0.00    -0.200 F 
ENDBRANCH  56  70
BRANCH  57  81
ATOM     81  C   UNL A   1      37.313  32.731  30.418  1.00  0.00     0.064 A 
ATOM     82  C   UNL A   1      36.464  32.556  31.498  1.00  0.00     0.173 A 
ATOM     83  C   UNL A   1      36.956  33.469  29.373  1.00  0.00     0.173 A 
ATOM     84  F   UNL A   1      36.863  32.046  32.660  1.00  0.00    -0.203 F 
ATOM     85  C   UNL A   1      35.132  32.969  31.254  1.00  0.00     0.198 A 
ATOM     86  C   UNL A   1      35.675  33.955  29.265  1.00  0.00     0.198 A 
ATOM     87  F   UNL A   1      37.846  33.741  28.424  1.00  0.00    -0.203 F 
ATOM     88  F   UNL A   1      34.185  32.520  32.072  1.00  0.00    -0.200 F 
ATOM     89  C   UNL A   1      34.765  33.769  30.269  1.00  0.00     0.200 A 
ATOM     90  F   UNL A   1      35.314  34.615  28.169  1.00  0.00    -0.200 F 
ATOM     91  F   UNL A   1      33.575  34.361  30.254  1.00  0.00    -0.200 F 
ENDBRANCH  57  81
BRANCH  69  92
ATOM     92  C   UNL A   1      43.668  34.893  32.486  1.00  0.00     0.064 A 
ATOM     93  C   UNL A   1      43.917  34.891  33.849  1.00  0.00     0.173 A 
ATOM     94  C   UNL A   1      44.004  35.928  31.725  1.00  0.00     0.173 A 
ATOM     95  F   UNL A   1      43.834  33.796  34.599  1.00  0.00    -0.203 F 
ATOM     96  C   UNL A   1      44.270  36.159  34.369  1.00  0.00     0.198 A 
ATOM     97  C   UNL A   1      44.472  37.090  32.292  1.00  0.00     0.198 A 
ATOM     98  F   UNL A   1      43.889  35.839  30.404  1.00  0.00    -0.203 F 
ATOM     99  F   UNL A   1      44.177  36.336  35.684  1.00  0.00    -0.200 F 
ATOM    100  C   UNL A   1      44.687  37.178  33.640  1.00  0.00     0.200 A 
ATOM    101  F   UNL A   1      44.718  38.143  31.518  1.00  0.00    -0.200 F 
ATOM    102  F   UNL A   1      45.282  38.233  34.186  1.00  0.00    -0.200 F 
ENDBRANCH  69  92
ENDBRANCH  43  44
ENDBRANCH  36  38
ENDBRANCH  35  36
ENDBRANCH  34  35
ENDBRANCH  33  34
ENDBRANCH  32  33
ENDBRANCH  31  32
ENDBRANCH   1  31
TORSDOF 22
ENDMDL
