MODEL 1
REMARK VINA RESULT:     -10.6      0.000      0.000
REMARK SMILES O=C(OCCOCCOCCOCCOC(=O)c1ccc(F)cc1-c1ccc(F)c(Cl)c1)c1ccc(-c2c3nc(c(-c4c(F)c(F)c(F)c(F)c4F)c4ccc([nH]4)c(-c4c(F)c(F)c(F)c(F)c4F)c4nc(c(-c5c(F)c(F)c(F)c(F)c5F)c5ccc2[nH]5)C=C4)C=C3)cc1
REMARK SMILES IDX 8 1 7 2 6 3 5 4 4 5 3 6 2 7 1 8 33 9 34 10 95 11 35 12 94 13
REMARK SMILES IDX 36 14 37 15 38 16 88 17 39 18 93 19 87 20 89 21 40 22 92 23
REMARK SMILES IDX 86 24 85 25 41 27 73 28 53 29 72 30 54 31 57 32 71 33 90 34
REMARK SMILES IDX 55 35 56 36 70 38 91 39 58 40 42 41 43 42 51 43 44 44 45 45
REMARK SMILES IDX 49 46 52 47 46 48 47 49 50 50 48 51 74 52 75 53 83 54 76 55
REMARK SMILES IDX 77 56 81 57 84 58 78 59 79 60 82 61 80 62 59 63 60 64 68 65
REMARK SMILES IDX 61 66 62 67 66 68 69 69 63 70 64 71 67 72 65 73 9 74 10 75
REMARK SMILES IDX 11 76 12 77 13 78 14 79 15 80 16 81 17 82 18 83 19 84 24 85
REMARK SMILES IDX 20 86 23 87 21 88 22 89 25 90 26 91 32 92 27 93 30 94 28 95
REMARK SMILES IDX 31 96 29 97
REMARK H PARENT 89 26 57 37
REMARK Flexibility Score: inf
ROOT
ATOM      1  C   UNL A   1      32.849  21.432  23.889  1.00  0.00     0.188 C 
ENDROOT
BRANCH   1   2
ATOM      2  C   UNL A   1      33.984  21.390  24.910  1.00  0.00     0.188 C 
BRANCH   2   3
ATOM      3  O   UNL A   1      34.943  22.428  24.713  1.00  0.00    -0.376 OA
BRANCH   3   4
ATOM      4  C   UNL A   1      36.037  22.433  25.636  1.00  0.00     0.202 C 
BRANCH   4   5
ATOM      5  C   UNL A   1      36.784  21.096  25.636  1.00  0.00     0.261 C 
BRANCH   5   6
ATOM      6  O   UNL A   1      38.164  21.273  25.277  1.00  0.00    -0.460 OA
BRANCH   6   7
ATOM      7  C   UNL A   1      39.223  21.414  26.112  1.00  0.00     0.338 C 
ATOM      8  O   UNL A   1      39.872  20.411  26.408  1.00  0.00    -0.246 OA
BRANCH   7   9
ATOM      9  C   UNL A   1      39.710  22.734  26.629  1.00  0.00     0.060 A 
ATOM     10  C   UNL A   1      39.201  23.986  26.280  1.00  0.00     0.016 A 
ATOM     11  C   UNL A   1      40.741  22.694  27.585  1.00  0.00     0.016 A 
ATOM     12  C   UNL A   1      39.718  25.157  26.800  1.00  0.00     0.010 A 
ATOM     13  C   UNL A   1      41.259  23.871  28.139  1.00  0.00     0.010 A 
ATOM     14  C   UNL A   1      40.754  25.106  27.724  1.00  0.00    -0.014 A 
BRANCH  14  15
ATOM     15  C   UNL A   1      41.380  26.387  28.078  1.00  0.00     0.031 A 
ATOM     16  C   UNL A   1      42.748  26.662  27.539  1.00  0.00     0.074 A 
ATOM     17  C   UNL A   1      40.641  27.341  28.672  1.00  0.00     0.049 A 
ATOM     18  N   UNL A   1      43.519  27.697  27.728  1.00  0.00    -0.248 NA
ATOM     19  C   UNL A   1      43.319  25.642  26.640  1.00  0.00     0.031 C 
ATOM     20  C   UNL A   1      39.232  27.199  29.053  1.00  0.00     0.029 A 
ATOM     21  N   UNL A   1      40.946  28.633  29.003  1.00  0.00    -0.354 N 
ATOM     22  C   UNL A   1      44.673  27.436  27.004  1.00  0.00     0.074 A 
ATOM     23  C   UNL A   1      44.508  26.153  26.363  1.00  0.00     0.031 C 
ATOM     24  C   UNL A   1      38.786  28.373  29.529  1.00  0.00     0.029 A 
ATOM     25  C   UNL A   1      39.897  29.315  29.569  1.00  0.00     0.049 A 
ATOM     26  H   UNL A   1      41.832  29.034  28.850  1.00  0.00     0.167 HD
ATOM     27  C   UNL A   1      45.773  28.211  26.901  1.00  0.00     0.037 A 
ATOM     28  C   UNL A   1      39.867  30.555  30.094  1.00  0.00     0.037 A 
ATOM     29  C   UNL A   1      45.885  29.493  27.540  1.00  0.00     0.049 A 
ATOM     30  C   UNL A   1      41.149  31.346  30.072  1.00  0.00     0.074 A 
ATOM     31  C   UNL A   1      46.975  30.339  27.602  1.00  0.00     0.029 A 
ATOM     32  N   UNL A   1      44.844  30.117  28.216  1.00  0.00    -0.354 N 
ATOM     33  N   UNL A   1      42.294  31.047  29.505  1.00  0.00    -0.248 NA
ATOM     34  C   UNL A   1      41.148  32.628  30.787  1.00  0.00     0.031 C 
ATOM     35  C   UNL A   1      46.604  31.459  28.352  1.00  0.00     0.029 A 
ATOM     36  C   UNL A   1      45.269  31.335  28.713  1.00  0.00     0.049 A 
ATOM     37  H   UNL A   1      43.939  29.747  28.326  1.00  0.00     0.167 HD
ATOM     38  C   UNL A   1      43.148  32.102  29.785  1.00  0.00     0.074 A 
ATOM     39  C   UNL A   1      42.377  33.064  30.549  1.00  0.00     0.031 C 
ATOM     40  C   UNL A   1      44.454  32.261  29.458  1.00  0.00     0.037 A 
BRANCH  27  41
ATOM     41  C   UNL A   1      46.943  27.664  26.144  1.00  0.00     0.064 A 
ATOM     42  C   UNL A   1      47.019  27.836  24.753  1.00  0.00     0.173 A 
ATOM     43  C   UNL A   1      47.980  26.966  26.777  1.00  0.00     0.173 A 
ATOM     44  F   UNL A   1      46.059  28.510  24.102  1.00  0.00    -0.203 F 
ATOM     45  C   UNL A   1      48.083  27.317  24.023  1.00  0.00     0.198 A 
ATOM     46  C   UNL A   1      49.056  26.466  26.046  1.00  0.00     0.198 A 
ATOM     47  F   UNL A   1      47.971  26.806  28.109  1.00  0.00    -0.203 F 
ATOM     48  F   UNL A   1      48.126  27.481  22.693  1.00  0.00    -0.200 F 
ATOM     49  C   UNL A   1      49.103  26.634  24.670  1.00  0.00     0.200 A 
ATOM     50  F   UNL A   1      50.057  25.834  26.676  1.00  0.00    -0.200 F 
ATOM     51  F   UNL A   1      50.134  26.146  23.967  1.00  0.00    -0.200 F 
ENDBRANCH  27  41
BRANCH  28  52
ATOM     52  C   UNL A   1      38.631  31.080  30.737  1.00  0.00     0.064 A 
ATOM     53  C   UNL A   1      38.397  30.912  32.112  1.00  0.00     0.173 A 
ATOM     54  C   UNL A   1      37.667  31.782  30.001  1.00  0.00     0.173 A 
ATOM     55  F   UNL A   1      39.287  30.259  32.872  1.00  0.00    -0.203 F 
ATOM     56  C   UNL A   1      37.243  31.405  32.718  1.00  0.00     0.198 A 
ATOM     57  C   UNL A   1      36.528  32.305  30.615  1.00  0.00     0.198 A 
ATOM     58  F   UNL A   1      37.849  31.994  28.689  1.00  0.00    -0.203 F 
ATOM     59  F   UNL A   1      37.036  31.201  34.026  1.00  0.00    -0.200 F 
ATOM     60  C   UNL A   1      36.314  32.111  31.971  1.00  0.00     0.200 A 
ATOM     61  F   UNL A   1      35.648  33.015  29.896  1.00  0.00    -0.200 F 
ATOM     62  F   UNL A   1      35.219  32.612  32.559  1.00  0.00    -0.200 F 
ENDBRANCH  28  52
BRANCH  40  63
ATOM     63  C   UNL A   1      45.117  33.526  29.908  1.00  0.00     0.064 A 
ATOM     64  C   UNL A   1      45.172  34.637  29.054  1.00  0.00     0.173 A 
ATOM     65  C   UNL A   1      45.764  33.607  31.149  1.00  0.00     0.173 A 
ATOM     66  F   UNL A   1      44.575  34.598  27.853  1.00  0.00    -0.203 F 
ATOM     67  C   UNL A   1      45.870  35.781  29.421  1.00  0.00     0.198 A 
ATOM     68  C   UNL A   1      46.434  34.765  31.525  1.00  0.00     0.198 A 
ATOM     69  F   UNL A   1      45.724  32.572  32.001  1.00  0.00    -0.203 F 
ATOM     70  F   UNL A   1      45.947  36.817  28.575  1.00  0.00    -0.200 F 
ATOM     71  C   UNL A   1      46.497  35.845  30.656  1.00  0.00     0.200 A 
ATOM     72  F   UNL A   1      47.017  34.837  32.729  1.00  0.00    -0.200 F 
ATOM     73  F   UNL A   1      47.161  36.954  31.013  1.00  0.00    -0.200 F 
ENDBRANCH  40  63
ENDBRANCH  14  15
ENDBRANCH   7   9
ENDBRANCH   6   7
ENDBRANCH   5   6
ENDBRANCH   4   5
ENDBRANCH   3   4
ENDBRANCH   2   3
ENDBRANCH   1   2
BRANCH   1  74
ATOM     74  O   UNL A   1      33.154  22.363  22.859  1.00  0.00    -0.377 OA
BRANCH  74  75
ATOM     75  C   UNL A   1      32.291  23.497  22.819  1.00  0.00     0.188 C 
BRANCH  75  76
ATOM     76  C   UNL A   1      32.742  24.746  22.030  1.00  0.00     0.188 C 
BRANCH  76  77
ATOM     77  O   UNL A   1      34.008  25.226  22.487  1.00  0.00    -0.376 OA
BRANCH  77  78
ATOM     78  C   UNL A   1      34.007  26.596  22.898  1.00  0.00     0.202 C 
BRANCH  78  79
ATOM     79  C   UNL A   1      33.166  27.515  22.005  1.00  0.00     0.261 C 
BRANCH  79  80
ATOM     80  O   UNL A   1      32.643  28.703  22.636  1.00  0.00    -0.460 OA
BRANCH  80  81
ATOM     81  C   UNL A   1      31.320  28.855  22.886  1.00  0.00     0.338 C 
ATOM     82  O   UNL A   1      30.557  29.611  22.315  1.00  0.00    -0.246 OA
BRANCH  81  83
ATOM     83  C   UNL A   1      30.960  27.822  23.909  1.00  0.00     0.068 A 
ATOM     84  C   UNL A   1      30.023  26.846  23.495  1.00  0.00     0.019 A 
ATOM     85  C   UNL A   1      31.401  27.851  25.259  1.00  0.00    -0.001 A 
ATOM     86  C   UNL A   1      29.517  25.905  24.389  1.00  0.00     0.040 A 
ATOM     87  C   UNL A   1      30.901  26.847  26.124  1.00  0.00     0.048 A 
ATOM     88  C   UNL A   1      29.970  25.908  25.695  1.00  0.00     0.123 A 
ATOM     89  F   UNL A   1      29.483  25.018  26.568  1.00  0.00    -0.207 F 
BRANCH  85  90
ATOM     90  C   UNL A   1      32.228  28.901  25.899  1.00  0.00    -0.016 A 
ATOM     91  C   UNL A   1      31.655  30.169  26.170  1.00  0.00     0.012 A 
ATOM     92  C   UNL A   1      33.533  28.670  26.354  1.00  0.00     0.032 A 
ATOM     93  C   UNL A   1      32.356  31.165  26.853  1.00  0.00     0.041 A 
ATOM     94  C   UNL A   1      34.233  29.666  27.051  1.00  0.00     0.077 A 
ATOM     95  C   UNL A   1      33.643  30.905  27.293  1.00  0.00     0.141 A 
ATOM     96  Cl  UNL A   1      35.817  29.335  27.638  1.00  0.00    -0.081 Cl
ATOM     97  F   UNL A   1      34.294  31.863  27.969  1.00  0.00    -0.205 F 
ENDBRANCH  85  90
ENDBRANCH  81  83
ENDBRANCH  80  81
ENDBRANCH  79  80
ENDBRANCH  78  79
ENDBRANCH  77  78
ENDBRANCH  76  77
ENDBRANCH  75  76
ENDBRANCH  74  75
ENDBRANCH   1  74
TORSDOF 21
ENDMDL
MODEL 2
REMARK VINA RESULT:     -10.5      4.318      7.084
REMARK SMILES O=C(OCCOCCOCCOCCOC(=O)c1ccc(F)cc1-c1ccc(F)c(Cl)c1)c1ccc(-c2c3nc(c(-c4c(F)c(F)c(F)c(F)c4F)c4ccc([nH]4)c(-c4c(F)c(F)c(F)c(F)c4F)c4nc(c(-c5c(F)c(F)c(F)c(F)c5F)c5ccc2[nH]5)C=C4)C=C3)cc1
REMARK SMILES IDX 8 1 7 2 6 3 5 4 4 5 3 6 2 7 1 8 33 9 34 10 95 11 35 12 94 13
REMARK SMILES IDX 36 14 37 15 38 16 88 17 39 18 93 19 87 20 89 21 40 22 92 23
REMARK SMILES IDX 86 24 85 25 41 27 73 28 53 29 72 30 54 31 57 32 71 33 90 34
REMARK SMILES IDX 55 35 56 36 70 38 91 39 58 40 42 41 43 42 51 43 44 44 45 45
REMARK SMILES IDX 49 46 52 47 46 48 47 49 50 50 48 51 74 52 75 53 83 54 76 55
REMARK SMILES IDX 77 56 81 57 84 58 78 59 79 60 82 61 80 62 59 63 60 64 68 65
REMARK SMILES IDX 61 66 62 67 66 68 69 69 63 70 64 71 67 72 65 73 9 74 10 75
REMARK SMILES IDX 11 76 12 77 13 78 14 79 15 80 16 81 17 82 18 83 19 84 24 85
REMARK SMILES IDX 20 86 23 87 21 88 22 89 25 90 26 91 32 92 27 93 30 94 28 95
REMARK SMILES IDX 31 96 29 97
REMARK H PARENT 89 26 57 37
REMARK Flexibility Score: inf
ROOT
ATOM      1  C   UNL A   1      40.352  20.557  26.498  1.00  0.00     0.188 C 
ENDROOT
BRANCH   1   2
ATOM      2  C   UNL A   1      41.186  21.297  27.540  1.00  0.00     0.188 C 
BRANCH   2   3
ATOM      3  O   UNL A   1      42.577  21.315  27.223  1.00  0.00    -0.376 OA
BRANCH   3   4
ATOM      4  C   UNL A   1      42.904  20.919  25.886  1.00  0.00     0.202 C 
BRANCH   4   5
ATOM      5  C   UNL A   1      43.277  22.121  25.015  1.00  0.00     0.261 C 
BRANCH   5   6
ATOM      6  O   UNL A   1      44.134  23.031  25.724  1.00  0.00    -0.460 OA
BRANCH   6   7
ATOM      7  C   UNL A   1      44.157  24.384  25.634  1.00  0.00     0.338 C 
ATOM      8  O   UNL A   1      44.681  24.896  24.646  1.00  0.00    -0.246 OA
BRANCH   7   9
ATOM      9  C   UNL A   1      43.502  25.298  26.625  1.00  0.00     0.060 A 
ATOM     10  C   UNL A   1      43.788  26.653  26.798  1.00  0.00     0.016 A 
ATOM     11  C   UNL A   1      42.476  24.743  27.413  1.00  0.00     0.016 A 
ATOM     12  C   UNL A   1      43.139  27.422  27.746  1.00  0.00     0.010 A 
ATOM     13  C   UNL A   1      41.794  25.516  28.359  1.00  0.00     0.010 A 
ATOM     14  C   UNL A   1      42.147  26.856  28.536  1.00  0.00    -0.014 A 
BRANCH  14  15
ATOM     15  C   UNL A   1      41.647  27.676  29.648  1.00  0.00     0.031 A 
ATOM     16  C   UNL A   1      42.496  27.771  30.876  1.00  0.00     0.074 A 
ATOM     17  C   UNL A   1      40.582  28.475  29.452  1.00  0.00     0.049 A 
ATOM     18  N   UNL A   1      42.265  28.402  31.994  1.00  0.00    -0.248 NA
ATOM     19  C   UNL A   1      43.798  27.080  30.831  1.00  0.00     0.031 C 
ATOM     20  C   UNL A   1      39.821  28.572  28.202  1.00  0.00     0.029 A 
ATOM     21  N   UNL A   1      39.994  29.398  30.271  1.00  0.00    -0.354 N 
ATOM     22  C   UNL A   1      43.373  28.155  32.793  1.00  0.00     0.074 A 
ATOM     23  C   UNL A   1      44.281  27.326  32.039  1.00  0.00     0.031 C 
ATOM     24  C   UNL A   1      38.891  29.532  28.328  1.00  0.00     0.029 A 
ATOM     25  C   UNL A   1      38.935  30.051  29.690  1.00  0.00     0.049 A 
ATOM     26  H   UNL A   1      40.300  29.578  31.190  1.00  0.00     0.167 HD
ATOM     27  C   UNL A   1      43.591  28.587  34.053  1.00  0.00     0.037 A 
ATOM     28  C   UNL A   1      38.078  30.940  30.227  1.00  0.00     0.037 A 
ATOM     29  C   UNL A   1      42.667  29.431  34.758  1.00  0.00     0.049 A 
ATOM     30  C   UNL A   1      38.279  31.306  31.674  1.00  0.00     0.074 A 
ATOM     31  C   UNL A   1      42.713  29.862  36.069  1.00  0.00     0.029 A 
ATOM     32  N   UNL A   1      41.529  29.986  34.185  1.00  0.00    -0.354 N 
ATOM     33  N   UNL A   1      39.254  30.965  32.484  1.00  0.00    -0.248 NA
ATOM     34  C   UNL A   1      37.250  32.149  32.293  1.00  0.00     0.031 C 
ATOM     35  C   UNL A   1      41.579  30.647  36.301  1.00  0.00     0.029 A 
ATOM     36  C   UNL A   1      40.855  30.747  35.120  1.00  0.00     0.049 A 
ATOM     37  H   UNL A   1      41.245  29.856  33.252  1.00  0.00     0.167 HD
ATOM     38  C   UNL A   1      38.964  31.556  33.703  1.00  0.00     0.074 A 
ATOM     39  C   UNL A   1      37.735  32.303  33.518  1.00  0.00     0.031 C 
ATOM     40  C   UNL A   1      39.639  31.481  34.878  1.00  0.00     0.037 A 
BRANCH  27  41
ATOM     41  C   UNL A   1      44.820  28.097  34.754  1.00  0.00     0.064 A 
ATOM     42  C   UNL A   1      44.788  26.885  35.459  1.00  0.00     0.173 A 
ATOM     43  C   UNL A   1      46.022  28.818  34.740  1.00  0.00     0.173 A 
ATOM     44  F   UNL A   1      43.666  26.150  35.489  1.00  0.00    -0.203 F 
ATOM     45  C   UNL A   1      45.910  26.419  36.137  1.00  0.00     0.198 A 
ATOM     46  C   UNL A   1      47.151  28.339  35.402  1.00  0.00     0.198 A 
ATOM     47  F   UNL A   1      46.114  29.966  34.050  1.00  0.00    -0.203 F 
ATOM     48  F   UNL A   1      45.851  25.266  36.817  1.00  0.00    -0.200 F 
ATOM     49  C   UNL A   1      47.092  27.146  36.107  1.00  0.00     0.200 A 
ATOM     50  F   UNL A   1      48.301  29.024  35.345  1.00  0.00    -0.200 F 
ATOM     51  F   UNL A   1      48.175  26.690  36.749  1.00  0.00    -0.200 F 
ENDBRANCH  27  41
BRANCH  28  52
ATOM     52  C   UNL A   1      36.936  31.473  29.433  1.00  0.00     0.064 A 
ATOM     53  C   UNL A   1      35.857  30.652  29.067  1.00  0.00     0.173 A 
ATOM     54  C   UNL A   1      36.883  32.818  29.043  1.00  0.00     0.173 A 
ATOM     55  F   UNL A   1      35.844  29.358  29.419  1.00  0.00    -0.203 F 
ATOM     56  C   UNL A   1      34.785  31.148  28.327  1.00  0.00     0.198 A 
ATOM     57  C   UNL A   1      35.793  33.322  28.332  1.00  0.00     0.198 A 
ATOM     58  F   UNL A   1      37.874  33.655  29.387  1.00  0.00    -0.203 F 
ATOM     59  F   UNL A   1      33.786  30.330  27.968  1.00  0.00    -0.200 F 
ATOM     60  C   UNL A   1      34.749  32.486  27.970  1.00  0.00     0.200 A 
ATOM     61  F   UNL A   1      35.746  34.624  28.017  1.00  0.00    -0.200 F 
ATOM     62  F   UNL A   1      33.704  32.971  27.285  1.00  0.00    -0.200 F 
ENDBRANCH  28  52
BRANCH  40  63
ATOM     63  C   UNL A   1      39.070  32.239  36.036  1.00  0.00     0.064 A 
ATOM     64  C   UNL A   1      39.473  33.560  36.283  1.00  0.00     0.173 A 
ATOM     65  C   UNL A   1      38.190  31.631  36.943  1.00  0.00     0.173 A 
ATOM     66  F   UNL A   1      40.321  34.176  35.446  1.00  0.00    -0.203 F 
ATOM     67  C   UNL A   1      39.029  34.239  37.411  1.00  0.00     0.198 A 
ATOM     68  C   UNL A   1      37.724  32.325  38.053  1.00  0.00     0.198 A 
ATOM     69  F   UNL A   1      37.770  30.374  36.737  1.00  0.00    -0.203 F 
ATOM     70  F   UNL A   1      39.457  35.485  37.652  1.00  0.00    -0.200 F 
ATOM     71  C   UNL A   1      38.152  33.624  38.292  1.00  0.00     0.200 A 
ATOM     72  F   UNL A   1      36.857  31.740  38.890  1.00  0.00    -0.200 F 
ATOM     73  F   UNL A   1      37.717  34.284  39.374  1.00  0.00    -0.200 F 
ENDBRANCH  40  63
ENDBRANCH  14  15
ENDBRANCH   7   9
ENDBRANCH   6   7
ENDBRANCH   5   6
ENDBRANCH   4   5
ENDBRANCH   3   4
ENDBRANCH   2   3
ENDBRANCH   1   2
BRANCH   1  74
ATOM     74  O   UNL A   1      39.322  21.404  26.005  1.00  0.00    -0.377 OA
BRANCH  74  75
ATOM     75  C   UNL A   1      39.432  22.763  26.422  1.00  0.00     0.188 C 
BRANCH  75  76
ATOM     76  C   UNL A   1      38.163  23.644  26.418  1.00  0.00     0.188 C 
BRANCH  76  77
ATOM     77  O   UNL A   1      37.039  22.944  25.878  1.00  0.00    -0.376 OA
BRANCH  77  78
ATOM     78  C   UNL A   1      35.827  23.703  25.855  1.00  0.00     0.202 C 
BRANCH  78  79
ATOM     79  C   UNL A   1      34.708  23.120  26.724  1.00  0.00     0.261 C 
BRANCH  79  80
ATOM     80  O   UNL A   1      33.437  23.800  26.658  1.00  0.00    -0.460 OA
BRANCH  80  81
ATOM     81  C   UNL A   1      32.263  23.122  26.656  1.00  0.00     0.338 C 
ATOM     82  O   UNL A   1      31.465  23.054  27.571  1.00  0.00    -0.246 OA
BRANCH  81  83
ATOM     83  C   UNL A   1      32.086  22.585  25.269  1.00  0.00     0.068 A 
ATOM     84  C   UNL A   1      32.403  21.217  25.094  1.00  0.00     0.019 A 
ATOM     85  C   UNL A   1      31.750  23.383  24.143  1.00  0.00    -0.001 A 
ATOM     86  C   UNL A   1      32.395  20.630  23.831  1.00  0.00     0.040 A 
ATOM     87  C   UNL A   1      31.705  22.736  22.884  1.00  0.00     0.048 A 
ATOM     88  C   UNL A   1      32.035  21.394  22.737  1.00  0.00     0.123 A 
ATOM     89  F   UNL A   1      32.035  20.846  21.516  1.00  0.00    -0.207 F 
BRANCH  85  90
ATOM     90  C   UNL A   1      31.571  24.854  24.121  1.00  0.00    -0.016 A 
ATOM     91  C   UNL A   1      30.333  25.409  24.531  1.00  0.00     0.012 A 
ATOM     92  C   UNL A   1      32.609  25.743  23.815  1.00  0.00     0.032 A 
ATOM     93  C   UNL A   1      30.136  26.789  24.620  1.00  0.00     0.041 A 
ATOM     94  C   UNL A   1      32.417  27.129  23.916  1.00  0.00     0.077 A 
ATOM     95  C   UNL A   1      31.184  27.642  24.314  1.00  0.00     0.141 A 
ATOM     96  Cl  UNL A   1      33.727  28.194  23.579  1.00  0.00    -0.081 Cl
ATOM     97  F   UNL A   1      30.986  28.963  24.427  1.00  0.00    -0.205 F 
ENDBRANCH  85  90
ENDBRANCH  81  83
ENDBRANCH  80  81
ENDBRANCH  79  80
ENDBRANCH  78  79
ENDBRANCH  77  78
ENDBRANCH  76  77
ENDBRANCH  75  76
ENDBRANCH  74  75
ENDBRANCH   1  74
TORSDOF 21
ENDMDL
MODEL 3
REMARK VINA RESULT:     -10.4      0.792      7.169
REMARK SMILES O=C(OCCOCCOCCOCCOC(=O)c1ccc(F)cc1-c1ccc(F)c(Cl)c1)c1ccc(-c2c3nc(c(-c4c(F)c(F)c(F)c(F)c4F)c4ccc([nH]4)c(-c4c(F)c(F)c(F)c(F)c4F)c4nc(c(-c5c(F)c(F)c(F)c(F)c5F)c5ccc2[nH]5)C=C4)C=C3)cc1
REMARK SMILES IDX 8 1 7 2 6 3 5 4 4 5 3 6 2 7 1 8 33 9 34 10 95 11 35 12 94 13
REMARK SMILES IDX 36 14 37 15 38 16 88 17 39 18 93 19 87 20 89 21 40 22 92 23
REMARK SMILES IDX 86 24 85 25 41 27 73 28 53 29 72 30 54 31 57 32 71 33 90 34
REMARK SMILES IDX 55 35 56 36 70 38 91 39 58 40 42 41 43 42 51 43 44 44 45 45
REMARK SMILES IDX 49 46 52 47 46 48 47 49 50 50 48 51 74 52 75 53 83 54 76 55
REMARK SMILES IDX 77 56 81 57 84 58 78 59 79 60 82 61 80 62 59 63 60 64 68 65
REMARK SMILES IDX 61 66 62 67 66 68 69 69 63 70 64 71 67 72 65 73 9 74 10 75
REMARK SMILES IDX 11 76 12 77 13 78 14 79 15 80 16 81 17 82 18 83 19 84 24 85
REMARK SMILES IDX 20 86 23 87 21 88 22 89 25 90 26 91 32 92 27 93 30 94 28 95
REMARK SMILES IDX 31 96 29 97
REMARK H PARENT 89 26 57 37
REMARK Flexibility Score: inf
ROOT
ATOM      1  C   UNL A   1      33.216  21.555  24.187  1.00  0.00     0.188 C 
ENDROOT
BRANCH   1   2
ATOM      2  C   UNL A   1      34.654  21.430  24.682  1.00  0.00     0.188 C 
BRANCH   2   3
ATOM      3  O   UNL A   1      35.581  22.159  23.878  1.00  0.00    -0.376 OA
BRANCH   3   4
ATOM      4  C   UNL A   1      36.844  22.431  24.496  1.00  0.00     0.202 C 
BRANCH   4   5
ATOM      5  C   UNL A   1      37.242  21.328  25.481  1.00  0.00     0.261 C 
BRANCH   5   6
ATOM      6  O   UNL A   1      38.663  21.120  25.481  1.00  0.00    -0.460 OA
BRANCH   6   7
ATOM      7  C   UNL A   1      39.538  21.392  26.481  1.00  0.00     0.338 C 
ATOM      8  O   UNL A   1      39.995  20.452  27.130  1.00  0.00    -0.246 OA
BRANCH   7   9
ATOM      9  C   UNL A   1      40.054  22.765  26.790  1.00  0.00     0.060 A 
ATOM     10  C   UNL A   1      39.606  23.955  26.213  1.00  0.00     0.016 A 
ATOM     11  C   UNL A   1      41.046  22.856  27.784  1.00  0.00     0.016 A 
ATOM     12  C   UNL A   1      40.147  25.180  26.551  1.00  0.00     0.010 A 
ATOM     13  C   UNL A   1      41.586  24.093  28.154  1.00  0.00     0.010 A 
ATOM     14  C   UNL A   1      41.144  25.255  27.515  1.00  0.00    -0.014 A 
BRANCH  14  15
ATOM     15  C   UNL A   1      41.804  26.558  27.676  1.00  0.00     0.031 A 
ATOM     16  C   UNL A   1      41.136  27.569  28.552  1.00  0.00     0.074 A 
ATOM     17  C   UNL A   1      43.063  26.720  27.228  1.00  0.00     0.049 A 
ATOM     18  N   UNL A   1      41.498  28.791  28.829  1.00  0.00    -0.248 NA
ATOM     19  C   UNL A   1      39.900  27.138  29.231  1.00  0.00     0.031 C 
ATOM     20  C   UNL A   1      43.846  25.697  26.529  1.00  0.00     0.029 A 
ATOM     21  N   UNL A   1      43.924  27.776  27.344  1.00  0.00    -0.354 N 
ATOM     22  C   UNL A   1      40.520  29.282  29.683  1.00  0.00     0.074 A 
ATOM     23  C   UNL A   1      39.551  28.233  29.889  1.00  0.00     0.031 C 
ATOM     24  C   UNL A   1      45.086  26.164  26.314  1.00  0.00     0.029 A 
ATOM     25  C   UNL A   1      45.154  27.544  26.780  1.00  0.00     0.049 A 
ATOM     26  H   UNL A   1      43.685  28.621  27.790  1.00  0.00     0.167 HD
ATOM     27  C   UNL A   1      40.450  30.513  30.232  1.00  0.00     0.037 A 
ATOM     28  C   UNL A   1      46.197  28.381  26.628  1.00  0.00     0.037 A 
ATOM     29  C   UNL A   1      41.451  31.520  30.017  1.00  0.00     0.049 A 
ATOM     30  C   UNL A   1      46.037  29.787  27.145  1.00  0.00     0.074 A 
ATOM     31  C   UNL A   1      41.458  32.838  30.430  1.00  0.00     0.029 A 
ATOM     32  N   UNL A   1      42.641  31.299  29.334  1.00  0.00    -0.354 N 
ATOM     33  N   UNL A   1      45.049  30.303  27.839  1.00  0.00    -0.248 NA
ATOM     34  C   UNL A   1      47.114  30.734  26.834  1.00  0.00     0.031 C 
ATOM     35  C   UNL A   1      42.637  33.426  29.960  1.00  0.00     0.029 A 
ATOM     36  C   UNL A   1      43.387  32.462  29.301  1.00  0.00     0.049 A 
ATOM     37  H   UNL A   1      42.912  30.443  28.933  1.00  0.00     0.167 HD
ATOM     38  C   UNL A   1      45.386  31.630  28.055  1.00  0.00     0.074 A 
ATOM     39  C   UNL A   1      46.685  31.831  27.444  1.00  0.00     0.031 C 
ATOM     40  C   UNL A   1      44.683  32.603  28.687  1.00  0.00     0.037 A 
BRANCH  27  41
ATOM     41  C   UNL A   1      39.234  30.847  31.040  1.00  0.00     0.064 A 
ATOM     42  C   UNL A   1      38.098  31.376  30.410  1.00  0.00     0.173 A 
ATOM     43  C   UNL A   1      39.186  30.654  32.428  1.00  0.00     0.173 A 
ATOM     44  F   UNL A   1      38.088  31.564  29.081  1.00  0.00    -0.203 F 
ATOM     45  C   UNL A   1      36.964  31.715  31.141  1.00  0.00     0.198 A 
ATOM     46  C   UNL A   1      38.042  30.975  33.155  1.00  0.00     0.198 A 
ATOM     47  F   UNL A   1      40.234  30.118  33.072  1.00  0.00    -0.203 F 
ATOM     48  F   UNL A   1      35.897  32.235  30.519  1.00  0.00    -0.200 F 
ATOM     49  C   UNL A   1      36.936  31.513  32.513  1.00  0.00     0.200 A 
ATOM     50  F   UNL A   1      38.003  30.749  34.476  1.00  0.00    -0.200 F 
ATOM     51  F   UNL A   1      35.839  31.828  33.215  1.00  0.00    -0.200 F 
ENDBRANCH  27  41
BRANCH  28  52
ATOM     52  C   UNL A   1      47.425  27.946  25.907  1.00  0.00     0.064 A 
ATOM     53  C   UNL A   1      48.589  27.583  26.604  1.00  0.00     0.173 A 
ATOM     54  C   UNL A   1      47.460  27.859  24.509  1.00  0.00     0.173 A 
ATOM     55  F   UNL A   1      48.616  27.635  27.944  1.00  0.00    -0.203 F 
ATOM     56  C   UNL A   1      49.740  27.172  25.934  1.00  0.00     0.198 A 
ATOM     57  C   UNL A   1      48.600  27.414  23.839  1.00  0.00     0.198 A 
ATOM     58  F   UNL A   1      46.369  28.169  23.791  1.00  0.00    -0.203 F 
ATOM     59  F   UNL A   1      50.843  26.861  26.628  1.00  0.00    -0.200 F 
ATOM     60  C   UNL A   1      49.741  27.077  24.552  1.00  0.00     0.200 A 
ATOM     61  F   UNL A   1      48.587  27.292  22.505  1.00  0.00    -0.200 F 
ATOM     62  F   UNL A   1      50.836  26.652  23.908  1.00  0.00    -0.200 F 
ENDBRANCH  28  52
BRANCH  40  63
ATOM     63  C   UNL A   1      45.317  33.957  28.762  1.00  0.00     0.064 A 
ATOM     64  C   UNL A   1      46.135  34.296  29.850  1.00  0.00     0.173 A 
ATOM     65  C   UNL A   1      45.049  34.940  27.799  1.00  0.00     0.173 A 
ATOM     66  F   UNL A   1      46.407  33.388  30.799  1.00  0.00    -0.203 F 
ATOM     67  C   UNL A   1      46.647  35.581  29.982  1.00  0.00     0.198 A 
ATOM     68  C   UNL A   1      45.590  36.216  27.918  1.00  0.00     0.198 A 
ATOM     69  F   UNL A   1      44.284  34.654  26.736  1.00  0.00    -0.203 F 
ATOM     70  F   UNL A   1      47.391  35.897  31.049  1.00  0.00    -0.200 F 
ATOM     71  C   UNL A   1      46.378  36.537  29.014  1.00  0.00     0.200 A 
ATOM     72  F   UNL A   1      45.352  37.132  26.970  1.00  0.00    -0.200 F 
ATOM     73  F   UNL A   1      46.881  37.774  29.137  1.00  0.00    -0.200 F 
ENDBRANCH  40  63
ENDBRANCH  14  15
ENDBRANCH   7   9
ENDBRANCH   6   7
ENDBRANCH   5   6
ENDBRANCH   4   5
ENDBRANCH   3   4
ENDBRANCH   2   3
ENDBRANCH   1   2
BRANCH   1  74
ATOM     74  O   UNL A   1      33.149  22.482  23.111  1.00  0.00    -0.377 OA
BRANCH  74  75
ATOM     75  C   UNL A   1      32.562  23.735  23.452  1.00  0.00     0.188 C 
BRANCH  75  76
ATOM     76  C   UNL A   1      32.567  24.867  22.401  1.00  0.00     0.188 C 
BRANCH  76  77
ATOM     77  O   UNL A   1      33.829  25.537  22.356  1.00  0.00    -0.376 OA
BRANCH  77  78
ATOM     78  C   UNL A   1      33.739  26.956  22.199  1.00  0.00     0.202 C 
BRANCH  78  79
ATOM     79  C   UNL A   1      32.312  27.471  21.982  1.00  0.00     0.261 C 
BRANCH  79  80
ATOM     80  O   UNL A   1      31.985  28.717  22.633  1.00  0.00    -0.460 OA
BRANCH  80  81
ATOM     81  C   UNL A   1      30.839  28.874  23.340  1.00  0.00     0.338 C 
ATOM     82  O   UNL A   1      29.988  29.724  23.159  1.00  0.00    -0.246 OA
BRANCH  81  83
ATOM     83  C   UNL A   1      30.768  27.723  24.295  1.00  0.00     0.068 A 
ATOM     84  C   UNL A   1      29.852  26.699  23.958  1.00  0.00     0.019 A 
ATOM     85  C   UNL A   1      31.457  27.674  25.536  1.00  0.00    -0.001 A 
ATOM     86  C   UNL A   1      29.606  25.636  24.823  1.00  0.00     0.040 A 
ATOM     87  C   UNL A   1      31.217  26.552  26.365  1.00  0.00     0.048 A 
ATOM     88  C   UNL A   1      30.300  25.567  26.017  1.00  0.00     0.123 A 
ATOM     89  F   UNL A   1      30.065  24.557  26.864  1.00  0.00    -0.207 F 
BRANCH  85  90
ATOM     90  C   UNL A   1      32.304  28.741  26.121  1.00  0.00    -0.016 A 
ATOM     91  C   UNL A   1      31.742  30.017  26.370  1.00  0.00     0.012 A 
ATOM     92  C   UNL A   1      33.621  28.519  26.547  1.00  0.00     0.032 A 
ATOM     93  C   UNL A   1      32.463  31.031  27.004  1.00  0.00     0.041 A 
ATOM     94  C   UNL A   1      34.342  29.532  27.196  1.00  0.00     0.077 A 
ATOM     95  C   UNL A   1      33.761  30.780  27.417  1.00  0.00     0.141 A 
ATOM     96  Cl  UNL A   1      35.941  29.214  27.749  1.00  0.00    -0.081 Cl
ATOM     97  F   UNL A   1      34.433  31.756  28.046  1.00  0.00    -0.205 F 
ENDBRANCH  85  90
ENDBRANCH  81  83
ENDBRANCH  80  81
ENDBRANCH  79  80
ENDBRANCH  78  79
ENDBRANCH  77  78
ENDBRANCH  76  77
ENDBRANCH  75  76
ENDBRANCH  74  75
ENDBRANCH   1  74
TORSDOF 21
ENDMDL
