MODEL 1
REMARK VINA RESULT:     -10.4      0.000      0.000
REMARK SMILES O=C(C[C@H]1CN(S(=O)(=O)N2CCCCC2)CCO1)OCCOCCOCCOCCOC(=O)c1ccc(-c2c3nc(c(-c4c(F)c(F)c(F)c(F)c4F)c4ccc([nH]4)c(-c4c(F)c(F)c(F)c(F)c4F)c4nc(c(-c5c(F)c(F)c(F)c(F)c5F)c5ccc2[nH]5)C=C4)C=C3)cc1
REMARK SMILES IDX 24 1 23 2 22 3 21 4 20 5 19 6 2 7 1 8 3 9 4 10 5 11 18 12
REMARK SMILES IDX 6 13 17 14 16 15 7 16 8 17 9 18 10 19 11 20 15 21 12 22
REMARK SMILES IDX 14 23 13 24 25 25 26 26 27 27 28 28 29 29 30 30 31 31 32 32
REMARK SMILES IDX 33 33 34 34 35 35 96 36 36 37 95 38 37 39 38 40 39 41 89 42
REMARK SMILES IDX 40 43 94 44 88 45 90 46 41 47 93 48 87 49 86 50 42 52 74 53
REMARK SMILES IDX 54 54 73 55 55 56 58 57 72 58 91 59 56 60 57 61 71 63 92 64
REMARK SMILES IDX 59 65 43 66 44 67 52 68 45 69 46 70 50 71 53 72 47 73 48 74
REMARK SMILES IDX 51 75 49 76 75 77 76 78 84 79 77 80 78 81 82 82 85 83 79 84
REMARK SMILES IDX 80 85 83 86 81 87 60 88 61 89 69 90 62 91 63 92 67 93 70 94
REMARK SMILES IDX 64 95 65 96 68 97 66 98
REMARK H PARENT 90 51 58 62
REMARK Flexibility Score: inf
ROOT
ATOM      1  C   UNL A   1      32.739  27.912  23.052  1.00  0.00     0.188 C 
ENDROOT
BRANCH   1   2
ATOM      2  C   UNL A   1      31.224  28.034  22.819  1.00  0.00     0.188 C 
BRANCH   2   3
ATOM      3  O   UNL A   1      30.241  27.006  22.902  1.00  0.00    -0.376 OA
BRANCH   3   4
ATOM      4  C   UNL A   1      29.894  26.066  23.904  1.00  0.00     0.202 C 
BRANCH   4   5
ATOM      5  C   UNL A   1      30.853  25.082  24.576  1.00  0.00     0.261 C 
BRANCH   5   6
ATOM      6  O   UNL A   1      31.541  25.602  25.693  1.00  0.00    -0.463 OA
BRANCH   6   7
ATOM      7  C   UNL A   1      32.827  25.253  25.916  1.00  0.00     0.308 C 
ATOM      8  O   UNL A   1      33.638  26.152  26.112  1.00  0.00    -0.252 OA
BRANCH   7   9
ATOM      9  C   UNL A   1      33.199  23.787  25.786  1.00  0.00     0.156 C 
BRANCH   9  10
ATOM     10  C   UNL A   1      34.333  23.213  26.601  1.00  0.00     0.144 C 
ATOM     11  C   UNL A   1      34.109  21.727  26.889  1.00  0.00     0.136 C 
ATOM     12  O   UNL A   1      35.644  23.464  26.118  1.00  0.00    -0.375 OA
ATOM     13  N   UNL A   1      34.242  20.913  25.676  1.00  0.00    -0.184 NA
ATOM     14  C   UNL A   1      36.018  22.658  24.998  1.00  0.00     0.177 C 
ATOM     15  C   UNL A   1      35.555  21.185  25.003  1.00  0.00     0.132 C 
BRANCH  13  16
ATOM     16  S   UNL A   1      32.970  20.393  24.697  1.00  0.00     0.282 S 
ATOM     17  O   UNL A   1      31.710  20.632  25.344  1.00  0.00    -0.195 OA
ATOM     18  O   UNL A   1      33.227  20.950  23.383  1.00  0.00    -0.195 OA
BRANCH  16  19
ATOM     19  N   UNL A   1      33.138  18.723  24.587  1.00  0.00    -0.189 NA
ATOM     20  C   UNL A   1      32.697  17.912  25.730  1.00  0.00     0.103 C 
ATOM     21  C   UNL A   1      33.213  18.066  23.259  1.00  0.00     0.103 C 
ATOM     22  C   UNL A   1      33.446  16.585  25.757  1.00  0.00     0.017 C 
ATOM     23  C   UNL A   1      33.809  16.661  23.310  1.00  0.00     0.017 C 
ATOM     24  C   UNL A   1      33.237  15.834  24.451  1.00  0.00     0.003 C 
ENDBRANCH  16  19
ENDBRANCH  13  16
ENDBRANCH   9  10
ENDBRANCH   7   9
ENDBRANCH   6   7
ENDBRANCH   5   6
ENDBRANCH   4   5
ENDBRANCH   3   4
ENDBRANCH   2   3
ENDBRANCH   1   2
BRANCH   1  25
ATOM     25  O   UNL A   1      33.309  28.766  24.027  1.00  0.00    -0.377 OA
BRANCH  25  26
ATOM     26  C   UNL A   1      32.375  29.211  24.982  1.00  0.00     0.188 C 
BRANCH  26  27
ATOM     27  C   UNL A   1      33.008  30.047  26.116  1.00  0.00     0.188 C 
BRANCH  27  28
ATOM     28  O   UNL A   1      32.199  30.738  27.051  1.00  0.00    -0.376 OA
BRANCH  28  29
ATOM     29  C   UNL A   1      31.618  31.990  26.717  1.00  0.00     0.202 C 
BRANCH  29  30
ATOM     30  C   UNL A   1      32.146  33.337  27.250  1.00  0.00     0.261 C 
BRANCH  30  31
ATOM     31  O   UNL A   1      33.562  33.547  27.236  1.00  0.00    -0.460 OA
BRANCH  31  32
ATOM     32  C   UNL A   1      34.110  34.016  28.382  1.00  0.00     0.338 C 
ATOM     33  O   UNL A   1      33.646  34.847  29.141  1.00  0.00    -0.246 OA
BRANCH  32  34
ATOM     34  C   UNL A   1      35.275  33.165  28.716  1.00  0.00     0.060 A 
ATOM     35  C   UNL A   1      35.058  31.806  29.005  1.00  0.00     0.016 A 
ATOM     36  C   UNL A   1      36.570  33.682  28.690  1.00  0.00     0.016 A 
ATOM     37  C   UNL A   1      36.132  30.965  29.283  1.00  0.00     0.010 A 
ATOM     38  C   UNL A   1      37.642  32.854  29.028  1.00  0.00     0.010 A 
ATOM     39  C   UNL A   1      37.420  31.504  29.359  1.00  0.00    -0.014 A 
BRANCH  39  40
ATOM     40  C   UNL A   1      38.467  30.742  30.073  1.00  0.00     0.031 A 
ATOM     41  C   UNL A   1      38.681  31.068  31.525  1.00  0.00     0.074 A 
ATOM     42  C   UNL A   1      39.182  29.777  29.474  1.00  0.00     0.049 A 
ATOM     43  N   UNL A   1      39.571  30.605  32.363  1.00  0.00    -0.248 NA
ATOM     44  C   UNL A   1      37.762  32.060  32.111  1.00  0.00     0.031 C 
ATOM     45  C   UNL A   1      39.019  29.334  28.092  1.00  0.00     0.029 A 
ATOM     46  N   UNL A   1      40.206  29.004  29.961  1.00  0.00    -0.354 N 
ATOM     47  C   UNL A   1      39.325  31.256  33.564  1.00  0.00     0.074 A 
ATOM     48  C   UNL A   1      38.224  32.165  33.345  1.00  0.00     0.031 C 
ATOM     49  C   UNL A   1      39.930  28.378  27.833  1.00  0.00     0.029 A 
ATOM     50  C   UNL A   1      40.760  28.172  29.020  1.00  0.00     0.049 A 
ATOM     51  H   UNL A   1      40.513  29.041  30.895  1.00  0.00     0.167 HD
ATOM     52  C   UNL A   1      39.961  31.105  34.748  1.00  0.00     0.037 A 
ATOM     53  C   UNL A   1      41.836  27.365  29.109  1.00  0.00     0.037 A 
ATOM     54  C   UNL A   1      41.064  30.207  34.956  1.00  0.00     0.049 A 
ATOM     55  C   UNL A   1      42.587  27.281  30.416  1.00  0.00     0.074 A 
ATOM     56  C   UNL A   1      41.776  29.971  36.117  1.00  0.00     0.029 A 
ATOM     57  N   UNL A   1      41.622  29.405  33.970  1.00  0.00    -0.354 N 
ATOM     58  N   UNL A   1      42.342  27.882  31.557  1.00  0.00    -0.248 NA
ATOM     59  C   UNL A   1      43.766  26.404  30.448  1.00  0.00     0.031 C 
ATOM     60  C   UNL A   1      42.807  29.074  35.819  1.00  0.00     0.029 A 
ATOM     61  C   UNL A   1      42.690  28.695  34.490  1.00  0.00     0.049 A 
ATOM     62  H   UNL A   1      41.304  29.351  33.040  1.00  0.00     0.167 HD
ATOM     63  C   UNL A   1      43.310  27.430  32.446  1.00  0.00     0.074 A 
ATOM     64  C   UNL A   1      44.139  26.494  31.716  1.00  0.00     0.031 C 
ATOM     65  C   UNL A   1      43.496  27.756  33.749  1.00  0.00     0.037 A 
BRANCH  52  66
ATOM     66  C   UNL A   1      39.505  31.961  35.894  1.00  0.00     0.064 A 
ATOM     67  C   UNL A   1      40.099  33.200  36.177  1.00  0.00     0.173 A 
ATOM     68  C   UNL A   1      38.443  31.541  36.710  1.00  0.00     0.173 A 
ATOM     69  F   UNL A   1      41.132  33.639  35.442  1.00  0.00    -0.203 F 
ATOM     70  C   UNL A   1      39.664  33.974  37.251  1.00  0.00     0.198 A 
ATOM     71  C   UNL A   1      37.988  32.332  37.759  1.00  0.00     0.198 A 
ATOM     72  F   UNL A   1      37.842  30.363  36.484  1.00  0.00    -0.203 F 
ATOM     73  F   UNL A   1      40.281  35.129  37.536  1.00  0.00    -0.200 F 
ATOM     74  C   UNL A   1      38.604  33.544  38.034  1.00  0.00     0.200 A 
ATOM     75  F   UNL A   1      36.955  31.921  38.508  1.00  0.00    -0.200 F 
ATOM     76  F   UNL A   1      38.179  34.295  39.060  1.00  0.00    -0.200 F 
ENDBRANCH  52  66
BRANCH  53  77
ATOM     77  C   UNL A   1      42.286  26.584  27.924  1.00  0.00     0.064 A 
ATOM     78  C   UNL A   1      43.234  27.103  27.032  1.00  0.00     0.173 A 
ATOM     79  C   UNL A   1      41.752  25.319  27.641  1.00  0.00     0.173 A 
ATOM     80  F   UNL A   1      43.755  28.321  27.243  1.00  0.00    -0.203 F 
ATOM     81  C   UNL A   1      43.614  26.397  25.892  1.00  0.00     0.198 A 
ATOM     82  C   UNL A   1      42.156  24.598  26.519  1.00  0.00     0.198 A 
ATOM     83  F   UNL A   1      40.836  24.777  28.458  1.00  0.00    -0.203 F 
ATOM     84  F   UNL A   1      44.481  26.942  25.027  1.00  0.00    -0.200 F 
ATOM     85  C   UNL A   1      43.079  25.143  25.639  1.00  0.00     0.200 A 
ATOM     86  F   UNL A   1      41.645  23.382  26.285  1.00  0.00    -0.200 F 
ATOM     87  F   UNL A   1      43.445  24.464  24.544  1.00  0.00    -0.200 F 
ENDBRANCH  53  77
BRANCH  65  88
ATOM     88  C   UNL A   1      44.603  27.060  34.490  1.00  0.00     0.064 A 
ATOM     89  C   UNL A   1      44.435  25.787  35.052  1.00  0.00     0.173 A 
ATOM     90  C   UNL A   1      45.869  27.659  34.592  1.00  0.00     0.173 A 
ATOM     91  F   UNL A   1      43.243  25.174  34.992  1.00  0.00    -0.203 F 
ATOM     92  C   UNL A   1      45.483  25.152  35.715  1.00  0.00     0.198 A 
ATOM     93  C   UNL A   1      46.925  27.006  35.223  1.00  0.00     0.198 A 
ATOM     94  F   UNL A   1      46.089  28.871  34.062  1.00  0.00    -0.203 F 
ATOM     95  F   UNL A   1      45.283  23.959  36.291  1.00  0.00    -0.200 F 
ATOM     96  C   UNL A   1      46.728  25.758  35.792  1.00  0.00     0.200 A 
ATOM     97  F   UNL A   1      48.132  27.585  35.277  1.00  0.00    -0.200 F 
ATOM     98  F   UNL A   1      47.738  25.142  36.421  1.00  0.00    -0.200 F 
ENDBRANCH  65  88
ENDBRANCH  39  40
ENDBRANCH  32  34
ENDBRANCH  31  32
ENDBRANCH  30  31
ENDBRANCH  29  30
ENDBRANCH  28  29
ENDBRANCH  27  28
ENDBRANCH  26  27
ENDBRANCH  25  26
ENDBRANCH   1  25
TORSDOF 23
ENDMDL
MODEL 2
REMARK VINA RESULT:     -10.4      0.735      2.017
REMARK SMILES O=C(C[C@H]1CN(S(=O)(=O)N2CCCCC2)CCO1)OCCOCCOCCOCCOC(=O)c1ccc(-c2c3nc(c(-c4c(F)c(F)c(F)c(F)c4F)c4ccc([nH]4)c(-c4c(F)c(F)c(F)c(F)c4F)c4nc(c(-c5c(F)c(F)c(F)c(F)c5F)c5ccc2[nH]5)C=C4)C=C3)cc1
REMARK SMILES IDX 24 1 23 2 22 3 21 4 20 5 19 6 2 7 1 8 3 9 4 10 5 11 18 12
REMARK SMILES IDX 6 13 17 14 16 15 7 16 8 17 9 18 10 19 11 20 15 21 12 22
REMARK SMILES IDX 14 23 13 24 25 25 26 26 27 27 28 28 29 29 30 30 31 31 32 32
REMARK SMILES IDX 33 33 34 34 35 35 96 36 36 37 95 38 37 39 38 40 39 41 89 42
REMARK SMILES IDX 40 43 94 44 88 45 90 46 41 47 93 48 87 49 86 50 42 52 74 53
REMARK SMILES IDX 54 54 73 55 55 56 58 57 72 58 91 59 56 60 57 61 71 63 92 64
REMARK SMILES IDX 59 65 43 66 44 67 52 68 45 69 46 70 50 71 53 72 47 73 48 74
REMARK SMILES IDX 51 75 49 76 75 77 76 78 84 79 77 80 78 81 82 82 85 83 79 84
REMARK SMILES IDX 80 85 83 86 81 87 60 88 61 89 69 90 62 91 63 92 67 93 70 94
REMARK SMILES IDX 64 95 65 96 68 97 66 98
REMARK H PARENT 90 51 58 62
REMARK Flexibility Score: inf
ROOT
ATOM      1  C   UNL A   1      33.609  28.115  22.649  1.00  0.00     0.188 C 
ENDROOT
BRANCH   1   2
ATOM      2  C   UNL A   1      32.725  26.950  22.173  1.00  0.00     0.188 C 
BRANCH   2   3
ATOM      3  O   UNL A   1      31.989  26.028  22.974  1.00  0.00    -0.376 OA
BRANCH   3   4
ATOM      4  C   UNL A   1      31.014  26.181  23.990  1.00  0.00     0.202 C 
BRANCH   4   5
ATOM      5  C   UNL A   1      30.262  25.044  24.685  1.00  0.00     0.261 C 
BRANCH   5   6
ATOM      6  O   UNL A   1      31.072  23.955  25.072  1.00  0.00    -0.463 OA
BRANCH   6   7
ATOM      7  C   UNL A   1      31.906  24.076  26.129  1.00  0.00     0.308 C 
ATOM      8  O   UNL A   1      31.413  24.340  27.220  1.00  0.00    -0.252 OA
BRANCH   7   9
ATOM      9  C   UNL A   1      33.400  24.000  25.868  1.00  0.00     0.156 C 
BRANCH   9  10
ATOM     10  C   UNL A   1      34.314  23.322  26.861  1.00  0.00     0.144 C 
ATOM     11  C   UNL A   1      33.842  21.899  27.163  1.00  0.00     0.136 C 
ATOM     12  O   UNL A   1      35.702  23.366  26.568  1.00  0.00    -0.375 OA
ATOM     13  N   UNL A   1      34.028  21.010  26.011  1.00  0.00    -0.184 NA
ATOM     14  C   UNL A   1      36.112  22.457  25.543  1.00  0.00     0.177 C 
ATOM     15  C   UNL A   1      35.448  21.063  25.530  1.00  0.00     0.132 C 
BRANCH  13  16
ATOM     16  S   UNL A   1      32.846  20.614  24.874  1.00  0.00     0.282 S 
ATOM     17  O   UNL A   1      31.534  20.818  25.423  1.00  0.00    -0.195 OA
ATOM     18  O   UNL A   1      33.232  21.288  23.649  1.00  0.00    -0.195 OA
BRANCH  16  19
ATOM     19  N   UNL A   1      33.001  18.959  24.617  1.00  0.00    -0.189 NA
ATOM     20  C   UNL A   1      32.835  18.067  25.772  1.00  0.00     0.103 C 
ATOM     21  C   UNL A   1      32.783  18.390  23.265  1.00  0.00     0.103 C 
ATOM     22  C   UNL A   1      33.583  16.759  25.542  1.00  0.00     0.017 C 
ATOM     23  C   UNL A   1      33.389  16.999  23.087  1.00  0.00     0.017 C 
ATOM     24  C   UNL A   1      33.094  16.088  24.269  1.00  0.00     0.003 C 
ENDBRANCH  16  19
ENDBRANCH  13  16
ENDBRANCH   9  10
ENDBRANCH   7   9
ENDBRANCH   6   7
ENDBRANCH   5   6
ENDBRANCH   4   5
ENDBRANCH   3   4
ENDBRANCH   2   3
ENDBRANCH   1   2
BRANCH   1  25
ATOM     25  O   UNL A   1      32.980  29.126  23.416  1.00  0.00    -0.377 OA
BRANCH  25  26
ATOM     26  C   UNL A   1      33.523  29.252  24.709  1.00  0.00     0.188 C 
BRANCH  26  27
ATOM     27  C   UNL A   1      32.530  28.875  25.830  1.00  0.00     0.188 C 
BRANCH  27  28
ATOM     28  O   UNL A   1      31.964  29.867  26.667  1.00  0.00    -0.376 OA
BRANCH  28  29
ATOM     29  C   UNL A   1      31.547  31.113  26.129  1.00  0.00     0.202 C 
BRANCH  29  30
ATOM     30  C   UNL A   1      31.907  32.473  26.762  1.00  0.00     0.261 C 
BRANCH  30  31
ATOM     31  O   UNL A   1      32.791  32.466  27.888  1.00  0.00    -0.460 OA
BRANCH  31  32
ATOM     32  C   UNL A   1      33.818  33.348  27.848  1.00  0.00     0.338 C 
ATOM     33  O   UNL A   1      33.753  34.559  27.740  1.00  0.00    -0.246 OA
BRANCH  32  34
ATOM     34  C   UNL A   1      35.058  32.625  28.213  1.00  0.00     0.060 A 
ATOM     35  C   UNL A   1      35.011  31.226  28.342  1.00  0.00     0.016 A 
ATOM     36  C   UNL A   1      36.263  33.308  28.372  1.00  0.00     0.016 A 
ATOM     37  C   UNL A   1      36.164  30.508  28.644  1.00  0.00     0.010 A 
ATOM     38  C   UNL A   1      37.408  32.595  28.734  1.00  0.00     0.010 A 
ATOM     39  C   UNL A   1      37.351  31.199  28.905  1.00  0.00    -0.014 A 
BRANCH  39  40
ATOM     40  C   UNL A   1      38.428  30.505  29.643  1.00  0.00     0.031 A 
ATOM     41  C   UNL A   1      38.616  30.875  31.089  1.00  0.00     0.074 A 
ATOM     42  C   UNL A   1      39.194  29.562  29.072  1.00  0.00     0.049 A 
ATOM     43  N   UNL A   1      39.521  30.475  31.943  1.00  0.00    -0.248 NA
ATOM     44  C   UNL A   1      37.645  31.834  31.645  1.00  0.00     0.031 C 
ATOM     45  C   UNL A   1      39.063  29.080  27.699  1.00  0.00     0.029 A 
ATOM     46  N   UNL A   1      40.250  28.851  29.583  1.00  0.00    -0.354 N 
ATOM     47  C   UNL A   1      39.235  31.142  33.127  1.00  0.00     0.074 A 
ATOM     48  C   UNL A   1      38.093  31.991  32.880  1.00  0.00     0.031 C 
ATOM     49  C   UNL A   1      40.021  28.163  27.469  1.00  0.00     0.029 A 
ATOM     50  C   UNL A   1      40.851  28.026  28.665  1.00  0.00     0.049 A 
ATOM     51  H   UNL A   1      40.549  28.925  30.518  1.00  0.00     0.167 HD
ATOM     52  C   UNL A   1      39.869  31.049  34.318  1.00  0.00     0.037 A 
ATOM     53  C   UNL A   1      41.964  27.274  28.780  1.00  0.00     0.037 A 
ATOM     54  C   UNL A   1      41.013  30.211  34.553  1.00  0.00     0.049 A 
ATOM     55  C   UNL A   1      42.709  27.258  30.093  1.00  0.00     0.074 A 
ATOM     56  C   UNL A   1      41.727  30.036  35.724  1.00  0.00     0.029 A 
ATOM     57  N   UNL A   1      41.616  29.414  33.591  1.00  0.00    -0.354 N 
ATOM     58  N   UNL A   1      42.427  27.873  31.218  1.00  0.00    -0.248 NA
ATOM     59  C   UNL A   1      43.929  26.440  30.153  1.00  0.00     0.031 C 
ATOM     60  C   UNL A   1      42.802  29.184  35.454  1.00  0.00     0.029 A 
ATOM     61  C   UNL A   1      42.714  28.769  34.134  1.00  0.00     0.049 A 
ATOM     62  H   UNL A   1      41.308  29.323  32.660  1.00  0.00     0.167 HD
ATOM     63  C   UNL A   1      43.409  27.488  32.124  1.00  0.00     0.074 A 
ATOM     64  C   UNL A   1      44.287  26.577  31.421  1.00  0.00     0.031 C 
ATOM     65  C   UNL A   1      43.569  27.854  33.420  1.00  0.00     0.037 A 
BRANCH  52  66
ATOM     66  C   UNL A   1      39.363  31.908  35.440  1.00  0.00     0.064 A 
ATOM     67  C   UNL A   1      38.478  31.415  36.410  1.00  0.00     0.173 A 
ATOM     68  C   UNL A   1      39.786  33.242  35.555  1.00  0.00     0.173 A 
ATOM     69  F   UNL A   1      38.025  30.154  36.335  1.00  0.00    -0.203 F 
ATOM     70  C   UNL A   1      38.015  32.233  37.439  1.00  0.00     0.198 A 
ATOM     71  C   UNL A   1      39.349  34.044  36.604  1.00  0.00     0.198 A 
ATOM     72  F   UNL A   1      40.630  33.763  34.652  1.00  0.00    -0.203 F 
ATOM     73  F   UNL A   1      37.128  31.756  38.324  1.00  0.00    -0.200 F 
ATOM     74  C   UNL A   1      38.458  33.543  37.540  1.00  0.00     0.200 A 
ATOM     75  F   UNL A   1      39.789  35.306  36.707  1.00  0.00    -0.200 F 
ATOM     76  F   UNL A   1      38.021  34.325  38.536  1.00  0.00    -0.200 F 
ENDBRANCH  52  66
BRANCH  53  77
ATOM     77  C   UNL A   1      42.460  26.489  27.617  1.00  0.00     0.064 A 
ATOM     78  C   UNL A   1      41.999  25.189  27.371  1.00  0.00     0.173 A 
ATOM     79  C   UNL A   1      43.429  27.010  26.748  1.00  0.00     0.173 A 
ATOM     80  F   UNL A   1      41.092  24.634  28.189  1.00  0.00    -0.203 F 
ATOM     81  C   UNL A   1      42.504  24.432  26.315  1.00  0.00     0.198 A 
ATOM     82  C   UNL A   1      43.911  26.266  25.673  1.00  0.00     0.198 A 
ATOM     83  F   UNL A   1      43.910  28.247  26.939  1.00  0.00    -0.203 F 
ATOM     84  F   UNL A   1      42.086  23.171  26.138  1.00  0.00    -0.200 F 
ATOM     85  C   UNL A   1      43.456  24.973  25.463  1.00  0.00     0.200 A 
ATOM     86  F   UNL A   1      44.821  26.796  24.846  1.00  0.00    -0.200 F 
ATOM     87  F   UNL A   1      43.940  24.245  24.449  1.00  0.00    -0.200 F 
ENDBRANCH  53  77
BRANCH  65  88
ATOM     88  C   UNL A   1      44.703  27.229  34.184  1.00  0.00     0.064 A 
ATOM     89  C   UNL A   1      45.957  27.846  34.289  1.00  0.00     0.173 A 
ATOM     90  C   UNL A   1      44.512  26.015  34.864  1.00  0.00     0.173 A 
ATOM     91  F   UNL A   1      46.197  29.002  33.651  1.00  0.00    -0.203 F 
ATOM     92  C   UNL A   1      46.986  27.258  35.021  1.00  0.00     0.198 A 
ATOM     93  C   UNL A   1      45.530  25.448  35.625  1.00  0.00     0.198 A 
ATOM     94  F   UNL A   1      43.328  25.386  34.807  1.00  0.00    -0.203 F 
ATOM     95  F   UNL A   1      48.193  27.840  35.063  1.00  0.00    -0.200 F 
ATOM     96  C   UNL A   1      46.769  26.065  35.695  1.00  0.00     0.200 A 
ATOM     97  F   UNL A   1      45.311  24.306  36.291  1.00  0.00    -0.200 F 
ATOM     98  F   UNL A   1      47.757  25.506  36.406  1.00  0.00    -0.200 F 
ENDBRANCH  65  88
ENDBRANCH  39  40
ENDBRANCH  32  34
ENDBRANCH  31  32
ENDBRANCH  30  31
ENDBRANCH  29  30
ENDBRANCH  28  29
ENDBRANCH  27  28
ENDBRANCH  26  27
ENDBRANCH  25  26
ENDBRANCH   1  25
TORSDOF 23
ENDMDL
MODEL 3
REMARK VINA RESULT:     -10.1      2.341      4.147
REMARK SMILES O=C(C[C@H]1CN(S(=O)(=O)N2CCCCC2)CCO1)OCCOCCOCCOCCOC(=O)c1ccc(-c2c3nc(c(-c4c(F)c(F)c(F)c(F)c4F)c4ccc([nH]4)c(-c4c(F)c(F)c(F)c(F)c4F)c4nc(c(-c5c(F)c(F)c(F)c(F)c5F)c5ccc2[nH]5)C=C4)C=C3)cc1
REMARK SMILES IDX 24 1 23 2 22 3 21 4 20 5 19 6 2 7 1 8 3 9 4 10 5 11 18 12
REMARK SMILES IDX 6 13 17 14 16 15 7 16 8 17 9 18 10 19 11 20 15 21 12 22
REMARK SMILES IDX 14 23 13 24 25 25 26 26 27 27 28 28 29 29 30 30 31 31 32 32
REMARK SMILES IDX 33 33 34 34 35 35 96 36 36 37 95 38 37 39 38 40 39 41 89 42
REMARK SMILES IDX 40 43 94 44 88 45 90 46 41 47 93 48 87 49 86 50 42 52 74 53
REMARK SMILES IDX 54 54 73 55 55 56 58 57 72 58 91 59 56 60 57 61 71 63 92 64
REMARK SMILES IDX 59 65 43 66 44 67 52 68 45 69 46 70 50 71 53 72 47 73 48 74
REMARK SMILES IDX 51 75 49 76 75 77 76 78 84 79 77 80 78 81 82 82 85 83 79 84
REMARK SMILES IDX 80 85 83 86 81 87 60 88 61 89 69 90 62 91 63 92 67 93 70 94
REMARK SMILES IDX 64 95 65 96 68 97 66 98
REMARK H PARENT 90 51 58 62
REMARK Flexibility Score: inf
ROOT
ATOM      1  C   UNL A   1      34.927  31.084  27.651  1.00  0.00     0.188 C 
ENDROOT
BRANCH   1   2
ATOM      2  C   UNL A   1      34.292  29.757  27.205  1.00  0.00     0.188 C 
BRANCH   2   3
ATOM      3  O   UNL A   1      32.906  29.435  27.122  1.00  0.00    -0.376 OA
BRANCH   3   4
ATOM      4  C   UNL A   1      32.170  28.238  27.300  1.00  0.00     0.202 C 
BRANCH   4   5
ATOM      5  C   UNL A   1      31.848  27.215  26.209  1.00  0.00     0.261 C 
BRANCH   5   6
ATOM      6  O   UNL A   1      32.150  27.641  24.898  1.00  0.00    -0.463 OA
BRANCH   6   7
ATOM      7  C   UNL A   1      33.346  27.337  24.348  1.00  0.00     0.308 C 
ATOM      8  O   UNL A   1      34.063  28.263  23.986  1.00  0.00    -0.252 OA
BRANCH   7   9
ATOM      9  C   UNL A   1      33.665  25.872  24.103  1.00  0.00     0.156 C 
BRANCH   9  10
ATOM     10  C   UNL A   1      33.240  25.203  22.818  1.00  0.00     0.144 C 
ATOM     11  C   UNL A   1      33.598  23.715  22.826  1.00  0.00     0.136 C 
ATOM     12  O   UNL A   1      31.898  25.419  22.411  1.00  0.00    -0.375 OA
ATOM     13  N   UNL A   1      32.773  22.964  23.778  1.00  0.00    -0.184 NA
ATOM     14  C   UNL A   1      30.935  24.660  23.145  1.00  0.00     0.177 C 
ATOM     15  C   UNL A   1      31.316  23.212  23.520  1.00  0.00     0.132 C 
BRANCH  13  16
ATOM     16  S   UNL A   1      33.216  22.557  25.355  1.00  0.00     0.282 S 
ATOM     17  O   UNL A   1      32.859  23.611  26.263  1.00  0.00    -0.195 OA
ATOM     18  O   UNL A   1      32.717  21.213  25.572  1.00  0.00    -0.195 OA
BRANCH  16  19
ATOM     19  N   UNL A   1      34.897  22.484  25.348  1.00  0.00    -0.189 NA
ATOM     20  C   UNL A   1      35.630  23.493  26.124  1.00  0.00     0.103 C 
ATOM     21  C   UNL A   1      35.587  21.208  25.043  1.00  0.00     0.103 C 
ATOM     22  C   UNL A   1      37.028  23.688  25.550  1.00  0.00     0.017 C 
ATOM     23  C   UNL A   1      37.046  21.391  24.630  1.00  0.00     0.017 C 
ATOM     24  C   UNL A   1      37.782  22.367  25.535  1.00  0.00     0.003 C 
ENDBRANCH  16  19
ENDBRANCH  13  16
ENDBRANCH   9  10
ENDBRANCH   7   9
ENDBRANCH   6   7
ENDBRANCH   5   6
ENDBRANCH   4   5
ENDBRANCH   3   4
ENDBRANCH   2   3
ENDBRANCH   1   2
BRANCH   1  25
ATOM     25  O   UNL A   1      34.121  31.951  28.429  1.00  0.00    -0.377 OA
BRANCH  25  26
ATOM     26  C   UNL A   1      34.716  33.209  28.643  1.00  0.00     0.188 C 
BRANCH  26  27
ATOM     27  C   UNL A   1      33.694  34.364  28.736  1.00  0.00     0.188 C 
BRANCH  27  28
ATOM     28  O   UNL A   1      34.054  35.686  28.378  1.00  0.00    -0.376 OA
BRANCH  28  29
ATOM     29  C   UNL A   1      33.233  36.783  28.751  1.00  0.00     0.202 C 
BRANCH  29  30
ATOM     30  C   UNL A   1      33.023  37.225  30.213  1.00  0.00     0.261 C 
BRANCH  30  31
ATOM     31  O   UNL A   1      32.154  36.431  31.028  1.00  0.00    -0.460 OA
BRANCH  31  32
ATOM     32  C   UNL A   1      32.536  36.253  32.315  1.00  0.00     0.338 C 
ATOM     33  O   UNL A   1      31.949  36.610  33.320  1.00  0.00    -0.246 OA
BRANCH  32  34
ATOM     34  C   UNL A   1      33.684  35.317  32.327  1.00  0.00     0.060 A 
ATOM     35  C   UNL A   1      33.483  34.007  32.798  1.00  0.00     0.016 A 
ATOM     36  C   UNL A   1      34.929  35.705  31.832  1.00  0.00     0.016 A 
ATOM     37  C   UNL A   1      34.527  33.088  32.788  1.00  0.00     0.010 A 
ATOM     38  C   UNL A   1      35.992  34.801  31.877  1.00  0.00     0.010 A 
ATOM     39  C   UNL A   1      35.801  33.503  32.387  1.00  0.00    -0.014 A 
BRANCH  39  40
ATOM     40  C   UNL A   1      36.970  32.692  32.789  1.00  0.00     0.031 A 
ATOM     41  C   UNL A   1      37.602  33.012  34.116  1.00  0.00     0.074 A 
ATOM     42  C   UNL A   1      37.441  31.691  32.028  1.00  0.00     0.049 A 
ATOM     43  N   UNL A   1      38.671  32.508  34.675  1.00  0.00    -0.248 NA
ATOM     44  C   UNL A   1      36.934  34.049  34.921  1.00  0.00     0.031 C 
ATOM     45  C   UNL A   1      36.872  31.253  30.756  1.00  0.00     0.029 A 
ATOM     46  N   UNL A   1      38.523  30.870  32.218  1.00  0.00    -0.354 N 
ATOM     47  C   UNL A   1      38.806  33.174  35.885  1.00  0.00     0.074 A 
ATOM     48  C   UNL A   1      37.732  34.135  35.972  1.00  0.00     0.031 C 
ATOM     49  C   UNL A   1      37.627  30.252  30.266  1.00  0.00     0.029 A 
ATOM     50  C   UNL A   1      38.749  30.010  31.173  1.00  0.00     0.049 A 
ATOM     51  H   UNL A   1      39.084  30.895  33.027  1.00  0.00     0.167 HD
ATOM     52  C   UNL A   1      39.744  32.995  36.843  1.00  0.00     0.037 A 
ATOM     53  C   UNL A   1      39.767  29.150  30.967  1.00  0.00     0.037 A 
ATOM     54  C   UNL A   1      40.818  32.044  36.745  1.00  0.00     0.049 A 
ATOM     55  C   UNL A   1      40.853  29.034  32.009  1.00  0.00     0.074 A 
ATOM     56  C   UNL A   1      41.818  31.776  37.661  1.00  0.00     0.029 A 
ATOM     57  N   UNL A   1      41.035  31.213  35.655  1.00  0.00    -0.354 N 
ATOM     58  N   UNL A   1      40.970  29.650  33.162  1.00  0.00    -0.248 NA
ATOM     59  C   UNL A   1      41.951  28.099  31.721  1.00  0.00     0.031 C 
ATOM     60  C   UNL A   1      42.679  30.829  37.098  1.00  0.00     0.029 A 
ATOM     61  C   UNL A   1      42.173  30.452  35.863  1.00  0.00     0.049 A 
ATOM     62  H   UNL A   1      40.465  31.171  34.854  1.00  0.00     0.167 HD
ATOM     63  C   UNL A   1      42.128  29.152  33.749  1.00  0.00     0.074 A 
ATOM     64  C   UNL A   1      42.671  28.174  32.829  1.00  0.00     0.031 C 
ATOM     65  C   UNL A   1      42.691  29.473  34.941  1.00  0.00     0.037 A 
BRANCH  52  66
ATOM     66  C   UNL A   1      39.672  33.875  38.057  1.00  0.00     0.064 A 
ATOM     67  C   UNL A   1      38.952  33.502  39.202  1.00  0.00     0.173 A 
ATOM     68  C   UNL A   1      40.348  35.105  38.079  1.00  0.00     0.173 A 
ATOM     69  F   UNL A   1      38.269  32.347  39.225  1.00  0.00    -0.203 F 
ATOM     70  C   UNL A   1      38.892  34.339  40.314  1.00  0.00     0.198 A 
ATOM     71  C   UNL A   1      40.315  35.921  39.204  1.00  0.00     0.198 A 
ATOM     72  F   UNL A   1      41.048  35.510  37.009  1.00  0.00    -0.203 F 
ATOM     73  F   UNL A   1      38.155  33.986  41.377  1.00  0.00    -0.200 F 
ATOM     74  C   UNL A   1      39.580  35.542  40.318  1.00  0.00     0.200 A 
ATOM     75  F   UNL A   1      40.991  37.078  39.211  1.00  0.00    -0.200 F 
ATOM     76  F   UNL A   1      39.530  36.341  41.393  1.00  0.00    -0.200 F 
ENDBRANCH  52  66
BRANCH  53  77
ATOM     77  C   UNL A   1      39.825  28.345  29.717  1.00  0.00     0.064 A 
ATOM     78  C   UNL A   1      39.281  27.055  29.659  1.00  0.00     0.173 A 
ATOM     79  C   UNL A   1      40.457  28.836  28.564  1.00  0.00     0.173 A 
ATOM     80  F   UNL A   1      38.690  26.529  30.743  1.00  0.00    -0.203 F 
ATOM     81  C   UNL A   1      39.385  26.279  28.507  1.00  0.00     0.198 A 
ATOM     82  C   UNL A   1      40.532  28.072  27.401  1.00  0.00     0.198 A 
ATOM     83  F   UNL A   1      41.000  30.062  28.565  1.00  0.00    -0.203 F 
ATOM     84  F   UNL A   1      38.906  25.027  28.499  1.00  0.00    -0.200 F 
ATOM     85  C   UNL A   1      40.006  26.790  27.377  1.00  0.00     0.200 A 
ATOM     86  F   UNL A   1      41.122  28.575  26.309  1.00  0.00    -0.200 F 
ATOM     87  F   UNL A   1      40.105  26.043  26.269  1.00  0.00    -0.200 F 
ENDBRANCH  53  77
BRANCH  65  88
ATOM     88  C   UNL A   1      43.929  28.725  35.349  1.00  0.00     0.064 A 
ATOM     89  C   UNL A   1      43.867  27.524  36.070  1.00  0.00     0.173 A 
ATOM     90  C   UNL A   1      45.196  29.194  34.966  1.00  0.00     0.173 A 
ATOM     91  F   UNL A   1      42.684  27.036  36.471  1.00  0.00    -0.203 F 
ATOM     92  C   UNL A   1      45.029  26.838  36.418  1.00  0.00     0.198 A 
ATOM     93  C   UNL A   1      46.352  28.486  35.282  1.00  0.00     0.198 A 
ATOM     94  F   UNL A   1      45.312  30.332  34.264  1.00  0.00    -0.203 F 
ATOM     95  F   UNL A   1      44.948  25.720  37.154  1.00  0.00    -0.200 F 
ATOM     96  C   UNL A   1      46.268  27.314  36.017  1.00  0.00     0.200 A 
ATOM     97  F   UNL A   1      47.546  28.939  34.876  1.00  0.00    -0.200 F 
ATOM     98  F   UNL A   1      47.383  26.647  36.344  1.00  0.00    -0.200 F 
ENDBRANCH  65  88
ENDBRANCH  39  40
ENDBRANCH  32  34
ENDBRANCH  31  32
ENDBRANCH  30  31
ENDBRANCH  29  30
ENDBRANCH  28  29
ENDBRANCH  27  28
ENDBRANCH  26  27
ENDBRANCH  25  26
ENDBRANCH   1  25
TORSDOF 23
ENDMDL
