MODEL 1
REMARK VINA RESULT:     -10.4      0.000      0.000
REMARK SMILES Nc1nc(N2CCOC[C@H]2C(=O)OCCOCCOCCOCCOC(=O)c2ccc(-c3c4nc(c(-c5c(F)c(F)c(F)c(F)c5F)c5ccc([nH]5)c(-c5c(F)c(F)c(F)c(F)c5F)c5nc(c(-c6c(F)c(F)c(F)c(F)c6F)c6ccc3[nH]6)C=C5)C=C4)cc2)ccc1[N+](=O)[O-]
REMARK SMILES IDX 19 1 18 2 17 3 16 4 15 5 14 6 13 7 11 8 12 9 10 10 5 11 6 12
REMARK SMILES IDX 7 13 9 14 8 15 4 16 2 17 3 18 93 19 92 20 91 21 1 22 94 25
REMARK SMILES IDX 95 26 96 27 20 28 21 29 22 30 23 31 24 32 25 33 26 34 27 35
REMARK SMILES IDX 28 36 29 37 90 38 30 39 89 40 31 41 32 42 33 43 83 44 34 45
REMARK SMILES IDX 88 46 82 47 84 48 35 49 87 50 81 51 80 52 36 54 68 55 48 56
REMARK SMILES IDX 67 57 49 58 52 59 66 60 85 61 50 62 51 63 65 65 86 66 53 67
REMARK SMILES IDX 37 68 38 69 46 70 39 71 40 72 44 73 47 74 41 75 42 76 45 77
REMARK SMILES IDX 43 78 69 79 70 80 78 81 71 82 72 83 76 84 79 85 73 86 74 87
REMARK SMILES IDX 77 88 75 89 54 90 55 91 63 92 56 93 57 94 61 95 64 96 58 97
REMARK SMILES IDX 59 98 62 99 60 100
REMARK H PARENT 1 23 1 24 84 53 52 64
REMARK Flexibility Score: inf
ROOT
ATOM      1  O   UNL A   1      33.998  35.824  28.990  1.00  0.00    -0.377 OA
ENDROOT
BRANCH   1   2
ATOM      2  C   UNL A   1      34.788  34.696  28.675  1.00  0.00     0.188 C 
BRANCH   2   3
ATOM      3  C   UNL A   1      34.041  33.421  28.270  1.00  0.00     0.188 C 
BRANCH   3   4
ATOM      4  O   UNL A   1      34.606  32.179  28.634  1.00  0.00    -0.376 OA
BRANCH   4   5
ATOM      5  C   UNL A   1      34.848  31.173  27.668  1.00  0.00     0.202 C 
BRANCH   5   6
ATOM      6  C   UNL A   1      34.144  29.801  27.577  1.00  0.00     0.261 C 
BRANCH   6   7
ATOM      7  O   UNL A   1      32.756  29.735  27.219  1.00  0.00    -0.462 OA
BRANCH   7   8
ATOM      8  C   UNL A   1      32.192  28.504  27.131  1.00  0.00     0.331 C 
ATOM      9  O   UNL A   1      31.421  28.061  27.981  1.00  0.00    -0.250 OA
BRANCH   8  10
ATOM     10  C   UNL A   1      32.639  27.651  25.923  1.00  0.00     0.220 C 
ATOM     11  N   UNL A   1      32.088  26.278  25.745  1.00  0.00    -0.339 N 
ATOM     12  C   UNL A   1      30.658  26.186  25.437  1.00  0.00     0.147 C 
ATOM     13  C   UNL A   1      30.328  27.109  24.260  1.00  0.00     0.181 C 
ATOM     14  C   UNL A   1      32.224  28.483  24.693  1.00  0.00     0.197 C 
ATOM     15  O   UNL A   1      30.796  28.450  24.471  1.00  0.00    -0.377 OA
BRANCH  11  16
ATOM     16  C   UNL A   1      32.883  25.146  25.722  1.00  0.00     0.132 A 
ATOM     17  C   UNL A   1      33.158  22.890  26.340  1.00  0.00     0.204 A 
ATOM     18  N   UNL A   1      32.606  24.117  26.559  1.00  0.00    -0.207 NA
ATOM     19  C   UNL A   1      34.106  22.691  25.340  1.00  0.00     0.311 A 
ATOM     20  C   UNL A   1      34.510  23.775  24.567  1.00  0.00     0.093 A 
ATOM     21  C   UNL A   1      33.885  25.004  24.762  1.00  0.00     0.054 A 
BRANCH  17  22
ATOM     22  N   UNL A   1      32.737  21.905  27.211  1.00  0.00    -0.378 N 
ATOM     23  H   UNL A   1      32.115  22.126  27.941  1.00  0.00     0.158 HD
ATOM     24  H   UNL A   1      33.059  20.981  27.102  1.00  0.00     0.158 HD
ENDBRANCH  17  22
BRANCH  19  25
ATOM     25  N   UNL A   1      34.627  21.365  25.023  1.00  0.00     0.066 N 
ATOM     26  O   UNL A   1      33.878  20.395  25.215  1.00  0.00    -0.258 OA
ATOM     27  O   UNL A   1      35.804  21.269  24.639  1.00  0.00    -0.258 OA
ENDBRANCH  19  25
ENDBRANCH  11  16
ENDBRANCH   8  10
ENDBRANCH   7   8
ENDBRANCH   6   7
ENDBRANCH   5   6
ENDBRANCH   4   5
ENDBRANCH   3   4
ENDBRANCH   2   3
ENDBRANCH   1   2
BRANCH   1  28
ATOM     28  C   UNL A   1      32.924  35.669  29.897  1.00  0.00     0.188 C 
BRANCH  28  29
ATOM     29  C   UNL A   1      33.124  35.839  31.414  1.00  0.00     0.188 C 
BRANCH  29  30
ATOM     30  O   UNL A   1      33.056  34.646  32.178  1.00  0.00    -0.376 OA
BRANCH  30  31
ATOM     31  C   UNL A   1      34.254  34.047  32.644  1.00  0.00     0.202 C 
BRANCH  31  32
ATOM     32  C   UNL A   1      34.866  32.916  31.801  1.00  0.00     0.261 C 
BRANCH  32  33
ATOM     33  O   UNL A   1      35.350  31.780  32.527  1.00  0.00    -0.460 OA
BRANCH  33  34
ATOM     34  C   UNL A   1      36.531  31.911  33.164  1.00  0.00     0.338 C 
ATOM     35  O   UNL A   1      36.723  32.319  34.298  1.00  0.00    -0.246 OA
BRANCH  34  36
ATOM     36  C   UNL A   1      37.563  31.299  32.309  1.00  0.00     0.060 A 
ATOM     37  C   UNL A   1      38.621  30.608  32.914  1.00  0.00     0.016 A 
ATOM     38  C   UNL A   1      37.470  31.384  30.917  1.00  0.00     0.016 A 
ATOM     39  C   UNL A   1      39.613  30.028  32.126  1.00  0.00     0.010 A 
ATOM     40  C   UNL A   1      38.478  30.825  30.130  1.00  0.00     0.010 A 
ATOM     41  C   UNL A   1      39.570  30.177  30.734  1.00  0.00    -0.014 A 
BRANCH  41  42
ATOM     42  C   UNL A   1      40.775  29.860  29.934  1.00  0.00     0.031 A 
ATOM     43  C   UNL A   1      40.873  28.490  29.324  1.00  0.00     0.074 A 
ATOM     44  C   UNL A   1      41.736  30.772  29.721  1.00  0.00     0.049 A 
ATOM     45  N   UNL A   1      41.830  27.962  28.606  1.00  0.00    -0.248 NA
ATOM     46  C   UNL A   1      39.729  27.593  29.560  1.00  0.00     0.031 C 
ATOM     47  C   UNL A   1      41.722  32.147  30.213  1.00  0.00     0.029 A 
ATOM     48  N   UNL A   1      42.917  30.670  29.029  1.00  0.00    -0.354 N 
ATOM     49  C   UNL A   1      41.403  26.674  28.305  1.00  0.00     0.074 A 
ATOM     50  C   UNL A   1      40.126  26.484  28.956  1.00  0.00     0.031 C 
ATOM     51  C   UNL A   1      42.848  32.763  29.808  1.00  0.00     0.029 A 
ATOM     52  C   UNL A   1      43.672  31.816  29.060  1.00  0.00     0.049 A 
ATOM     53  H   UNL A   1      43.197  29.853  28.557  1.00  0.00     0.167 HD
ATOM     54  C   UNL A   1      42.017  25.737  27.543  1.00  0.00     0.037 A 
ATOM     55  C   UNL A   1      44.897  32.057  28.554  1.00  0.00     0.037 A 
ATOM     56  C   UNL A   1      43.298  25.927  26.916  1.00  0.00     0.049 A 
ATOM     57  C   UNL A   1      45.611  30.962  27.801  1.00  0.00     0.074 A 
ATOM     58  C   UNL A   1      44.014  25.043  26.130  1.00  0.00     0.029 A 
ATOM     59  N   UNL A   1      44.062  27.081  27.019  1.00  0.00    -0.354 N 
ATOM     60  N   UNL A   1      45.199  29.752  27.504  1.00  0.00    -0.248 NA
ATOM     61  C   UNL A   1      46.962  31.269  27.311  1.00  0.00     0.031 C 
ATOM     62  C   UNL A   1      45.239  25.639  25.809  1.00  0.00     0.029 A 
ATOM     63  C   UNL A   1      45.257  26.922  26.336  1.00  0.00     0.049 A 
ATOM     64  H   UNL A   1      43.795  27.894  27.507  1.00  0.00     0.167 HD
ATOM     65  C   UNL A   1      46.221  29.169  26.763  1.00  0.00     0.074 A 
ATOM     66  C   UNL A   1      47.267  30.164  26.647  1.00  0.00     0.031 C 
ATOM     67  C   UNL A   1      46.286  27.926  26.224  1.00  0.00     0.037 A 
BRANCH  54  68
ATOM     68  C   UNL A   1      41.320  24.415  27.389  1.00  0.00     0.064 A 
ATOM     69  C   UNL A   1      41.787  23.253  28.024  1.00  0.00     0.173 A 
ATOM     70  C   UNL A   1      40.175  24.305  26.587  1.00  0.00     0.173 A 
ATOM     71  F   UNL A   1      42.890  23.298  28.789  1.00  0.00    -0.203 F 
ATOM     72  C   UNL A   1      41.159  22.026  27.828  1.00  0.00     0.198 A 
ATOM     73  C   UNL A   1      39.527  23.084  26.423  1.00  0.00     0.198 A 
ATOM     74  F   UNL A   1      39.683  25.382  25.957  1.00  0.00    -0.203 F 
ATOM     75  F   UNL A   1      41.665  20.919  28.388  1.00  0.00    -0.200 F 
ATOM     76  C   UNL A   1      40.027  21.943  27.032  1.00  0.00     0.200 A 
ATOM     77  F   UNL A   1      38.425  23.008  25.664  1.00  0.00    -0.200 F 
ATOM     78  F   UNL A   1      39.424  20.761  26.842  1.00  0.00    -0.200 F 
ENDBRANCH  54  68
BRANCH  55  79
ATOM     79  C   UNL A   1      45.528  33.392  28.733  1.00  0.00     0.064 A 
ATOM     80  C   UNL A   1      45.358  34.404  27.778  1.00  0.00     0.173 A 
ATOM     81  C   UNL A   1      46.328  33.678  29.849  1.00  0.00     0.173 A 
ATOM     82  F   UNL A   1      44.624  34.171  26.679  1.00  0.00    -0.203 F 
ATOM     83  C   UNL A   1      45.976  35.644  27.924  1.00  0.00     0.198 A 
ATOM     84  C   UNL A   1      46.921  34.929  30.009  1.00  0.00     0.198 A 
ATOM     85  F   UNL A   1      46.528  32.744  30.791  1.00  0.00    -0.203 F 
ATOM     86  F   UNL A   1      45.835  36.577  26.972  1.00  0.00    -0.200 F 
ATOM     87  C   UNL A   1      46.752  35.908  29.043  1.00  0.00     0.200 A 
ATOM     88  F   UNL A   1      47.659  35.183  31.098  1.00  0.00    -0.200 F 
ATOM     89  F   UNL A   1      47.342  37.103  29.186  1.00  0.00    -0.200 F 
ENDBRANCH  55  79
BRANCH  67  90
ATOM     90  C   UNL A   1      47.508  27.585  25.416  1.00  0.00     0.064 A 
ATOM     91  C   UNL A   1      48.672  27.074  26.009  1.00  0.00     0.173 A 
ATOM     92  C   UNL A   1      47.497  27.736  24.020  1.00  0.00     0.173 A 
ATOM     93  F   UNL A   1      48.740  26.920  27.340  1.00  0.00    -0.203 F 
ATOM     94  C   UNL A   1      49.790  26.761  25.240  1.00  0.00     0.198 A 
ATOM     95  C   UNL A   1      48.603  27.387  23.251  1.00  0.00     0.198 A 
ATOM     96  F   UNL A   1      46.407  28.211  23.399  1.00  0.00    -0.203 F 
ATOM     97  F   UNL A   1      50.911  26.330  25.836  1.00  0.00    -0.200 F 
ATOM     98  C   UNL A   1      49.752  26.910  23.862  1.00  0.00     0.200 A 
ATOM     99  F   UNL A   1      48.557  27.513  21.917  1.00  0.00    -0.200 F 
ATOM    100  F   UNL A   1      50.827  26.601  23.122  1.00  0.00    -0.200 F 
ENDBRANCH  67  90
ENDBRANCH  41  42
ENDBRANCH  34  36
ENDBRANCH  33  34
ENDBRANCH  32  33
ENDBRANCH  31  32
ENDBRANCH  30  31
ENDBRANCH  29  30
ENDBRANCH  28  29
ENDBRANCH   1  28
TORSDOF 23
ENDMDL
MODEL 2
REMARK VINA RESULT:     -10.3      0.833      7.258
REMARK SMILES Nc1nc(N2CCOC[C@H]2C(=O)OCCOCCOCCOCCOC(=O)c2ccc(-c3c4nc(c(-c5c(F)c(F)c(F)c(F)c5F)c5ccc([nH]5)c(-c5c(F)c(F)c(F)c(F)c5F)c5nc(c(-c6c(F)c(F)c(F)c(F)c6F)c6ccc3[nH]6)C=C5)C=C4)cc2)ccc1[N+](=O)[O-]
REMARK SMILES IDX 19 1 18 2 17 3 16 4 15 5 14 6 13 7 11 8 12 9 10 10 5 11 6 12
REMARK SMILES IDX 7 13 9 14 8 15 4 16 2 17 3 18 93 19 92 20 91 21 1 22 94 25
REMARK SMILES IDX 95 26 96 27 20 28 21 29 22 30 23 31 24 32 25 33 26 34 27 35
REMARK SMILES IDX 28 36 29 37 90 38 30 39 89 40 31 41 32 42 33 43 83 44 34 45
REMARK SMILES IDX 88 46 82 47 84 48 35 49 87 50 81 51 80 52 36 54 68 55 48 56
REMARK SMILES IDX 67 57 49 58 52 59 66 60 85 61 50 62 51 63 65 65 86 66 53 67
REMARK SMILES IDX 37 68 38 69 46 70 39 71 40 72 44 73 47 74 41 75 42 76 45 77
REMARK SMILES IDX 43 78 69 79 70 80 78 81 71 82 72 83 76 84 79 85 73 86 74 87
REMARK SMILES IDX 77 88 75 89 54 90 55 91 63 92 56 93 57 94 61 95 64 96 58 97
REMARK SMILES IDX 59 98 62 99 60 100
REMARK H PARENT 1 23 1 24 84 53 52 64
REMARK Flexibility Score: inf
ROOT
ATOM      1  O   UNL A   1      34.862  34.304  28.305  1.00  0.00    -0.377 OA
ENDROOT
BRANCH   1   2
ATOM      2  C   UNL A   1      35.304  32.984  28.064  1.00  0.00     0.188 C 
BRANCH   2   3
ATOM      3  C   UNL A   1      34.437  31.852  28.624  1.00  0.00     0.188 C 
BRANCH   3   4
ATOM      4  O   UNL A   1      34.972  30.545  28.623  1.00  0.00    -0.376 OA
BRANCH   4   5
ATOM      5  C   UNL A   1      35.296  29.887  27.413  1.00  0.00     0.202 C 
BRANCH   5   6
ATOM      6  C   UNL A   1      34.570  28.663  26.811  1.00  0.00     0.261 C 
BRANCH   6   7
ATOM      7  O   UNL A   1      33.151  28.708  26.605  1.00  0.00    -0.462 OA
BRANCH   7   8
ATOM      8  C   UNL A   1      32.483  27.527  26.607  1.00  0.00     0.331 C 
ATOM      9  O   UNL A   1      31.663  27.226  27.475  1.00  0.00    -0.250 OA
BRANCH   8  10
ATOM     10  C   UNL A   1      32.870  26.540  25.484  1.00  0.00     0.220 C 
ATOM     11  N   UNL A   1      32.486  25.104  25.598  1.00  0.00    -0.339 N 
ATOM     12  C   UNL A   1      31.052  24.809  25.531  1.00  0.00     0.147 C 
ATOM     13  C   UNL A   1      30.447  25.483  24.296  1.00  0.00     0.181 C 
ATOM     14  C   UNL A   1      32.186  27.108  24.224  1.00  0.00     0.197 C 
ATOM     15  O   UNL A   1      30.758  26.883  24.232  1.00  0.00    -0.377 OA
BRANCH  11  16
ATOM     16  C   UNL A   1      33.412  24.077  25.620  1.00  0.00     0.132 A 
ATOM     17  C   UNL A   1      33.902  21.847  26.195  1.00  0.00     0.204 A 
ATOM     18  N   UNL A   1      33.186  22.990  26.395  1.00  0.00    -0.207 NA
ATOM     19  C   UNL A   1      34.957  21.804  25.287  1.00  0.00     0.311 A 
ATOM     20  C   UNL A   1      35.296  22.959  24.590  1.00  0.00     0.093 A 
ATOM     21  C   UNL A   1      34.509  24.096  24.758  1.00  0.00     0.054 A 
BRANCH  17  22
ATOM     22  N   UNL A   1      33.526  20.784  26.991  1.00  0.00    -0.378 N 
ATOM     23  H   UNL A   1      32.581  20.666  27.241  1.00  0.00     0.158 HD
ATOM     24  H   UNL A   1      34.202  20.143  27.309  1.00  0.00     0.158 HD
ENDBRANCH  17  22
BRANCH  19  25
ATOM     25  N   UNL A   1      35.665  20.564  24.984  1.00  0.00     0.066 N 
ATOM     26  O   UNL A   1      34.990  19.526  24.903  1.00  0.00    -0.258 OA
ATOM     27  O   UNL A   1      36.901  20.598  24.884  1.00  0.00    -0.258 OA
ENDBRANCH  19  25
ENDBRANCH  11  16
ENDBRANCH   8  10
ENDBRANCH   7   8
ENDBRANCH   6   7
ENDBRANCH   5   6
ENDBRANCH   4   5
ENDBRANCH   3   4
ENDBRANCH   2   3
ENDBRANCH   1   2
BRANCH   1  28
ATOM     28  C   UNL A   1      33.589  34.498  28.889  1.00  0.00     0.188 C 
BRANCH  28  29
ATOM     29  C   UNL A   1      33.373  35.520  30.020  1.00  0.00     0.188 C 
BRANCH  29  30
ATOM     30  O   UNL A   1      33.426  34.997  31.338  1.00  0.00    -0.376 OA
BRANCH  30  31
ATOM     31  C   UNL A   1      34.553  34.233  31.739  1.00  0.00     0.202 C 
BRANCH  31  32
ATOM     32  C   UNL A   1      34.297  32.910  32.478  1.00  0.00     0.261 C 
BRANCH  32  33
ATOM     33  O   UNL A   1      35.450  32.267  33.035  1.00  0.00    -0.460 OA
BRANCH  33  34
ATOM     34  C   UNL A   1      36.614  32.947  33.002  1.00  0.00     0.338 C 
ATOM     35  O   UNL A   1      36.905  33.954  33.627  1.00  0.00    -0.246 OA
BRANCH  34  36
ATOM     36  C   UNL A   1      37.564  32.155  32.202  1.00  0.00     0.060 A 
ATOM     37  C   UNL A   1      38.486  31.333  32.864  1.00  0.00     0.016 A 
ATOM     38  C   UNL A   1      37.526  32.203  30.806  1.00  0.00     0.016 A 
ATOM     39  C   UNL A   1      39.399  30.581  32.129  1.00  0.00     0.010 A 
ATOM     40  C   UNL A   1      38.458  31.469  30.072  1.00  0.00     0.010 A 
ATOM     41  C   UNL A   1      39.419  30.684  30.732  1.00  0.00    -0.014 A 
BRANCH  41  42
ATOM     42  C   UNL A   1      40.584  30.159  29.984  1.00  0.00     0.031 A 
ATOM     43  C   UNL A   1      41.750  31.079  29.763  1.00  0.00     0.074 A 
ATOM     44  C   UNL A   1      40.624  28.890  29.547  1.00  0.00     0.049 A 
ATOM     45  N   UNL A   1      42.871  30.870  29.122  1.00  0.00    -0.248 NA
ATOM     46  C   UNL A   1      41.632  32.426  30.346  1.00  0.00     0.031 C 
ATOM     47  C   UNL A   1      39.578  27.891  29.752  1.00  0.00     0.029 A 
ATOM     48  N   UNL A   1      41.592  28.228  28.834  1.00  0.00    -0.354 N 
ATOM     49  C   UNL A   1      43.589  32.055  29.226  1.00  0.00     0.074 A 
ATOM     50  C   UNL A   1      42.760  32.993  29.950  1.00  0.00     0.031 C 
ATOM     51  C   UNL A   1      39.962  26.738  29.174  1.00  0.00     0.029 A 
ATOM     52  C   UNL A   1      41.261  26.931  28.531  1.00  0.00     0.049 A 
ATOM     53  H   UNL A   1      42.443  28.643  28.565  1.00  0.00     0.167 HD
ATOM     54  C   UNL A   1      44.834  32.331  28.771  1.00  0.00     0.037 A 
ATOM     55  C   UNL A   1      41.929  26.016  27.803  1.00  0.00     0.037 A 
ATOM     56  C   UNL A   1      45.644  31.398  28.033  1.00  0.00     0.049 A 
ATOM     57  C   UNL A   1      43.268  26.382  27.211  1.00  0.00     0.074 A 
ATOM     58  C   UNL A   1      46.915  31.576  27.519  1.00  0.00     0.029 A 
ATOM     59  N   UNL A   1      45.251  30.111  27.693  1.00  0.00    -0.354 N 
ATOM     60  N   UNL A   1      43.951  27.496  27.325  1.00  0.00    -0.248 NA
ATOM     61  C   UNL A   1      43.928  25.359  26.388  1.00  0.00     0.031 C 
ATOM     62  C   UNL A   1      47.265  30.420  26.813  1.00  0.00     0.029 A 
ATOM     63  C   UNL A   1      46.242  29.493  26.948  1.00  0.00     0.049 A 
ATOM     64  H   UNL A   1      44.392  29.698  27.943  1.00  0.00     0.167 HD
ATOM     65  C   UNL A   1      45.135  27.295  26.624  1.00  0.00     0.074 A 
ATOM     66  C   UNL A   1      45.079  25.948  26.096  1.00  0.00     0.031 C 
ATOM     67  C   UNL A   1      46.174  28.147  26.436  1.00  0.00     0.037 A 
BRANCH  54  68
ATOM     68  C   UNL A   1      45.367  33.713  29.027  1.00  0.00     0.064 A 
ATOM     69  C   UNL A   1      45.201  34.754  28.100  1.00  0.00     0.173 A 
ATOM     70  C   UNL A   1      46.061  33.998  30.212  1.00  0.00     0.173 A 
ATOM     71  F   UNL A   1      44.560  34.532  26.941  1.00  0.00    -0.203 F 
ATOM     72  C   UNL A   1      45.747  36.014  28.331  1.00  0.00     0.198 A 
ATOM     73  C   UNL A   1      46.573  35.269  30.456  1.00  0.00     0.198 A 
ATOM     74  F   UNL A   1      46.249  33.042  31.134  1.00  0.00    -0.203 F 
ATOM     75  F   UNL A   1      45.636  36.971  27.399  1.00  0.00    -0.200 F 
ATOM     76  C   UNL A   1      46.427  36.272  29.510  1.00  0.00     0.200 A 
ATOM     77  F   UNL A   1      47.219  35.521  31.603  1.00  0.00    -0.200 F 
ATOM     78  F   UNL A   1      46.953  37.485  29.731  1.00  0.00    -0.200 F 
ENDBRANCH  54  68
BRANCH  55  79
ATOM     79  C   UNL A   1      41.351  24.661  27.595  1.00  0.00     0.064 A 
ATOM     80  C   UNL A   1      41.900  23.538  28.228  1.00  0.00     0.173 A 
ATOM     81  C   UNL A   1      40.253  24.458  26.746  1.00  0.00     0.173 A 
ATOM     82  F   UNL A   1      42.968  23.676  29.028  1.00  0.00    -0.203 F 
ATOM     83  C   UNL A   1      41.384  22.262  28.008  1.00  0.00     0.198 A 
ATOM     84  C   UNL A   1      39.718  23.186  26.551  1.00  0.00     0.198 A 
ATOM     85  F   UNL A   1      39.692  25.498  26.111  1.00  0.00    -0.203 F 
ATOM     86  F   UNL A   1      41.959  21.200  28.590  1.00  0.00    -0.200 F 
ATOM     87  C   UNL A   1      40.289  22.088  27.175  1.00  0.00     0.200 A 
ATOM     88  F   UNL A   1      38.653  23.025  25.754  1.00  0.00    -0.200 F 
ATOM     89  F   UNL A   1      39.790  20.861  26.968  1.00  0.00    -0.200 F 
ENDBRANCH  55  79
BRANCH  67  90
ATOM     90  C   UNL A   1      47.361  27.632  25.670  1.00  0.00     0.064 A 
ATOM     91  C   UNL A   1      47.448  27.741  24.273  1.00  0.00     0.173 A 
ATOM     92  C   UNL A   1      48.445  27.054  26.350  1.00  0.00     0.173 A 
ATOM     93  F   UNL A   1      46.435  28.274  23.574  1.00  0.00    -0.203 F 
ATOM     94  C   UNL A   1      48.559  27.260  23.586  1.00  0.00     0.198 A 
ATOM     95  C   UNL A   1      49.571  26.610  25.662  1.00  0.00     0.198 A 
ATOM     96  F   UNL A   1      48.420  26.934  27.686  1.00  0.00    -0.203 F 
ATOM     97  F   UNL A   1      48.594  27.322  22.247  1.00  0.00    -0.200 F 
ATOM     98  C   UNL A   1      49.623  26.703  24.280  1.00  0.00     0.200 A 
ATOM     99  F   UNL A   1      50.606  26.090  26.338  1.00  0.00    -0.200 F 
ATOM    100  F   UNL A   1      50.695  26.248  23.616  1.00  0.00    -0.200 F 
ENDBRANCH  67  90
ENDBRANCH  41  42
ENDBRANCH  34  36
ENDBRANCH  33  34
ENDBRANCH  32  33
ENDBRANCH  31  32
ENDBRANCH  30  31
ENDBRANCH  29  30
ENDBRANCH  28  29
ENDBRANCH   1  28
TORSDOF 23
ENDMDL
MODEL 3
REMARK VINA RESULT:     -10.0      3.380      8.014
REMARK SMILES Nc1nc(N2CCOC[C@H]2C(=O)OCCOCCOCCOCCOC(=O)c2ccc(-c3c4nc(c(-c5c(F)c(F)c(F)c(F)c5F)c5ccc([nH]5)c(-c5c(F)c(F)c(F)c(F)c5F)c5nc(c(-c6c(F)c(F)c(F)c(F)c6F)c6ccc3[nH]6)C=C5)C=C4)cc2)ccc1[N+](=O)[O-]
REMARK SMILES IDX 19 1 18 2 17 3 16 4 15 5 14 6 13 7 11 8 12 9 10 10 5 11 6 12
REMARK SMILES IDX 7 13 9 14 8 15 4 16 2 17 3 18 93 19 92 20 91 21 1 22 94 25
REMARK SMILES IDX 95 26 96 27 20 28 21 29 22 30 23 31 24 32 25 33 26 34 27 35
REMARK SMILES IDX 28 36 29 37 90 38 30 39 89 40 31 41 32 42 33 43 83 44 34 45
REMARK SMILES IDX 88 46 82 47 84 48 35 49 87 50 81 51 80 52 36 54 68 55 48 56
REMARK SMILES IDX 67 57 49 58 52 59 66 60 85 61 50 62 51 63 65 65 86 66 53 67
REMARK SMILES IDX 37 68 38 69 46 70 39 71 40 72 44 73 47 74 41 75 42 76 45 77
REMARK SMILES IDX 43 78 69 79 70 80 78 81 71 82 72 83 76 84 79 85 73 86 74 87
REMARK SMILES IDX 77 88 75 89 54 90 55 91 63 92 56 93 57 94 61 95 64 96 58 97
REMARK SMILES IDX 59 98 62 99 60 100
REMARK H PARENT 1 23 1 24 84 53 52 64
REMARK Flexibility Score: inf
ROOT
ATOM      1  O   UNL A   1      35.192  23.211  25.325  1.00  0.00    -0.377 OA
ENDROOT
BRANCH   1   2
ATOM      2  C   UNL A   1      34.934  24.506  24.822  1.00  0.00     0.188 C 
BRANCH   2   3
ATOM      3  C   UNL A   1      34.220  25.483  25.761  1.00  0.00     0.188 C 
BRANCH   3   4
ATOM      4  O   UNL A   1      34.101  26.829  25.351  1.00  0.00    -0.376 OA
BRANCH   4   5
ATOM      5  C   UNL A   1      33.961  27.873  26.297  1.00  0.00     0.202 C 
BRANCH   5   6
ATOM      6  C   UNL A   1      32.643  28.570  26.705  1.00  0.00     0.261 C 
BRANCH   6   7
ATOM      7  O   UNL A   1      31.405  28.155  26.112  1.00  0.00    -0.462 OA
BRANCH   7   8
ATOM      8  C   UNL A   1      31.173  28.524  24.827  1.00  0.00     0.331 C 
ATOM      9  O   UNL A   1      31.076  29.700  24.479  1.00  0.00    -0.250 OA
BRANCH   8  10
ATOM     10  C   UNL A   1      30.964  27.365  23.828  1.00  0.00     0.220 C 
ATOM     11  N   UNL A   1      30.452  26.053  24.317  1.00  0.00    -0.339 N 
ATOM     12  C   UNL A   1      29.073  26.038  24.812  1.00  0.00     0.147 C 
ATOM     13  C   UNL A   1      28.149  26.680  23.773  1.00  0.00     0.181 C 
ATOM     14  C   UNL A   1      29.942  27.915  22.812  1.00  0.00     0.197 C 
ATOM     15  O   UNL A   1      28.608  27.977  23.362  1.00  0.00    -0.377 OA
BRANCH  11  16
ATOM     16  C   UNL A   1      31.162  24.873  24.188  1.00  0.00     0.132 A 
ATOM     17  C   UNL A   1      31.549  22.685  24.965  1.00  0.00     0.204 A 
ATOM     18  N   UNL A   1      31.135  23.963  25.191  1.00  0.00    -0.207 NA
ATOM     19  C   UNL A   1      32.123  22.313  23.752  1.00  0.00     0.311 A 
ATOM     20  C   UNL A   1      32.293  23.276  22.762  1.00  0.00     0.093 A 
ATOM     21  C   UNL A   1      31.801  24.560  22.988  1.00  0.00     0.054 A 
BRANCH  17  22
ATOM     22  N   UNL A   1      31.398  21.831  26.040  1.00  0.00    -0.378 N 
ATOM     23  H   UNL A   1      31.152  22.190  26.923  1.00  0.00     0.158 HD
ATOM     24  H   UNL A   1      31.535  20.863  25.924  1.00  0.00     0.158 HD
ENDBRANCH  17  22
BRANCH  19  25
ATOM     25  N   UNL A   1      32.474  20.928  23.456  1.00  0.00     0.066 N 
ATOM     26  O   UNL A   1      33.156  20.319  24.295  1.00  0.00    -0.258 OA
ATOM     27  O   UNL A   1      32.130  20.451  22.363  1.00  0.00    -0.258 OA
ENDBRANCH  19  25
ENDBRANCH  11  16
ENDBRANCH   8  10
ENDBRANCH   7   8
ENDBRANCH   6   7
ENDBRANCH   5   6
ENDBRANCH   4   5
ENDBRANCH   3   4
ENDBRANCH   2   3
ENDBRANCH   1   2
BRANCH   1  28
ATOM     28  C   UNL A   1      36.387  22.989  26.047  1.00  0.00     0.188 C 
BRANCH  28  29
ATOM     29  C   UNL A   1      37.641  23.850  25.808  1.00  0.00     0.188 C 
BRANCH  29  30
ATOM     30  O   UNL A   1      38.876  23.154  25.837  1.00  0.00    -0.376 OA
BRANCH  30  31
ATOM     31  C   UNL A   1      38.955  21.902  26.498  1.00  0.00     0.202 C 
BRANCH  31  32
ATOM     32  C   UNL A   1      39.606  20.731  25.744  1.00  0.00     0.261 C 
BRANCH  32  33
ATOM     33  O   UNL A   1      40.345  19.799  26.543  1.00  0.00    -0.460 OA
BRANCH  33  34
ATOM     34  C   UNL A   1      41.628  19.570  26.197  1.00  0.00     0.338 C 
ATOM     35  O   UNL A   1      42.086  18.578  25.654  1.00  0.00    -0.246 OA
BRANCH  34  36
ATOM     36  C   UNL A   1      42.376  20.819  26.427  1.00  0.00     0.060 A 
ATOM     37  C   UNL A   1      42.474  21.318  27.732  1.00  0.00     0.016 A 
ATOM     38  C   UNL A   1      42.999  21.476  25.363  1.00  0.00     0.016 A 
ATOM     39  C   UNL A   1      43.170  22.501  27.973  1.00  0.00     0.010 A 
ATOM     40  C   UNL A   1      43.673  22.675  25.602  1.00  0.00     0.010 A 
ATOM     41  C   UNL A   1      43.730  23.208  26.902  1.00  0.00    -0.014 A 
BRANCH  41  42
ATOM     42  C   UNL A   1      44.167  24.608  27.107  1.00  0.00     0.031 A 
ATOM     43  C   UNL A   1      43.145  25.600  27.583  1.00  0.00     0.074 A 
ATOM     44  C   UNL A   1      45.443  24.980  26.915  1.00  0.00     0.049 A 
ATOM     45  N   UNL A   1      43.269  26.882  27.813  1.00  0.00    -0.248 NA
ATOM     46  C   UNL A   1      41.794  25.070  27.831  1.00  0.00     0.031 C 
ATOM     47  C   UNL A   1      46.531  24.095  26.510  1.00  0.00     0.029 A 
ATOM     48  N   UNL A   1      46.034  26.212  27.037  1.00  0.00    -0.354 N 
ATOM     49  C   UNL A   1      42.015  27.308  28.233  1.00  0.00     0.074 A 
ATOM     50  C   UNL A   1      41.134  26.163  28.181  1.00  0.00     0.031 C 
ATOM     51  C   UNL A   1      47.664  24.816  26.415  1.00  0.00     0.029 A 
ATOM     52  C   UNL A   1      47.369  26.215  26.718  1.00  0.00     0.049 A 
ATOM     53  H   UNL A   1      45.547  27.018  27.326  1.00  0.00     0.167 HD
ATOM     54  C   UNL A   1      41.635  28.544  28.638  1.00  0.00     0.037 A 
ATOM     55  C   UNL A   1      48.242  27.239  26.663  1.00  0.00     0.037 A 
ATOM     56  C   UNL A   1      42.512  29.684  28.667  1.00  0.00     0.049 A 
ATOM     57  C   UNL A   1      47.769  28.628  27.014  1.00  0.00     0.074 A 
ATOM     58  C   UNL A   1      42.230  30.981  29.053  1.00  0.00     0.029 A 
ATOM     59  N   UNL A   1      43.845  29.662  28.279  1.00  0.00    -0.354 N 
ATOM     60  N   UNL A   1      46.589  29.026  27.426  1.00  0.00    -0.248 NA
ATOM     61  C   UNL A   1      48.755  29.712  26.892  1.00  0.00     0.031 C 
ATOM     62  C   UNL A   1      43.374  31.758  28.839  1.00  0.00     0.029 A 
ATOM     63  C   UNL A   1      44.391  30.931  28.387  1.00  0.00     0.049 A 
ATOM     64  H   UNL A   1      44.331  28.862  27.972  1.00  0.00     0.167 HD
ATOM     65  C   UNL A   1      46.700  30.394  27.649  1.00  0.00     0.074 A 
ATOM     66  C   UNL A   1      48.067  30.755  27.335  1.00  0.00     0.031 C 
ATOM     67  C   UNL A   1      45.758  31.271  28.077  1.00  0.00     0.037 A 
BRANCH  54  68
ATOM     68  C   UNL A   1      40.198  28.722  29.040  1.00  0.00     0.064 A 
ATOM     69  C   UNL A   1      39.766  28.511  30.360  1.00  0.00     0.173 A 
ATOM     70  C   UNL A   1      39.236  29.098  28.090  1.00  0.00     0.173 A 
ATOM     71  F   UNL A   1      40.641  28.133  31.304  1.00  0.00    -0.203 F 
ATOM     72  C   UNL A   1      38.421  28.630  30.702  1.00  0.00     0.198 A 
ATOM     73  C   UNL A   1      37.899  29.252  28.445  1.00  0.00     0.198 A 
ATOM     74  F   UNL A   1      39.591  29.313  26.815  1.00  0.00    -0.203 F 
ATOM     75  F   UNL A   1      38.024  28.355  31.952  1.00  0.00    -0.200 F 
ATOM     76  C   UNL A   1      37.490  29.005  29.747  1.00  0.00     0.200 A 
ATOM     77  F   UNL A   1      37.002  29.628  27.523  1.00  0.00    -0.200 F 
ATOM     78  F   UNL A   1      36.196  29.117  30.077  1.00  0.00    -0.200 F 
ENDBRANCH  54  68
BRANCH  55  79
ATOM     79  C   UNL A   1      49.655  26.995  26.268  1.00  0.00     0.064 A 
ATOM     80  C   UNL A   1      50.040  27.012  24.921  1.00  0.00     0.173 A 
ATOM     81  C   UNL A   1      50.645  26.721  27.224  1.00  0.00     0.173 A 
ATOM     82  F   UNL A   1      49.125  27.242  23.966  1.00  0.00    -0.203 F 
ATOM     83  C   UNL A   1      51.355  26.749  24.543  1.00  0.00     0.198 A 
ATOM     84  C   UNL A   1      51.966  26.488  26.847  1.00  0.00     0.198 A 
ATOM     85  F   UNL A   1      50.329  26.688  28.528  1.00  0.00    -0.203 F 
ATOM     86  F   UNL A   1      51.684  26.724  23.243  1.00  0.00    -0.200 F 
ATOM     87  C   UNL A   1      52.318  26.494  25.507  1.00  0.00     0.200 A 
ATOM     88  F   UNL A   1      52.895  26.255  27.783  1.00  0.00    -0.200 F 
ATOM     89  F   UNL A   1      53.585  26.245  25.144  1.00  0.00    -0.200 F 
ENDBRANCH  55  79
BRANCH  67  90
ATOM     90  C   UNL A   1      46.184  32.699  28.282  1.00  0.00     0.064 A 
ATOM     91  C   UNL A   1      46.723  33.148  29.497  1.00  0.00     0.173 A 
ATOM     92  C   UNL A   1      46.085  33.624  27.230  1.00  0.00     0.173 A 
ATOM     93  F   UNL A   1      46.829  32.308  30.539  1.00  0.00    -0.203 F 
ATOM     94  C   UNL A   1      47.114  34.474  29.661  1.00  0.00     0.198 A 
ATOM     95  C   UNL A   1      46.513  34.939  27.386  1.00  0.00     0.198 A 
ATOM     96  F   UNL A   1      45.586  33.247  26.042  1.00  0.00    -0.203 F 
ATOM     97  F   UNL A   1      47.572  34.893  30.850  1.00  0.00    -0.200 F 
ATOM     98  C   UNL A   1      47.017  35.366  28.604  1.00  0.00     0.200 A 
ATOM     99  F   UNL A   1      46.435  35.795  26.356  1.00  0.00    -0.200 F 
ATOM    100  F   UNL A   1      47.402  36.641  28.762  1.00  0.00    -0.200 F 
ENDBRANCH  67  90
ENDBRANCH  41  42
ENDBRANCH  34  36
ENDBRANCH  33  34
ENDBRANCH  32  33
ENDBRANCH  31  32
ENDBRANCH  30  31
ENDBRANCH  29  30
ENDBRANCH  28  29
ENDBRANCH   1  28
TORSDOF 23
ENDMDL
