MODEL 1
REMARK VINA RESULT:     -11.8      0.000      0.000
REMARK SMILES COc1cccc([C@@H]2CC(c3cccc(C)c3)=NN2C(=O)CCC(=O)OCCOCCOCCOCCOC(=O)c2ccc(-c3c4nc(c(-c5c(F)c(F)c(F)c(F)c5F)c5ccc([nH]5)c(-c5c(F)c(F)c(F)c(F)c5F)c5nc(c(-c6c(F)c(F)c(F)c(F)c6F)c6ccc3[nH]6)C=C5)C=C4)cc2)c1
REMARK SMILES IDX 30 1 29 2 28 3 27 4 26 5 24 6 25 7 23 8 22 9 20 10 21 11
REMARK SMILES IDX 19 12 8 13 9 14 10 15 18 16 7 17 3 18 4 19 104 20 5 21 6 22
REMARK SMILES IDX 2 23 1 24 11 25 12 26 17 27 13 28 15 29 14 30 16 31 31 32
REMARK SMILES IDX 32 33 33 34 34 35 35 36 36 37 37 38 38 39 39 40 40 41 41 42
REMARK SMILES IDX 42 43 103 44 43 45 102 46 44 47 45 48 46 49 96 50 47 51
REMARK SMILES IDX 101 52 95 53 97 54 48 55 100 56 94 57 93 58 49 60 81 61
REMARK SMILES IDX 61 62 80 63 62 64 65 65 79 66 98 67 63 68 64 69 78 71 99 72
REMARK SMILES IDX 66 73 50 74 51 75 59 76 52 77 53 78 57 79 60 80 54 81 55 82
REMARK SMILES IDX 58 83 56 84 82 85 83 86 91 87 84 88 85 89 89 90 92 91 86 92
REMARK SMILES IDX 87 93 90 94 88 95 67 96 68 97 76 98 69 99 70 100 74 101
REMARK SMILES IDX 77 102 71 103 72 104 75 105 73 106
REMARK H PARENT 97 59 65 70
REMARK Flexibility Score: inf
ROOT
ATOM      1  C   UNL A   1      34.011  33.766  33.302  1.00  0.00     0.188 C 
ENDROOT
BRANCH   1   2
ATOM      2  O   UNL A   1      32.906  34.499  32.621  1.00  0.00    -0.376 OA
BRANCH   2   3
ATOM      3  C   UNL A   1      32.634  35.836  32.061  1.00  0.00     0.202 C 
BRANCH   3   4
ATOM      4  C   UNL A   1      33.717  36.766  31.456  1.00  0.00     0.261 C 
BRANCH   4   5
ATOM      5  O   UNL A   1      33.292  37.303  30.221  1.00  0.00    -0.463 OA
BRANCH   5   6
ATOM      6  C   UNL A   1      33.018  36.347  29.319  1.00  0.00     0.306 C 
ATOM      7  O   UNL A   1      31.977  36.275  28.676  1.00  0.00    -0.252 OA
BRANCH   6   8
ATOM      8  C   UNL A   1      34.129  35.364  29.167  1.00  0.00     0.132 C 
BRANCH   8   9
ATOM      9  C   UNL A   1      33.926  34.038  28.447  1.00  0.00     0.114 C 
BRANCH   9  10
ATOM     10  C   UNL A   1      34.372  32.699  29.027  1.00  0.00     0.243 C 
ATOM     11  O   UNL A   1      34.482  32.779  30.275  1.00  0.00    -0.273 OA
BRANCH  10  12
ATOM     12  N   UNL A   1      34.642  31.470  28.398  1.00  0.00    -0.225 N 
ATOM     13  C   UNL A   1      34.313  30.307  27.137  1.00  0.00     0.147 C 
ATOM     14  C   UNL A   1      35.731  29.586  27.130  1.00  0.00     0.091 C 
ATOM     15  C   UNL A   1      36.271  30.001  28.479  1.00  0.00     0.071 C 
ATOM     16  N   UNL A   1      35.697  30.970  29.079  1.00  0.00    -0.174 NA
BRANCH  13  17
ATOM     17  C   UNL A   1      32.661  29.479  26.688  1.00  0.00    -0.019 A 
ATOM     18  C   UNL A   1      30.699  29.069  24.356  1.00  0.00     0.119 A 
ATOM     19  C   UNL A   1      30.332  27.405  24.775  1.00  0.00     0.046 A 
ATOM     20  C   UNL A   1      31.857  30.046  25.221  1.00  0.00     0.052 A 
ATOM     21  C   UNL A   1      31.042  26.685  26.222  1.00  0.00     0.004 A 
ATOM     22  C   UNL A   1      32.088  27.781  27.305  1.00  0.00     0.006 A 
BRANCH  18  23
ATOM     23  O   UNL A   1      29.815  29.642  23.451  1.00  0.00    -0.497 OA
ATOM     24  C   UNL A   1      30.243  29.617  22.088  1.00  0.00     0.278 C 
ENDBRANCH  18  23
ENDBRANCH  13  17
BRANCH  15  25
ATOM     25  C   UNL A   1      37.384  29.421  29.229  1.00  0.00    -0.002 A 
ATOM     26  C   UNL A   1      38.383  28.786  28.459  1.00  0.00     0.010 A 
ATOM     27  C   UNL A   1      37.294  29.227  30.593  1.00  0.00     0.013 A 
ATOM     28  C   UNL A   1      39.219  27.852  29.043  1.00  0.00     0.001 A 
ATOM     29  C   UNL A   1      38.173  28.324  31.191  1.00  0.00    -0.050 A 
ATOM     30  C   UNL A   1      39.087  27.604  30.405  1.00  0.00     0.003 A 
ATOM     31  C   UNL A   1      38.168  28.159  32.677  1.00  0.00     0.044 C 
ENDBRANCH  15  25
ENDBRANCH  10  12
ENDBRANCH   9  10
ENDBRANCH   8   9
ENDBRANCH   6   8
ENDBRANCH   5   6
ENDBRANCH   4   5
ENDBRANCH   3   4
ENDBRANCH   2   3
ENDBRANCH   1   2
BRANCH   1  32
ATOM     32  C   UNL A   1      35.315  33.912  34.651  1.00  0.00     0.188 C 
BRANCH  32  33
ATOM     33  O   UNL A   1      36.528  32.895  35.274  1.00  0.00    -0.377 OA
BRANCH  33  34
ATOM     34  C   UNL A   1      37.623  31.723  34.612  1.00  0.00     0.188 C 
BRANCH  34  35
ATOM     35  C   UNL A   1      38.859  30.673  35.595  1.00  0.00     0.188 C 
BRANCH  35  36
ATOM     36  O   UNL A   1      40.049  31.546  36.624  1.00  0.00    -0.376 OA
BRANCH  36  37
ATOM     37  C   UNL A   1      40.338  33.543  36.743  1.00  0.00     0.202 C 
BRANCH  37  38
ATOM     38  C   UNL A   1      39.060  34.797  36.033  1.00  0.00     0.261 C 
BRANCH  38  39
ATOM     39  O   UNL A   1      39.026  35.342  34.477  1.00  0.00    -0.460 OA
BRANCH  39  40
ATOM     40  C   UNL A   1      38.963  34.654  33.259  1.00  0.00     0.338 C 
ATOM     41  O   UNL A   1      37.959  34.602  32.557  1.00  0.00    -0.246 OA
BRANCH  40  42
ATOM     42  C   UNL A   1      40.302  34.094  32.670  1.00  0.00     0.060 A 
ATOM     43  C   UNL A   1      40.548  34.075  31.267  1.00  0.00     0.016 A 
ATOM     44  C   UNL A   1      41.286  33.476  33.445  1.00  0.00     0.016 A 
ATOM     45  C   UNL A   1      41.738  33.518  30.675  1.00  0.00     0.010 A 
ATOM     46  C   UNL A   1      42.445  32.863  32.850  1.00  0.00     0.010 A 
ATOM     47  C   UNL A   1      42.695  32.857  31.457  1.00  0.00    -0.014 A 
BRANCH  47  48
ATOM     48  C   UNL A   1      43.763  31.932  30.880  1.00  0.00     0.031 A 
ATOM     49  C   UNL A   1      45.133  32.509  30.602  1.00  0.00     0.074 A 
ATOM     50  C   UNL A   1      43.645  30.611  30.604  1.00  0.00     0.049 A 
ATOM     51  N   UNL A   1      46.160  31.980  29.980  1.00  0.00    -0.248 NA
ATOM     52  C   UNL A   1      45.386  33.846  31.151  1.00  0.00     0.031 C 
ATOM     53  C   UNL A   1      42.561  29.751  31.038  1.00  0.00     0.029 A 
ATOM     54  N   UNL A   1      44.474  29.746  29.887  1.00  0.00    -0.354 N 
ATOM     55  C   UNL A   1      47.187  32.905  30.083  1.00  0.00     0.074 A 
ATOM     56  C   UNL A   1      46.642  34.051  30.785  1.00  0.00     0.031 C 
ATOM     57  C   UNL A   1      42.759  28.521  30.531  1.00  0.00     0.029 A 
ATOM     58  C   UNL A   1      43.910  28.510  29.651  1.00  0.00     0.049 A 
ATOM     59  H   UNL A   1      45.374  29.995  29.579  1.00  0.00     0.167 HD
ATOM     60  C   UNL A   1      48.471  32.810  29.661  1.00  0.00     0.037 A 
ATOM     61  C   UNL A   1      44.226  27.484  28.826  1.00  0.00     0.037 A 
ATOM     62  C   UNL A   1      49.036  31.697  28.939  1.00  0.00     0.049 A 
ATOM     63  C   UNL A   1      45.554  27.489  28.131  1.00  0.00     0.074 A 
ATOM     64  C   UNL A   1      50.323  31.556  28.443  1.00  0.00     0.029 A 
ATOM     65  N   UNL A   1      48.357  30.537  28.595  1.00  0.00    -0.354 N 
ATOM     66  N   UNL A   1      46.500  28.389  28.204  1.00  0.00    -0.248 NA
ATOM     67  C   UNL A   1      45.904  26.312  27.320  1.00  0.00     0.031 C 
ATOM     68  C   UNL A   1      50.403  30.348  27.742  1.00  0.00     0.029 A 
ATOM     69  C   UNL A   1      49.187  29.699  27.858  1.00  0.00     0.049 A 
ATOM     70  H   UNL A   1      47.424  30.338  28.836  1.00  0.00     0.167 HD
ATOM     71  C   UNL A   1      47.578  27.860  27.516  1.00  0.00     0.074 A 
ATOM     72  C   UNL A   1      47.173  26.561  27.026  1.00  0.00     0.031 C 
ATOM     73  C   UNL A   1      48.803  28.409  27.343  1.00  0.00     0.037 A 
BRANCH  60  74
ATOM     74  C   UNL A   1      49.356  33.989  29.942  1.00  0.00     0.064 A 
ATOM     75  C   UNL A   1      50.131  34.069  31.110  1.00  0.00     0.173 A 
ATOM     76  C   UNL A   1      49.434  35.048  29.026  1.00  0.00     0.173 A 
ATOM     77  F   UNL A   1      50.073  33.091  32.027  1.00  0.00    -0.203 F 
ATOM     78  C   UNL A   1      50.927  35.181  31.363  1.00  0.00     0.198 A 
ATOM     79  C   UNL A   1      50.258  36.143  29.267  1.00  0.00     0.198 A 
ATOM     80  F   UNL A   1      48.713  35.019  27.895  1.00  0.00    -0.203 F 
ATOM     81  F   UNL A   1      51.615  35.264  32.511  1.00  0.00    -0.200 F 
ATOM     82  C   UNL A   1      50.996  36.214  30.439  1.00  0.00     0.200 A 
ATOM     83  F   UNL A   1      50.331  37.134  28.368  1.00  0.00    -0.200 F 
ATOM     84  F   UNL A   1      51.768  37.281  30.681  1.00  0.00    -0.200 F 
ENDBRANCH  60  74
BRANCH  61  85
ATOM     85  C   UNL A   1      43.276  26.349  28.590  1.00  0.00     0.064 A 
ATOM     86  C   UNL A   1      43.398  25.127  29.267  1.00  0.00     0.173 A 
ATOM     87  C   UNL A   1      42.268  26.443  27.616  1.00  0.00     0.173 A 
ATOM     88  F   UNL A   1      44.376  24.958  30.167  1.00  0.00    -0.203 F 
ATOM     89  C   UNL A   1      42.554  24.050  28.984  1.00  0.00     0.198 A 
ATOM     90  C   UNL A   1      41.408  25.373  27.351  1.00  0.00     0.198 A 
ATOM     91  F   UNL A   1      42.110  27.577  26.919  1.00  0.00    -0.203 F 
ATOM     92  F   UNL A   1      42.723  22.883  29.622  1.00  0.00    -0.200 F 
ATOM     93  C   UNL A   1      41.553  24.176  28.033  1.00  0.00     0.200 A 
ATOM     94  F   UNL A   1      40.431  25.507  26.442  1.00  0.00    -0.200 F 
ATOM     95  F   UNL A   1      40.733  23.148  27.778  1.00  0.00    -0.200 F 
ENDBRANCH  61  85
BRANCH  73  96
ATOM     96  C   UNL A   1      49.822  27.581  26.616  1.00  0.00     0.064 A 
ATOM     97  C   UNL A   1      49.842  27.493  25.216  1.00  0.00     0.173 A 
ATOM     98  C   UNL A   1      50.779  26.846  27.333  1.00  0.00     0.173 A 
ATOM     99  F   UNL A   1      48.935  28.157  24.484  1.00  0.00    -0.203 F 
ATOM    100  C   UNL A   1      50.754  26.668  24.563  1.00  0.00     0.198 A 
ATOM    101  C   UNL A   1      51.715  26.053  26.674  1.00  0.00     0.198 A 
ATOM    102  F   UNL A   1      50.803  26.890  28.673  1.00  0.00    -0.203 F 
ATOM    103  F   UNL A   1      50.704  26.541  23.230  1.00  0.00    -0.200 F 
ATOM    104  C   UNL A   1      51.693  25.954  25.291  1.00  0.00     0.200 A 
ATOM    105  F   UNL A   1      52.627  25.370  27.380  1.00  0.00    -0.200 F 
ATOM    106  F   UNL A   1      52.567  25.157  24.662  1.00  0.00    -0.200 F 
ENDBRANCH  73  96
ENDBRANCH  47  48
ENDBRANCH  40  42
ENDBRANCH  39  40
ENDBRANCH  38  39
ENDBRANCH  37  38
ENDBRANCH  36  37
ENDBRANCH  35  36
ENDBRANCH  34  35
ENDBRANCH  33  34
ENDBRANCH  32  33
ENDBRANCH   1  32
TORSDOF 26
ENDMDL
MODEL 2
REMARK VINA RESULT:     -11.6      3.109      7.051
REMARK SMILES COc1cccc([C@@H]2CC(c3cccc(C)c3)=NN2C(=O)CCC(=O)OCCOCCOCCOCCOC(=O)c2ccc(-c3c4nc(c(-c5c(F)c(F)c(F)c(F)c5F)c5ccc([nH]5)c(-c5c(F)c(F)c(F)c(F)c5F)c5nc(c(-c6c(F)c(F)c(F)c(F)c6F)c6ccc3[nH]6)C=C5)C=C4)cc2)c1
REMARK SMILES IDX 30 1 29 2 28 3 27 4 26 5 24 6 25 7 23 8 22 9 20 10 21 11
REMARK SMILES IDX 19 12 8 13 9 14 10 15 18 16 7 17 3 18 4 19 104 20 5 21 6 22
REMARK SMILES IDX 2 23 1 24 11 25 12 26 17 27 13 28 15 29 14 30 16 31 31 32
REMARK SMILES IDX 32 33 33 34 34 35 35 36 36 37 37 38 38 39 39 40 40 41 41 42
REMARK SMILES IDX 42 43 103 44 43 45 102 46 44 47 45 48 46 49 96 50 47 51
REMARK SMILES IDX 101 52 95 53 97 54 48 55 100 56 94 57 93 58 49 60 81 61
REMARK SMILES IDX 61 62 80 63 62 64 65 65 79 66 98 67 63 68 64 69 78 71 99 72
REMARK SMILES IDX 66 73 50 74 51 75 59 76 52 77 53 78 57 79 60 80 54 81 55 82
REMARK SMILES IDX 58 83 56 84 82 85 83 86 91 87 84 88 85 89 89 90 92 91 86 92
REMARK SMILES IDX 87 93 90 94 88 95 67 96 68 97 76 98 69 99 70 100 74 101
REMARK SMILES IDX 77 102 71 103 72 104 75 105 73 106
REMARK H PARENT 97 59 65 70
REMARK Flexibility Score: inf
ROOT
ATOM      1  C   UNL A   1      34.491  33.923  33.514  1.00  0.00     0.188 C 
ENDROOT
BRANCH   1   2
ATOM      2  O   UNL A   1      33.303  34.372  32.732  1.00  0.00    -0.376 OA
BRANCH   2   3
ATOM      3  C   UNL A   1      32.758  35.610  32.146  1.00  0.00     0.202 C 
BRANCH   3   4
ATOM      4  C   UNL A   1      33.579  36.605  31.286  1.00  0.00     0.261 C 
BRANCH   4   5
ATOM      5  O   UNL A   1      32.911  36.902  30.077  1.00  0.00    -0.463 OA
BRANCH   5   6
ATOM      6  C   UNL A   1      33.057  35.929  29.164  1.00  0.00     0.306 C 
ATOM      7  O   UNL A   1      32.155  35.501  28.453  1.00  0.00    -0.252 OA
BRANCH   6   8
ATOM      8  C   UNL A   1      34.454  35.410  29.094  1.00  0.00     0.132 C 
BRANCH   8   9
ATOM      9  C   UNL A   1      34.806  34.180  28.268  1.00  0.00     0.114 C 
BRANCH   9  10
ATOM     10  C   UNL A   1      34.559  32.754  28.753  1.00  0.00     0.243 C 
ATOM     11  O   UNL A   1      34.019  32.765  29.886  1.00  0.00    -0.273 OA
BRANCH  10  12
ATOM     12  N   UNL A   1      34.823  31.517  28.138  1.00  0.00    -0.225 N 
ATOM     13  C   UNL A   1      34.486  30.340  26.892  1.00  0.00     0.147 C 
ATOM     14  C   UNL A   1      35.902  29.615  26.889  1.00  0.00     0.091 C 
ATOM     15  C   UNL A   1      36.447  30.044  28.230  1.00  0.00     0.071 C 
ATOM     16  N   UNL A   1      35.879  31.022  28.821  1.00  0.00    -0.174 NA
BRANCH  13  17
ATOM     17  C   UNL A   1      32.829  29.512  26.459  1.00  0.00    -0.019 A 
ATOM     18  C   UNL A   1      31.122  28.586  24.075  1.00  0.00     0.119 A 
ATOM     19  C   UNL A   1      30.562  27.123  24.866  1.00  0.00     0.046 A 
ATOM     20  C   UNL A   1      32.255  29.698  24.798  1.00  0.00     0.052 A 
ATOM     21  C   UNL A   1      31.032  26.790  26.535  1.00  0.00     0.004 A 
ATOM     22  C   UNL A   1      32.040  28.082  27.420  1.00  0.00     0.006 A 
BRANCH  18  23
ATOM     23  O   UNL A   1      30.404  28.936  22.939  1.00  0.00    -0.497 OA
ATOM     24  C   UNL A   1      29.101  29.466  23.186  1.00  0.00     0.278 C 
ENDBRANCH  18  23
ENDBRANCH  13  17
BRANCH  15  25
ATOM     25  C   UNL A   1      37.562  29.469  28.984  1.00  0.00    -0.002 A 
ATOM     26  C   UNL A   1      38.748  29.240  28.253  1.00  0.00     0.010 A 
ATOM     27  C   UNL A   1      37.357  28.898  30.224  1.00  0.00     0.013 A 
ATOM     28  C   UNL A   1      39.681  28.331  28.714  1.00  0.00     0.001 A 
ATOM     29  C   UNL A   1      38.326  28.020  30.714  1.00  0.00    -0.050 A 
ATOM     30  C   UNL A   1      39.448  27.701  29.932  1.00  0.00     0.003 A 
ATOM     31  C   UNL A   1      38.184  27.456  32.091  1.00  0.00     0.044 C 
ENDBRANCH  15  25
ENDBRANCH  10  12
ENDBRANCH   9  10
ENDBRANCH   8   9
ENDBRANCH   6   8
ENDBRANCH   5   6
ENDBRANCH   4   5
ENDBRANCH   3   4
ENDBRANCH   2   3
ENDBRANCH   1   2
BRANCH   1  32
ATOM     32  C   UNL A   1      35.443  34.206  35.112  1.00  0.00     0.188 C 
BRANCH  32  33
ATOM     33  O   UNL A   1      37.037  33.926  35.635  1.00  0.00    -0.377 OA
BRANCH  33  34
ATOM     34  C   UNL A   1      38.580  33.742  34.862  1.00  0.00     0.188 C 
BRANCH  34  35
ATOM     35  C   UNL A   1      39.127  34.582  33.252  1.00  0.00     0.188 C 
BRANCH  35  36
ATOM     36  O   UNL A   1      38.382  33.997  31.723  1.00  0.00    -0.376 OA
BRANCH  36  37
ATOM     37  C   UNL A   1      37.101  32.451  31.493  1.00  0.00     0.202 C 
BRANCH  37  38
ATOM     38  C   UNL A   1      36.662  31.272  32.952  1.00  0.00     0.261 C 
BRANCH  38  39
ATOM     39  O   UNL A   1      37.710  30.226  33.678  1.00  0.00    -0.460 OA
BRANCH  39  40
ATOM     40  C   UNL A   1      38.929  30.445  34.330  1.00  0.00     0.338 C 
ATOM     41  O   UNL A   1      39.100  30.270  35.531  1.00  0.00    -0.246 OA
BRANCH  40  42
ATOM     42  C   UNL A   1      40.187  30.734  33.442  1.00  0.00     0.060 A 
ATOM     43  C   UNL A   1      41.343  31.375  33.974  1.00  0.00     0.016 A 
ATOM     44  C   UNL A   1      40.228  30.500  32.065  1.00  0.00     0.016 A 
ATOM     45  C   UNL A   1      42.499  31.713  33.184  1.00  0.00     0.010 A 
ATOM     46  C   UNL A   1      41.357  30.896  31.264  1.00  0.00     0.010 A 
ATOM     47  C   UNL A   1      42.510  31.520  31.796  1.00  0.00    -0.014 A 
BRANCH  47  48
ATOM     48  C   UNL A   1      43.515  32.184  30.859  1.00  0.00     0.031 A 
ATOM     49  C   UNL A   1      44.867  31.529  30.680  1.00  0.00     0.074 A 
ATOM     50  C   UNL A   1      43.335  33.306  30.121  1.00  0.00     0.049 A 
ATOM     51  N   UNL A   1      45.940  31.966  30.066  1.00  0.00    -0.248 NA
ATOM     52  C   UNL A   1      44.997  30.174  31.228  1.00  0.00     0.031 C 
ATOM     53  C   UNL A   1      42.064  33.960  29.876  1.00  0.00     0.029 A 
ATOM     54  N   UNL A   1      44.245  34.099  29.419  1.00  0.00    -0.354 N 
ATOM     55  C   UNL A   1      46.863  30.934  30.130  1.00  0.00     0.074 A 
ATOM     56  C   UNL A   1      46.239  29.867  30.889  1.00  0.00     0.031 C 
ATOM     57  C   UNL A   1      42.286  35.069  29.146  1.00  0.00     0.029 A 
ATOM     58  C   UNL A   1      43.706  35.279  28.956  1.00  0.00     0.049 A 
ATOM     59  H   UNL A   1      45.182  33.839  29.270  1.00  0.00     0.167 HD
ATOM     60  C   UNL A   1      48.105  30.860  29.592  1.00  0.00     0.037 A 
ATOM     61  C   UNL A   1      44.245  36.419  28.461  1.00  0.00     0.037 A 
ATOM     62  C   UNL A   1      48.764  31.911  28.855  1.00  0.00     0.049 A 
ATOM     63  C   UNL A   1      45.700  36.441  28.100  1.00  0.00     0.074 A 
ATOM     64  C   UNL A   1      50.042  31.915  28.319  1.00  0.00     0.029 A 
ATOM     65  N   UNL A   1      48.211  33.148  28.558  1.00  0.00    -0.354 N 
ATOM     66  N   UNL A   1      46.572  35.473  28.204  1.00  0.00    -0.248 NA
ATOM     67  C   UNL A   1      46.229  37.664  27.474  1.00  0.00     0.031 C 
ATOM     68  C   UNL A   1      50.287  33.174  27.760  1.00  0.00     0.029 A 
ATOM     69  C   UNL A   1      49.138  33.935  27.884  1.00  0.00     0.049 A 
ATOM     70  H   UNL A   1      47.297  33.428  28.791  1.00  0.00     0.167 HD
ATOM     71  C   UNL A   1      47.725  35.936  27.594  1.00  0.00     0.074 A 
ATOM     72  C   UNL A   1      47.448  37.276  27.124  1.00  0.00     0.031 C 
ATOM     73  C   UNL A   1      48.895  35.277  27.421  1.00  0.00     0.037 A 
BRANCH  60  74
ATOM     74  C   UNL A   1      48.860  29.584  29.825  1.00  0.00     0.064 A 
ATOM     75  C   UNL A   1      49.675  29.404  30.953  1.00  0.00     0.173 A 
ATOM     76  C   UNL A   1      48.762  28.527  28.908  1.00  0.00     0.173 A 
ATOM     77  F   UNL A   1      49.820  30.395  31.847  1.00  0.00    -0.203 F 
ATOM     78  C   UNL A   1      50.387  28.223  31.139  1.00  0.00     0.198 A 
ATOM     79  C   UNL A   1      49.449  27.335  29.115  1.00  0.00     0.198 A 
ATOM     80  F   UNL A   1      47.997  28.650  27.813  1.00  0.00    -0.203 F 
ATOM     81  F   UNL A   1      51.204  28.094  32.194  1.00  0.00    -0.200 F 
ATOM     82  C   UNL A   1      50.267  27.187  30.224  1.00  0.00     0.200 A 
ATOM     83  F   UNL A   1      49.324  26.332  28.236  1.00  0.00    -0.200 F 
ATOM     84  F   UNL A   1      50.949  26.048  30.408  1.00  0.00    -0.200 F 
ENDBRANCH  60  74
BRANCH  61  85
ATOM     85  C   UNL A   1      43.421  37.656  28.271  1.00  0.00     0.064 A 
ATOM     86  C   UNL A   1      43.342  38.651  29.256  1.00  0.00     0.173 A 
ATOM     87  C   UNL A   1      42.630  37.828  27.123  1.00  0.00     0.173 A 
ATOM     88  F   UNL A   1      44.030  38.516  30.399  1.00  0.00    -0.203 F 
ATOM     89  C   UNL A   1      42.511  39.765  29.102  1.00  0.00     0.198 A 
ATOM     90  C   UNL A   1      41.818  38.954  26.958  1.00  0.00     0.198 A 
ATOM     91  F   UNL A   1      42.645  36.904  26.153  1.00  0.00    -0.203 F 
ATOM     92  F   UNL A   1      42.430  40.678  30.080  1.00  0.00    -0.200 F 
ATOM     93  C   UNL A   1      41.758  39.921  27.949  1.00  0.00     0.200 A 
ATOM     94  F   UNL A   1      41.104  39.109  25.834  1.00  0.00    -0.200 F 
ATOM     95  F   UNL A   1      40.978  40.999  27.796  1.00  0.00    -0.200 F 
ENDBRANCH  61  85
BRANCH  73  96
ATOM     96  C   UNL A   1      49.968  35.990  26.650  1.00  0.00     0.064 A 
ATOM     97  C   UNL A   1      50.848  36.891  27.267  1.00  0.00     0.173 A 
ATOM     98  C   UNL A   1      50.102  35.784  25.269  1.00  0.00     0.173 A 
ATOM     99  F   UNL A   1      50.748  37.142  28.581  1.00  0.00    -0.203 F 
ATOM    100  C   UNL A   1      51.794  37.592  26.524  1.00  0.00     0.198 A 
ATOM    101  C   UNL A   1      51.075  36.457  24.535  1.00  0.00     0.198 A 
ATOM    102  F   UNL A   1      49.284  34.937  24.627  1.00  0.00    -0.203 F 
ATOM    103  F   UNL A   1      52.572  38.504  27.121  1.00  0.00    -0.200 F 
ATOM    104  C   UNL A   1      51.911  37.369  25.160  1.00  0.00     0.200 A 
ATOM    105  F   UNL A   1      51.192  36.234  23.218  1.00  0.00    -0.200 F 
ATOM    106  F   UNL A   1      52.819  38.047  24.444  1.00  0.00    -0.200 F 
ENDBRANCH  73  96
ENDBRANCH  47  48
ENDBRANCH  40  42
ENDBRANCH  39  40
ENDBRANCH  38  39
ENDBRANCH  37  38
ENDBRANCH  36  37
ENDBRANCH  35  36
ENDBRANCH  34  35
ENDBRANCH  33  34
ENDBRANCH  32  33
ENDBRANCH   1  32
TORSDOF 26
ENDMDL
MODEL 3
REMARK VINA RESULT:     -11.5     10.134     15.929
REMARK SMILES COc1cccc([C@@H]2CC(c3cccc(C)c3)=NN2C(=O)CCC(=O)OCCOCCOCCOCCOC(=O)c2ccc(-c3c4nc(c(-c5c(F)c(F)c(F)c(F)c5F)c5ccc([nH]5)c(-c5c(F)c(F)c(F)c(F)c5F)c5nc(c(-c6c(F)c(F)c(F)c(F)c6F)c6ccc3[nH]6)C=C5)C=C4)cc2)c1
REMARK SMILES IDX 30 1 29 2 28 3 27 4 26 5 24 6 25 7 23 8 22 9 20 10 21 11
REMARK SMILES IDX 19 12 8 13 9 14 10 15 18 16 7 17 3 18 4 19 104 20 5 21 6 22
REMARK SMILES IDX 2 23 1 24 11 25 12 26 17 27 13 28 15 29 14 30 16 31 31 32
REMARK SMILES IDX 32 33 33 34 34 35 35 36 36 37 37 38 38 39 39 40 40 41 41 42
REMARK SMILES IDX 42 43 103 44 43 45 102 46 44 47 45 48 46 49 96 50 47 51
REMARK SMILES IDX 101 52 95 53 97 54 48 55 100 56 94 57 93 58 49 60 81 61
REMARK SMILES IDX 61 62 80 63 62 64 65 65 79 66 98 67 63 68 64 69 78 71 99 72
REMARK SMILES IDX 66 73 50 74 51 75 59 76 52 77 53 78 57 79 60 80 54 81 55 82
REMARK SMILES IDX 58 83 56 84 82 85 83 86 91 87 84 88 85 89 89 90 92 91 86 92
REMARK SMILES IDX 87 93 90 94 88 95 67 96 68 97 76 98 69 99 70 100 74 101
REMARK SMILES IDX 77 102 71 103 72 104 75 105 73 106
REMARK H PARENT 97 59 65 70
REMARK Flexibility Score: inf
ROOT
ATOM      1  C   UNL A   1      45.963  22.283  37.591  1.00  0.00     0.188 C 
ENDROOT
BRANCH   1   2
ATOM      2  O   UNL A   1      47.218  22.146  38.385  1.00  0.00    -0.376 OA
BRANCH   2   3
ATOM      3  C   UNL A   1      47.761  21.321  39.480  1.00  0.00     0.202 C 
BRANCH   3   4
ATOM      4  C   UNL A   1      48.125  19.820  39.345  1.00  0.00     0.261 C 
BRANCH   4   5
ATOM      5  O   UNL A   1      47.497  19.245  38.218  1.00  0.00    -0.463 OA
BRANCH   5   6
ATOM      6  C   UNL A   1      46.403  18.542  38.549  1.00  0.00     0.306 C 
ATOM      7  O   UNL A   1      45.329  18.609  37.962  1.00  0.00    -0.252 OA
BRANCH   6   8
ATOM      8  C   UNL A   1      46.627  17.648  39.721  1.00  0.00     0.132 C 
BRANCH   8   9
ATOM      9  C   UNL A   1      45.469  16.950  40.422  1.00  0.00     0.114 C 
BRANCH   9  10
ATOM     10  C   UNL A   1      44.941  17.381  41.788  1.00  0.00     0.243 C 
ATOM     11  O   UNL A   1      44.253  18.425  41.680  1.00  0.00    -0.273 OA
BRANCH  10  12
ATOM     12  N   UNL A   1      45.097  16.798  43.058  1.00  0.00    -0.225 N 
ATOM     13  C   UNL A   1      45.204  15.381  44.075  1.00  0.00     0.147 C 
ATOM     14  C   UNL A   1      46.012  16.036  45.277  1.00  0.00     0.091 C 
ATOM     15  C   UNL A   1      45.759  17.504  45.028  1.00  0.00     0.071 C 
ATOM     16  N   UNL A   1      45.308  17.846  43.885  1.00  0.00    -0.174 NA
BRANCH  13  17
ATOM     17  C   UNL A   1      43.971  13.941  44.237  1.00  0.00    -0.019 A 
ATOM     18  C   UNL A   1      42.041  12.194  42.603  1.00  0.00     0.119 A 
ATOM     19  C   UNL A   1      42.424  10.717  43.469  1.00  0.00     0.046 A 
ATOM     20  C   UNL A   1      42.820  13.723  42.915  1.00  0.00     0.052 A 
ATOM     21  C   UNL A   1      43.547  10.762  44.830  1.00  0.00     0.004 A 
ATOM     22  C   UNL A   1      44.207  12.424  45.348  1.00  0.00     0.006 A 
BRANCH  18  23
ATOM     23  O   UNL A   1      40.890  12.124  41.828  1.00  0.00    -0.497 OA
ATOM     24  C   UNL A   1      40.976  12.768  40.556  1.00  0.00     0.278 C 
ENDBRANCH  18  23
ENDBRANCH  13  17
BRANCH  15  25
ATOM     25  C   UNL A   1      45.946  18.627  45.947  1.00  0.00    -0.002 A 
ATOM     26  C   UNL A   1      44.832  18.959  46.749  1.00  0.00     0.010 A 
ATOM     27  C   UNL A   1      47.012  19.491  45.801  1.00  0.00     0.013 A 
ATOM     28  C   UNL A   1      44.732  20.220  47.308  1.00  0.00     0.001 A 
ATOM     29  C   UNL A   1      46.935  20.744  46.410  1.00  0.00    -0.050 A 
ATOM     30  C   UNL A   1      45.775  21.118  47.108  1.00  0.00     0.003 A 
ATOM     31  C   UNL A   1      48.108  21.669  46.353  1.00  0.00     0.044 C 
ENDBRANCH  15  25
ENDBRANCH  10  12
ENDBRANCH   9  10
ENDBRANCH   8   9
ENDBRANCH   6   8
ENDBRANCH   5   6
ENDBRANCH   4   5
ENDBRANCH   3   4
ENDBRANCH   2   3
ENDBRANCH   1   2
BRANCH   1  32
ATOM     32  C   UNL A   1      45.297  22.526  35.848  1.00  0.00     0.188 C 
BRANCH  32  33
ATOM     33  O   UNL A   1      45.930  23.118  34.384  1.00  0.00    -0.377 OA
BRANCH  33  34
ATOM     34  C   UNL A   1      45.488  24.357  33.254  1.00  0.00     0.188 C 
BRANCH  34  35
ATOM     35  C   UNL A   1      46.625  25.726  32.600  1.00  0.00     0.188 C 
BRANCH  35  36
ATOM     36  O   UNL A   1      48.328  25.730  33.178  1.00  0.00    -0.376 OA
BRANCH  36  37
ATOM     37  C   UNL A   1      48.979  25.898  35.084  1.00  0.00     0.202 C 
BRANCH  37  38
ATOM     38  C   UNL A   1      48.208  24.863  36.514  1.00  0.00     0.261 C 
BRANCH  38  39
ATOM     39  O   UNL A   1      47.534  25.487  37.883  1.00  0.00    -0.460 OA
BRANCH  39  40
ATOM     40  C   UNL A   1      46.289  26.086  38.108  1.00  0.00     0.338 C 
ATOM     41  O   UNL A   1      45.869  26.390  39.219  1.00  0.00    -0.246 OA
BRANCH  40  42
ATOM     42  C   UNL A   1      45.482  26.576  36.857  1.00  0.00     0.060 A 
ATOM     43  C   UNL A   1      45.885  27.723  36.114  1.00  0.00     0.016 A 
ATOM     44  C   UNL A   1      44.268  26.013  36.455  1.00  0.00     0.016 A 
ATOM     45  C   UNL A   1      45.144  28.245  34.994  1.00  0.00     0.010 A 
ATOM     46  C   UNL A   1      43.496  26.573  35.376  1.00  0.00     0.010 A 
ATOM     47  C   UNL A   1      43.904  27.704  34.629  1.00  0.00    -0.014 A 
BRANCH  47  48
ATOM     48  C   UNL A   1      42.904  28.419  33.725  1.00  0.00     0.031 A 
ATOM     49  C   UNL A   1      41.916  29.369  34.363  1.00  0.00     0.074 A 
ATOM     50  C   UNL A   1      42.804  28.330  32.376  1.00  0.00     0.049 A 
ATOM     51  N   UNL A   1      40.877  29.979  33.843  1.00  0.00    -0.248 NA
ATOM     52  C   UNL A   1      42.175  29.711  35.766  1.00  0.00     0.031 C 
ATOM     53  C   UNL A   1      43.791  27.736  31.495  1.00  0.00     0.029 A 
ATOM     54  N   UNL A   1      41.808  28.762  31.500  1.00  0.00    -0.354 N 
ATOM     55  C   UNL A   1      40.374  30.795  34.845  1.00  0.00     0.074 A 
ATOM     56  C   UNL A   1      41.192  30.562  36.019  1.00  0.00     0.031 C 
ATOM     57  C   UNL A   1      43.324  27.785  30.233  1.00  0.00     0.029 A 
ATOM     58  C   UNL A   1      41.973  28.307  30.209  1.00  0.00     0.049 A 
ATOM     59  H   UNL A   1      41.059  29.337  31.777  1.00  0.00     0.167 HD
ATOM     60  C   UNL A   1      39.346  31.676  34.795  1.00  0.00     0.037 A 
ATOM     61  C   UNL A   1      41.163  28.267  29.125  1.00  0.00     0.037 A 
ATOM     62  C   UNL A   1      38.497  31.912  33.653  1.00  0.00     0.049 A 
ATOM     63  C   UNL A   1      39.874  29.033  29.148  1.00  0.00     0.074 A 
ATOM     64  C   UNL A   1      37.407  32.762  33.551  1.00  0.00     0.029 A 
ATOM     65  N   UNL A   1      38.626  31.293  32.418  1.00  0.00    -0.354 N 
ATOM     66  N   UNL A   1      39.390  29.767  30.115  1.00  0.00    -0.248 NA
ATOM     67  C   UNL A   1      39.067  29.047  27.917  1.00  0.00     0.031 C 
ATOM     68  C   UNL A   1      36.838  32.608  32.283  1.00  0.00     0.029 A 
ATOM     69  C   UNL A   1      37.611  31.713  31.565  1.00  0.00     0.049 A 
ATOM     70  H   UNL A   1      39.333  30.650  32.181  1.00  0.00     0.167 HD
ATOM     71  C   UNL A   1      38.268  30.387  29.592  1.00  0.00     0.074 A 
ATOM     72  C   UNL A   1      38.137  29.942  28.222  1.00  0.00     0.031 C 
ATOM     73  C   UNL A   1      37.447  31.273  30.204  1.00  0.00     0.037 A 
BRANCH  60  74
ATOM     74  C   UNL A   1      39.053  32.435  36.057  1.00  0.00     0.064 A 
ATOM     75  C   UNL A   1      38.231  31.905  37.063  1.00  0.00     0.173 A 
ATOM     76  C   UNL A   1      39.609  33.706  36.262  1.00  0.00     0.173 A 
ATOM     77  F   UNL A   1      37.657  30.702  36.903  1.00  0.00    -0.203 F 
ATOM     78  C   UNL A   1      37.952  32.634  38.215  1.00  0.00     0.198 A 
ATOM     79  C   UNL A   1      39.355  34.418  37.430  1.00  0.00     0.198 A 
ATOM     80  F   UNL A   1      40.401  34.257  35.330  1.00  0.00    -0.203 F 
ATOM     81  F   UNL A   1      37.118  32.133  39.138  1.00  0.00    -0.200 F 
ATOM     82  C   UNL A   1      38.520  33.886  38.402  1.00  0.00     0.200 A 
ATOM     83  F   UNL A   1      39.913  35.622  37.613  1.00  0.00    -0.200 F 
ATOM     84  F   UNL A   1      38.255  34.584  39.514  1.00  0.00    -0.200 F 
ENDBRANCH  60  74
BRANCH  61  85
ATOM     85  C   UNL A   1      41.524  27.472  27.907  1.00  0.00     0.064 A 
ATOM     86  C   UNL A   1      41.111  26.142  27.741  1.00  0.00     0.173 A 
ATOM     87  C   UNL A   1      42.362  28.010  26.916  1.00  0.00     0.173 A 
ATOM     88  F   UNL A   1      40.357  25.555  28.681  1.00  0.00    -0.203 F 
ATOM     89  C   UNL A   1      41.517  25.385  26.638  1.00  0.00     0.198 A 
ATOM     90  C   UNL A   1      42.747  27.261  25.800  1.00  0.00     0.198 A 
ATOM     91  F   UNL A   1      42.809  29.269  27.024  1.00  0.00    -0.203 F 
ATOM     92  F   UNL A   1      41.135  24.105  26.530  1.00  0.00    -0.200 F 
ATOM     93  C   UNL A   1      42.326  25.948  25.663  1.00  0.00     0.200 A 
ATOM     94  F   UNL A   1      43.517  27.815  24.852  1.00  0.00    -0.200 F 
ATOM     95  F   UNL A   1      42.697  25.226  24.597  1.00  0.00    -0.200 F 
ENDBRANCH  61  85
BRANCH  73  96
ATOM     96  C   UNL A   1      36.340  31.857  29.376  1.00  0.00     0.064 A 
ATOM     97  C   UNL A   1      36.327  33.210  29.006  1.00  0.00     0.173 A 
ATOM     98  C   UNL A   1      35.264  31.055  28.965  1.00  0.00     0.173 A 
ATOM     99  F   UNL A   1      37.319  34.026  29.393  1.00  0.00    -0.203 F 
ATOM    100  C   UNL A   1      35.258  33.748  28.294  1.00  0.00     0.198 A 
ATOM    101  C   UNL A   1      34.216  31.588  28.220  1.00  0.00     0.198 A 
ATOM    102  F   UNL A   1      35.223  29.756  29.295  1.00  0.00    -0.203 F 
ATOM    103  F   UNL A   1      35.230  35.059  28.019  1.00  0.00    -0.200 F 
ATOM    104  C   UNL A   1      34.207  32.936  27.896  1.00  0.00     0.200 A 
ATOM    105  F   UNL A   1      33.206  30.798  27.828  1.00  0.00    -0.200 F 
ATOM    106  F   UNL A   1      33.177  33.455  27.214  1.00  0.00    -0.200 F 
ENDBRANCH  73  96
ENDBRANCH  47  48
ENDBRANCH  40  42
ENDBRANCH  39  40
ENDBRANCH  38  39
ENDBRANCH  37  38
ENDBRANCH  36  37
ENDBRANCH  35  36
ENDBRANCH  34  35
ENDBRANCH  33  34
ENDBRANCH  32  33
ENDBRANCH   1  32
TORSDOF 26
ENDMDL
