MODEL 1
REMARK VINA RESULT:     -10.2      0.000      0.000
REMARK SMILES NC1=C(Cl)[C@H](C(=O)OCCOCCOCCOCCOC(=O)c2ccc(-c3c4nc(c(-c5c(F)c(F)c(F)c(F)c5F)c5ccc([nH]5)c(-c5c(F)c(F)c(F)c(F)c5F)c5nc(c(-c6c(F)c(F)c(F)c(F)c6F)c6ccc3[nH]6)C=C5)C=C4)cc2)N=N1
REMARK SMILES IDX 15 1 14 2 13 3 12 4 11 5 10 6 9 7 8 8 6 9 7 10 5 11 2 12
REMARK SMILES IDX 3 13 87 14 4 15 86 16 1 17 16 20 17 21 18 22 19 23 20 24
REMARK SMILES IDX 21 25 22 26 23 27 24 28 85 29 25 30 84 31 26 32 27 33 28 34
REMARK SMILES IDX 78 35 29 36 83 37 77 38 79 39 30 40 82 41 76 42 75 43 31 45
REMARK SMILES IDX 63 46 43 47 62 48 44 49 47 50 61 51 80 52 45 53 46 54 60 56
REMARK SMILES IDX 81 57 48 58 32 59 33 60 41 61 34 62 35 63 39 64 42 65 36 66
REMARK SMILES IDX 37 67 40 68 38 69 64 70 65 71 73 72 66 73 67 74 71 75 74 76
REMARK SMILES IDX 68 77 69 78 72 79 70 80 49 81 50 82 58 83 51 84 52 85 56 86
REMARK SMILES IDX 59 87 53 88 54 89 57 90 55 91
REMARK H PARENT 1 18 1 19 79 44 47 55
REMARK Flexibility Score: inf
ROOT
ATOM      1  C   UNL A   1      41.982  19.803  27.077  1.00  0.00     0.188 C 
ENDROOT
BRANCH   1   2
ATOM      2  O   UNL A   1      41.274  20.759  26.300  1.00  0.00    -0.377 OA
BRANCH   2   3
ATOM      3  C   UNL A   1      40.591  21.807  26.954  1.00  0.00     0.188 C 
BRANCH   3   4
ATOM      4  C   UNL A   1      39.322  22.362  26.294  1.00  0.00     0.188 C 
BRANCH   4   5
ATOM      5  O   UNL A   1      38.384  21.465  25.740  1.00  0.00    -0.376 OA
BRANCH   5   6
ATOM      6  C   UNL A   1      37.197  21.943  25.137  1.00  0.00     0.202 C 
BRANCH   6   7
ATOM      7  C   UNL A   1      36.844  23.435  24.971  1.00  0.00     0.261 C 
BRANCH   7   8
ATOM      8  O   UNL A   1      35.467  23.827  24.805  1.00  0.00    -0.461 OA
BRANCH   8   9
ATOM      9  C   UNL A   1      35.005  23.852  23.524  1.00  0.00     0.338 C 
ATOM     10  O   UNL A   1      35.589  23.312  22.586  1.00  0.00    -0.249 OA
BRANCH   9  11
ATOM     11  C   UNL A   1      33.739  24.693  23.301  1.00  0.00     0.283 C 
ATOM     12  C   UNL A   1      33.487  26.688  22.242  1.00  0.00     0.163 C 
ATOM     13  C   UNL A   1      33.702  26.165  23.454  1.00  0.00     0.100 C 
ATOM     14  N   UNL A   1      33.392  25.682  21.304  1.00  0.00    -0.136 NA
ATOM     15  Cl  UNL A   1      33.397  26.979  24.925  1.00  0.00    -0.082 Cl
ATOM     16  N   UNL A   1      33.444  24.543  21.849  1.00  0.00    -0.166 NA
BRANCH  12  17
ATOM     17  N   UNL A   1      33.249  28.007  21.999  1.00  0.00    -0.381 N 
ATOM     18  H   UNL A   1      33.966  28.669  22.130  1.00  0.00     0.158 HD
ATOM     19  H   UNL A   1      32.360  28.300  21.691  1.00  0.00     0.158 HD
ENDBRANCH  12  17
ENDBRANCH   9  11
ENDBRANCH   8   9
ENDBRANCH   7   8
ENDBRANCH   6   7
ENDBRANCH   5   6
ENDBRANCH   4   5
ENDBRANCH   3   4
ENDBRANCH   2   3
ENDBRANCH   1   2
BRANCH   1  20
ATOM     20  C   UNL A   1      42.624  18.551  26.433  1.00  0.00     0.188 C 
BRANCH  20  21
ATOM     21  O   UNL A   1      43.944  18.720  25.933  1.00  0.00    -0.376 OA
BRANCH  21  22
ATOM     22  C   UNL A   1      44.210  18.756  24.540  1.00  0.00     0.202 C 
BRANCH  22  23
ATOM     23  C   UNL A   1      45.270  19.743  24.051  1.00  0.00     0.261 C 
BRANCH  23  24
ATOM     24  O   UNL A   1      44.735  20.994  23.667  1.00  0.00    -0.460 OA
BRANCH  24  25
ATOM     25  C   UNL A   1      45.292  22.056  24.279  1.00  0.00     0.338 C 
ATOM     26  O   UNL A   1      46.422  22.484  24.146  1.00  0.00    -0.246 OA
BRANCH  25  27
ATOM     27  C   UNL A   1      44.337  22.557  25.267  1.00  0.00     0.060 A 
ATOM     28  C   UNL A   1      43.296  23.321  24.744  1.00  0.00     0.016 A 
ATOM     29  C   UNL A   1      44.750  22.639  26.606  1.00  0.00     0.016 A 
ATOM     30  C   UNL A   1      42.911  24.417  25.466  1.00  0.00     0.010 A 
ATOM     31  C   UNL A   1      44.381  23.745  27.316  1.00  0.00     0.010 A 
ATOM     32  C   UNL A   1      43.562  24.669  26.679  1.00  0.00    -0.014 A 
BRANCH  32  33
ATOM     33  C   UNL A   1      43.321  25.940  27.305  1.00  0.00     0.031 A 
ATOM     34  C   UNL A   1      44.350  26.919  26.938  1.00  0.00     0.074 A 
ATOM     35  C   UNL A   1      42.248  26.162  28.083  1.00  0.00     0.049 A 
ATOM     36  N   UNL A   1      45.315  27.343  27.679  1.00  0.00    -0.248 NA
ATOM     37  C   UNL A   1      44.457  27.294  25.521  1.00  0.00     0.031 C 
ATOM     38  C   UNL A   1      41.071  25.303  28.260  1.00  0.00     0.029 A 
ATOM     39  N   UNL A   1      41.944  27.264  28.820  1.00  0.00    -0.354 N 
ATOM     40  C   UNL A   1      46.010  28.238  26.879  1.00  0.00     0.074 A 
ATOM     41  C   UNL A   1      45.601  27.979  25.526  1.00  0.00     0.031 C 
ATOM     42  C   UNL A   1      40.093  26.012  28.868  1.00  0.00     0.029 A 
ATOM     43  C   UNL A   1      40.625  27.312  29.245  1.00  0.00     0.049 A 
ATOM     44  H   UNL A   1      42.601  27.964  29.032  1.00  0.00     0.167 HD
ATOM     45  C   UNL A   1      46.555  29.348  27.442  1.00  0.00     0.037 A 
ATOM     46  C   UNL A   1      40.018  28.384  29.807  1.00  0.00     0.037 A 
ATOM     47  C   UNL A   1      46.658  29.190  28.874  1.00  0.00     0.049 A 
ATOM     48  C   UNL A   1      41.080  29.248  30.377  1.00  0.00     0.074 A 
ATOM     49  C   UNL A   1      47.466  28.503  29.752  1.00  0.00     0.029 A 
ATOM     50  N   UNL A   1      45.519  29.538  29.554  1.00  0.00    -0.354 N 
ATOM     51  N   UNL A   1      41.823  28.892  31.389  1.00  0.00    -0.248 NA
ATOM     52  C   UNL A   1      41.584  30.378  29.602  1.00  0.00     0.031 C 
ATOM     53  C   UNL A   1      46.705  28.330  30.948  1.00  0.00     0.029 A 
ATOM     54  C   UNL A   1      45.459  28.930  30.777  1.00  0.00     0.049 A 
ATOM     55  H   UNL A   1      44.832  30.149  29.205  1.00  0.00     0.167 HD
ATOM     56  C   UNL A   1      43.056  29.458  31.125  1.00  0.00     0.074 A 
ATOM     57  C   UNL A   1      42.805  30.494  30.133  1.00  0.00     0.031 C 
ATOM     58  C   UNL A   1      44.203  28.814  31.482  1.00  0.00     0.037 A 
BRANCH  45  59
ATOM     59  C   UNL A   1      46.460  30.731  26.826  1.00  0.00     0.064 A 
ATOM     60  C   UNL A   1      47.627  31.522  26.797  1.00  0.00     0.173 A 
ATOM     61  C   UNL A   1      45.253  31.428  26.589  1.00  0.00     0.173 A 
ATOM     62  F   UNL A   1      48.831  30.969  27.009  1.00  0.00    -0.203 F 
ATOM     63  C   UNL A   1      47.574  32.910  26.650  1.00  0.00     0.198 A 
ATOM     64  C   UNL A   1      45.211  32.806  26.395  1.00  0.00     0.198 A 
ATOM     65  F   UNL A   1      44.053  30.844  26.644  1.00  0.00    -0.203 F 
ATOM     66  F   UNL A   1      48.696  33.634  26.764  1.00  0.00    -0.200 F 
ATOM     67  C   UNL A   1      46.365  33.552  26.463  1.00  0.00     0.200 A 
ATOM     68  F   UNL A   1      44.024  33.409  26.233  1.00  0.00    -0.200 F 
ATOM     69  F   UNL A   1      46.303  34.888  26.394  1.00  0.00    -0.200 F 
ENDBRANCH  45  59
BRANCH  46  70
ATOM     70  C   UNL A   1      38.621  28.840  29.639  1.00  0.00     0.064 A 
ATOM     71  C   UNL A   1      37.815  29.125  30.752  1.00  0.00     0.173 A 
ATOM     72  C   UNL A   1      38.144  29.281  28.388  1.00  0.00     0.173 A 
ATOM     73  F   UNL A   1      38.215  28.770  31.981  1.00  0.00    -0.203 F 
ATOM     74  C   UNL A   1      36.622  29.844  30.628  1.00  0.00     0.198 A 
ATOM     75  C   UNL A   1      36.951  29.995  28.265  1.00  0.00     0.198 A 
ATOM     76  F   UNL A   1      38.876  29.119  27.277  1.00  0.00    -0.203 F 
ATOM     77  F   UNL A   1      35.915  30.159  31.721  1.00  0.00    -0.200 F 
ATOM     78  C   UNL A   1      36.199  30.290  29.387  1.00  0.00     0.200 A 
ATOM     79  F   UNL A   1      36.572  30.451  27.063  1.00  0.00    -0.200 F 
ATOM     80  F   UNL A   1      35.094  31.040  29.275  1.00  0.00    -0.200 F 
ENDBRANCH  46  70
BRANCH  58  81
ATOM     81  C   UNL A   1      44.093  27.791  32.568  1.00  0.00     0.064 A 
ATOM     82  C   UNL A   1      44.003  26.409  32.342  1.00  0.00     0.173 A 
ATOM     83  C   UNL A   1      44.144  28.233  33.895  1.00  0.00     0.173 A 
ATOM     84  F   UNL A   1      44.027  25.912  31.098  1.00  0.00    -0.203 F 
ATOM     85  C   UNL A   1      43.925  25.512  33.405  1.00  0.00     0.198 A 
ATOM     86  C   UNL A   1      44.100  27.334  34.955  1.00  0.00     0.198 A 
ATOM     87  F   UNL A   1      44.271  29.542  34.162  1.00  0.00    -0.203 F 
ATOM     88  F   UNL A   1      43.819  24.196  33.169  1.00  0.00    -0.200 F 
ATOM     89  C   UNL A   1      43.978  25.976  34.711  1.00  0.00     0.200 A 
ATOM     90  F   UNL A   1      44.193  27.784  36.214  1.00  0.00    -0.200 F 
ATOM     91  F   UNL A   1      43.935  25.111  35.734  1.00  0.00    -0.200 F 
ENDBRANCH  58  81
ENDBRANCH  32  33
ENDBRANCH  25  27
ENDBRANCH  24  25
ENDBRANCH  23  24
ENDBRANCH  22  23
ENDBRANCH  21  22
ENDBRANCH  20  21
ENDBRANCH   1  20
TORSDOF 21
ENDMDL
MODEL 2
REMARK VINA RESULT:     -10.0      2.987      3.728
REMARK SMILES NC1=C(Cl)[C@H](C(=O)OCCOCCOCCOCCOC(=O)c2ccc(-c3c4nc(c(-c5c(F)c(F)c(F)c(F)c5F)c5ccc([nH]5)c(-c5c(F)c(F)c(F)c(F)c5F)c5nc(c(-c6c(F)c(F)c(F)c(F)c6F)c6ccc3[nH]6)C=C5)C=C4)cc2)N=N1
REMARK SMILES IDX 15 1 14 2 13 3 12 4 11 5 10 6 9 7 8 8 6 9 7 10 5 11 2 12
REMARK SMILES IDX 3 13 87 14 4 15 86 16 1 17 16 20 17 21 18 22 19 23 20 24
REMARK SMILES IDX 21 25 22 26 23 27 24 28 85 29 25 30 84 31 26 32 27 33 28 34
REMARK SMILES IDX 78 35 29 36 83 37 77 38 79 39 30 40 82 41 76 42 75 43 31 45
REMARK SMILES IDX 63 46 43 47 62 48 44 49 47 50 61 51 80 52 45 53 46 54 60 56
REMARK SMILES IDX 81 57 48 58 32 59 33 60 41 61 34 62 35 63 39 64 42 65 36 66
REMARK SMILES IDX 37 67 40 68 38 69 64 70 65 71 73 72 66 73 67 74 71 75 74 76
REMARK SMILES IDX 68 77 69 78 72 79 70 80 49 81 50 82 58 83 51 84 52 85 56 86
REMARK SMILES IDX 59 87 53 88 54 89 57 90 55 91
REMARK H PARENT 1 18 1 19 79 44 47 55
REMARK Flexibility Score: inf
ROOT
ATOM      1  C   UNL A   1      41.726  20.403  27.394  1.00  0.00     0.188 C 
ENDROOT
BRANCH   1   2
ATOM      2  O   UNL A   1      40.646  21.323  27.455  1.00  0.00    -0.377 OA
BRANCH   2   3
ATOM      3  C   UNL A   1      39.668  21.305  26.438  1.00  0.00     0.188 C 
BRANCH   3   4
ATOM      4  C   UNL A   1      38.859  22.586  26.193  1.00  0.00     0.188 C 
BRANCH   4   5
ATOM      5  O   UNL A   1      37.672  22.517  25.434  1.00  0.00    -0.376 OA
BRANCH   5   6
ATOM      6  C   UNL A   1      36.808  21.403  25.544  1.00  0.00     0.202 C 
BRANCH   6   7
ATOM      7  C   UNL A   1      35.598  21.144  24.623  1.00  0.00     0.261 C 
BRANCH   7   8
ATOM      8  O   UNL A   1      34.345  21.804  24.889  1.00  0.00    -0.461 OA
BRANCH   8   9
ATOM      9  C   UNL A   1      33.466  21.120  25.673  1.00  0.00     0.338 C 
ATOM     10  O   UNL A   1      33.622  20.964  26.884  1.00  0.00    -0.249 OA
BRANCH   9  11
ATOM     11  C   UNL A   1      32.298  20.461  24.925  1.00  0.00     0.283 C 
ATOM     12  C   UNL A   1      32.318  18.798  23.376  1.00  0.00     0.163 C 
ATOM     13  C   UNL A   1      32.339  20.131  23.483  1.00  0.00     0.100 C 
ATOM     14  N   UNL A   1      32.281  18.225  24.630  1.00  0.00    -0.136 NA
ATOM     15  Cl  UNL A   1      31.897  21.206  22.230  1.00  0.00    -0.082 Cl
ATOM     16  N   UNL A   1      32.187  19.105  25.532  1.00  0.00    -0.166 NA
BRANCH  12  17
ATOM     17  N   UNL A   1      32.201  18.116  22.203  1.00  0.00    -0.381 N 
ATOM     18  H   UNL A   1      32.471  18.542  21.357  1.00  0.00     0.158 HD
ATOM     19  H   UNL A   1      31.846  17.197  22.199  1.00  0.00     0.158 HD
ENDBRANCH  12  17
ENDBRANCH   9  11
ENDBRANCH   8   9
ENDBRANCH   7   8
ENDBRANCH   6   7
ENDBRANCH   5   6
ENDBRANCH   4   5
ENDBRANCH   3   4
ENDBRANCH   2   3
ENDBRANCH   1   2
BRANCH   1  20
ATOM     20  C   UNL A   1      41.959  19.508  26.153  1.00  0.00     0.188 C 
BRANCH  20  21
ATOM     21  O   UNL A   1      42.980  19.938  25.262  1.00  0.00    -0.376 OA
BRANCH  21  22
ATOM     22  C   UNL A   1      43.835  21.023  25.582  1.00  0.00     0.202 C 
BRANCH  22  23
ATOM     23  C   UNL A   1      43.661  22.316  24.785  1.00  0.00     0.261 C 
BRANCH  23  24
ATOM     24  O   UNL A   1      42.614  23.134  25.269  1.00  0.00    -0.460 OA
BRANCH  24  25
ATOM     25  C   UNL A   1      42.938  24.433  25.418  1.00  0.00     0.338 C 
ATOM     26  O   UNL A   1      43.879  25.026  24.930  1.00  0.00    -0.246 OA
BRANCH  25  27
ATOM     27  C   UNL A   1      42.025  25.013  26.403  1.00  0.00     0.060 A 
ATOM     28  C   UNL A   1      41.053  25.859  25.877  1.00  0.00     0.016 A 
ATOM     29  C   UNL A   1      42.441  25.062  27.743  1.00  0.00     0.016 A 
ATOM     30  C   UNL A   1      40.758  26.985  26.596  1.00  0.00     0.010 A 
ATOM     31  C   UNL A   1      42.162  26.196  28.451  1.00  0.00     0.010 A 
ATOM     32  C   UNL A   1      41.424  27.184  27.810  1.00  0.00    -0.014 A 
BRANCH  32  33
ATOM     33  C   UNL A   1      41.288  28.472  28.434  1.00  0.00     0.031 A 
ATOM     34  C   UNL A   1      42.411  29.350  28.093  1.00  0.00     0.074 A 
ATOM     35  C   UNL A   1      40.222  28.791  29.187  1.00  0.00     0.049 A 
ATOM     36  N   UNL A   1      43.394  29.683  28.857  1.00  0.00    -0.248 NA
ATOM     37  C   UNL A   1      42.585  29.715  26.680  1.00  0.00     0.031 C 
ATOM     38  C   UNL A   1      38.967  28.045  29.336  1.00  0.00     0.029 A 
ATOM     39  N   UNL A   1      40.004  29.916  29.920  1.00  0.00    -0.354 N 
ATOM     40  C   UNL A   1      44.187  30.510  28.075  1.00  0.00     0.074 A 
ATOM     41  C   UNL A   1      43.787  30.291  26.712  1.00  0.00     0.031 C 
ATOM     42  C   UNL A   1      38.045  28.842  29.923  1.00  0.00     0.029 A 
ATOM     43  C   UNL A   1      38.687  30.086  30.315  1.00  0.00     0.049 A 
ATOM     44  H   UNL A   1      40.719  30.553  30.149  1.00  0.00     0.167 HD
ATOM     45  C   UNL A   1      44.819  31.564  28.653  1.00  0.00     0.037 A 
ATOM     46  C   UNL A   1      38.169  31.209  30.866  1.00  0.00     0.037 A 
ATOM     47  C   UNL A   1      44.874  31.397  30.087  1.00  0.00     0.049 A 
ATOM     48  C   UNL A   1      39.293  31.971  31.463  1.00  0.00     0.074 A 
ATOM     49  C   UNL A   1      45.595  30.638  30.981  1.00  0.00     0.029 A 
ATOM     50  N   UNL A   1      43.758  31.849  30.742  1.00  0.00    -0.354 N 
ATOM     51  N   UNL A   1      39.977  31.548  32.490  1.00  0.00    -0.248 NA
ATOM     52  C   UNL A   1      39.917  33.050  30.702  1.00  0.00     0.031 C 
ATOM     53  C   UNL A   1      44.794  30.536  32.159  1.00  0.00     0.029 A 
ATOM     54  C   UNL A   1      43.613  31.248  31.962  1.00  0.00     0.049 A 
ATOM     55  H   UNL A   1      43.138  32.521  30.379  1.00  0.00     0.167 HD
ATOM     56  C   UNL A   1      41.262  31.997  32.256  1.00  0.00     0.074 A 
ATOM     57  C   UNL A   1      41.131  33.052  31.261  1.00  0.00     0.031 C 
ATOM     58  C   UNL A   1      42.336  31.249  32.637  1.00  0.00     0.037 A 
BRANCH  45  59
ATOM     59  C   UNL A   1      44.867  32.951  28.039  1.00  0.00     0.064 A 
ATOM     60  C   UNL A   1      46.119  33.444  27.620  1.00  0.00     0.173 A 
ATOM     61  C   UNL A   1      43.845  33.921  28.156  1.00  0.00     0.173 A 
ATOM     62  F   UNL A   1      47.164  32.615  27.474  1.00  0.00    -0.203 F 
ATOM     63  C   UNL A   1      46.351  34.809  27.438  1.00  0.00     0.198 A 
ATOM     64  C   UNL A   1      44.070  35.276  27.926  1.00  0.00     0.198 A 
ATOM     65  F   UNL A   1      42.618  33.636  28.601  1.00  0.00    -0.203 F 
ATOM     66  F   UNL A   1      47.591  35.243  27.170  1.00  0.00    -0.200 F 
ATOM     67  C   UNL A   1      45.330  35.725  27.605  1.00  0.00     0.200 A 
ATOM     68  F   UNL A   1      43.068  36.147  28.112  1.00  0.00    -0.200 F 
ATOM     69  F   UNL A   1      45.566  37.039  27.502  1.00  0.00    -0.200 F 
ENDBRANCH  45  59
BRANCH  46  70
ATOM     70  C   UNL A   1      36.824  31.793  30.667  1.00  0.00     0.064 A 
ATOM     71  C   UNL A   1      35.977  32.046  31.758  1.00  0.00     0.173 A 
ATOM     72  C   UNL A   1      36.459  32.380  29.439  1.00  0.00     0.173 A 
ATOM     73  F   UNL A   1      36.275  31.554  32.969  1.00  0.00    -0.203 F 
ATOM     74  C   UNL A   1      34.854  32.870  31.638  1.00  0.00     0.198 A 
ATOM     75  C   UNL A   1      35.335  33.198  29.320  1.00  0.00     0.198 A 
ATOM     76  F   UNL A   1      37.241  32.254  28.358  1.00  0.00    -0.203 F 
ATOM     77  F   UNL A   1      34.109  33.146  32.717  1.00  0.00    -0.200 F 
ATOM     78  C   UNL A   1      34.542  33.456  30.422  1.00  0.00     0.200 A 
ATOM     79  F   UNL A   1      35.065  33.787  28.146  1.00  0.00    -0.200 F 
ATOM     80  F   UNL A   1      33.507  34.302  30.322  1.00  0.00    -0.200 F 
ENDBRANCH  46  70
BRANCH  58  81
ATOM     81  C   UNL A   1      42.107  30.241  33.718  1.00  0.00     0.064 A 
ATOM     82  C   UNL A   1      41.735  28.907  33.485  1.00  0.00     0.173 A 
ATOM     83  C   UNL A   1      42.336  30.631  35.042  1.00  0.00     0.173 A 
ATOM     84  F   UNL A   1      41.574  28.446  32.237  1.00  0.00    -0.203 F 
ATOM     85  C   UNL A   1      41.560  28.016  34.542  1.00  0.00     0.198 A 
ATOM     86  C   UNL A   1      42.193  29.732  36.093  1.00  0.00     0.198 A 
ATOM     87  F   UNL A   1      42.733  31.884  35.312  1.00  0.00    -0.203 F 
ATOM     88  F   UNL A   1      41.184  26.752  34.301  1.00  0.00    -0.200 F 
ATOM     89  C   UNL A   1      41.794  28.429  35.844  1.00  0.00     0.200 A 
ATOM     90  F   UNL A   1      42.461  30.125  37.346  1.00  0.00    -0.200 F 
ATOM     91  F   UNL A   1      41.656  27.565  36.859  1.00  0.00    -0.200 F 
ENDBRANCH  58  81
ENDBRANCH  32  33
ENDBRANCH  25  27
ENDBRANCH  24  25
ENDBRANCH  23  24
ENDBRANCH  22  23
ENDBRANCH  21  22
ENDBRANCH  20  21
ENDBRANCH   1  20
TORSDOF 21
ENDMDL
MODEL 3
REMARK VINA RESULT:      -9.9      2.349      3.197
REMARK SMILES NC1=C(Cl)[C@H](C(=O)OCCOCCOCCOCCOC(=O)c2ccc(-c3c4nc(c(-c5c(F)c(F)c(F)c(F)c5F)c5ccc([nH]5)c(-c5c(F)c(F)c(F)c(F)c5F)c5nc(c(-c6c(F)c(F)c(F)c(F)c6F)c6ccc3[nH]6)C=C5)C=C4)cc2)N=N1
REMARK SMILES IDX 15 1 14 2 13 3 12 4 11 5 10 6 9 7 8 8 6 9 7 10 5 11 2 12
REMARK SMILES IDX 3 13 87 14 4 15 86 16 1 17 16 20 17 21 18 22 19 23 20 24
REMARK SMILES IDX 21 25 22 26 23 27 24 28 85 29 25 30 84 31 26 32 27 33 28 34
REMARK SMILES IDX 78 35 29 36 83 37 77 38 79 39 30 40 82 41 76 42 75 43 31 45
REMARK SMILES IDX 63 46 43 47 62 48 44 49 47 50 61 51 80 52 45 53 46 54 60 56
REMARK SMILES IDX 81 57 48 58 32 59 33 60 41 61 34 62 35 63 39 64 42 65 36 66
REMARK SMILES IDX 37 67 40 68 38 69 64 70 65 71 73 72 66 73 67 74 71 75 74 76
REMARK SMILES IDX 68 77 69 78 72 79 70 80 49 81 50 82 58 83 51 84 52 85 56 86
REMARK SMILES IDX 59 87 53 88 54 89 57 90 55 91
REMARK H PARENT 1 18 1 19 79 44 47 55
REMARK Flexibility Score: inf
ROOT
ATOM      1  C   UNL A   1      40.227  21.649  26.314  1.00  0.00     0.188 C 
ENDROOT
BRANCH   1   2
ATOM      2  O   UNL A   1      38.851  22.002  26.277  1.00  0.00    -0.377 OA
BRANCH   2   3
ATOM      3  C   UNL A   1      38.493  23.361  26.147  1.00  0.00     0.188 C 
BRANCH   3   4
ATOM      4  C   UNL A   1      37.173  23.694  25.438  1.00  0.00     0.188 C 
BRANCH   4   5
ATOM      5  O   UNL A   1      36.063  24.104  26.206  1.00  0.00    -0.376 OA
BRANCH   5   6
ATOM      6  C   UNL A   1      34.940  23.257  26.360  1.00  0.00     0.202 C 
BRANCH   6   7
ATOM      7  C   UNL A   1      33.965  22.888  25.223  1.00  0.00     0.261 C 
BRANCH   7   8
ATOM      8  O   UNL A   1      33.859  21.517  24.793  1.00  0.00    -0.461 OA
BRANCH   8   9
ATOM      9  C   UNL A   1      33.040  21.288  23.729  1.00  0.00     0.338 C 
ATOM     10  O   UNL A   1      32.947  22.055  22.771  1.00  0.00    -0.249 OA
BRANCH   9  11
ATOM     11  C   UNL A   1      32.151  20.040  23.844  1.00  0.00     0.283 C 
ATOM     12  C   UNL A   1      32.711  17.899  24.359  1.00  0.00     0.163 C 
ATOM     13  C   UNL A   1      32.537  18.714  23.314  1.00  0.00     0.100 C 
ATOM     14  N   UNL A   1      32.485  18.584  25.534  1.00  0.00    -0.136 NA
ATOM     15  Cl  UNL A   1      32.236  18.184  21.717  1.00  0.00    -0.082 Cl
ATOM     16  N   UNL A   1      32.089  19.763  25.306  1.00  0.00    -0.166 NA
BRANCH  12  17
ATOM     17  N   UNL A   1      32.933  16.558  24.268  1.00  0.00    -0.381 N 
ATOM     18  H   UNL A   1      32.468  16.027  23.582  1.00  0.00     0.158 HD
ATOM     19  H   UNL A   1      33.560  16.118  24.889  1.00  0.00     0.158 HD
ENDBRANCH  12  17
ENDBRANCH   9  11
ENDBRANCH   8   9
ENDBRANCH   7   8
ENDBRANCH   6   7
ENDBRANCH   5   6
ENDBRANCH   4   5
ENDBRANCH   3   4
ENDBRANCH   2   3
ENDBRANCH   1   2
BRANCH   1  20
ATOM     20  C   UNL A   1      40.929  21.263  27.637  1.00  0.00     0.188 C 
BRANCH  20  21
ATOM     21  O   UNL A   1      41.576  19.997  27.649  1.00  0.00    -0.376 OA
BRANCH  21  22
ATOM     22  C   UNL A   1      41.722  19.228  26.466  1.00  0.00     0.202 C 
BRANCH  22  23
ATOM     23  C   UNL A   1      43.103  19.198  25.811  1.00  0.00     0.261 C 
BRANCH  23  24
ATOM     24  O   UNL A   1      43.738  20.461  25.785  1.00  0.00    -0.460 OA
BRANCH  24  25
ATOM     25  C   UNL A   1      44.638  20.620  24.796  1.00  0.00     0.338 C 
ATOM     26  O   UNL A   1      45.185  19.754  24.142  1.00  0.00    -0.246 OA
BRANCH  25  27
ATOM     27  C   UNL A   1      44.971  22.042  24.715  1.00  0.00     0.060 A 
ATOM     28  C   UNL A   1      45.978  22.459  25.581  1.00  0.00     0.016 A 
ATOM     29  C   UNL A   1      44.017  22.915  24.171  1.00  0.00     0.016 A 
ATOM     30  C   UNL A   1      45.813  23.679  26.179  1.00  0.00     0.010 A 
ATOM     31  C   UNL A   1      43.841  24.123  24.783  1.00  0.00     0.010 A 
ATOM     32  C   UNL A   1      44.673  24.422  25.856  1.00  0.00    -0.014 A 
BRANCH  32  33
ATOM     33  C   UNL A   1      44.389  25.579  26.660  1.00  0.00     0.031 A 
ATOM     34  C   UNL A   1      45.399  26.624  26.464  1.00  0.00     0.074 A 
ATOM     35  C   UNL A   1      43.297  25.657  27.439  1.00  0.00     0.049 A 
ATOM     36  N   UNL A   1      46.340  26.955  27.281  1.00  0.00    -0.248 NA
ATOM     37  C   UNL A   1      45.522  27.211  25.122  1.00  0.00     0.031 C 
ATOM     38  C   UNL A   1      42.140  24.755  27.461  1.00  0.00     0.029 A 
ATOM     39  N   UNL A   1      42.952  26.629  28.326  1.00  0.00    -0.354 N 
ATOM     40  C   UNL A   1      47.026  27.975  26.638  1.00  0.00     0.074 A 
ATOM     41  C   UNL A   1      46.647  27.912  25.253  1.00  0.00     0.031 C 
ATOM     42  C   UNL A   1      41.134  25.343  28.147  1.00  0.00     0.029 A 
ATOM     43  C   UNL A   1      41.625  26.583  28.725  1.00  0.00     0.049 A 
ATOM     44  H   UNL A   1      43.588  27.305  28.654  1.00  0.00     0.167 HD
ATOM     45  C   UNL A   1      47.532  29.000  27.372  1.00  0.00     0.037 A 
ATOM     46  C   UNL A   1      40.981  27.545  29.428  1.00  0.00     0.037 A 
ATOM     47  C   UNL A   1      47.614  28.632  28.767  1.00  0.00     0.049 A 
ATOM     48  C   UNL A   1      42.011  28.337  30.143  1.00  0.00     0.074 A 
ATOM     49  C   UNL A   1      48.424  27.839  29.549  1.00  0.00     0.029 A 
ATOM     50  N   UNL A   1      46.455  28.848  29.467  1.00  0.00    -0.354 N 
ATOM     51  N   UNL A   1      42.745  27.851  31.106  1.00  0.00    -0.248 NA
ATOM     52  C   UNL A   1      42.500  29.582  29.556  1.00  0.00     0.031 C 
ATOM     53  C   UNL A   1      47.647  27.472  30.689  1.00  0.00     0.029 A 
ATOM     54  C   UNL A   1      46.389  28.062  30.584  1.00  0.00     0.049 A 
ATOM     55  H   UNL A   1      45.758  29.489  29.198  1.00  0.00     0.167 HD
ATOM     56  C   UNL A   1      43.967  28.478  30.955  1.00  0.00     0.074 A 
ATOM     57  C   UNL A   1      43.708  29.645  30.124  1.00  0.00     0.031 C 
ATOM     58  C   UNL A   1      45.124  27.813  31.236  1.00  0.00     0.037 A 
BRANCH  45  59
ATOM     59  C   UNL A   1      47.413  30.457  26.968  1.00  0.00     0.064 A 
ATOM     60  C   UNL A   1      48.549  31.278  27.117  1.00  0.00     0.173 A 
ATOM     61  C   UNL A   1      46.192  31.145  26.778  1.00  0.00     0.173 A 
ATOM     62  F   UNL A   1      49.762  30.737  27.303  1.00  0.00    -0.203 F 
ATOM     63  C   UNL A   1      48.450  32.670  27.178  1.00  0.00     0.198 A 
ATOM     64  C   UNL A   1      46.106  32.535  26.793  1.00  0.00     0.198 A 
ATOM     65  F   UNL A   1      45.013  30.523  26.684  1.00  0.00    -0.203 F 
ATOM     66  F   UNL A   1      49.538  33.402  27.456  1.00  0.00    -0.200 F 
ATOM     67  C   UNL A   1      47.227  33.297  27.030  1.00  0.00     0.200 A 
ATOM     68  F   UNL A   1      44.906  33.119  26.664  1.00  0.00    -0.200 F 
ATOM     69  F   UNL A   1      47.118  34.625  27.160  1.00  0.00    -0.200 F 
ENDBRANCH  45  59
BRANCH  46  70
ATOM     70  C   UNL A   1      39.576  27.989  29.300  1.00  0.00     0.064 A 
ATOM     71  C   UNL A   1      38.743  28.083  30.425  1.00  0.00     0.173 A 
ATOM     72  C   UNL A   1      39.111  28.605  28.121  1.00  0.00     0.173 A 
ATOM     73  F   UNL A   1      39.130  27.555  31.596  1.00  0.00    -0.203 F 
ATOM     74  C   UNL A   1      37.534  28.785  30.386  1.00  0.00     0.198 A 
ATOM     75  C   UNL A   1      37.903  29.301  28.081  1.00  0.00     0.198 A 
ATOM     76  F   UNL A   1      39.867  28.630  27.014  1.00  0.00    -0.203 F 
ATOM     77  F   UNL A   1      36.799  28.914  31.498  1.00  0.00    -0.200 F 
ATOM     78  C   UNL A   1      37.122  29.406  29.218  1.00  0.00     0.200 A 
ATOM     79  F   UNL A   1      37.534  29.926  26.954  1.00  0.00    -0.200 F 
ATOM     80  F   UNL A   1      36.000  30.138  29.197  1.00  0.00    -0.200 F 
ENDBRANCH  46  70
BRANCH  58  81
ATOM     81  C   UNL A   1      45.021  26.638  32.155  1.00  0.00     0.064 A 
ATOM     82  C   UNL A   1      45.035  26.729  33.556  1.00  0.00     0.173 A 
ATOM     83  C   UNL A   1      44.838  25.372  31.587  1.00  0.00     0.173 A 
ATOM     84  F   UNL A   1      45.130  27.918  34.167  1.00  0.00    -0.203 F 
ATOM     85  C   UNL A   1      44.912  25.591  34.350  1.00  0.00     0.198 A 
ATOM     86  C   UNL A   1      44.681  24.242  32.381  1.00  0.00     0.198 A 
ATOM     87  F   UNL A   1      44.776  25.239  30.252  1.00  0.00    -0.203 F 
ATOM     88  F   UNL A   1      44.948  25.696  35.687  1.00  0.00    -0.200 F 
ATOM     89  C   UNL A   1      44.730  24.349  33.761  1.00  0.00     0.200 A 
ATOM     90  F   UNL A   1      44.465  23.050  31.807  1.00  0.00    -0.200 F 
ATOM     91  F   UNL A   1      44.580  23.258  34.524  1.00  0.00    -0.200 F 
ENDBRANCH  58  81
ENDBRANCH  32  33
ENDBRANCH  25  27
ENDBRANCH  24  25
ENDBRANCH  23  24
ENDBRANCH  22  23
ENDBRANCH  21  22
ENDBRANCH  20  21
ENDBRANCH   1  20
TORSDOF 21
ENDMDL
